REMARK SMILES O=C(NCCCNC(=O)c1cccc(S(=O)(=O)Nc2ccccc2N2CCOCC2)c1)c1ccc(-c2c3nc(c(-c4ccc(S(=O)(=O)[O-])cc4)c4ccc([nH]4)c(-c4ccc(S(=O)(=O)[O-])cc4)c4nc(c(-c5ccc(S(=O)(=O)[O-])cc5)c5ccc2[nH]5)C=C4)C=C3)cc1
REMARK SMILES IDX 5 1 4 2 3 3 1 4 2 5 32 7 33 8 91 9 34 10 90 11 35 12 36 13
REMARK SMILES IDX 37 14 84 15 38 16 89 17 83 18 85 19 39 20 88 21 82 22 81 23
REMARK SMILES IDX 40 25 70 26 51 27 69 28 52 29 55 30 68 31 86 32 53 33 54 34
REMARK SMILES IDX 67 36 87 37 56 38 41 39 42 40 50 41 43 42 49 43 44 44 45 45
REMARK SMILES IDX 46 46 47 47 48 48 71 49 72 50 80 51 73 52 79 53 74 54 75 55
REMARK SMILES IDX 76 56 77 57 78 58 57 59 58 60 66 61 59 62 65 63 60 64 61 65
REMARK SMILES IDX 62 66 63 67 64 68 6 69 7 70 8 71 9 73 10 74 11 75 31 76
REMARK SMILES IDX 12 77 14 78 13 79 15 80 16 81 17 82 18 83 19 85 20 86 24 87
REMARK SMILES IDX 21 88 23 89 22 90 25 91 26 92 30 93 27 94 29 95 28 96
REMARK H PARENT 3 6 85 24 55 35 7 72 18 84
REMARK Flexibility Score: inf
ROOT
ATOM      1  C   UNL     1       5.253  -1.526  -0.458  1.00  0.00     0.042 C 
ENDROOT
BRANCH   1   2
ATOM      2  C   UNL     1       4.603  -0.322  -1.123  1.00  0.00     0.118 C 
BRANCH   2   3
ATOM      3  N   UNL     1       3.153  -0.287  -0.975  1.00  0.00    -0.352 N 
ATOM      4  O   UNL     1       1.150   0.013   0.007  1.00  0.00    -0.269 OA
ATOM      5  C   UNL     1       2.358   0.228   0.027  1.00  0.00     0.251 C 
ATOM      6  H   UNL     1       2.656  -0.701  -1.717  1.00  0.00     0.163 HD
BRANCH   5   7
ATOM      7  C   UNL     1       2.966   0.980   1.149  1.00  0.00     0.039 A 
ATOM      8  C   UNL     1       4.017   1.859   0.922  1.00  0.00     0.014 A 
ATOM      9  C   UNL     1       2.507   0.783   2.454  1.00  0.00     0.014 A 
ATOM     10  C   UNL     1       4.785   2.302   1.986  1.00  0.00     0.010 A 
ATOM     11  C   UNL     1       3.179   1.383   3.528  1.00  0.00     0.010 A 
ATOM     12  C   UNL     1       4.368   2.095   3.309  1.00  0.00    -0.014 A 
BRANCH  12  13
ATOM     13  C   UNL     1       5.191   2.669   4.411  1.00  0.00     0.031 A 
ATOM     14  C   UNL     1       5.772   1.797   5.497  1.00  0.00     0.074 A 
ATOM     15  C   UNL     1       5.487   3.986   4.378  1.00  0.00     0.049 A 
ATOM     16  N   UNL     1       6.562   2.137   6.485  1.00  0.00    -0.248 NA
ATOM     17  C   UNL     1       5.415   0.370   5.487  1.00  0.00     0.031 C 
ATOM     18  C   UNL     1       4.984   4.939   3.381  1.00  0.00     0.029 A 
ATOM     19  N   UNL     1       6.320   4.745   5.159  1.00  0.00    -0.354 N 
ATOM     20  C   UNL     1       6.756   0.983   7.237  1.00  0.00     0.074 A 
ATOM     21  C   UNL     1       5.992  -0.066   6.599  1.00  0.00     0.031 C 
ATOM     22  C   UNL     1       5.601   6.117   3.542  1.00  0.00     0.029 A 
ATOM     23  C   UNL     1       6.462   6.039   4.714  1.00  0.00     0.049 A 
ATOM     24  H   UNL     1       6.773   4.397   5.961  1.00  0.00     0.167 HD
ATOM     25  C   UNL     1       7.500   0.814   8.357  1.00  0.00     0.031 A 
ATOM     26  C   UNL     1       7.192   7.062   5.195  1.00  0.00     0.031 A 
ATOM     27  C   UNL     1       8.283   1.855   8.972  1.00  0.00     0.049 A 
ATOM     28  C   UNL     1       8.011   6.846   6.431  1.00  0.00     0.074 A 
ATOM     29  C   UNL     1       9.096   1.775  10.090  1.00  0.00     0.029 A 
ATOM     30  N   UNL     1       8.357   3.165   8.520  1.00  0.00    -0.354 N 
ATOM     31  N   UNL     1       8.178   5.744   7.122  1.00  0.00    -0.248 NA
ATOM     32  C   UNL     1       8.732   8.011   6.957  1.00  0.00     0.031 C 
ATOM     33  C   UNL     1       9.623   3.046  10.342  1.00  0.00     0.029 A 
ATOM     34  C   UNL     1       9.184   3.906   9.348  1.00  0.00     0.049 A 
ATOM     35  H   UNL     1       7.889   3.516   7.728  1.00  0.00     0.167 HD
ATOM     36  C   UNL     1       9.035   6.081   8.162  1.00  0.00     0.074 A 
ATOM     37  C   UNL     1       9.368   7.481   7.992  1.00  0.00     0.031 C 
ATOM     38  C   UNL     1       9.499   5.301   9.169  1.00  0.00     0.031 A 
BRANCH  25  39
ATOM     39  C   UNL     1       7.471  -0.540   9.021  1.00  0.00    -0.014 A 
ATOM     40  C   UNL     1       8.114  -1.655   8.455  1.00  0.00     0.010 A 
ATOM     41  C   UNL     1       6.819  -0.685  10.261  1.00  0.00     0.010 A 
ATOM     42  C   UNL     1       8.069  -2.899   9.094  1.00  0.00     0.020 A 
ATOM     43  C   UNL     1       6.794  -1.920  10.916  1.00  0.00     0.020 A 
ATOM     44  C   UNL     1       7.404  -3.024  10.318  1.00  0.00     0.054 A 
BRANCH  44  45
ATOM     45  S   UNL     1       7.371  -4.645  11.134  1.00  0.00     0.124 S 
ATOM     46  O   UNL     1       6.403  -5.373  10.317  1.00  0.00    -0.237 OA
ATOM     47  O   UNL     1       8.756  -5.093  11.015  1.00  0.00    -0.237 OA
ATOM     48  O   UNL     1       6.933  -4.340  12.494  1.00  0.00    -0.744 OA
ENDBRANCH  44  45
ENDBRANCH  25  39
BRANCH  26  49
ATOM     49  C   UNL     1       7.157   8.383   4.510  1.00  0.00    -0.014 A 
ATOM     50  C   UNL     1       8.288   8.868   3.830  1.00  0.00     0.010 A 
ATOM     51  C   UNL     1       5.975   9.147   4.503  1.00  0.00     0.010 A 
ATOM     52  C   UNL     1       8.240  10.096   3.165  1.00  0.00     0.020 A 
ATOM     53  C   UNL     1       5.913  10.358   3.812  1.00  0.00     0.020 A 
ATOM     54  C   UNL     1       7.050  10.832   3.156  1.00  0.00     0.054 A 
BRANCH  54  55
ATOM     55  S   UNL     1       6.988  12.392   2.233  1.00  0.00     0.124 S 
ATOM     56  O   UNL     1       7.714  13.296   3.119  1.00  0.00    -0.237 OA
ATOM     57  O   UNL     1       7.663  12.049   0.984  1.00  0.00    -0.237 OA
ATOM     58  O   UNL     1       5.556  12.654   2.105  1.00  0.00    -0.744 OA
ENDBRANCH  54  55
ENDBRANCH  26  49
BRANCH  38  59
ATOM     59  C   UNL     1      10.446   5.944  10.144  1.00  0.00    -0.014 A 
ATOM     60  C   UNL     1       9.994   6.880  11.090  1.00  0.00     0.010 A 
ATOM     61  C   UNL     1      11.807   5.590  10.121  1.00  0.00     0.010 A 
ATOM     62  C   UNL     1      10.896   7.485  11.969  1.00  0.00     0.020 A 
ATOM     63  C   UNL     1      12.707   6.172  11.017  1.00  0.00     0.020 A 
ATOM     64  C   UNL     1      12.248   7.130  11.922  1.00  0.00     0.054 A 
BRANCH  64  65
ATOM     65  S   UNL     1      13.398   7.913  13.085  1.00  0.00     0.124 S 
ATOM     66  O   UNL     1      13.568   9.239  12.496  1.00  0.00    -0.237 OA
ATOM     67  O   UNL     1      12.660   7.875  14.345  1.00  0.00    -0.237 OA
ATOM     68  O   UNL     1      14.578   7.053  13.035  1.00  0.00    -0.744 OA
ENDBRANCH  64  65
ENDBRANCH  38  59
ENDBRANCH  12  13
ENDBRANCH   5   7
ENDBRANCH   2   3
ENDBRANCH   1   2
BRANCH   1  69
ATOM     69  C   UNL     1       5.102  -2.793  -1.276  1.00  0.00     0.118 C 
BRANCH  69  70
ATOM     70  N   UNL     1       5.727  -2.679  -2.591  1.00  0.00    -0.352 N 
ATOM     71  C   UNL     1       6.530  -3.550  -3.275  1.00  0.00     0.251 C 
ATOM     72  H   UNL     1       5.539  -1.836  -3.064  1.00  0.00     0.163 HD
ATOM     73  O   UNL     1       7.074  -3.183  -4.315  1.00  0.00    -0.269 OA
BRANCH  71  74
ATOM     74  C   UNL     1       6.692  -4.948  -2.829  1.00  0.00     0.041 A 
ATOM     75  C   UNL     1       7.881  -5.631  -3.088  1.00  0.00     0.014 A 
ATOM     76  C   UNL     1       5.608  -5.636  -2.292  1.00  0.00     0.036 A 
ATOM     77  C   UNL     1       7.978  -6.992  -2.784  1.00  0.00     0.002 A 
ATOM     78  C   UNL     1       5.677  -6.998  -2.037  1.00  0.00     0.088 A 
ATOM     79  C   UNL     1       6.874  -7.682  -2.262  1.00  0.00     0.022 A 
BRANCH  78  80
ATOM     80  S   UNL     1       4.266  -7.786  -1.309  1.00  0.00     0.261 S 
ATOM     81  O   UNL     1       4.534  -9.207  -1.264  1.00  0.00    -0.201 OA
ATOM     82  O   UNL     1       3.951  -7.060  -0.093  1.00  0.00    -0.201 OA
BRANCH  80  83
ATOM     83  N   UNL     1       2.942  -7.620  -2.366  1.00  0.00    -0.278 N 
ATOM     84  H   UNL     1       2.474  -8.417  -2.704  1.00  0.00     0.180 HD
BRANCH  83  85
ATOM     85  C   UNL     1       2.512  -6.299  -2.763  1.00  0.00     0.072 A 
ATOM     86  C   UNL     1       1.816  -5.488  -1.859  1.00  0.00     0.029 A 
ATOM     87  C   UNL     1       2.896  -5.806  -4.040  1.00  0.00     0.061 A 
ATOM     88  C   UNL     1       1.497  -4.174  -2.207  1.00  0.00     0.002 A 
ATOM     89  C   UNL     1       2.588  -4.474  -4.347  1.00  0.00     0.028 A 
ATOM     90  C   UNL     1       1.887  -3.667  -3.445  1.00  0.00     0.002 A 
BRANCH  87  91
ATOM     91  N   UNL     1       3.575  -6.615  -4.934  1.00  0.00    -0.365 N 
ATOM     92  C   UNL     1       2.898  -7.816  -5.439  1.00  0.00     0.145 C 
ATOM     93  C   UNL     1       4.672  -6.142  -5.784  1.00  0.00     0.145 C 
ATOM     94  C   UNL     1       3.943  -8.914  -5.665  1.00  0.00     0.181 C 
ATOM     95  C   UNL     1       5.646  -7.313  -6.019  1.00  0.00     0.181 C 
ATOM     96  O   UNL     1       4.977  -8.468  -6.564  1.00  0.00    -0.378 OA
ENDBRANCH  87  91
ENDBRANCH  83  85
ENDBRANCH  80  83
ENDBRANCH  78  80
ENDBRANCH  71  74
ENDBRANCH  69  70
ENDBRANCH   1  69
TORSDOF 17
