REMARK SMILES Cc1ccc(C)c(NC(=O)/C=C/C(=O)NCCCNC(=O)c2ccc(-c3c4nc(c(-c5ccc(S(=O)(=O)[O-])cc5)c5ccc([nH]5)c(-c5ccc(S(=O)(=O)[O-])cc5)c5nc(c(-c6ccc(S(=O)(=O)[O-])cc6)c6ccc3[nH]6)C=C5)C=C4)cc2)c1
REMARK SMILES IDX 17 1 16 2 15 3 13 4 14 5 12 7 11 8 9 9 8 10 10 12 7 13 1 14
REMARK SMILES IDX 2 15 3 16 82 17 4 18 5 19 6 20 18 21 19 22 20 23 21 25 22 26
REMARK SMILES IDX 23 27 81 28 24 29 80 30 25 31 26 32 27 33 74 34 28 35 79 36
REMARK SMILES IDX 73 37 75 38 29 39 78 40 72 41 71 42 30 44 60 45 41 46 59 47
REMARK SMILES IDX 42 48 45 49 58 50 76 51 43 52 44 53 57 55 77 56 46 57 31 58
REMARK SMILES IDX 32 59 40 60 33 61 39 62 34 63 35 64 36 65 37 66 38 67 61 68
REMARK SMILES IDX 62 69 70 70 63 71 69 72 64 73 65 74 66 75 67 76 68 77 47 78
REMARK SMILES IDX 48 79 56 80 49 81 55 82 50 83 51 84 52 85 53 86 54 87
REMARK H PARENT 15 6 8 11 19 24 75 43 45 54
REMARK Flexibility Score: inf
ROOT
ATOM      1  C   UNL     1      -7.593   1.188  -0.497  1.00  0.00     0.042 C 
ENDROOT
BRANCH   1   2
ATOM      2  C   UNL     1      -7.034   0.515   0.764  1.00  0.00     0.118 C 
BRANCH   2   3
ATOM      3  N   UNL     1      -6.158  -0.592   0.442  1.00  0.00    -0.352 N 
ATOM      4  C   UNL     1      -4.952  -0.482  -0.171  1.00  0.00     0.244 C 
ATOM      5  O   UNL     1      -4.550  -1.369  -0.926  1.00  0.00    -0.270 OA
ATOM      6  H   UNL     1      -6.461  -1.496   0.687  1.00  0.00     0.163 HD
BRANCH   4   7
ATOM      7  C   UNL     1      -4.159   0.713   0.162  1.00  0.00     0.077 C 
ATOM      8  C   UNL     1      -3.180   1.134  -0.649  1.00  0.00     0.077 C 
BRANCH   8   9
ATOM      9  C   UNL     1      -2.318   2.189  -0.116  1.00  0.00     0.248 C 
ATOM     10  N   UNL     1      -0.984   1.991   0.060  1.00  0.00    -0.322 N 
ATOM     11  H   UNL     1      -0.518   2.830   0.280  1.00  0.00     0.170 HD
ATOM     12  O   UNL     1      -2.803   3.297   0.128  1.00  0.00    -0.270 OA
BRANCH  10  13
ATOM     13  C   UNL     1      -0.090   0.895   0.011  1.00  0.00     0.044 A 
ATOM     14  C   UNL     1       3.742   0.747  -0.176  1.00  0.00     0.044 C 
ATOM     15  C   UNL     1       2.303   0.335  -0.194  1.00  0.00    -0.049 A 
ATOM     16  C   UNL     1       1.985  -1.016  -0.251  1.00  0.00     0.004 A 
ATOM     17  C   UNL     1       1.265   1.275  -0.100  1.00  0.00     0.029 A 
ATOM     18  C   UNL     1       0.666  -1.413  -0.097  1.00  0.00     0.006 A 
ATOM     19  C   UNL     1      -0.365  -0.477   0.125  1.00  0.00    -0.027 A 
ATOM     20  C   UNL     1      -1.648  -1.095   0.580  1.00  0.00     0.046 C 
ENDBRANCH  10  13
ENDBRANCH   8   9
ENDBRANCH   4   7
ENDBRANCH   2   3
ENDBRANCH   1   2
BRANCH   1  21
ATOM     21  C   UNL     1      -8.589   0.356  -1.305  1.00  0.00     0.118 C 
BRANCH  21  22
ATOM     22  N   UNL     1      -9.688  -0.145  -0.480  1.00  0.00    -0.352 N 
ATOM     23  C   UNL     1     -10.277  -1.371  -0.261  1.00  0.00     0.251 C 
ATOM     24  H   UNL     1     -10.111   0.570   0.048  1.00  0.00     0.163 HD
ATOM     25  O   UNL     1     -11.323  -1.384   0.390  1.00  0.00    -0.269 OA
BRANCH  23  26
ATOM     26  C   UNL     1      -9.721  -2.646  -0.771  1.00  0.00     0.039 A 
ATOM     27  C   UNL     1     -10.447  -3.841  -0.675  1.00  0.00     0.014 A 
ATOM     28  C   UNL     1      -8.454  -2.693  -1.333  1.00  0.00     0.014 A 
ATOM     29  C   UNL     1      -9.860  -5.030  -1.115  1.00  0.00     0.010 A 
ATOM     30  C   UNL     1      -7.991  -3.787  -2.004  1.00  0.00     0.010 A 
ATOM     31  C   UNL     1      -8.621  -4.982  -1.772  1.00  0.00    -0.014 A 
BRANCH  31  32
ATOM     32  C   UNL     1      -7.991  -6.145  -2.355  1.00  0.00     0.031 A 
ATOM     33  C   UNL     1      -8.754  -6.676  -3.490  1.00  0.00     0.074 A 
ATOM     34  C   UNL     1      -6.740  -6.580  -2.112  1.00  0.00     0.049 A 
ATOM     35  N   UNL     1      -9.688  -7.558  -3.417  1.00  0.00    -0.248 NA
ATOM     36  C   UNL     1      -8.649  -5.997  -4.790  1.00  0.00     0.031 C 
ATOM     37  C   UNL     1      -5.669  -5.967  -1.322  1.00  0.00     0.029 A 
ATOM     38  N   UNL     1      -6.146  -7.690  -2.623  1.00  0.00    -0.354 N 
ATOM     39  C   UNL     1     -10.096  -7.750  -4.721  1.00  0.00     0.074 A 
ATOM     40  C   UNL     1      -9.642  -6.593  -5.454  1.00  0.00     0.031 C 
ATOM     41  C   UNL     1      -4.508  -6.630  -1.550  1.00  0.00     0.029 A 
ATOM     42  C   UNL     1      -4.786  -7.795  -2.374  1.00  0.00     0.049 A 
ATOM     43  H   UNL     1      -6.644  -8.370  -3.132  1.00  0.00     0.167 HD
ATOM     44  C   UNL     1     -10.482  -8.981  -5.151  1.00  0.00     0.031 A 
ATOM     45  C   UNL     1      -3.968  -8.771  -2.844  1.00  0.00     0.031 A 
ATOM     46  C   UNL     1     -10.573  -9.922  -4.056  1.00  0.00     0.049 A 
ATOM     47  C   UNL     1      -4.830  -9.937  -3.172  1.00  0.00     0.074 A 
ATOM     48  C   UNL     1     -11.265  -9.964  -2.861  1.00  0.00     0.029 A 
ATOM     49  N   UNL     1      -9.521 -10.803  -3.918  1.00  0.00    -0.354 N 
ATOM     50  N   UNL     1      -5.475 -10.627  -2.273  1.00  0.00    -0.248 NA
ATOM     51  C   UNL     1      -5.321 -10.088  -4.533  1.00  0.00     0.031 C 
ATOM     52  C   UNL     1     -10.350 -10.520  -1.917  1.00  0.00     0.029 A 
ATOM     53  C   UNL     1      -9.173 -10.854  -2.591  1.00  0.00     0.049 A 
ATOM     54  H   UNL     1      -9.092 -11.308  -4.646  1.00  0.00     0.167 HD
ATOM     55  C   UNL     1      -6.695 -10.930  -2.861  1.00  0.00     0.074 A 
ATOM     56  C   UNL     1      -6.494 -10.681  -4.286  1.00  0.00     0.031 C 
ATOM     57  C   UNL     1      -7.824 -11.082  -2.105  1.00  0.00     0.031 A 
BRANCH  44  58
ATOM     58  C   UNL     1     -10.354  -9.435  -6.578  1.00  0.00    -0.014 A 
ATOM     59  C   UNL     1     -10.932 -10.665  -6.942  1.00  0.00     0.010 A 
ATOM     60  C   UNL     1      -9.492  -8.824  -7.511  1.00  0.00     0.010 A 
ATOM     61  C   UNL     1     -10.621 -11.274  -8.162  1.00  0.00     0.020 A 
ATOM     62  C   UNL     1      -9.215  -9.397  -8.750  1.00  0.00     0.020 A 
ATOM     63  C   UNL     1      -9.758 -10.636  -9.054  1.00  0.00     0.054 A 
BRANCH  63  64
ATOM     64  S   UNL     1      -9.302 -11.467 -10.591  1.00  0.00     0.124 S 
ATOM     65  O   UNL     1      -8.508 -12.588 -10.099  1.00  0.00    -0.237 OA
ATOM     66  O   UNL     1     -10.605 -11.808 -11.155  1.00  0.00    -0.237 OA
ATOM     67  O   UNL     1      -8.559 -10.444 -11.325  1.00  0.00    -0.744 OA
ENDBRANCH  63  64
ENDBRANCH  44  58
BRANCH  45  68
ATOM     68  C   UNL     1      -2.549  -8.690  -3.269  1.00  0.00    -0.014 A 
ATOM     69  C   UNL     1      -1.820  -9.861  -3.554  1.00  0.00     0.010 A 
ATOM     70  C   UNL     1      -2.009  -7.460  -3.696  1.00  0.00     0.010 A 
ATOM     71  C   UNL     1      -0.642  -9.813  -4.319  1.00  0.00     0.020 A 
ATOM     72  C   UNL     1      -0.831  -7.405  -4.452  1.00  0.00     0.020 A 
ATOM     73  C   UNL     1      -0.170  -8.585  -4.788  1.00  0.00     0.054 A 
BRANCH  73  74
ATOM     74  S   UNL     1       1.224  -8.553  -5.955  1.00  0.00     0.124 S 
ATOM     75  O   UNL     1       2.354  -8.907  -5.100  1.00  0.00    -0.237 OA
ATOM     76  O   UNL     1       0.838  -9.559  -6.940  1.00  0.00    -0.237 OA
ATOM     77  O   UNL     1       1.227  -7.177  -6.449  1.00  0.00    -0.744 OA
ENDBRANCH  73  74
ENDBRANCH  45  68
BRANCH  57  78
ATOM     78  C   UNL     1      -7.662 -11.289  -0.613  1.00  0.00    -0.014 A 
ATOM     79  C   UNL     1      -7.010 -10.385   0.249  1.00  0.00     0.010 A 
ATOM     80  C   UNL     1      -8.298 -12.408  -0.044  1.00  0.00     0.010 A 
ATOM     81  C   UNL     1      -6.961 -10.619   1.633  1.00  0.00     0.020 A 
ATOM     82  C   UNL     1      -8.272 -12.635   1.334  1.00  0.00     0.020 A 
ATOM     83  C   UNL     1      -7.591 -11.747   2.166  1.00  0.00     0.054 A 
BRANCH  83  84
ATOM     84  S   UNL     1      -7.547 -12.034   3.958  1.00  0.00     0.124 S 
ATOM     85  O   UNL     1      -6.141 -12.354   4.194  1.00  0.00    -0.237 OA
ATOM     86  O   UNL     1      -8.002 -10.757   4.503  1.00  0.00    -0.237 OA
ATOM     87  O   UNL     1      -8.474 -13.147   4.155  1.00  0.00    -0.744 OA
ENDBRANCH  83  84
ENDBRANCH  57  78
ENDBRANCH  31  32
ENDBRANCH  23  26
ENDBRANCH  21  22
ENDBRANCH   1  21
TORSDOF 15
