REMARK SMILES CC[C@]1(C(=O)NCCCNC(=O)c2ccc(-c3c4nc(c(-c5ccc(S(=O)(=O)[O-])cc5)c5ccc([nH]5)c(-c5ccc(S(=O)(=O)[O-])cc5)c5nc(c(-c6ccc(S(=O)(=O)[O-])cc6)c6ccc3[nH]6)C=C5)C=C4)cc2)CC[N@@H+](Cc2nc(C)ccc2O)C1
REMARK SMILES IDX 8 1 7 2 6 3 4 4 5 5 3 7 73 8 85 9 74 10 75 11 2 13 1 14
REMARK SMILES IDX 76 15 77 16 78 17 83 18 79 19 82 20 80 21 81 22 84 23 9 25
REMARK SMILES IDX 10 26 11 27 12 29 13 30 14 31 72 32 15 33 71 34 16 35 17 36
REMARK SMILES IDX 18 37 65 38 19 39 70 40 64 41 66 42 20 43 69 44 63 45 62 46
REMARK SMILES IDX 21 48 51 49 32 50 50 51 33 52 36 53 49 54 67 55 34 56 35 57
REMARK SMILES IDX 48 59 68 60 37 61 22 62 23 63 31 64 24 65 30 66 25 67 26 68
REMARK SMILES IDX 27 69 28 70 29 71 52 72 53 73 61 74 54 75 60 76 55 77 56 78
REMARK SMILES IDX 57 79 58 80 59 81 38 82 39 83 47 84 40 85 46 86 41 87 42 88
REMARK SMILES IDX 43 89 44 90 45 91
REMARK H PARENT 6 6 75 12 84 24 10 28 66 47 36 58
REMARK Flexibility Score: inf
ROOT
ATOM      1  C   UNL     1       0.424  -5.331   4.097  1.00  0.00     0.042 C 
ENDROOT
BRANCH   1   2
ATOM      2  C   UNL     1      -0.410  -4.552   3.024  1.00  0.00     0.117 C 
BRANCH   2   3
ATOM      3  N   UNL     1      -0.199  -3.102   2.860  1.00  0.00    -0.355 N 
ATOM      4  C   UNL     1       0.157  -2.219   1.880  1.00  0.00     0.232 C 
ATOM      5  O   UNL     1      -0.091  -1.052   2.235  1.00  0.00    -0.274 OA
ATOM      6  H   UNL     1      -0.362  -2.630   3.709  1.00  0.00     0.163 HD
BRANCH   4   7
ATOM      7  C   UNL     1       0.888  -2.428   0.500  1.00  0.00     0.103 C 
ATOM      8  C   UNL     1       2.246  -1.670   0.501  1.00  0.00     0.084 C 
ATOM      9  C   UNL     1       1.338  -3.859   0.087  1.00  0.00     0.279 C 
ATOM     10  C   UNL     1       3.143  -2.434  -0.463  1.00  0.00     0.263 C 
ATOM     11  N   UNL     1       2.767  -3.832  -0.309  1.00  0.00    -0.329 N 
ATOM     12  H   UNL     1       2.850  -4.330  -1.195  1.00  0.00     0.348 HD
BRANCH   7  13
ATOM     13  C   UNL     1      -0.031  -1.802  -0.618  1.00  0.00     0.020 C 
ATOM     14  C   UNL     1      -0.096  -0.268  -0.701  1.00  0.00     0.005 C 
ENDBRANCH   7  13
BRANCH  11  15
ATOM     15  C   UNL     1       3.726  -4.652   0.501  1.00  0.00     0.323 C 
BRANCH  15  16
ATOM     16  C   UNL     1       4.342  -4.110   1.803  1.00  0.00     0.136 A 
ATOM     17  N   UNL     1       5.681  -4.176   2.008  1.00  0.00    -0.248 NA
ATOM     18  C   UNL     1       3.538  -3.608   2.808  1.00  0.00     0.142 A 
ATOM     19  C   UNL     1       6.170  -3.671   3.185  1.00  0.00     0.038 A 
ATOM     20  C   UNL     1       4.040  -2.954   3.917  1.00  0.00     0.050 A 
ATOM     21  C   UNL     1       7.592  -3.974   3.552  1.00  0.00     0.067 C 
ATOM     22  C   UNL     1       5.395  -2.979   4.111  1.00  0.00     0.027 A 
BRANCH  18  23
ATOM     23  O   UNL     1       2.217  -3.783   2.721  1.00  0.00    -0.506 OA
ATOM     24  H   UNL     1       1.850  -4.223   1.980  1.00  0.00     0.293 HD
ENDBRANCH  18  23
ENDBRANCH  15  16
ENDBRANCH  11  15
ENDBRANCH   4   7
ENDBRANCH   2   3
ENDBRANCH   1   2
BRANCH   1  25
ATOM     25  C   UNL     1       0.807  -4.641   5.433  1.00  0.00     0.118 C 
BRANCH  25  26
ATOM     26  N   UNL     1       0.638  -5.572   6.548  1.00  0.00    -0.352 N 
ATOM     27  C   UNL     1       1.503  -6.173   7.429  1.00  0.00     0.251 C 
ATOM     28  H   UNL     1      -0.301  -5.823   6.700  1.00  0.00     0.163 HD
ATOM     29  O   UNL     1       1.123  -7.236   7.927  1.00  0.00    -0.269 OA
BRANCH  27  30
ATOM     30  C   UNL     1       2.807  -5.610   7.891  1.00  0.00     0.039 A 
ATOM     31  C   UNL     1       3.757  -6.514   8.401  1.00  0.00     0.014 A 
ATOM     32  C   UNL     1       3.030  -4.243   8.077  1.00  0.00     0.014 A 
ATOM     33  C   UNL     1       4.883  -6.070   9.114  1.00  0.00     0.010 A 
ATOM     34  C   UNL     1       4.177  -3.797   8.773  1.00  0.00     0.010 A 
ATOM     35  C   UNL     1       5.100  -4.703   9.329  1.00  0.00    -0.014 A 
BRANCH  35  36
ATOM     36  C   UNL     1       6.243  -4.243  10.184  1.00  0.00     0.031 A 
ATOM     37  C   UNL     1       5.996  -3.647  11.553  1.00  0.00     0.074 A 
ATOM     38  C   UNL     1       7.517  -4.372   9.758  1.00  0.00     0.049 A 
ATOM     39  N   UNL     1       6.860  -3.196  12.432  1.00  0.00    -0.248 NA
ATOM     40  C   UNL     1       4.595  -3.537  11.985  1.00  0.00     0.031 C 
ATOM     41  C   UNL     1       7.924  -4.939   8.473  1.00  0.00     0.029 A 
ATOM     42  N   UNL     1       8.707  -4.036  10.364  1.00  0.00    -0.354 N 
ATOM     43  C   UNL     1       6.109  -2.734  13.510  1.00  0.00     0.074 A 
ATOM     44  C   UNL     1       4.718  -2.931  13.158  1.00  0.00     0.031 C 
ATOM     45  C   UNL     1       9.266  -4.927   8.393  1.00  0.00     0.029 A 
ATOM     46  C   UNL     1       9.818  -4.327   9.606  1.00  0.00     0.049 A 
ATOM     47  H   UNL     1       8.758  -3.626  11.258  1.00  0.00     0.167 HD
ATOM     48  C   UNL     1       6.528  -2.205  14.688  1.00  0.00     0.031 A 
ATOM     49  C   UNL     1      11.131  -4.136   9.850  1.00  0.00     0.031 A 
ATOM     50  C   UNL     1       7.908  -2.011  15.058  1.00  0.00     0.049 A 
ATOM     51  C   UNL     1      11.576  -3.529  11.154  1.00  0.00     0.074 A 
ATOM     52  C   UNL     1       8.420  -1.512  16.245  1.00  0.00     0.029 A 
ATOM     53  N   UNL     1       8.995  -2.307  14.252  1.00  0.00    -0.354 N 
ATOM     54  N   UNL     1      10.847  -3.128  12.167  1.00  0.00    -0.248 NA
ATOM     55  C   UNL     1      13.024  -3.362  11.351  1.00  0.00     0.031 C 
ATOM     56  C   UNL     1       9.816  -1.467  16.139  1.00  0.00     0.029 A 
ATOM     57  C   UNL     1      10.174  -1.985  14.906  1.00  0.00     0.049 A 
ATOM     58  H   UNL     1       8.938  -2.690  13.346  1.00  0.00     0.167 HD
ATOM     59  C   UNL     1      11.748  -2.687  13.132  1.00  0.00     0.074 A 
ATOM     60  C   UNL     1      13.075  -2.880  12.586  1.00  0.00     0.031 C 
ATOM     61  C   UNL     1      11.495  -2.174  14.361  1.00  0.00     0.031 A 
BRANCH  48  62
ATOM     62  C   UNL     1       5.467  -1.771  15.671  1.00  0.00    -0.014 A 
ATOM     63  C   UNL     1       4.691  -2.715  16.369  1.00  0.00     0.010 A 
ATOM     64  C   UNL     1       5.263  -0.402  15.922  1.00  0.00     0.010 A 
ATOM     65  C   UNL     1       3.693  -2.296  17.254  1.00  0.00     0.020 A 
ATOM     66  C   UNL     1       4.284   0.021  16.827  1.00  0.00     0.020 A 
ATOM     67  C   UNL     1       3.488  -0.930  17.469  1.00  0.00     0.054 A 
BRANCH  67  68
ATOM     68  S   UNL     1       2.180  -0.404  18.612  1.00  0.00     0.124 S 
ATOM     69  O   UNL     1       0.975  -0.638  17.811  1.00  0.00    -0.237 OA
ATOM     70  O   UNL     1       2.357  -1.319  19.744  1.00  0.00    -0.237 OA
ATOM     71  O   UNL     1       2.488   0.985  18.884  1.00  0.00    -0.744 OA
ENDBRANCH  67  68
ENDBRANCH  48  62
BRANCH  49  72
ATOM     72  C   UNL     1      12.136  -4.545   8.829  1.00  0.00    -0.014 A 
ATOM     73  C   UNL     1      12.947  -5.673   9.039  1.00  0.00     0.010 A 
ATOM     74  C   UNL     1      12.273  -3.816   7.634  1.00  0.00     0.010 A 
ATOM     75  C   UNL     1      13.881  -6.064   8.075  1.00  0.00     0.020 A 
ATOM     76  C   UNL     1      13.189  -4.218   6.657  1.00  0.00     0.020 A 
ATOM     77  C   UNL     1      13.992  -5.337   6.887  1.00  0.00     0.054 A 
BRANCH  77  78
ATOM     78  S   UNL     1      15.157  -5.905   5.617  1.00  0.00     0.124 S 
ATOM     79  O   UNL     1      16.440  -5.487   6.173  1.00  0.00    -0.237 OA
ATOM     80  O   UNL     1      14.917  -7.345   5.588  1.00  0.00    -0.237 OA
ATOM     81  O   UNL     1      14.729  -5.187   4.418  1.00  0.00    -0.744 OA
ENDBRANCH  77  78
ENDBRANCH  49  72
BRANCH  61  82
ATOM     82  C   UNL     1      12.677  -1.809  15.222  1.00  0.00    -0.014 A 
ATOM     83  C   UNL     1      13.456  -0.670  14.949  1.00  0.00     0.010 A 
ATOM     84  C   UNL     1      12.985  -2.594  16.348  1.00  0.00     0.010 A 
ATOM     85  C   UNL     1      14.541  -0.342  15.768  1.00  0.00     0.020 A 
ATOM     86  C   UNL     1      14.054  -2.256  17.183  1.00  0.00     0.020 A 
ATOM     87  C   UNL     1      14.835  -1.139  16.878  1.00  0.00     0.054 A 
BRANCH  87  88
ATOM     88  S   UNL     1      16.225  -0.673  17.949  1.00  0.00     0.124 S 
ATOM     89  O   UNL     1      17.375  -1.096  17.155  1.00  0.00    -0.237 OA
ATOM     90  O   UNL     1      16.055   0.771  18.088  1.00  0.00    -0.237 OA
ATOM     91  O   UNL     1      15.993  -1.441  19.170  1.00  0.00    -0.744 OA
ENDBRANCH  87  88
ENDBRANCH  61  82
ENDBRANCH  35  36
ENDBRANCH  27  30
ENDBRANCH  25  26
ENDBRANCH   1  25
TORSDOF 17
