REMARK SMILES Cc1ccc(S(=O)(=O)N(CC(=O)NCCCNC(=O)c2ccc(-c3c4nc(c(-c5ccc(S(=O)(=O)[O-])cc5)c5ccc([nH]5)c(-c5ccc(S(=O)(=O)[O-])cc5)c5nc(c(-c6ccc(S(=O)(=O)[O-])cc6)c6ccc3[nH]6)C=C5)C=C4)cc2)c2cc(Cl)cc(Cl)c2)cc1
REMARK SMILES IDX 15 1 14 2 13 3 11 4 12 5 10 7 9 8 6 9 7 10 8 11 5 12 1 13
REMARK SMILES IDX 2 14 3 15 89 16 4 17 88 18 80 19 81 20 87 21 82 22 85 23
REMARK SMILES IDX 83 24 84 25 86 26 16 27 17 28 18 29 19 31 20 32 21 33 79 34
REMARK SMILES IDX 22 35 78 36 23 37 24 38 25 39 72 40 26 41 77 42 71 43 73 44
REMARK SMILES IDX 27 45 76 46 70 47 69 48 28 50 58 51 39 52 57 53 40 54 43 55
REMARK SMILES IDX 56 56 74 57 41 58 42 59 55 61 75 62 44 63 29 64 30 65 38 66
REMARK SMILES IDX 31 67 37 68 32 69 33 70 34 71 35 72 36 73 59 74 60 75 68 76
REMARK SMILES IDX 61 77 67 78 62 79 63 80 64 81 65 82 66 83 45 84 46 85 54 86
REMARK SMILES IDX 47 87 53 88 48 89 49 90 50 91 51 92 52 93
REMARK H PARENT 13 6 17 30 73 49 43 60
REMARK Flexibility Score: inf
ROOT
ATOM      1  C   UNL     1      -3.280   0.773  -3.130  1.00  0.00     0.042 C 
ENDROOT
BRANCH   1   2
ATOM      2  C   UNL     1      -2.277   1.860  -2.764  1.00  0.00     0.117 C 
BRANCH   2   3
ATOM      3  N   UNL     1      -2.862   3.173  -2.542  1.00  0.00    -0.354 N 
ATOM      4  C   UNL     1      -3.317   3.764  -1.402  1.00  0.00     0.240 C 
ATOM      5  O   UNL     1      -3.521   4.983  -1.431  1.00  0.00    -0.273 OA
ATOM      6  H   UNL     1      -2.943   3.728  -3.352  1.00  0.00     0.163 HD
BRANCH   4   7
ATOM      7  C   UNL     1      -3.532   3.010  -0.099  1.00  0.00     0.235 C 
BRANCH   7   8
ATOM      8  N   UNL     1      -4.146   1.647  -0.174  1.00  0.00    -0.257 N 
BRANCH   8   9
ATOM      9  S   UNL     1      -3.415   0.468   0.865  1.00  0.00     0.264 S 
ATOM     10  O   UNL     1      -4.072  -0.801   0.608  1.00  0.00    -0.201 OA
ATOM     11  O   UNL     1      -3.408   1.019   2.207  1.00  0.00    -0.201 OA
BRANCH   9  12
ATOM     12  C   UNL     1      -1.697   0.237   0.414  1.00  0.00     0.088 A 
ATOM     13  C   UNL     1       2.509  -0.529  -0.210  1.00  0.00     0.044 C 
ATOM     14  C   UNL     1       1.044  -0.255  -0.033  1.00  0.00    -0.051 A 
ATOM     15  C   UNL     1       0.100  -1.272  -0.219  1.00  0.00     0.005 A 
ATOM     16  C   UNL     1       0.609   0.999   0.400  1.00  0.00     0.005 A 
ATOM     17  C   UNL     1      -1.265  -1.026  -0.014  1.00  0.00     0.022 A 
ATOM     18  C   UNL     1      -0.743   1.228   0.668  1.00  0.00     0.022 A 
ENDBRANCH   9  12
ENDBRANCH   8   9
BRANCH   8  19
ATOM     19  C   UNL     1      -5.630   1.724  -0.125  1.00  0.00     0.055 A 
ATOM     20  C   UNL     1      -6.291   2.535  -1.063  1.00  0.00     0.047 A 
ATOM     21  C   UNL     1      -6.410   1.133   0.880  1.00  0.00     0.047 A 
ATOM     22  C   UNL     1      -7.662   2.792  -0.959  1.00  0.00     0.044 A 
ATOM     23  C   UNL     1      -7.789   1.365   0.951  1.00  0.00     0.044 A 
ATOM     24  Cl  UNL     1      -8.414   3.877  -2.063  1.00  0.00    -0.084 Cl
ATOM     25  C   UNL     1      -8.419   2.210   0.048  1.00  0.00     0.041 A 
ATOM     26  Cl  UNL     1      -8.716   0.620   2.198  1.00  0.00    -0.084 Cl
ENDBRANCH   8  19
ENDBRANCH   7   8
ENDBRANCH   4   7
ENDBRANCH   2   3
ENDBRANCH   1   2
BRANCH   1  27
ATOM     27  C   UNL     1      -3.656   0.775  -4.606  1.00  0.00     0.118 C 
BRANCH  27  28
ATOM     28  N   UNL     1      -3.296  -0.472  -5.278  1.00  0.00    -0.352 N 
ATOM     29  C   UNL     1      -3.739  -0.932  -6.509  1.00  0.00     0.251 C 
ATOM     30  H   UNL     1      -2.663  -1.055  -4.800  1.00  0.00     0.163 HD
ATOM     31  O   UNL     1      -3.462  -2.029  -6.946  1.00  0.00    -0.269 OA
BRANCH  29  32
ATOM     32  C   UNL     1      -4.514   0.033  -7.313  1.00  0.00     0.039 A 
ATOM     33  C   UNL     1      -3.832   0.696  -8.338  1.00  0.00     0.014 A 
ATOM     34  C   UNL     1      -5.724   0.503  -6.812  1.00  0.00     0.014 A 
ATOM     35  C   UNL     1      -4.267   1.955  -8.732  1.00  0.00     0.010 A 
ATOM     36  C   UNL     1      -6.102   1.790  -7.142  1.00  0.00     0.010 A 
ATOM     37  C   UNL     1      -5.338   2.534  -8.055  1.00  0.00    -0.014 A 
BRANCH  37  38
ATOM     38  C   UNL     1      -5.704   3.938  -8.190  1.00  0.00     0.031 A 
ATOM     39  C   UNL     1      -6.891   4.300  -8.992  1.00  0.00     0.074 A 
ATOM     40  C   UNL     1      -5.004   4.901  -7.548  1.00  0.00     0.049 A 
ATOM     41  N   UNL     1      -7.113   5.472  -9.487  1.00  0.00    -0.248 NA
ATOM     42  C   UNL     1      -7.894   3.313  -9.385  1.00  0.00     0.031 C 
ATOM     43  C   UNL     1      -5.417   6.288  -7.341  1.00  0.00     0.029 A 
ATOM     44  N   UNL     1      -3.660   4.889  -7.163  1.00  0.00    -0.354 N 
ATOM     45  C   UNL     1      -8.411   5.479  -9.944  1.00  0.00     0.074 A 
ATOM     46  C   UNL     1      -8.789   4.089 -10.000  1.00  0.00     0.031 C 
ATOM     47  C   UNL     1      -4.319   7.041  -7.177  1.00  0.00     0.029 A 
ATOM     48  C   UNL     1      -3.175   6.182  -7.430  1.00  0.00     0.049 A 
ATOM     49  H   UNL     1      -3.157   4.133  -6.783  1.00  0.00     0.167 HD
ATOM     50  C   UNL     1      -9.071   6.666 -10.055  1.00  0.00     0.031 A 
ATOM     51  C   UNL     1      -2.173   6.458  -8.313  1.00  0.00     0.031 A 
ATOM     52  C   UNL     1      -8.155   7.804  -9.936  1.00  0.00     0.049 A 
ATOM     53  C   UNL     1      -2.571   7.449  -9.388  1.00  0.00     0.074 A 
ATOM     54  C   UNL     1      -7.923   8.751  -8.952  1.00  0.00     0.029 A 
ATOM     55  N   UNL     1      -7.105   7.921 -10.844  1.00  0.00    -0.354 N 
ATOM     56  N   UNL     1      -3.801   7.787  -9.661  1.00  0.00    -0.248 NA
ATOM     57  C   UNL     1      -1.611   8.099 -10.272  1.00  0.00     0.031 C 
ATOM     58  C   UNL     1      -6.687   9.395  -9.243  1.00  0.00     0.029 A 
ATOM     59  C   UNL     1      -6.186   8.861 -10.418  1.00  0.00     0.049 A 
ATOM     60  H   UNL     1      -7.028   7.404 -11.677  1.00  0.00     0.167 HD
ATOM     61  C   UNL     1      -3.824   8.663 -10.719  1.00  0.00     0.074 A 
ATOM     62  C   UNL     1      -2.420   8.838 -11.052  1.00  0.00     0.031 C 
ATOM     63  C   UNL     1      -5.000   9.146 -11.226  1.00  0.00     0.031 A 
BRANCH  50  64
ATOM     64  C   UNL     1     -10.587   6.794  -9.997  1.00  0.00    -0.014 A 
ATOM     65  C   UNL     1     -11.178   8.052  -9.750  1.00  0.00     0.010 A 
ATOM     66  C   UNL     1     -11.485   5.710 -10.062  1.00  0.00     0.010 A 
ATOM     67  C   UNL     1     -12.559   8.200  -9.512  1.00  0.00     0.020 A 
ATOM     68  C   UNL     1     -12.861   5.838  -9.826  1.00  0.00     0.020 A 
ATOM     69  C   UNL     1     -13.391   7.083  -9.532  1.00  0.00     0.054 A 
BRANCH  69  70
ATOM     70  S   UNL     1     -15.154   7.257  -9.156  1.00  0.00     0.124 S 
ATOM     71  O   UNL     1     -15.133   7.757  -7.784  1.00  0.00    -0.237 OA
ATOM     72  O   UNL     1     -15.601   8.208 -10.169  1.00  0.00    -0.237 OA
ATOM     73  O   UNL     1     -15.678   5.900  -9.309  1.00  0.00    -0.744 OA
ENDBRANCH  69  70
ENDBRANCH  50  64
BRANCH  51  74
ATOM     74  C   UNL     1      -1.182   5.363  -8.492  1.00  0.00    -0.014 A 
ATOM     75  C   UNL     1      -0.332   5.072  -7.404  1.00  0.00     0.010 A 
ATOM     76  C   UNL     1      -1.361   4.394  -9.494  1.00  0.00     0.010 A 
ATOM     77  C   UNL     1       0.184   3.787  -7.231  1.00  0.00     0.020 A 
ATOM     78  C   UNL     1      -0.838   3.103  -9.325  1.00  0.00     0.020 A 
ATOM     79  C   UNL     1      -0.127   2.795  -8.161  1.00  0.00     0.054 A 
BRANCH  79  80
ATOM     80  S   UNL     1       0.219   1.069  -7.702  1.00  0.00     0.124 S 
ATOM     81  O   UNL     1       1.675   1.056  -7.611  1.00  0.00    -0.237 OA
ATOM     82  O   UNL     1      -0.492   0.953  -6.427  1.00  0.00    -0.237 OA
ATOM     83  O   UNL     1      -0.353   0.307  -8.806  1.00  0.00    -0.744 OA
ENDBRANCH  79  80
ENDBRANCH  51  74
BRANCH  63  84
ATOM     84  C   UNL     1      -5.192   9.971 -12.492  1.00  0.00    -0.014 A 
ATOM     85  C   UNL     1      -4.201  10.242 -13.446  1.00  0.00     0.010 A 
ATOM     86  C   UNL     1      -6.494  10.452 -12.796  1.00  0.00     0.010 A 
ATOM     87  C   UNL     1      -4.476  10.981 -14.610  1.00  0.00     0.020 A 
ATOM     88  C   UNL     1      -6.791  11.153 -13.970  1.00  0.00     0.020 A 
ATOM     89  C   UNL     1      -5.769  11.432 -14.866  1.00  0.00     0.054 A 
BRANCH  89  90
ATOM     90  S   UNL     1      -6.113  12.326 -16.402  1.00  0.00     0.124 S 
ATOM     91  O   UNL     1      -5.637  13.669 -16.083  1.00  0.00    -0.237 OA
ATOM     92  O   UNL     1      -5.314  11.595 -17.384  1.00  0.00    -0.237 OA
ATOM     93  O   UNL     1      -7.558  12.194 -16.564  1.00  0.00    -0.744 OA
ENDBRANCH  89  90
ENDBRANCH  63  84
ENDBRANCH  37  38
ENDBRANCH  29  32
ENDBRANCH  27  28
ENDBRANCH   1  27
TORSDOF 17
