REMARK SMILES O=C(NCCCNC(=O)[C@H](c1c[nH]c2cc(F)ccc12)[NH+]1CC[NH+](CC(=O)N2CCOCC2)CC1)c1ccc(-c2c3nc(c(-c4ccc(S(=O)(=O)[O-])cc4)c4ccc([nH]4)c(-c4ccc(S(=O)(=O)[O-])cc4)c4nc(c(-c5ccc(S(=O)(=O)[O-])cc5)c5ccc2[nH]5)C=C4)C=C3)cc1
REMARK SMILES IDX 5 1 4 2 3 3 1 4 2 5 36 7 37 8 95 9 38 10 94 11 39 12 40 13
REMARK SMILES IDX 41 14 88 15 42 16 93 17 87 18 89 19 43 20 92 21 86 22 85 23
REMARK SMILES IDX 44 25 74 26 55 27 73 28 56 29 59 30 72 31 90 32 57 33 58 34
REMARK SMILES IDX 71 36 91 37 60 38 45 39 46 40 54 41 47 42 53 43 48 44 49 45
REMARK SMILES IDX 50 46 51 47 52 48 75 49 76 50 84 51 77 52 83 53 78 54 79 55
REMARK SMILES IDX 80 56 81 57 82 58 61 59 62 60 70 61 63 62 69 63 64 64 65 65
REMARK SMILES IDX 66 66 67 67 68 68 6 69 7 70 8 71 9 73 10 74 21 75 22 76
REMARK SMILES IDX 35 77 23 79 34 80 24 81 25 83 26 84 27 85 28 86 29 87 33 88
REMARK SMILES IDX 30 89 32 90 31 91 11 92 12 93 20 94 13 95 14 96 19 97 15 99
REMARK SMILES IDX 18 100 16 101 17 102
REMARK H PARENT 3 6 89 24 59 35 7 72 21 78 24 82 13 98
REMARK Flexibility Score: inf
ROOT
ATOM      1  C   UNL     1       4.536   3.862  -0.068  1.00  0.00     0.042 C 
ENDROOT
BRANCH   1   2
ATOM      2  C   UNL     1       4.729   3.978  -1.562  1.00  0.00     0.118 C 
BRANCH   2   3
ATOM      3  N   UNL     1       4.765   2.655  -2.185  1.00  0.00    -0.352 N 
ATOM      4  O   UNL     1       3.850   0.904  -3.271  1.00  0.00    -0.269 OA
ATOM      5  C   UNL     1       3.892   2.120  -3.090  1.00  0.00     0.251 C 
ATOM      6  H   UNL     1       5.515   2.076  -1.919  1.00  0.00     0.163 HD
BRANCH   5   7
ATOM      7  C   UNL     1       3.036   3.037  -3.853  1.00  0.00     0.039 A 
ATOM      8  C   UNL     1       3.575   4.253  -4.287  1.00  0.00     0.014 A 
ATOM      9  C   UNL     1       1.721   2.685  -4.152  1.00  0.00     0.014 A 
ATOM     10  C   UNL     1       2.766   5.178  -4.910  1.00  0.00     0.010 A 
ATOM     11  C   UNL     1       0.945   3.563  -4.903  1.00  0.00     0.010 A 
ATOM     12  C   UNL     1       1.472   4.805  -5.292  1.00  0.00    -0.014 A 
BRANCH  12  13
ATOM     13  C   UNL     1       0.774   5.660  -6.269  1.00  0.00     0.031 A 
ATOM     14  C   UNL     1      -0.503   6.349  -5.918  1.00  0.00     0.074 A 
ATOM     15  C   UNL     1       1.342   5.783  -7.486  1.00  0.00     0.049 A 
ATOM     16  N   UNL     1      -1.256   7.093  -6.682  1.00  0.00    -0.248 NA
ATOM     17  C   UNL     1      -1.012   6.179  -4.546  1.00  0.00     0.031 C 
ATOM     18  C   UNL     1       2.593   5.133  -7.905  1.00  0.00     0.029 A 
ATOM     19  N   UNL     1       0.962   6.495  -8.589  1.00  0.00    -0.354 N 
ATOM     20  C   UNL     1      -2.345   7.452  -5.901  1.00  0.00     0.074 A 
ATOM     21  C   UNL     1      -2.158   6.847  -4.601  1.00  0.00     0.031 C 
ATOM     22  C   UNL     1       2.893   5.508  -9.154  1.00  0.00     0.029 A 
ATOM     23  C   UNL     1       1.813   6.338  -9.658  1.00  0.00     0.049 A 
ATOM     24  H   UNL     1       0.159   7.063  -8.616  1.00  0.00     0.167 HD
ATOM     25  C   UNL     1      -3.405   8.212  -6.260  1.00  0.00     0.031 A 
ATOM     26  C   UNL     1       1.707   6.769 -10.927  1.00  0.00     0.031 A 
ATOM     27  C   UNL     1      -3.553   8.803  -7.565  1.00  0.00     0.049 A 
ATOM     28  C   UNL     1       0.496   7.571 -11.296  1.00  0.00     0.074 A 
ATOM     29  C   UNL     1      -4.556   9.642  -8.015  1.00  0.00     0.029 A 
ATOM     30  N   UNL     1      -2.687   8.604  -8.631  1.00  0.00    -0.354 N 
ATOM     31  N   UNL     1      -0.490   7.965 -10.525  1.00  0.00    -0.248 NA
ATOM     32  C   UNL     1       0.372   7.976 -12.700  1.00  0.00     0.031 C 
ATOM     33  C   UNL     1      -4.338   9.888  -9.373  1.00  0.00     0.029 A 
ATOM     34  C   UNL     1      -3.162   9.261  -9.753  1.00  0.00     0.049 A 
ATOM     35  H   UNL     1      -1.858   8.074  -8.595  1.00  0.00     0.167 HD
ATOM     36  C   UNL     1      -1.351   8.671 -11.352  1.00  0.00     0.074 A 
ATOM     37  C   UNL     1      -0.750   8.680 -12.671  1.00  0.00     0.031 C 
ATOM     38  C   UNL     1      -2.540   9.249 -11.053  1.00  0.00     0.031 A 
BRANCH  25  39
ATOM     39  C   UNL     1      -4.510   8.419  -5.262  1.00  0.00    -0.014 A 
ATOM     40  C   UNL     1      -4.352   9.270  -4.155  1.00  0.00     0.010 A 
ATOM     41  C   UNL     1      -5.767   7.832  -5.501  1.00  0.00     0.010 A 
ATOM     42  C   UNL     1      -5.432   9.529  -3.305  1.00  0.00     0.020 A 
ATOM     43  C   UNL     1      -6.854   8.106  -4.668  1.00  0.00     0.020 A 
ATOM     44  C   UNL     1      -6.678   8.953  -3.572  1.00  0.00     0.054 A 
BRANCH  44  45
ATOM     45  S   UNL     1      -8.079   9.374  -2.500  1.00  0.00     0.124 S 
ATOM     46  O   UNL     1      -7.722   8.696  -1.256  1.00  0.00    -0.237 OA
ATOM     47  O   UNL     1      -8.019  10.833  -2.458  1.00  0.00    -0.237 OA
ATOM     48  O   UNL     1      -9.235   8.820  -3.201  1.00  0.00    -0.744 OA
ENDBRANCH  44  45
ENDBRANCH  25  39
BRANCH  26  49
ATOM     49  C   UNL     1       2.725   6.377 -11.938  1.00  0.00    -0.014 A 
ATOM     50  C   UNL     1       3.541   7.339 -12.553  1.00  0.00     0.010 A 
ATOM     51  C   UNL     1       2.878   5.022 -12.293  1.00  0.00     0.010 A 
ATOM     52  C   UNL     1       4.463   6.960 -13.534  1.00  0.00     0.020 A 
ATOM     53  C   UNL     1       3.824   4.634 -13.243  1.00  0.00     0.020 A 
ATOM     54  C   UNL     1       4.594   5.610 -13.875  1.00  0.00     0.054 A 
BRANCH  54  55
ATOM     55  S   UNL     1       5.794   5.142 -15.151  1.00  0.00     0.124 S 
ATOM     56  O   UNL     1       5.141   5.617 -16.367  1.00  0.00    -0.237 OA
ATOM     57  O   UNL     1       6.989   5.876 -14.745  1.00  0.00    -0.237 OA
ATOM     58  O   UNL     1       5.888   3.690 -15.016  1.00  0.00    -0.744 OA
ENDBRANCH  54  55
ENDBRANCH  26  49
BRANCH  38  59
ATOM     59  C   UNL     1      -3.257   9.945 -12.173  1.00  0.00    -0.014 A 
ATOM     60  C   UNL     1      -3.878   9.210 -13.198  1.00  0.00     0.010 A 
ATOM     61  C   UNL     1      -3.368  11.347 -12.162  1.00  0.00     0.010 A 
ATOM     62  C   UNL     1      -4.583   9.868 -14.205  1.00  0.00     0.020 A 
ATOM     63  C   UNL     1      -4.101  12.006 -13.150  1.00  0.00     0.020 A 
ATOM     64  C   UNL     1      -4.697  11.262 -14.171  1.00  0.00     0.054 A 
BRANCH  64  65
ATOM     65  S   UNL     1      -5.681  12.083 -15.451  1.00  0.00     0.124 S 
ATOM     66  O   UNL     1      -4.835  11.930 -16.631  1.00  0.00    -0.237 OA
ATOM     67  O   UNL     1      -6.915  11.300 -15.455  1.00  0.00    -0.237 OA
ATOM     68  O   UNL     1      -5.820  13.452 -14.958  1.00  0.00    -0.744 OA
ENDBRANCH  64  65
ENDBRANCH  38  59
ENDBRANCH  12  13
ENDBRANCH   5   7
ENDBRANCH   2   3
ENDBRANCH   1   2
BRANCH   1  69
ATOM     69  C   UNL     1       5.686   3.110   0.564  1.00  0.00     0.118 C 
BRANCH  69  70
ATOM     70  N   UNL     1       6.835   3.940   0.761  1.00  0.00    -0.351 N 
ATOM     71  C   UNL     1       7.367   4.390   1.923  1.00  0.00     0.283 C 
ATOM     72  H   UNL     1       7.301   4.222  -0.059  1.00  0.00     0.163 HD
ATOM     73  O   UNL     1       8.375   5.104   1.797  1.00  0.00    -0.268 OA
BRANCH  71  74
ATOM     74  C   UNL     1       6.792   4.094   3.326  1.00  0.00     0.308 C 
BRANCH  74  75
ATOM     75  N   UNL     1       5.558   4.845   3.650  1.00  0.00    -0.312 N 
ATOM     76  C   UNL     1       4.229   4.250   3.473  1.00  0.00     0.325 C 
ATOM     77  C   UNL     1       5.648   5.557   4.931  1.00  0.00     0.325 C 
ATOM     78  H   UNL     1       5.574   5.483   2.854  1.00  0.00     0.349 HD
ATOM     79  C   UNL     1       3.598   3.555   4.702  1.00  0.00     0.325 C 
ATOM     80  C   UNL     1       4.945   4.925   6.151  1.00  0.00     0.325 C 
ATOM     81  N   UNL     1       3.620   4.359   5.921  1.00  0.00    -0.318 N 
ATOM     82  H   UNL     1       3.464   3.719   6.700  1.00  0.00     0.348 HD
BRANCH  81  83
ATOM     83  C   UNL     1       2.461   5.239   6.141  1.00  0.00     0.364 C 
BRANCH  83  84
ATOM     84  C   UNL     1       1.900   5.997   4.928  1.00  0.00     0.277 C 
ATOM     85  O   UNL     1       1.157   5.407   4.135  1.00  0.00    -0.268 OA
ATOM     86  N   UNL     1       2.170   7.349   4.783  1.00  0.00    -0.333 N 
ATOM     87  C   UNL     1       3.324   8.049   5.336  1.00  0.00     0.148 C 
ATOM     88  C   UNL     1       1.491   8.096   3.719  1.00  0.00     0.148 C 
ATOM     89  C   UNL     1       3.037   9.507   5.677  1.00  0.00     0.181 C 
ATOM     90  C   UNL     1       1.253   9.553   4.137  1.00  0.00     0.181 C 
ATOM     91  O   UNL     1       2.473  10.189   4.551  1.00  0.00    -0.378 OA
ENDBRANCH  83  84
ENDBRANCH  81  83
ENDBRANCH  74  75
BRANCH  74  92
ATOM     92  C   UNL     1       6.877   2.699   3.894  1.00  0.00     0.044 A 
ATOM     93  C   UNL     1       6.319   1.501   3.478  1.00  0.00     0.094 A 
ATOM     94  C   UNL     1       7.579   2.389   5.117  1.00  0.00     0.009 A 
ATOM     95  N   UNL     1       6.569   0.537   4.418  1.00  0.00    -0.361 N 
ATOM     96  C   UNL     1       7.316   1.059   5.439  1.00  0.00     0.049 A 
ATOM     97  C   UNL     1       8.376   3.150   6.003  1.00  0.00     0.014 A 
ATOM     98  H   UNL     1       6.258  -0.395   4.366  1.00  0.00     0.166 HD
ATOM     99  C   UNL     1       7.765   0.463   6.620  1.00  0.00     0.065 A 
ATOM    100  C   UNL     1       8.840   2.570   7.185  1.00  0.00     0.040 A 
ATOM    101  C   UNL     1       8.523   1.252   7.481  1.00  0.00     0.125 A 
ATOM    102  F   UNL     1       8.959   0.723   8.632  1.00  0.00    -0.207 F 
ENDBRANCH  74  92
ENDBRANCH  71  74
ENDBRANCH  69  70
ENDBRANCH   1  69
TORSDOF 17
