REMARK SMILES C[C@H]1CCC[C@H](C)N1C(=O)C[N@@H+](CC(=O)NCCCNC(=O)c1ccc(-c2c3nc(c(-c4ccc(S(=O)(=O)[O-])cc4)c4ccc([nH]4)c(-c4ccc(S(=O)(=O)[O-])cc4)c4nc(c(-c5ccc(S(=O)(=O)[O-])cc5)c5ccc2[nH]5)C=C4)C=C3)cc1)C(C)(C)C
REMARK SMILES IDX 18 1 17 2 16 3 14 4 15 5 13 7 12 8 11 10 9 11 1 12 2 13 3 14
REMARK SMILES IDX 8 15 4 16 6 17 5 18 7 19 10 20 83 21 84 22 85 23 86 24 19 25
REMARK SMILES IDX 20 26 21 27 22 29 23 30 24 31 82 32 25 33 81 34 26 35 27 36
REMARK SMILES IDX 28 37 75 38 29 39 80 40 74 41 76 42 30 43 79 44 73 45 72 46
REMARK SMILES IDX 31 48 61 49 42 50 60 51 43 52 46 53 59 54 77 55 44 56 45 57
REMARK SMILES IDX 58 59 78 60 47 61 32 62 33 63 41 64 34 65 40 66 35 67 36 68
REMARK SMILES IDX 37 69 38 70 39 71 62 72 63 73 71 74 64 75 70 76 65 77 66 78
REMARK SMILES IDX 67 79 68 80 69 81 48 82 49 83 57 84 50 85 56 86 51 87 52 88
REMARK SMILES IDX 53 89 54 90 55 91
REMARK H PARENT 16 6 12 9 20 28 76 47 46 58
REMARK Flexibility Score: inf
ROOT
ATOM      1  C   UNL     1       4.626   2.882   4.667  1.00  0.00     0.042 C 
ENDROOT
BRANCH   1   2
ATOM      2  C   UNL     1       3.762   1.946   5.518  1.00  0.00     0.118 C 
BRANCH   2   3
ATOM      3  N   UNL     1       2.711   2.610   6.275  1.00  0.00    -0.351 N 
ATOM      4  C   UNL     1       1.353   2.473   6.268  1.00  0.00     0.275 C 
ATOM      5  O   UNL     1       0.757   2.886   7.270  1.00  0.00    -0.269 OA
ATOM      6  H   UNL     1       3.041   3.285   6.912  1.00  0.00     0.163 HD
BRANCH   4   7
ATOM      7  C   UNL     1       0.581   1.801   5.126  1.00  0.00     0.364 C 
BRANCH   7   8
ATOM      8  N   UNL     1       0.298   2.626   3.906  1.00  0.00    -0.315 N 
ATOM      9  H   UNL     1      -0.366   2.119   3.321  1.00  0.00     0.349 HD
BRANCH   8  10
ATOM     10  C   UNL     1       1.548   2.772   3.142  1.00  0.00     0.364 C 
BRANCH  10  11
ATOM     11  C   UNL     1       1.491   3.122   1.664  1.00  0.00     0.278 C 
ATOM     12  C   UNL     1       0.483   0.078   2.026  1.00  0.00     0.031 C 
ATOM     13  C   UNL     1       0.356   0.938   0.778  1.00  0.00     0.082 C 
ATOM     14  C   UNL     1      -1.117   1.139   0.390  1.00  0.00     0.025 C 
ATOM     15  N   UNL     1       1.070   2.235   0.676  1.00  0.00    -0.332 N 
ATOM     16  C   UNL     1      -1.237   1.749  -1.010  1.00  0.00     0.004 C 
ATOM     17  C   UNL     1       1.081   2.783  -0.705  1.00  0.00     0.082 C 
ATOM     18  C   UNL     1      -0.367   2.996  -1.173  1.00  0.00     0.025 C 
ATOM     19  C   UNL     1       1.913   1.938  -1.675  1.00  0.00     0.031 C 
ATOM     20  O   UNL     1       1.978   4.222   1.359  1.00  0.00    -0.268 OA
ENDBRANCH  10  11
ENDBRANCH   8  10
BRANCH   8  21
ATOM     21  C   UNL     1      -0.533   3.857   4.104  1.00  0.00     0.090 C 
ATOM     22  C   UNL     1       0.096   4.963   4.982  1.00  0.00     0.078 C 
ATOM     23  C   UNL     1      -0.892   4.536   2.758  1.00  0.00     0.078 C 
ATOM     24  C   UNL     1      -1.893   3.456   4.729  1.00  0.00     0.078 C 
ENDBRANCH   8  21
ENDBRANCH   7   8
ENDBRANCH   4   7
ENDBRANCH   2   3
ENDBRANCH   1   2
BRANCH   1  25
ATOM     25  C   UNL     1       5.298   4.016   5.436  1.00  0.00     0.118 C 
BRANCH  25  26
ATOM     26  N   UNL     1       6.676   3.693   5.764  1.00  0.00    -0.352 N 
ATOM     27  C   UNL     1       7.844   4.132   5.185  1.00  0.00     0.251 C 
ATOM     28  H   UNL     1       6.791   3.066   6.515  1.00  0.00     0.163 HD
ATOM     29  O   UNL     1       8.887   3.527   5.421  1.00  0.00    -0.269 OA
BRANCH  27  30
ATOM     30  C   UNL     1       7.864   5.309   4.280  1.00  0.00     0.039 A 
ATOM     31  C   UNL     1       8.705   5.287   3.160  1.00  0.00     0.014 A 
ATOM     32  C   UNL     1       7.129   6.463   4.561  1.00  0.00     0.014 A 
ATOM     33  C   UNL     1       8.778   6.397   2.311  1.00  0.00     0.010 A 
ATOM     34  C   UNL     1       7.146   7.541   3.675  1.00  0.00     0.010 A 
ATOM     35  C   UNL     1       7.984   7.530   2.550  1.00  0.00    -0.014 A 
BRANCH  35  36
ATOM     36  C   UNL     1       8.042   8.726   1.664  1.00  0.00     0.031 A 
ATOM     37  C   UNL     1       8.514  10.050   2.208  1.00  0.00     0.074 A 
ATOM     38  C   UNL     1       7.598   8.651   0.394  1.00  0.00     0.049 A 
ATOM     39  N   UNL     1       8.539  11.223   1.628  1.00  0.00    -0.248 NA
ATOM     40  C   UNL     1       8.992  10.059   3.600  1.00  0.00     0.031 C 
ATOM     41  C   UNL     1       7.070   7.447  -0.249  1.00  0.00     0.029 A 
ATOM     42  N   UNL     1       7.503   9.617  -0.578  1.00  0.00    -0.354 N 
ATOM     43  C   UNL     1       8.991  12.115   2.594  1.00  0.00     0.074 A 
ATOM     44  C   UNL     1       9.198  11.351   3.806  1.00  0.00     0.031 C 
ATOM     45  C   UNL     1       6.715   7.743  -1.510  1.00  0.00     0.029 A 
ATOM     46  C   UNL     1       6.956   9.162  -1.754  1.00  0.00     0.049 A 
ATOM     47  H   UNL     1       7.798  10.546  -0.445  1.00  0.00     0.167 HD
ATOM     48  C   UNL     1       9.222  13.446   2.486  1.00  0.00     0.031 A 
ATOM     49  C   UNL     1       6.666   9.812  -2.899  1.00  0.00     0.031 A 
ATOM     50  C   UNL     1       9.045  14.203   1.275  1.00  0.00     0.049 A 
ATOM     51  C   UNL     1       6.972  11.278  -3.018  1.00  0.00     0.074 A 
ATOM     52  C   UNL     1       9.328  15.538   1.044  1.00  0.00     0.029 A 
ATOM     53  N   UNL     1       8.539  13.691   0.090  1.00  0.00    -0.354 N 
ATOM     54  N   UNL     1       7.462  12.091  -2.113  1.00  0.00    -0.248 NA
ATOM     55  C   UNL     1       6.698  11.912  -4.315  1.00  0.00     0.031 C 
ATOM     56  C   UNL     1       8.958  15.842  -0.272  1.00  0.00     0.029 A 
ATOM     57  C   UNL     1       8.485  14.686  -0.872  1.00  0.00     0.049 A 
ATOM     58  H   UNL     1       8.259  12.757  -0.048  1.00  0.00     0.167 HD
ATOM     59  C   UNL     1       7.571  13.330  -2.736  1.00  0.00     0.074 A 
ATOM     60  C   UNL     1       7.107  13.156  -4.098  1.00  0.00     0.031 C 
ATOM     61  C   UNL     1       8.018  14.503  -2.223  1.00  0.00     0.031 A 
BRANCH  48  62
ATOM     62  C   UNL     1       9.674  14.167   3.729  1.00  0.00    -0.014 A 
ATOM     63  C   UNL     1      10.957  13.960   4.268  1.00  0.00     0.010 A 
ATOM     64  C   UNL     1       8.797  15.056   4.375  1.00  0.00     0.010 A 
ATOM     65  C   UNL     1      11.328  14.573   5.468  1.00  0.00     0.020 A 
ATOM     66  C   UNL     1       9.174  15.694   5.561  1.00  0.00     0.020 A 
ATOM     67  C   UNL     1      10.428  15.424   6.115  1.00  0.00     0.054 A 
BRANCH  67  68
ATOM     68  S   UNL     1      10.917  16.185   7.687  1.00  0.00     0.124 S 
ATOM     69  O   UNL     1      10.720  15.084   8.627  1.00  0.00    -0.237 OA
ATOM     70  O   UNL     1      12.308  16.562   7.447  1.00  0.00    -0.237 OA
ATOM     71  O   UNL     1       9.989  17.304   7.833  1.00  0.00    -0.744 OA
ENDBRANCH  67  68
ENDBRANCH  48  62
BRANCH  49  72
ATOM     72  C   UNL     1       6.068   9.054  -4.031  1.00  0.00    -0.014 A 
ATOM     73  C   UNL     1       6.858   8.677  -5.130  1.00  0.00     0.010 A 
ATOM     74  C   UNL     1       4.724   8.642  -3.978  1.00  0.00     0.010 A 
ATOM     75  C   UNL     1       6.319   7.891  -6.152  1.00  0.00     0.020 A 
ATOM     76  C   UNL     1       4.187   7.839  -4.989  1.00  0.00     0.020 A 
ATOM     77  C   UNL     1       4.988   7.468  -6.070  1.00  0.00     0.054 A 
BRANCH  77  78
ATOM     78  S   UNL     1       4.341   6.357  -7.351  1.00  0.00     0.124 S 
ATOM     79  O   UNL     1       4.112   7.273  -8.463  1.00  0.00    -0.237 OA
ATOM     80  O   UNL     1       5.436   5.406  -7.530  1.00  0.00    -0.237 OA
ATOM     81  O   UNL     1       3.137   5.796  -6.741  1.00  0.00    -0.744 OA
ENDBRANCH  77  78
ENDBRANCH  49  72
BRANCH  61  82
ATOM     82  C   UNL     1       8.051  15.694  -3.143  1.00  0.00    -0.014 A 
ATOM     83  C   UNL     1       6.872  16.375  -3.493  1.00  0.00     0.010 A 
ATOM     84  C   UNL     1       9.287  16.174  -3.611  1.00  0.00     0.010 A 
ATOM     85  C   UNL     1       6.927  17.503  -4.316  1.00  0.00     0.020 A 
ATOM     86  C   UNL     1       9.348  17.315  -4.417  1.00  0.00     0.020 A 
ATOM     87  C   UNL     1       8.165  17.966  -4.774  1.00  0.00     0.054 A 
BRANCH  87  88
ATOM     88  S   UNL     1       8.218  19.462  -5.799  1.00  0.00     0.124 S 
ATOM     89  O   UNL     1       7.783  18.956  -7.098  1.00  0.00    -0.237 OA
ATOM     90  O   UNL     1       7.276  20.351  -5.123  1.00  0.00    -0.237 OA
ATOM     91  O   UNL     1       9.617  19.879  -5.729  1.00  0.00    -0.744 OA
ENDBRANCH  87  88
ENDBRANCH  61  82
ENDBRANCH  35  36
ENDBRANCH  27  30
ENDBRANCH  25  26
ENDBRANCH   1  25
TORSDOF 17
