REMARK SMILES O=C(NCCCNC(=O)c1cn(C[C@@H]2CCS(=O)(=O)C2)c(=O)[nH]c1=O)c1ccc(-c2c3nc(c(-c4ccc(S(=O)(=O)[O-])cc4)c4ccc([nH]4)c(-c4ccc(S(=O)(=O)[O-])cc4)c4nc(c(-c5ccc(S(=O)(=O)[O-])cc5)c5ccc2[nH]5)C=C4)C=C3)cc1
REMARK SMILES IDX 4 1 3 2 1 3 2 4 26 6 27 7 85 8 28 9 84 10 29 11 30 12 31 13
REMARK SMILES IDX 78 14 32 15 83 16 77 17 79 18 33 19 82 20 76 21 75 22 34 24
REMARK SMILES IDX 64 25 45 26 63 27 46 28 49 29 62 30 80 31 47 32 48 33 61 35
REMARK SMILES IDX 81 36 50 37 35 38 36 39 44 40 37 41 43 42 38 43 39 44 40 45
REMARK SMILES IDX 41 46 42 47 65 48 66 49 74 50 67 51 73 52 68 53 69 54 70 55
REMARK SMILES IDX 71 56 72 57 51 58 52 59 60 60 53 61 59 62 54 63 55 64 56 65
REMARK SMILES IDX 57 66 58 67 5 68 6 69 7 70 8 71 9 73 10 74 11 75 24 76 12 77
REMARK SMILES IDX 23 78 25 79 21 80 22 82 13 83 14 84 15 85 20 86 16 87 17 88
REMARK SMILES IDX 18 89 19 90
REMARK H PARENT 3 5 79 23 49 34 7 72 23 81
REMARK Flexibility Score: inf
ROOT
ATOM      1  C   UNL     1       4.572   1.108  -0.854  1.00  0.00     0.118 C 
ENDROOT
BRANCH   1   2
ATOM      2  N   UNL     1       3.134   0.996  -0.633  1.00  0.00    -0.352 N 
ATOM      3  O   UNL     1       1.177   0.042  -0.099  1.00  0.00    -0.269 OA
ATOM      4  C   UNL     1       2.399   0.047   0.031  1.00  0.00     0.251 C 
ATOM      5  H   UNL     1       2.602   1.725  -1.027  1.00  0.00     0.163 HD
BRANCH   4   6
ATOM      6  C   UNL     1       3.062  -0.961   0.884  1.00  0.00     0.039 A 
ATOM      7  C   UNL     1       2.521  -2.247   0.965  1.00  0.00     0.014 A 
ATOM      8  C   UNL     1       4.194  -0.637   1.635  1.00  0.00     0.014 A 
ATOM      9  C   UNL     1       3.141  -3.207   1.767  1.00  0.00     0.010 A 
ATOM     10  C   UNL     1       4.884  -1.627   2.320  1.00  0.00     0.010 A 
ATOM     11  C   UNL     1       4.344  -2.912   2.432  1.00  0.00    -0.014 A 
BRANCH  11  12
ATOM     12  C   UNL     1       5.014  -3.917   3.295  1.00  0.00     0.031 A 
ATOM     13  C   UNL     1       5.223  -3.634   4.761  1.00  0.00     0.074 A 
ATOM     14  C   UNL     1       5.450  -5.073   2.760  1.00  0.00     0.049 A 
ATOM     15  N   UNL     1       5.773  -4.393   5.674  1.00  0.00    -0.248 NA
ATOM     16  C   UNL     1       4.788  -2.319   5.265  1.00  0.00     0.031 C 
ATOM     17  C   UNL     1       5.353  -5.436   1.345  1.00  0.00     0.029 A 
ATOM     18  N   UNL     1       6.045  -6.164   3.343  1.00  0.00    -0.354 N 
ATOM     19  C   UNL     1       5.744  -3.650   6.848  1.00  0.00     0.074 A 
ATOM     20  C   UNL     1       5.218  -2.348   6.516  1.00  0.00     0.031 C 
ATOM     21  C   UNL     1       5.812  -6.685   1.181  1.00  0.00     0.029 A 
ATOM     22  C   UNL     1       6.280  -7.197   2.466  1.00  0.00     0.049 A 
ATOM     23  H   UNL     1       6.282  -6.203   4.298  1.00  0.00     0.167 HD
ATOM     24  C   UNL     1       6.075  -4.033   8.103  1.00  0.00     0.031 A 
ATOM     25  C   UNL     1       6.798  -8.424   2.671  1.00  0.00     0.031 A 
ATOM     26  C   UNL     1       6.582  -5.340   8.430  1.00  0.00     0.049 A 
ATOM     27  C   UNL     1       7.171  -8.831   4.069  1.00  0.00     0.074 A 
ATOM     28  C   UNL     1       6.914  -5.844   9.674  1.00  0.00     0.029 A 
ATOM     29  N   UNL     1       6.821  -6.352   7.510  1.00  0.00    -0.354 N 
ATOM     30  N   UNL     1       7.076  -8.137   5.179  1.00  0.00    -0.248 NA
ATOM     31  C   UNL     1       7.701 -10.188   4.248  1.00  0.00     0.031 C 
ATOM     32  C   UNL     1       7.421  -7.134   9.498  1.00  0.00     0.029 A 
ATOM     33  C   UNL     1       7.327  -7.468   8.156  1.00  0.00     0.049 A 
ATOM     34  H   UNL     1       6.654  -6.286   6.542  1.00  0.00     0.167 HD
ATOM     35  C   UNL     1       7.534  -8.973   6.191  1.00  0.00     0.074 A 
ATOM     36  C   UNL     1       7.864 -10.238   5.564  1.00  0.00     0.031 C 
ATOM     37  C   UNL     1       7.680  -8.713   7.515  1.00  0.00     0.031 A 
BRANCH  24  38
ATOM     38  C   UNL     1       5.861  -3.043   9.223  1.00  0.00    -0.014 A 
ATOM     39  C   UNL     1       6.953  -2.578   9.977  1.00  0.00     0.010 A 
ATOM     40  C   UNL     1       4.562  -2.634   9.584  1.00  0.00     0.010 A 
ATOM     41  C   UNL     1       6.750  -1.747  11.084  1.00  0.00     0.020 A 
ATOM     42  C   UNL     1       4.358  -1.772  10.664  1.00  0.00     0.020 A 
ATOM     43  C   UNL     1       5.452  -1.355  11.423  1.00  0.00     0.054 A 
BRANCH  43  44
ATOM     44  S   UNL     1       5.207  -0.294  12.874  1.00  0.00     0.124 S 
ATOM     45  O   UNL     1       5.446  -1.221  13.976  1.00  0.00    -0.237 OA
ATOM     46  O   UNL     1       6.220   0.741  12.687  1.00  0.00    -0.237 OA
ATOM     47  O   UNL     1       3.827   0.166  12.732  1.00  0.00    -0.744 OA
ENDBRANCH  43  44
ENDBRANCH  24  38
BRANCH  25  48
ATOM     48  C   UNL     1       6.915  -9.356   1.514  1.00  0.00    -0.014 A 
ATOM     49  C   UNL     1       7.793  -9.065   0.452  1.00  0.00     0.010 A 
ATOM     50  C   UNL     1       6.055 -10.462   1.401  1.00  0.00     0.010 A 
ATOM     51  C   UNL     1       7.749  -9.807  -0.730  1.00  0.00     0.020 A 
ATOM     52  C   UNL     1       6.033 -11.230   0.232  1.00  0.00     0.020 A 
ATOM     53  C   UNL     1       6.851 -10.871  -0.841  1.00  0.00     0.054 A 
BRANCH  53  54
ATOM     54  S   UNL     1       6.729 -11.742  -2.428  1.00  0.00     0.124 S 
ATOM     55  O   UNL     1       6.054 -10.749  -3.261  1.00  0.00    -0.237 OA
ATOM     56  O   UNL     1       8.128 -11.995  -2.761  1.00  0.00    -0.237 OA
ATOM     57  O   UNL     1       5.940 -12.929  -2.110  1.00  0.00    -0.744 OA
ENDBRANCH  53  54
ENDBRANCH  25  48
BRANCH  37  58
ATOM     58  C   UNL     1       8.259  -9.800   8.385  1.00  0.00    -0.014 A 
ATOM     59  C   UNL     1       7.487 -10.369   9.416  1.00  0.00     0.010 A 
ATOM     60  C   UNL     1       9.605 -10.188   8.248  1.00  0.00     0.010 A 
ATOM     61  C   UNL     1       8.055 -11.283  10.307  1.00  0.00     0.020 A 
ATOM     62  C   UNL     1      10.165 -11.132   9.113  1.00  0.00     0.020 A 
ATOM     63  C   UNL     1       9.392 -11.656  10.152  1.00  0.00     0.054 A 
BRANCH  63  64
ATOM     64  S   UNL     1      10.111 -12.844  11.318  1.00  0.00     0.124 S 
ATOM     65  O   UNL     1      10.292 -12.029  12.515  1.00  0.00    -0.237 OA
ATOM     66  O   UNL     1       9.076 -13.872  11.406  1.00  0.00    -0.237 OA
ATOM     67  O   UNL     1      11.344 -13.269  10.658  1.00  0.00    -0.744 OA
ENDBRANCH  63  64
ENDBRANCH  37  58
ENDBRANCH  11  12
ENDBRANCH   4   6
ENDBRANCH   1   2
BRANCH   1  68
ATOM     68  C   UNL     1       4.945   0.996  -2.321  1.00  0.00     0.042 C 
BRANCH  68  69
ATOM     69  C   UNL     1       4.273   2.040  -3.193  1.00  0.00     0.118 C 
BRANCH  69  70
ATOM     70  N   UNL     1       4.722   3.403  -2.923  1.00  0.00    -0.352 N 
ATOM     71  C   UNL     1       5.596   4.206  -3.615  1.00  0.00     0.258 C 
ATOM     72  H   UNL     1       4.337   3.812  -2.115  1.00  0.00     0.163 HD
ATOM     73  O   UNL     1       5.838   5.337  -3.209  1.00  0.00    -0.269 OA
BRANCH  71  74
ATOM     74  C   UNL     1       6.219   3.651  -4.830  1.00  0.00     0.121 A 
ATOM     75  C   UNL     1       5.430   3.216  -5.822  1.00  0.00     0.110 A 
ATOM     76  C   UNL     1       7.674   3.465  -4.960  1.00  0.00     0.266 A 
ATOM     77  N   UNL     1       5.901   2.398  -6.834  1.00  0.00    -0.299 N 
ATOM     78  N   UNL     1       8.067   2.667  -6.001  1.00  0.00    -0.273 N 
ATOM     79  O   UNL     1       8.490   3.929  -4.174  1.00  0.00    -0.268 OA
ATOM     80  C   UNL     1       7.244   2.035  -6.891  1.00  0.00     0.328 A 
ATOM     81  H   UNL     1       9.036   2.535  -6.119  1.00  0.00     0.175 HD
ATOM     82  O   UNL     1       7.696   1.217  -7.688  1.00  0.00    -0.248 OA
BRANCH  77  83
ATOM     83  C   UNL     1       4.939   1.735  -7.712  1.00  0.00     0.131 C 
BRANCH  83  84
ATOM     84  C   UNL     1       4.728   2.348  -9.107  1.00  0.00     0.025 C 
ATOM     85  C   UNL     1       5.946   2.311 -10.041  1.00  0.00     0.022 C 
ATOM     86  C   UNL     1       4.232   3.795  -9.099  1.00  0.00     0.142 C 
ATOM     87  C   UNL     1       6.796   3.555  -9.811  1.00  0.00     0.137 C 
ATOM     88  S   UNL     1       5.666   4.835  -9.307  1.00  0.00     0.150 S 
ATOM     89  O   UNL     1       6.071   5.336  -8.007  1.00  0.00    -0.229 OA
ATOM     90  O   UNL     1       5.431   5.718 -10.427  1.00  0.00    -0.229 OA
ENDBRANCH  83  84
ENDBRANCH  77  83
ENDBRANCH  71  74
ENDBRANCH  69  70
ENDBRANCH  68  69
ENDBRANCH   1  68
TORSDOF 15
