REMARK SMILES CS(=O)(=O)c1ccc(C2=NN(c3ccc(C(=O)NCCCNC(=O)c4ccc(-c5c6nc(c(-c7ccc(S(=O)(=O)[O-])cc7)c7ccc([nH]7)c(-c7ccc(S(=O)(=O)[O-])cc7)c7nc(c(-c8ccc(S(=O)(=O)[O-])cc8)c8ccc5[nH]8)C=C7)C=C6)cc4)cc3)[C@H](c3ccccc3)C2)cc1
REMARK SMILES IDX 20 1 19 2 18 3 16 4 17 5 15 7 12 8 13 9 86 10 14 11 85 12
REMARK SMILES IDX 11 13 9 14 10 15 94 16 87 17 8 18 5 19 6 20 96 21 7 22 95 23
REMARK SMILES IDX 2 24 1 25 3 26 4 27 88 28 89 29 93 30 90 31 92 32 91 33
REMARK SMILES IDX 21 34 22 35 23 36 24 38 25 39 26 40 84 41 27 42 83 43 28 44
REMARK SMILES IDX 29 45 30 46 77 47 31 48 82 49 76 50 78 51 32 52 81 53 75 54
REMARK SMILES IDX 74 55 33 57 63 58 44 59 62 60 45 61 48 62 61 63 79 64 46 65
REMARK SMILES IDX 47 66 60 68 80 69 49 70 34 71 35 72 43 73 36 74 42 75 37 76
REMARK SMILES IDX 38 77 39 78 40 79 41 80 64 81 65 82 73 83 66 84 72 85 67 86
REMARK SMILES IDX 68 87 69 88 70 89 71 90 50 91 51 92 59 93 52 94 58 95 53 96
REMARK SMILES IDX 54 97 55 98 56 99 57 100
REMARK H PARENT 18 6 22 37 78 56 48 67
REMARK Flexibility Score: inf
ROOT
ATOM      1  C   UNL     1       1.555 -10.168 -11.775  1.00  0.00     0.042 C 
ENDROOT
BRANCH   1   2
ATOM      2  C   UNL     1       1.887  -8.826 -12.423  1.00  0.00     0.118 C 
BRANCH   2   3
ATOM      3  N   UNL     1       0.681  -8.114 -12.809  1.00  0.00    -0.352 N 
ATOM      4  C   UNL     1       0.037  -7.049 -12.230  1.00  0.00     0.251 C 
ATOM      5  O   UNL     1      -0.926  -6.556 -12.815  1.00  0.00    -0.269 OA
ATOM      6  H   UNL     1       0.252  -8.454 -13.628  1.00  0.00     0.163 HD
BRANCH   4   7
ATOM      7  C   UNL     1       0.522  -6.431 -10.969  1.00  0.00     0.039 A 
ATOM      8  C   UNL     1       1.615  -5.120  -8.734  1.00  0.00     0.060 A 
ATOM      9  C   UNL     1       0.968  -4.390  -9.735  1.00  0.00     0.029 A 
ATOM     10  C   UNL     1       1.613  -6.513  -8.814  1.00  0.00     0.029 A 
ATOM     11  C   UNL     1       0.421  -5.040 -10.846  1.00  0.00     0.016 A 
ATOM     12  C   UNL     1       1.059  -7.166  -9.913  1.00  0.00     0.016 A 
BRANCH   8  13
ATOM     13  N   UNL     1       2.256  -4.496  -7.684  1.00  0.00    -0.257 N 
ATOM     14  C   UNL     1       2.327  -3.456  -5.846  1.00  0.00     0.071 C 
ATOM     15  N   UNL     1       1.570  -4.230  -6.554  1.00  0.00    -0.176 NA
ATOM     16  C   UNL     1       3.629  -3.052  -6.486  1.00  0.00     0.091 C 
ATOM     17  C   UNL     1       3.628  -3.985  -7.713  1.00  0.00     0.144 C 
BRANCH  14  18
ATOM     18  C   UNL     1       1.914  -2.983  -4.517  1.00  0.00    -0.002 A 
ATOM     19  C   UNL     1       0.970  -2.130  -2.043  1.00  0.00     0.067 A 
ATOM     20  C   UNL     1       0.778  -3.459  -2.438  1.00  0.00     0.021 A 
ATOM     21  C   UNL     1       1.636  -1.227  -2.879  1.00  0.00     0.021 A 
ATOM     22  C   UNL     1       1.240  -3.880  -3.682  1.00  0.00     0.011 A 
ATOM     23  C   UNL     1       2.119  -1.659  -4.120  1.00  0.00     0.011 A 
BRANCH  19  24
ATOM     24  S   UNL     1       0.327  -1.662  -0.454  1.00  0.00     0.175 S 
ATOM     25  C   UNL     1       0.944  -0.045  -0.092  1.00  0.00     0.163 C 
ATOM     26  O   UNL     1       0.923  -2.567   0.512  1.00  0.00    -0.224 OA
ATOM     27  O   UNL     1      -1.110  -1.556  -0.604  1.00  0.00    -0.224 OA
ENDBRANCH  19  24
ENDBRANCH  14  18
BRANCH  17  28
ATOM     28  C   UNL     1       4.652  -5.120  -7.750  1.00  0.00    -0.023 A 
ATOM     29  C   UNL     1       5.385  -5.560  -6.637  1.00  0.00     0.006 A 
ATOM     30  C   UNL     1       4.862  -5.795  -8.972  1.00  0.00     0.006 A 
ATOM     31  C   UNL     1       6.293  -6.622  -6.745  1.00  0.00     0.000 A 
ATOM     32  C   UNL     1       5.740  -6.877  -9.072  1.00  0.00     0.000 A 
ATOM     33  C   UNL     1       6.463  -7.286  -7.958  1.00  0.00     0.000 A 
ENDBRANCH  17  28
ENDBRANCH   8  13
ENDBRANCH   4   7
ENDBRANCH   2   3
ENDBRANCH   1   2
BRANCH   1  34
ATOM     34  C   UNL     1       1.090 -11.218 -12.775  1.00  0.00     0.118 C 
BRANCH  34  35
ATOM     35  N   UNL     1       2.167 -11.640 -13.658  1.00  0.00    -0.352 N 
ATOM     36  C   UNL     1       2.678 -12.893 -13.883  1.00  0.00     0.251 C 
ATOM     37  H   UNL     1       2.593 -10.917 -14.172  1.00  0.00     0.163 HD
ATOM     38  O   UNL     1       3.743 -13.006 -14.484  1.00  0.00    -0.269 OA
BRANCH  36  39
ATOM     39  C   UNL     1       1.961 -14.097 -13.406  1.00  0.00     0.039 A 
ATOM     40  C   UNL     1       2.706 -15.180 -12.931  1.00  0.00     0.014 A 
ATOM     41  C   UNL     1       0.568 -14.186 -13.476  1.00  0.00     0.014 A 
ATOM     42  C   UNL     1       2.052 -16.336 -12.498  1.00  0.00     0.010 A 
ATOM     43  C   UNL     1      -0.085 -15.302 -12.963  1.00  0.00     0.010 A 
ATOM     44  C   UNL     1       0.649 -16.400 -12.493  1.00  0.00    -0.014 A 
BRANCH  44  45
ATOM     45  C   UNL     1      -0.066 -17.621 -12.044  1.00  0.00     0.031 A 
ATOM     46  C   UNL     1      -0.925 -18.388 -13.017  1.00  0.00     0.074 A 
ATOM     47  C   UNL     1       0.015 -18.012 -10.757  1.00  0.00     0.049 A 
ATOM     48  N   UNL     1      -1.672 -19.441 -12.806  1.00  0.00    -0.248 NA
ATOM     49  C   UNL     1      -0.971 -17.890 -14.402  1.00  0.00     0.031 C 
ATOM     50  C   UNL     1       0.788 -17.336  -9.713  1.00  0.00     0.029 A 
ATOM     51  N   UNL     1      -0.562 -19.073 -10.106  1.00  0.00    -0.354 N 
ATOM     52  C   UNL     1      -2.289 -19.717 -14.021  1.00  0.00     0.074 A 
ATOM     53  C   UNL     1      -1.874 -18.690 -14.950  1.00  0.00     0.031 C 
ATOM     54  C   UNL     1       0.659 -18.014  -8.561  1.00  0.00     0.029 A 
ATOM     55  C   UNL     1      -0.239 -19.144  -8.771  1.00  0.00     0.049 A 
ATOM     56  H   UNL     1      -1.152 -19.723 -10.552  1.00  0.00     0.167 HD
ATOM     57  C   UNL     1      -3.110 -20.746 -14.343  1.00  0.00     0.031 A 
ATOM     58  C   UNL     1      -0.630 -20.016  -7.821  1.00  0.00     0.031 A 
ATOM     59  C   UNL     1      -3.509 -21.772 -13.417  1.00  0.00     0.049 A 
ATOM     60  C   UNL     1      -1.554 -21.142  -8.199  1.00  0.00     0.074 A 
ATOM     61  C   UNL     1      -4.296 -22.885 -13.654  1.00  0.00     0.029 A 
ATOM     62  N   UNL     1      -3.153 -21.812 -12.077  1.00  0.00    -0.354 N 
ATOM     63  N   UNL     1      -2.080 -21.421  -9.368  1.00  0.00    -0.248 NA
ATOM     64  C   UNL     1      -1.926 -22.081  -7.132  1.00  0.00     0.031 C 
ATOM     65  C   UNL     1      -4.465 -23.565 -12.445  1.00  0.00     0.029 A 
ATOM     66  C   UNL     1      -3.723 -22.918 -11.470  1.00  0.00     0.049 A 
ATOM     67  H   UNL     1      -2.580 -21.151 -11.625  1.00  0.00     0.167 HD
ATOM     68  C   UNL     1      -2.813 -22.589  -9.186  1.00  0.00     0.074 A 
ATOM     69  C   UNL     1      -2.653 -22.969  -7.797  1.00  0.00     0.031 C 
ATOM     70  C   UNL     1      -3.548 -23.286 -10.087  1.00  0.00     0.031 A 
BRANCH  57  71
ATOM     71  C   UNL     1      -3.636 -20.807 -15.754  1.00  0.00    -0.014 A 
ATOM     72  C   UNL     1      -2.784 -21.079 -16.840  1.00  0.00     0.010 A 
ATOM     73  C   UNL     1      -5.012 -20.636 -15.995  1.00  0.00     0.010 A 
ATOM     74  C   UNL     1      -3.289 -21.137 -18.142  1.00  0.00     0.020 A 
ATOM     75  C   UNL     1      -5.527 -20.726 -17.291  1.00  0.00     0.020 A 
ATOM     76  C   UNL     1      -4.659 -20.960 -18.359  1.00  0.00     0.054 A 
BRANCH  76  77
ATOM     77  S   UNL     1      -5.289 -21.072 -20.056  1.00  0.00     0.124 S 
ATOM     78  O   UNL     1      -4.768 -19.845 -20.653  1.00  0.00    -0.237 OA
ATOM     79  O   UNL     1      -4.685 -22.311 -20.540  1.00  0.00    -0.237 OA
ATOM     80  O   UNL     1      -6.739 -21.114 -19.886  1.00  0.00    -0.744 OA
ENDBRANCH  76  77
ENDBRANCH  57  71
BRANCH  58  81
ATOM     81  C   UNL     1      -0.135 -19.868  -6.423  1.00  0.00    -0.014 A 
ATOM     82  C   UNL     1       0.751 -20.811  -5.873  1.00  0.00     0.010 A 
ATOM     83  C   UNL     1      -0.546 -18.778  -5.634  1.00  0.00     0.010 A 
ATOM     84  C   UNL     1       1.196 -20.682  -4.554  1.00  0.00     0.020 A 
ATOM     85  C   UNL     1      -0.078 -18.628  -4.325  1.00  0.00     0.020 A 
ATOM     86  C   UNL     1       0.780 -19.589  -3.789  1.00  0.00     0.054 A 
BRANCH  86  87
ATOM     87  S   UNL     1       1.403 -19.422  -2.093  1.00  0.00     0.124 S 
ATOM     88  O   UNL     1       0.693 -20.493  -1.401  1.00  0.00    -0.237 OA
ATOM     89  O   UNL     1       2.840 -19.623  -2.265  1.00  0.00    -0.237 OA
ATOM     90  O   UNL     1       1.012 -18.065  -1.717  1.00  0.00    -0.744 OA
ENDBRANCH  86  87
ENDBRANCH  58  81
BRANCH  70  91
ATOM     91  C   UNL     1      -4.192 -24.565  -9.619  1.00  0.00    -0.014 A 
ATOM     92  C   UNL     1      -5.278 -24.561  -8.726  1.00  0.00     0.010 A 
ATOM     93  C   UNL     1      -3.733 -25.793 -10.132  1.00  0.00     0.010 A 
ATOM     94  C   UNL     1      -5.867 -25.764  -8.325  1.00  0.00     0.020 A 
ATOM     95  C   UNL     1      -4.340 -26.994  -9.760  1.00  0.00     0.020 A 
ATOM     96  C   UNL     1      -5.394 -26.973  -8.846  1.00  0.00     0.054 A 
BRANCH  96  97
ATOM     97  S   UNL     1      -6.202 -28.516  -8.341  1.00  0.00     0.124 S 
ATOM     98  O   UNL     1      -5.747 -28.659  -6.961  1.00  0.00    -0.237 OA
ATOM     99  O   UNL     1      -7.619 -28.204  -8.507  1.00  0.00    -0.237 OA
ATOM    100  O   UNL     1      -5.674 -29.506  -9.276  1.00  0.00    -0.744 OA
ENDBRANCH  96  97
ENDBRANCH  70  91
ENDBRANCH  44  45
ENDBRANCH  36  39
ENDBRANCH  34  35
ENDBRANCH   1  34
TORSDOF 17
