REMARK SMILES O=C(NCCCNC(=O)c1ccc(-n2cc(CSc3nc4ccccc4c(=O)n3-c3ccccc3)nn2)cc1)c1ccc(-c2c3nc(c(-c4ccc(S(=O)(=O)[O-])cc4)c4ccc([nH]4)c(-c4ccc(S(=O)(=O)[O-])cc4)c4nc(c(-c5ccc(S(=O)(=O)[O-])cc5)c5ccc2[nH]5)C=C4)C=C3)cc1
REMARK SMILES IDX 6 1 5 2 4 3 3 4 1 5 2 6 40 8 41 9 99 10 42 11 98 12 43 13
REMARK SMILES IDX 44 14 45 15 92 16 46 17 97 18 91 19 93 20 47 21 96 22 90 23
REMARK SMILES IDX 89 24 48 26 78 27 59 28 77 29 60 30 63 31 76 32 94 33 61 34
REMARK SMILES IDX 62 35 75 37 95 38 64 39 49 40 50 41 58 42 51 43 57 44 52 45
REMARK SMILES IDX 53 46 54 47 55 48 56 49 79 50 80 51 88 52 81 53 87 54 82 55
REMARK SMILES IDX 83 56 84 57 85 58 86 59 65 60 66 61 74 62 67 63 73 64 68 65
REMARK SMILES IDX 69 66 70 67 71 68 72 69 7 70 8 71 9 73 10 74 11 75 39 76
REMARK SMILES IDX 12 77 38 78 13 79 14 80 15 81 37 82 16 83 36 84 17 85 18 86
REMARK SMILES IDX 19 87 20 88 29 89 21 90 27 91 22 92 26 93 28 94 23 95 25 96
REMARK SMILES IDX 24 97 30 98 31 99 35 100 32 101 34 102 33 103
REMARK H PARENT 3 7 93 25 63 36 7 72
REMARK Flexibility Score: inf
ROOT
ATOM      1  C   UNL     1       4.361  -3.535  -0.421  1.00  0.00     0.118 C 
ENDROOT
BRANCH   1   2
ATOM      2  C   UNL     1       4.910  -2.247   0.187  1.00  0.00     0.042 C 
BRANCH   2   3
ATOM      3  C   UNL     1       4.573  -0.966  -0.574  1.00  0.00     0.118 C 
BRANCH   3   4
ATOM      4  N   UNL     1       3.166  -0.739  -0.834  1.00  0.00    -0.352 N 
ATOM      5  O   UNL     1       1.142   0.132  -0.816  1.00  0.00    -0.269 OA
ATOM      6  C   UNL     1       2.148  -0.133  -0.151  1.00  0.00     0.251 C 
ATOM      7  H   UNL     1       2.876  -1.104  -1.701  1.00  0.00     0.163 HD
BRANCH   6   8
ATOM      8  C   UNL     1       2.128   0.130   1.314  1.00  0.00     0.039 A 
ATOM      9  C   UNL     1       3.219   0.051   2.180  1.00  0.00     0.014 A 
ATOM     10  C   UNL     1       0.861   0.424   1.854  1.00  0.00     0.014 A 
ATOM     11  C   UNL     1       3.031   0.152   3.560  1.00  0.00     0.010 A 
ATOM     12  C   UNL     1       0.668   0.532   3.224  1.00  0.00     0.010 A 
ATOM     13  C   UNL     1       1.750   0.355   4.081  1.00  0.00    -0.014 A 
BRANCH  13  14
ATOM     14  C   UNL     1       1.592   0.582   5.517  1.00  0.00     0.031 A 
ATOM     15  C   UNL     1       2.162   1.878   5.979  1.00  0.00     0.074 A 
ATOM     16  C   UNL     1       0.841  -0.194   6.325  1.00  0.00     0.049 A 
ATOM     17  N   UNL     1       3.166   2.072   6.770  1.00  0.00    -0.248 NA
ATOM     18  C   UNL     1       1.643   3.112   5.361  1.00  0.00     0.031 C 
ATOM     19  C   UNL     1      -0.006  -1.324   5.933  1.00  0.00     0.029 A 
ATOM     20  N   UNL     1       0.572  -0.064   7.659  1.00  0.00    -0.354 N 
ATOM     21  C   UNL     1       3.244   3.453   6.944  1.00  0.00     0.074 A 
ATOM     22  C   UNL     1       2.437   4.035   5.903  1.00  0.00     0.031 C 
ATOM     23  C   UNL     1      -0.863  -1.612   6.940  1.00  0.00     0.029 A 
ATOM     24  C   UNL     1      -0.546  -0.778   8.088  1.00  0.00     0.049 A 
ATOM     25  H   UNL     1       1.121   0.486   8.264  1.00  0.00     0.167 HD
ATOM     26  C   UNL     1       3.712   3.999   8.102  1.00  0.00     0.031 A 
ATOM     27  C   UNL     1      -1.209  -0.645   9.269  1.00  0.00     0.031 A 
ATOM     28  C   UNL     1       4.442   3.035   8.888  1.00  0.00     0.049 A 
ATOM     29  C   UNL     1      -0.289   0.021  10.221  1.00  0.00     0.074 A 
ATOM     30  C   UNL     1       5.543   2.228   8.685  1.00  0.00     0.029 A 
ATOM     31  N   UNL     1       3.801   2.529   9.993  1.00  0.00    -0.354 N 
ATOM     32  N   UNL     1       0.797  -0.534  10.677  1.00  0.00    -0.248 NA
ATOM     33  C   UNL     1      -0.343   1.470  10.326  1.00  0.00     0.031 C 
ATOM     34  C   UNL     1       5.248   1.020   9.382  1.00  0.00     0.029 A 
ATOM     35  C   UNL     1       4.021   1.181  10.025  1.00  0.00     0.049 A 
ATOM     36  H   UNL     1       3.276   3.046  10.646  1.00  0.00     0.167 HD
ATOM     37  C   UNL     1       1.730   0.491  10.703  1.00  0.00     0.074 A 
ATOM     38  C   UNL     1       0.946   1.719  10.575  1.00  0.00     0.031 C 
ATOM     39  C   UNL     1       3.061   0.230  10.541  1.00  0.00     0.031 A 
BRANCH  26  40
ATOM     40  C   UNL     1       3.091   5.227   8.745  1.00  0.00    -0.014 A 
ATOM     41  C   UNL     1       3.590   5.651   9.996  1.00  0.00     0.010 A 
ATOM     42  C   UNL     1       1.849   5.764   8.345  1.00  0.00     0.010 A 
ATOM     43  C   UNL     1       2.823   6.448  10.855  1.00  0.00     0.020 A 
ATOM     44  C   UNL     1       1.099   6.601   9.173  1.00  0.00     0.020 A 
ATOM     45  C   UNL     1       1.569   6.896  10.443  1.00  0.00     0.054 A 
BRANCH  45  46
ATOM     46  S   UNL     1       0.525   7.804  11.607  1.00  0.00     0.124 S 
ATOM     47  O   UNL     1       0.219   6.774  12.594  1.00  0.00    -0.237 OA
ATOM     48  O   UNL     1       1.419   8.869  12.055  1.00  0.00    -0.237 OA
ATOM     49  O   UNL     1      -0.599   8.243  10.784  1.00  0.00    -0.744 OA
ENDBRANCH  45  46
ENDBRANCH  26  40
BRANCH  27  50
ATOM     50  C   UNL     1      -2.669  -0.768   9.536  1.00  0.00    -0.014 A 
ATOM     51  C   UNL     1      -3.178  -0.787  10.852  1.00  0.00     0.010 A 
ATOM     52  C   UNL     1      -3.593  -0.577   8.489  1.00  0.00     0.010 A 
ATOM     53  C   UNL     1      -4.543  -0.557  11.110  1.00  0.00     0.020 A 
ATOM     54  C   UNL     1      -4.954  -0.357   8.737  1.00  0.00     0.020 A 
ATOM     55  C   UNL     1      -5.420  -0.322  10.048  1.00  0.00     0.054 A 
BRANCH  55  56
ATOM     56  S   UNL     1      -7.144   0.154  10.385  1.00  0.00     0.124 S 
ATOM     57  O   UNL     1      -7.720  -1.091  10.884  1.00  0.00    -0.237 OA
ATOM     58  O   UNL     1      -6.995   1.221  11.371  1.00  0.00    -0.237 OA
ATOM     59  O   UNL     1      -7.643   0.587   9.080  1.00  0.00    -0.744 OA
ENDBRANCH  55  56
ENDBRANCH  27  50
BRANCH  39  60
ATOM     60  C   UNL     1       3.543  -1.190  10.694  1.00  0.00    -0.014 A 
ATOM     61  C   UNL     1       3.114  -2.264   9.890  1.00  0.00     0.010 A 
ATOM     62  C   UNL     1       4.583  -1.413  11.614  1.00  0.00     0.010 A 
ATOM     63  C   UNL     1       3.691  -3.535  10.030  1.00  0.00     0.020 A 
ATOM     64  C   UNL     1       5.175  -2.669  11.744  1.00  0.00     0.020 A 
ATOM     65  C   UNL     1       4.718  -3.728  10.960  1.00  0.00     0.054 A 
BRANCH  65  66
ATOM     66  S   UNL     1       5.486  -5.364  11.116  1.00  0.00     0.124 S 
ATOM     67  O   UNL     1       4.409  -6.167  11.689  1.00  0.00    -0.237 OA
ATOM     68  O   UNL     1       5.846  -5.687   9.737  1.00  0.00    -0.237 OA
ATOM     69  O   UNL     1       6.623  -5.132  12.006  1.00  0.00    -0.744 OA
ENDBRANCH  65  66
ENDBRANCH  39  60
ENDBRANCH  13  14
ENDBRANCH   6   8
ENDBRANCH   3   4
ENDBRANCH   2   3
ENDBRANCH   1   2
BRANCH   1  70
ATOM     70  N   UNL     1       4.849  -3.790  -1.768  1.00  0.00    -0.352 N 
ATOM     71  C   UNL     1       5.700  -4.751  -2.242  1.00  0.00     0.251 C 
ATOM     72  H   UNL     1       4.510  -3.168  -2.451  1.00  0.00     0.163 HD
ATOM     73  O   UNL     1       6.062  -4.712  -3.422  1.00  0.00    -0.269 OA
BRANCH  71  74
ATOM     74  C   UNL     1       6.213  -5.826  -1.369  1.00  0.00     0.039 A 
ATOM     75  C   UNL     1       7.589  -6.087  -1.374  1.00  0.00     0.016 A 
ATOM     76  C   UNL     1       5.351  -6.631  -0.619  1.00  0.00     0.016 A 
ATOM     77  C   UNL     1       8.116  -7.114  -0.588  1.00  0.00     0.029 A 
ATOM     78  C   UNL     1       5.870  -7.675   0.150  1.00  0.00     0.029 A 
ATOM     79  C   UNL     1       7.254  -7.924   0.157  1.00  0.00     0.066 A 
BRANCH  79  80
ATOM     80  N   UNL     1       7.776  -9.053   0.831  1.00  0.00    -0.220 N 
ATOM     81  C   UNL     1       7.096 -10.194   1.162  1.00  0.00     0.141 A 
ATOM     82  N   UNL     1       9.079  -9.199   1.169  1.00  0.00    -0.062 NA
ATOM     83  C   UNL     1       8.043 -11.067   1.646  1.00  0.00     0.093 A 
ATOM     84  N   UNL     1       9.241 -10.408   1.702  1.00  0.00    -0.134 NA
BRANCH  83  85
ATOM     85  C   UNL     1       7.842 -12.410   2.230  1.00  0.00     0.138 C 
BRANCH  85  86
ATOM     86  S   UNL     1       8.078 -13.919   1.283  1.00  0.00    -0.081 SA
BRANCH  86  87
ATOM     87  C   UNL     1       7.998 -13.674  -0.443  1.00  0.00     0.176 A 
ATOM     88  N   UNL     1       8.835 -14.444  -1.081  1.00  0.00    -0.223 NA
ATOM     89  N   UNL     1       7.158 -12.801  -1.120  1.00  0.00    -0.255 N 
ATOM     90  C   UNL     1       8.962 -14.295  -2.466  1.00  0.00     0.079 A 
ATOM     91  C   UNL     1       7.736 -12.220  -2.257  1.00  0.00     0.266 A 
ATOM     92  C   UNL     1       9.570 -15.277  -3.249  1.00  0.00     0.029 A 
ATOM     93  C   UNL     1       8.570 -13.113  -3.073  1.00  0.00     0.066 A 
ATOM     94  O   UNL     1       7.610 -11.054  -2.626  1.00  0.00    -0.268 OA
ATOM     95  C   UNL     1       9.832 -15.040  -4.605  1.00  0.00     0.002 A 
ATOM     96  C   UNL     1       8.872 -12.835  -4.410  1.00  0.00     0.016 A 
ATOM     97  C   UNL     1       9.515 -13.805  -5.176  1.00  0.00     0.001 A 
BRANCH  89  98
ATOM     98  C   UNL     1       5.799 -12.427  -0.775  1.00  0.00     0.051 A 
ATOM     99  C   UNL     1       5.035 -11.645  -1.667  1.00  0.00     0.027 A 
ATOM    100  C   UNL     1       5.143 -12.809   0.400  1.00  0.00     0.027 A 
ATOM    101  C   UNL     1       3.809 -11.079  -1.307  1.00  0.00     0.002 A 
ATOM    102  C   UNL     1       3.946 -12.195   0.801  1.00  0.00     0.002 A 
ATOM    103  C   UNL     1       3.298 -11.299  -0.039  1.00  0.00     0.000 A 
ENDBRANCH  89  98
ENDBRANCH  86  87
ENDBRANCH  85  86
ENDBRANCH  83  85
ENDBRANCH  79  80
ENDBRANCH  71  74
ENDBRANCH   1  70
TORSDOF 18
