REMARK SMILES COc1ccc(OCC(=O)N/N=C(/C)C(=O)NCCCNC(=O)c2ccc(-c3c4nc(c(-c5ccc(S(=O)(=O)[O-])cc5)c5ccc([nH]5)c(-c5ccc(S(=O)(=O)[O-])cc5)c5nc(c(-c6ccc(S(=O)(=O)[O-])cc6)c6ccc3[nH]6)C=C5)C=C4)cc2)cc1
REMARK SMILES IDX 18 1 17 2 15 3 16 4 13 6 12 7 14 8 11 9 9 10 10 11 8 13 7 14
REMARK SMILES IDX 6 15 3 16 4 17 85 18 5 19 84 20 2 21 1 22 19 23 20 24 21 25
REMARK SMILES IDX 22 26 23 28 24 29 25 30 83 31 26 32 82 33 27 34 28 35 29 36
REMARK SMILES IDX 76 37 30 38 81 39 75 40 77 41 31 42 80 43 74 44 73 45 32 47
REMARK SMILES IDX 62 48 43 49 61 50 44 51 47 52 60 53 78 54 45 55 46 56 59 58
REMARK SMILES IDX 79 59 48 60 33 61 34 62 42 63 35 64 41 65 36 66 37 67 38 68
REMARK SMILES IDX 39 69 40 70 63 71 64 72 72 73 65 74 71 75 66 76 67 77 68 78
REMARK SMILES IDX 69 79 70 80 49 81 50 82 58 83 51 84 57 85 52 86 53 87 54 88
REMARK SMILES IDX 55 89 56 90
REMARK H PARENT 17 5 11 12 21 27 77 46 47 57
REMARK Flexibility Score: inf
ROOT
ATOM      1  C   UNL     1       0.882   4.627   8.002  1.00  0.00     0.118 C 
ENDROOT
BRANCH   1   2
ATOM      2  N   UNL     1       2.137   3.894   7.971  1.00  0.00    -0.351 N 
ATOM      3  C   UNL     1       2.442   2.601   8.311  1.00  0.00     0.267 C 
ATOM      4  O   UNL     1       3.564   2.329   8.721  1.00  0.00    -0.268 OA
ATOM      5  H   UNL     1       2.904   4.418   7.647  1.00  0.00     0.163 HD
BRANCH   3   6
ATOM      6  C   UNL     1       1.484   1.474   7.989  1.00  0.00     0.122 C 
ATOM      7  N   UNL     1       1.784   0.409   7.301  1.00  0.00    -0.172 NA
ATOM      8  C   UNL     1       0.100   1.536   8.577  1.00  0.00     0.075 C 
BRANCH   7   9
ATOM      9  N   UNL     1       3.036   0.117   6.851  1.00  0.00    -0.244 N 
ATOM     10  C   UNL     1       3.925   0.763   6.037  1.00  0.00     0.277 C 
ATOM     11  O   UNL     1       4.941   0.141   5.690  1.00  0.00    -0.269 OA
ATOM     12  H   UNL     1       3.373  -0.747   7.183  1.00  0.00     0.193 HD
BRANCH  10  13
ATOM     13  C   UNL     1       3.728   2.194   5.543  1.00  0.00     0.331 C 
BRANCH  13  14
ATOM     14  O   UNL     1       2.431   2.583   5.141  1.00  0.00    -0.484 OA
BRANCH  14  15
ATOM     15  C   UNL     1       1.976   2.101   3.947  1.00  0.00     0.120 A 
ATOM     16  C   UNL     1       0.774   1.202   1.572  1.00  0.00     0.119 A 
ATOM     17  C   UNL     1       0.049   1.968   2.485  1.00  0.00     0.050 A 
ATOM     18  C   UNL     1       2.111   0.912   1.838  1.00  0.00     0.050 A 
ATOM     19  C   UNL     1       0.646   2.414   3.666  1.00  0.00     0.050 A 
ATOM     20  C   UNL     1       2.710   1.357   3.022  1.00  0.00     0.050 A 
BRANCH  16  21
ATOM     21  O   UNL     1       0.076   0.806   0.464  1.00  0.00    -0.497 OA
ATOM     22  C   UNL     1       0.690  -0.193  -0.340  1.00  0.00     0.278 C 
ENDBRANCH  16  21
ENDBRANCH  14  15
ENDBRANCH  13  14
ENDBRANCH  10  13
ENDBRANCH   7   9
ENDBRANCH   3   6
ENDBRANCH   1   2
BRANCH   1  23
ATOM     23  C   UNL     1       1.000   5.773   9.008  1.00  0.00     0.042 C 
BRANCH  23  24
ATOM     24  C   UNL     1       1.949   6.880   8.555  1.00  0.00     0.118 C 
BRANCH  24  25
ATOM     25  N   UNL     1       1.354   7.739   7.544  1.00  0.00    -0.352 N 
ATOM     26  C   UNL     1       1.197   9.105   7.571  1.00  0.00     0.251 C 
ATOM     27  H   UNL     1       1.022   7.284   6.736  1.00  0.00     0.163 HD
ATOM     28  O   UNL     1       0.514   9.665   6.721  1.00  0.00    -0.269 OA
BRANCH  26  29
ATOM     29  C   UNL     1       1.835   9.884   8.653  1.00  0.00     0.039 A 
ATOM     30  C   UNL     1       1.057  10.773   9.398  1.00  0.00     0.014 A 
ATOM     31  C   UNL     1       3.191   9.709   8.950  1.00  0.00     0.014 A 
ATOM     32  C   UNL     1       1.623  11.436  10.490  1.00  0.00     0.010 A 
ATOM     33  C   UNL     1       3.737  10.328  10.071  1.00  0.00     0.010 A 
ATOM     34  C   UNL     1       2.956  11.191  10.856  1.00  0.00    -0.014 A 
BRANCH  34  35
ATOM     35  C   UNL     1       3.553  11.811  12.065  1.00  0.00     0.031 A 
ATOM     36  C   UNL     1       4.681  12.796  11.930  1.00  0.00     0.074 A 
ATOM     37  C   UNL     1       3.137  11.427  13.288  1.00  0.00     0.049 A 
ATOM     38  N   UNL     1       5.399  13.359  12.868  1.00  0.00    -0.248 NA
ATOM     39  C   UNL     1       5.067  13.178  10.562  1.00  0.00     0.031 C 
ATOM     40  C   UNL     1       2.078  10.452  13.557  1.00  0.00     0.029 A 
ATOM     41  N   UNL     1       3.568  11.801  14.536  1.00  0.00    -0.354 N 
ATOM     42  C   UNL     1       6.339  14.139  12.205  1.00  0.00     0.074 A 
ATOM     43  C   UNL     1       6.117  13.955  10.787  1.00  0.00     0.031 C 
ATOM     44  C   UNL     1       1.931  10.317  14.885  1.00  0.00     0.029 A 
ATOM     45  C   UNL     1       2.907  11.167  15.561  1.00  0.00     0.049 A 
ATOM     46  H   UNL     1       4.283  12.462  14.683  1.00  0.00     0.167 HD
ATOM     47  C   UNL     1       7.295  14.943  12.729  1.00  0.00     0.031 A 
ATOM     48  C   UNL     1       3.074  11.250  16.895  1.00  0.00     0.031 A 
ATOM     49  C   UNL     1       7.503  15.147  14.136  1.00  0.00     0.049 A 
ATOM     50  C   UNL     1       4.129  12.160  17.453  1.00  0.00     0.074 A 
ATOM     51  C   UNL     1       8.407  15.988  14.761  1.00  0.00     0.029 A 
ATOM     52  N   UNL     1       6.794  14.505  15.140  1.00  0.00    -0.354 N 
ATOM     53  N   UNL     1       4.980  12.923  16.809  1.00  0.00    -0.248 NA
ATOM     54  C   UNL     1       4.245  12.223  18.917  1.00  0.00     0.031 C 
ATOM     55  C   UNL     1       8.264  15.834  16.145  1.00  0.00     0.029 A 
ATOM     56  C   UNL     1       7.249  14.920  16.380  1.00  0.00     0.049 A 
ATOM     57  H   UNL     1       6.074  13.850  14.993  1.00  0.00     0.167 HD
ATOM     58  C   UNL     1       5.723  13.568  17.790  1.00  0.00     0.074 A 
ATOM     59  C   UNL     1       5.216  13.115  19.070  1.00  0.00     0.031 C 
ATOM     60  C   UNL     1       6.736  14.457  17.643  1.00  0.00     0.031 A 
BRANCH  47  61
ATOM     61  C   UNL     1       8.194  15.659  11.759  1.00  0.00    -0.014 A 
ATOM     62  C   UNL     1       7.726  16.757  11.016  1.00  0.00     0.010 A 
ATOM     63  C   UNL     1       9.525  15.235  11.597  1.00  0.00     0.010 A 
ATOM     64  C   UNL     1       8.560  17.389  10.091  1.00  0.00     0.020 A 
ATOM     65  C   UNL     1      10.369  15.879  10.688  1.00  0.00     0.020 A 
ATOM     66  C   UNL     1       9.873  16.939   9.925  1.00  0.00     0.054 A 
BRANCH  66  67
ATOM     67  S   UNL     1      10.941  17.772   8.718  1.00  0.00     0.124 S 
ATOM     68  O   UNL     1      10.495  17.173   7.462  1.00  0.00    -0.237 OA
ATOM     69  O   UNL     1      10.597  19.181   8.897  1.00  0.00    -0.237 OA
ATOM     70  O   UNL     1      12.290  17.406   9.140  1.00  0.00    -0.744 OA
ENDBRANCH  66  67
ENDBRANCH  47  61
BRANCH  48  71
ATOM     71  C   UNL     1       2.203  10.450  17.795  1.00  0.00    -0.014 A 
ATOM     72  C   UNL     1       1.143  11.066  18.482  1.00  0.00     0.010 A 
ATOM     73  C   UNL     1       2.408   9.067  17.942  1.00  0.00     0.010 A 
ATOM     74  C   UNL     1       0.302  10.312  19.305  1.00  0.00     0.020 A 
ATOM     75  C   UNL     1       1.559   8.307  18.751  1.00  0.00     0.020 A 
ATOM     76  C   UNL     1       0.515   8.936  19.433  1.00  0.00     0.054 A 
BRANCH  76  77
ATOM     77  S   UNL     1      -0.632   7.957  20.443  1.00  0.00     0.124 S 
ATOM     78  O   UNL     1      -0.133   8.202  21.792  1.00  0.00    -0.237 OA
ATOM     79  O   UNL     1      -1.927   8.557  20.129  1.00  0.00    -0.237 OA
ATOM     80  O   UNL     1      -0.448   6.598  19.940  1.00  0.00    -0.744 OA
ENDBRANCH  76  77
ENDBRANCH  48  71
BRANCH  60  81
ATOM     81  C   UNL     1       7.350  15.014  18.895  1.00  0.00    -0.014 A 
ATOM     82  C   UNL     1       8.271  14.259  19.642  1.00  0.00     0.010 A 
ATOM     83  C   UNL     1       7.046  16.326  19.297  1.00  0.00     0.010 A 
ATOM     84  C   UNL     1       8.864  14.803  20.784  1.00  0.00     0.020 A 
ATOM     85  C   UNL     1       7.650  16.879  20.429  1.00  0.00     0.020 A 
ATOM     86  C   UNL     1       8.548  16.109  21.172  1.00  0.00     0.054 A 
BRANCH  86  87
ATOM     87  S   UNL     1       9.368  16.817  22.627  1.00  0.00     0.124 S 
ATOM     88  O   UNL     1       8.598  16.235  23.722  1.00  0.00    -0.237 OA
ATOM     89  O   UNL     1      10.740  16.331  22.496  1.00  0.00    -0.237 OA
ATOM     90  O   UNL     1       9.206  18.258  22.445  1.00  0.00    -0.744 OA
ENDBRANCH  86  87
ENDBRANCH  60  81
ENDBRANCH  34  35
ENDBRANCH  26  29
ENDBRANCH  24  25
ENDBRANCH  23  24
ENDBRANCH   1  23
TORSDOF 18
