REMARK SMILES O=C(NCCCNC(=O)c1c(F)cccc1NS(=O)(=O)C(F)(F)F)c1ccc(-c2c3nc(c(-c4ccc(S(=O)(=O)[O-])cc4)c4ccc([nH]4)c(-c4ccc(S(=O)(=O)[O-])cc4)c4nc(c(-c5ccc(S(=O)(=O)[O-])cc5)c5ccc2[nH]5)C=C4)C=C3)cc1
REMARK SMILES IDX 5 1 4 2 3 3 1 4 2 5 25 7 26 8 84 9 27 10 83 11 28 12 29 13
REMARK SMILES IDX 30 14 77 15 31 16 82 17 76 18 78 19 32 20 81 21 75 22 74 23
REMARK SMILES IDX 33 25 63 26 44 27 62 28 45 29 48 30 61 31 79 32 46 33 47 34
REMARK SMILES IDX 60 36 80 37 49 38 34 39 35 40 43 41 36 42 42 43 37 44 38 45
REMARK SMILES IDX 39 46 40 47 41 48 64 49 65 50 73 51 66 52 72 53 67 54 68 55
REMARK SMILES IDX 69 56 70 57 71 58 50 59 51 60 59 61 52 62 58 63 53 64 54 65
REMARK SMILES IDX 55 66 56 67 57 68 6 69 7 70 8 71 9 73 10 74 11 75 16 76
REMARK SMILES IDX 12 77 13 78 15 79 14 80 17 81 18 83 19 84 20 85 21 86 22 87
REMARK SMILES IDX 23 88 24 89
REMARK H PARENT 3 6 78 24 48 35 7 72 17 82
REMARK Flexibility Score: inf
ROOT
ATOM      1  C   UNL     1       4.741   0.228  -2.721  1.00  0.00     0.042 C 
ENDROOT
BRANCH   1   2
ATOM      2  C   UNL     1       4.455   0.822  -1.348  1.00  0.00     0.118 C 
BRANCH   2   3
ATOM      3  N   UNL     1       3.038   0.786  -1.004  1.00  0.00    -0.352 N 
ATOM      4  O   UNL     1       1.148   0.057  -0.029  1.00  0.00    -0.269 OA
ATOM      5  C   UNL     1       2.376   0.083  -0.025  1.00  0.00     0.251 C 
ATOM      6  H   UNL     1       2.463   1.358  -1.563  1.00  0.00     0.163 HD
BRANCH   5   7
ATOM      7  C   UNL     1       3.130  -0.654   1.014  1.00  0.00     0.039 A 
ATOM      8  C   UNL     1       4.277  -0.107   1.586  1.00  0.00     0.014 A 
ATOM      9  C   UNL     1       2.670  -1.904   1.445  1.00  0.00     0.014 A 
ATOM     10  C   UNL     1       5.057  -0.874   2.441  1.00  0.00     0.010 A 
ATOM     11  C   UNL     1       3.399  -2.630   2.395  1.00  0.00     0.010 A 
ATOM     12  C   UNL     1       4.620  -2.137   2.875  1.00  0.00    -0.014 A 
BRANCH  12  13
ATOM     13  C   UNL     1       5.443  -2.865   3.876  1.00  0.00     0.031 A 
ATOM     14  C   UNL     1       6.093  -4.184   3.557  1.00  0.00     0.074 A 
ATOM     15  C   UNL     1       5.670  -2.272   5.066  1.00  0.00     0.049 A 
ATOM     16  N   UNL     1       6.926  -4.884   4.286  1.00  0.00    -0.248 NA
ATOM     17  C   UNL     1       5.765  -4.806   2.264  1.00  0.00     0.031 C 
ATOM     18  C   UNL     1       5.074  -1.004   5.502  1.00  0.00     0.029 A 
ATOM     19  N   UNL     1       6.492  -2.623   6.106  1.00  0.00    -0.354 N 
ATOM     20  C   UNL     1       7.213  -6.028   3.551  1.00  0.00     0.074 A 
ATOM     21  C   UNL     1       6.443  -5.945   2.329  1.00  0.00     0.031 C 
ATOM     22  C   UNL     1       5.608  -0.646   6.678  1.00  0.00     0.029 A 
ATOM     23  C   UNL     1       6.533  -1.686   7.112  1.00  0.00     0.049 A 
ATOM     24  H   UNL     1       7.002  -3.464   6.130  1.00  0.00     0.167 HD
ATOM     25  C   UNL     1       8.049  -7.050   3.862  1.00  0.00     0.031 A 
ATOM     26  C   UNL     1       7.232  -1.660   8.261  1.00  0.00     0.031 A 
ATOM     27  C   UNL     1       8.813  -7.130   5.081  1.00  0.00     0.049 A 
ATOM     28  C   UNL     1       8.160  -2.797   8.572  1.00  0.00     0.074 A 
ATOM     29  C   UNL     1       9.685  -8.127   5.487  1.00  0.00     0.029 A 
ATOM     30  N   UNL     1       8.805  -6.176   6.087  1.00  0.00    -0.354 N 
ATOM     31  N   UNL     1       8.421  -3.863   7.855  1.00  0.00    -0.248 NA
ATOM     32  C   UNL     1       8.886  -2.727   9.846  1.00  0.00     0.031 C 
ATOM     33  C   UNL     1      10.176  -7.792   6.754  1.00  0.00     0.029 A 
ATOM     34  C   UNL     1       9.647  -6.564   7.116  1.00  0.00     0.049 A 
ATOM     35  H   UNL     1       8.277  -5.345   6.072  1.00  0.00     0.167 HD
ATOM     36  C   UNL     1       9.341  -4.595   8.594  1.00  0.00     0.074 A 
ATOM     37  C   UNL     1       9.619  -3.830   9.793  1.00  0.00     0.031 C 
ATOM     38  C   UNL     1       9.897  -5.799   8.311  1.00  0.00     0.031 A 
BRANCH  25  39
ATOM     39  C   UNL     1       8.174  -8.177   2.870  1.00  0.00    -0.014 A 
ATOM     40  C   UNL     1       8.890  -8.008   1.672  1.00  0.00     0.010 A 
ATOM     41  C   UNL     1       7.618  -9.435   3.164  1.00  0.00     0.010 A 
ATOM     42  C   UNL     1       9.024  -9.070   0.772  1.00  0.00     0.020 A 
ATOM     43  C   UNL     1       7.769 -10.506   2.277  1.00  0.00     0.020 A 
ATOM     44  C   UNL     1       8.459 -10.312   1.079  1.00  0.00     0.054 A 
BRANCH  44  45
ATOM     45  S   UNL     1       8.673 -11.680  -0.095  1.00  0.00     0.124 S 
ATOM     46  O   UNL     1       7.745 -11.308  -1.160  1.00  0.00    -0.237 OA
ATOM     47  O   UNL     1      10.090 -11.591  -0.439  1.00  0.00    -0.237 OA
ATOM     48  O   UNL     1       8.295 -12.861   0.677  1.00  0.00    -0.744 OA
ENDBRANCH  44  45
ENDBRANCH  25  39
BRANCH  26  49
ATOM     49  C   UNL     1       7.057  -0.524   9.204  1.00  0.00    -0.014 A 
ATOM     50  C   UNL     1       8.083   0.415   9.403  1.00  0.00     0.010 A 
ATOM     51  C   UNL     1       5.839  -0.365   9.890  1.00  0.00     0.010 A 
ATOM     52  C   UNL     1       7.899   1.485  10.285  1.00  0.00     0.020 A 
ATOM     53  C   UNL     1       5.640   0.718  10.748  1.00  0.00     0.020 A 
ATOM     54  C   UNL     1       6.678   1.629  10.951  1.00  0.00     0.054 A 
BRANCH  54  55
ATOM     55  S   UNL     1       6.432   3.052  12.049  1.00  0.00     0.124 S 
ATOM     56  O   UNL     1       7.120   2.620  13.261  1.00  0.00    -0.237 OA
ATOM     57  O   UNL     1       7.069   4.140  11.311  1.00  0.00    -0.237 OA
ATOM     58  O   UNL     1       4.977   3.150  12.154  1.00  0.00    -0.744 OA
ENDBRANCH  54  55
ENDBRANCH  26  49
BRANCH  38  59
ATOM     59  C   UNL     1      10.861  -6.352   9.323  1.00  0.00    -0.014 A 
ATOM     60  C   UNL     1      10.404  -6.862  10.552  1.00  0.00     0.010 A 
ATOM     61  C   UNL     1      12.238  -6.367   9.040  1.00  0.00     0.010 A 
ATOM     62  C   UNL     1      11.313  -7.334  11.501  1.00  0.00     0.020 A 
ATOM     63  C   UNL     1      13.148  -6.861   9.978  1.00  0.00     0.020 A 
ATOM     64  C   UNL     1      12.681  -7.322  11.211  1.00  0.00     0.054 A 
BRANCH  64  65
ATOM     65  S   UNL     1      13.844  -7.948  12.454  1.00  0.00     0.124 S 
ATOM     66  O   UNL     1      13.912  -6.832  13.393  1.00  0.00    -0.237 OA
ATOM     67  O   UNL     1      13.174  -9.148  12.950  1.00  0.00    -0.237 OA
ATOM     68  O   UNL     1      15.064  -8.196  11.689  1.00  0.00    -0.744 OA
ENDBRANCH  64  65
ENDBRANCH  38  59
ENDBRANCH  12  13
ENDBRANCH   5   7
ENDBRANCH   2   3
ENDBRANCH   1   2
BRANCH   1  69
ATOM     69  C   UNL     1       4.196   1.067  -3.869  1.00  0.00     0.118 C 
BRANCH  69  70
ATOM     70  N   UNL     1       4.888   2.345  -3.974  1.00  0.00    -0.352 N 
ATOM     71  C   UNL     1       5.876   2.725  -4.846  1.00  0.00     0.256 C 
ATOM     72  H   UNL     1       4.607   3.032  -3.327  1.00  0.00     0.163 HD
ATOM     73  O   UNL     1       6.552   3.723  -4.612  1.00  0.00    -0.269 OA
BRANCH  71  74
ATOM     74  C   UNL     1       6.192   1.899  -6.020  1.00  0.00     0.099 A 
ATOM     75  C   UNL     1       5.169   1.565  -6.911  1.00  0.00     0.138 A 
ATOM     76  C   UNL     1       7.499   1.440  -6.250  1.00  0.00     0.065 A 
ATOM     77  F   UNL     1       3.925   2.036  -6.739  1.00  0.00    -0.206 F 
ATOM     78  C   UNL     1       5.401   0.700  -7.974  1.00  0.00     0.040 A 
ATOM     79  C   UNL     1       7.716   0.545  -7.305  1.00  0.00     0.028 A 
ATOM     80  C   UNL     1       6.674   0.174  -8.161  1.00  0.00     0.005 A 
BRANCH  76  81
ATOM     81  N   UNL     1       8.598   1.795  -5.384  1.00  0.00    -0.275 N 
ATOM     82  H   UNL     1       8.604   1.532  -4.436  1.00  0.00     0.180 HD
BRANCH  81  83
ATOM     83  S   UNL     1       9.893   2.692  -6.066  1.00  0.00     0.333 S 
ATOM     84  O   UNL     1       9.325   3.601  -7.047  1.00  0.00    -0.197 OA
ATOM     85  O   UNL     1      10.587   3.234  -4.910  1.00  0.00    -0.197 OA
BRANCH  83  86
ATOM     86  C   UNL     1      10.985   1.428  -6.897  1.00  0.00     0.516 C 
ATOM     87  F   UNL     1      10.921   0.208  -6.290  1.00  0.00    -0.155 F 
ATOM     88  F   UNL     1      10.625   1.226  -8.200  1.00  0.00    -0.155 F 
ATOM     89  F   UNL     1      12.296   1.797  -6.914  1.00  0.00    -0.155 F 
ENDBRANCH  83  86
ENDBRANCH  81  83
ENDBRANCH  76  81
ENDBRANCH  71  74
ENDBRANCH  69  70
ENDBRANCH   1  69
TORSDOF 16
