REMARK SMILES Cc1ccc([C@H]2CC(=O)C3=C(C2)Nc2ccccc2N(C(=O)CCC(=O)NCCCNC(=O)c2ccc(-c4c5nc(c(-c6ccc(S(=O)(=O)[O-])cc6)c6ccc([nH]6)c(-c6ccc(S(=O)(=O)[O-])cc6)c6nc(c(-c7ccc(S(=O)(=O)[O-])cc7)c7ccc4[nH]7)C=C6)C=C5)cc2)[C@@H]3c2ccc(C)cc2)cc1
REMARK SMILES IDX 25 1 26 2 27 3 24 5 23 6 21 7 22 8 20 9 19 10 14 11 15 12
REMARK SMILES IDX 16 13 18 14 17 15 13 16 11 18 6 19 7 20 12 21 8 22 9 23
REMARK SMILES IDX 10 24 5 26 1 27 2 28 3 29 103 30 4 31 102 32 94 33 95 35
REMARK SMILES IDX 96 36 101 37 97 38 100 39 98 40 99 41 28 42 29 43 30 44
REMARK SMILES IDX 31 45 32 46 33 48 34 49 35 50 93 51 36 52 92 53 37 54 38 55
REMARK SMILES IDX 39 56 86 57 40 58 91 59 85 60 87 61 41 62 90 63 84 64 83 65
REMARK SMILES IDX 42 67 72 68 53 69 71 70 54 71 57 72 70 73 88 74 55 75 56 76
REMARK SMILES IDX 69 78 89 79 58 80 43 81 44 82 52 83 45 84 51 85 46 86 47 87
REMARK SMILES IDX 48 88 49 89 50 90 73 91 74 92 82 93 75 94 81 95 76 96 77 97
REMARK SMILES IDX 78 98 79 99 80 100 59 101 60 102 68 103 61 104 67 105 62 106
REMARK SMILES IDX 63 107 64 108 65 109 66 110
REMARK H PARENT 27 4 13 17 31 47 87 66 57 77
REMARK Flexibility Score: 90.00
ROOT
ATOM      1  C   UNL     1      -9.672  -0.013   4.029  1.00  0.00     0.220 C 
ATOM      2  O   UNL     1     -10.717   0.270   4.621  1.00  0.00    -0.275 OA
ATOM      3  N   UNL     1      -8.882  -1.003   4.529  1.00  0.00    -0.356 N 
ATOM      4  H   UNL     1      -9.206  -1.413   5.364  1.00  0.00     0.163 HD
ENDROOT
BRANCH   1   5
ATOM      5  C   UNL     1      -9.279   0.740   2.777  1.00  0.00     0.110 C 
BRANCH   5   6
ATOM      6  C   UNL     1      -8.247   1.835   3.063  1.00  0.00     0.110 C 
BRANCH   6   7
ATOM      7  C   UNL     1      -6.935   1.560   2.349  1.00  0.00     0.228 C 
ATOM      8  O   UNL     1      -6.695   0.468   1.835  1.00  0.00    -0.274 OA
BRANCH   7   9
ATOM      9  N   UNL     1      -6.091   2.658   2.152  1.00  0.00    -0.298 N 
BRANCH   9  10
ATOM     10  C   UNL     1      -5.102   2.868   3.201  1.00  0.00     0.068 A 
ATOM     11  C   UNL     1      -3.712   2.768   2.996  1.00  0.00     0.062 A 
ATOM     12  C   UNL     1      -2.804   2.875   4.069  1.00  0.00     0.028 A 
ATOM     13  C   UNL     1      -3.247   3.081   5.361  1.00  0.00     0.002 A 
ATOM     14  C   UNL     1      -5.523   3.106   4.520  1.00  0.00     0.028 A 
ATOM     15  C   UNL     1      -4.608   3.231   5.580  1.00  0.00     0.002 A 
BRANCH  11  16
ATOM     16  N   UNL     1      -3.111   2.587   1.748  1.00  0.00    -0.357 N 
ATOM     17  H   UNL     1      -2.290   3.094   1.550  1.00  0.00     0.166 HD
BRANCH  16  18
ATOM     18  C   UNL     1      -3.598   1.746   0.783  1.00  0.00     0.025 C 
ATOM     19  C   UNL     1      -3.060  -0.228  -0.767  1.00  0.00     0.033 C 
ATOM     20  C   UNL     1      -3.608   0.712  -1.835  1.00  0.00     0.089 C 
ATOM     21  C   UNL     1      -2.697   0.570   0.488  1.00  0.00     0.063 C 
ATOM     22  C   UNL     1      -4.653   1.688  -1.335  1.00  0.00     0.163 C 
ATOM     23  O   UNL     1      -5.286   2.340  -2.170  1.00  0.00    -0.294 OA
ATOM     24  C   UNL     1      -4.722   2.043   0.114  1.00  0.00     0.042 CG0
ATOM     25  G   UNL     1      -5.794   2.956   0.701  1.00  0.00     0.000 G0
BRANCH  19  26
ATOM     26  C   UNL     1      -3.918  -1.477  -0.632  1.00  0.00    -0.044 A 
ATOM     27  C   UNL     1      -6.182  -5.170  -0.475  1.00  0.00     0.044 C 
ATOM     28  C   UNL     1      -5.421  -3.880  -0.531  1.00  0.00    -0.051 A 
ATOM     29  C   UNL     1      -4.544  -3.640  -1.589  1.00  0.00     0.004 A 
ATOM     30  C   UNL     1      -5.537  -2.916   0.477  1.00  0.00     0.004 A 
ATOM     31  C   UNL     1      -3.808  -2.456  -1.637  1.00  0.00     0.004 A 
ATOM     32  C   UNL     1      -4.791  -1.729   0.429  1.00  0.00     0.004 A 
ENDBRANCH  19  26
ENDBRANCH  16  18
ENDBRANCH  11  16
ENDBRANCH   9  10
BRANCH   9  33
ATOM     33  C   UNL     1      -5.794   2.956   0.701  1.00  0.00     0.156 CG0
ATOM     34  G   UNL     1      -4.722   2.043   0.114  1.00  0.00     0.000 G0
BRANCH  33  35
ATOM     35  C   UNL     1      -7.140   2.973  -0.075  1.00  0.00    -0.020 A 
ATOM     36  C   UNL     1      -7.894   4.148  -0.197  1.00  0.00     0.006 A 
ATOM     37  C   UNL     1      -7.680   1.791  -0.627  1.00  0.00     0.006 A 
ATOM     38  C   UNL     1      -9.102   4.148  -0.913  1.00  0.00     0.004 A 
ATOM     39  C   UNL     1      -8.873   1.792  -1.344  1.00  0.00     0.004 A 
ATOM     40  C   UNL     1      -9.581   2.978  -1.518  1.00  0.00    -0.051 A 
ATOM     41  C   UNL     1     -10.841   2.983  -2.329  1.00  0.00     0.044 C 
ENDBRANCH  33  35
ENDBRANCH   9  33
ENDBRANCH   7   9
ENDBRANCH   6   7
ENDBRANCH   5   6
ENDBRANCH   1   5
BRANCH   3  42
ATOM     42  C   UNL     1      -7.631  -1.549   4.020  1.00  0.00     0.117 C 
BRANCH  42  43
ATOM     43  C   UNL     1      -6.401  -0.823   4.570  1.00  0.00     0.042 C 
BRANCH  43  44
ATOM     44  C   UNL     1      -5.531  -1.659   5.512  1.00  0.00     0.118 C 
BRANCH  44  45
ATOM     45  N   UNL     1      -4.125  -1.517   5.116  1.00  0.00    -0.352 N 
ATOM     46  C   UNL     1      -3.076  -0.840   5.698  1.00  0.00     0.251 C 
ATOM     47  H   UNL     1      -3.890  -1.991   4.285  1.00  0.00     0.163 HD
ATOM     48  O   UNL     1      -2.041  -0.554   5.127  1.00  0.00    -0.269 OA
BRANCH  46  49
ATOM     49  C   UNL     1      -3.222  -0.557   7.129  1.00  0.00     0.039 A 
ATOM     50  C   UNL     1      -2.672  -1.488   8.016  1.00  0.00     0.014 A 
ATOM     51  C   UNL     1      -4.177   0.369   7.524  1.00  0.00     0.014 A 
ATOM     52  C   UNL     1      -3.251  -1.638   9.267  1.00  0.00     0.010 A 
ATOM     53  C   UNL     1      -4.746   0.233   8.766  1.00  0.00     0.010 A 
ATOM     54  C   UNL     1      -4.355  -0.842   9.575  1.00  0.00    -0.014 A 
BRANCH  54  55
ATOM     55  C   UNL     1      -5.358  -1.236  10.549  1.00  0.00     0.031 A 
ATOM     56  C   UNL     1      -5.438  -0.576  11.857  1.00  0.00     0.074 A 
ATOM     57  C   UNL     1      -6.332  -2.075  10.130  1.00  0.00     0.049 A 
ATOM     58  N   UNL     1      -6.007  -1.091  12.892  1.00  0.00    -0.248 NA
ATOM     59  C   UNL     1      -4.827   0.722  12.112  1.00  0.00     0.031 C 
ATOM     60  C   UNL     1      -7.622  -2.314  10.763  1.00  0.00     0.029 A 
ATOM     61  N   UNL     1      -6.271  -3.033   9.111  1.00  0.00    -0.354 N 
ATOM     62  C   UNL     1      -6.139  -0.083  13.820  1.00  0.00     0.074 A 
ATOM     63  C   UNL     1      -5.274   0.974  13.346  1.00  0.00     0.031 C 
ATOM     64  C   UNL     1      -8.090  -3.500  10.340  1.00  0.00     0.029 A 
ATOM     65  C   UNL     1      -7.041  -4.120   9.545  1.00  0.00     0.049 A 
ATOM     66  H   UNL     1      -5.783  -2.957   8.259  1.00  0.00     0.167 HD
ATOM     67  C   UNL     1      -7.099  -0.186  14.784  1.00  0.00     0.031 A 
ATOM     68  C   UNL     1      -6.527  -5.367   9.756  1.00  0.00     0.031 A 
ATOM     69  C   UNL     1      -7.792  -1.475  14.712  1.00  0.00     0.049 A 
ATOM     70  C   UNL     1      -6.675  -5.818  11.194  1.00  0.00     0.074 A 
ATOM     71  C   UNL     1      -9.033  -1.847  14.219  1.00  0.00     0.029 A 
ATOM     72  N   UNL     1      -7.080  -2.653  14.914  1.00  0.00    -0.354 N 
ATOM     73  N   UNL     1      -6.979  -5.015  12.176  1.00  0.00    -0.248 NA
ATOM     74  C   UNL     1      -6.452  -7.187  11.651  1.00  0.00     0.031 C 
ATOM     75  C   UNL     1      -9.028  -3.256  14.040  1.00  0.00     0.029 A 
ATOM     76  C   UNL     1      -7.801  -3.741  14.457  1.00  0.00     0.049 A 
ATOM     77  H   UNL     1      -6.188  -2.704  15.325  1.00  0.00     0.167 HD
ATOM     78  C   UNL     1      -6.985  -5.704  13.358  1.00  0.00     0.074 A 
ATOM     79  C   UNL     1      -6.660  -7.067  12.976  1.00  0.00     0.031 C 
ATOM     80  C   UNL     1      -7.243  -5.086  14.548  1.00  0.00     0.031 A 
BRANCH  67  81
ATOM     81  C   UNL     1      -7.627   0.991  15.585  1.00  0.00    -0.014 A 
ATOM     82  C   UNL     1      -8.902   0.909  16.185  1.00  0.00     0.010 A 
ATOM     83  C   UNL     1      -6.960   2.221  15.738  1.00  0.00     0.010 A 
ATOM     84  C   UNL     1      -9.510   2.011  16.809  1.00  0.00     0.020 A 
ATOM     85  C   UNL     1      -7.562   3.340  16.332  1.00  0.00     0.020 A 
ATOM     86  C   UNL     1      -8.843   3.232  16.855  1.00  0.00     0.054 A 
BRANCH  86  87
ATOM     87  S   UNL     1      -9.657   4.663  17.608  1.00  0.00     0.124 S 
ATOM     88  O   UNL     1     -10.865   4.800  16.799  1.00  0.00    -0.237 OA
ATOM     89  O   UNL     1      -9.864   4.219  18.983  1.00  0.00    -0.237 OA
ATOM     90  O   UNL     1      -8.682   5.741  17.445  1.00  0.00    -0.744 OA
ENDBRANCH  86  87
ENDBRANCH  67  81
BRANCH  68  91
ATOM     91  C   UNL     1      -5.404  -5.741   8.854  1.00  0.00    -0.014 A 
ATOM     92  C   UNL     1      -5.717  -6.027   7.509  1.00  0.00     0.010 A 
ATOM     93  C   UNL     1      -4.074  -5.431   9.189  1.00  0.00     0.010 A 
ATOM     94  C   UNL     1      -4.759  -5.875   6.503  1.00  0.00     0.020 A 
ATOM     95  C   UNL     1      -3.111  -5.271   8.179  1.00  0.00     0.020 A 
ATOM     96  C   UNL     1      -3.474  -5.451   6.840  1.00  0.00     0.054 A 
BRANCH  96  97
ATOM     97  S   UNL     1      -2.357  -4.946   5.493  1.00  0.00     0.124 S 
ATOM     98  O   UNL     1      -1.927  -6.233   4.957  1.00  0.00    -0.237 OA
ATOM     99  O   UNL     1      -3.244  -4.168   4.628  1.00  0.00    -0.237 OA
ATOM    100  O   UNL     1      -1.332  -4.176   6.191  1.00  0.00    -0.744 OA
ENDBRANCH  96  97
ENDBRANCH  68  91
BRANCH  80 101
ATOM    101  C   UNL     1      -7.072  -5.691  15.921  1.00  0.00    -0.014 A 
ATOM    102  C   UNL     1      -6.232  -6.777  16.209  1.00  0.00     0.010 A 
ATOM    103  C   UNL     1      -7.693  -5.052  17.024  1.00  0.00     0.010 A 
ATOM    104  C   UNL     1      -6.066  -7.240  17.523  1.00  0.00     0.020 A 
ATOM    105  C   UNL     1      -7.496  -5.473  18.340  1.00  0.00     0.020 A 
ATOM    106  C   UNL     1      -6.701  -6.586  18.580  1.00  0.00     0.054 A 
BRANCH 106 107
ATOM    107  S   UNL     1      -6.432  -7.149  20.279  1.00  0.00     0.124 S 
ATOM    108  O   UNL     1      -7.464  -8.172  20.422  1.00  0.00    -0.237 OA
ATOM    109  O   UNL     1      -5.058  -7.646  20.245  1.00  0.00    -0.237 OA
ATOM    110  O   UNL     1      -6.629  -5.941  21.075  1.00  0.00    -0.744 OA
ENDBRANCH 106 107
ENDBRANCH  80 101
ENDBRANCH  54  55
ENDBRANCH  46  49
ENDBRANCH  44  45
ENDBRANCH  43  44
ENDBRANCH  42  43
ENDBRANCH   3  42
TORSDOF 18
