REMARK SMILES C/C(=N\Nc1nc(-c2ccc(Cl)cc2)cs1)c1nnn(-c2ccc(C(=O)NCCCNC(=O)c3ccc(-c4c5nc(c(-c6ccc(S(=O)(=O)[O-])cc6)c6ccc([nH]6)c(-c6ccc(S(=O)(=O)[O-])cc6)c6nc(c(-c7ccc(S(=O)(=O)[O-])cc7)c7ccc4[nH]7)C=C6)C=C5)cc3)cc2)c1C
REMARK SMILES IDX 28 1 27 2 25 3 26 4 24 6 21 7 22 8 95 9 23 10 94 11 20 12
REMARK SMILES IDX 17 13 18 14 96 15 19 16 97 17 2 18 1 19 3 20 4 21 5 23 6 24
REMARK SMILES IDX 16 25 7 26 15 27 8 28 9 29 14 30 10 31 13 32 11 33 12 34
REMARK SMILES IDX 29 35 30 36 31 37 32 38 33 40 34 41 35 42 93 43 36 44 92 45
REMARK SMILES IDX 37 46 38 47 39 48 86 49 40 50 91 51 85 52 87 53 41 54 90 55
REMARK SMILES IDX 84 56 83 57 42 59 72 60 53 61 71 62 54 63 57 64 70 65 88 66
REMARK SMILES IDX 55 67 56 68 69 70 89 71 58 72 43 73 44 74 52 75 45 76 51 77
REMARK SMILES IDX 46 78 47 79 48 80 49 81 50 82 73 83 74 84 82 85 75 86 81 87
REMARK SMILES IDX 76 88 77 89 78 90 79 91 80 92 59 93 60 94 68 95 61 96 67 97
REMARK SMILES IDX 62 98 63 99 64 100 65 101 66 102
REMARK H PARENT 27 5 4 22 31 39 87 58 57 69
REMARK Flexibility Score: inf
ROOT
ATOM      1  C   UNL     1       8.452  -3.588  -4.060  1.00  0.00     0.118 C 
ENDROOT
BRANCH   1   2
ATOM      2  N   UNL     1       8.162  -3.491  -5.487  1.00  0.00    -0.352 N 
ATOM      3  C   UNL     1       6.987  -3.303  -6.181  1.00  0.00     0.251 C 
ATOM      4  O   UNL     1       7.056  -3.077  -7.387  1.00  0.00    -0.269 OA
ATOM      5  H   UNL     1       8.957  -3.576  -6.062  1.00  0.00     0.163 HD
BRANCH   3   6
ATOM      6  C   UNL     1       5.651  -3.299  -5.523  1.00  0.00     0.039 A 
ATOM      7  C   UNL     1       3.216  -2.985  -4.204  1.00  0.00     0.067 A 
ATOM      8  C   UNL     1       3.375  -2.410  -5.463  1.00  0.00     0.029 A 
ATOM      9  C   UNL     1       4.193  -3.820  -3.666  1.00  0.00     0.029 A 
ATOM     10  C   UNL     1       4.610  -2.555  -6.111  1.00  0.00     0.016 A 
ATOM     11  C   UNL     1       5.386  -3.999  -4.348  1.00  0.00     0.016 A 
BRANCH   7  12
ATOM     12  N   UNL     1       2.167  -2.587  -3.364  1.00  0.00    -0.217 N 
ATOM     13  C   UNL     1       1.002  -1.804  -1.706  1.00  0.00     0.132 A 
ATOM     14  N   UNL     1       0.146  -2.319  -2.643  1.00  0.00    -0.128 NA
ATOM     15  C   UNL     1       2.307  -1.955  -2.144  1.00  0.00     0.071 A 
ATOM     16  N   UNL     1       0.867  -2.707  -3.692  1.00  0.00    -0.061 NA
ATOM     17  C   UNL     1       3.600  -1.455  -1.602  1.00  0.00     0.069 C 
BRANCH  13  18
ATOM     18  C   UNL     1       0.584  -1.087  -0.510  1.00  0.00     0.087 C 
ATOM     19  C   UNL     1       1.165   0.297  -0.370  1.00  0.00     0.071 C 
ATOM     20  N   UNL     1      -0.174  -1.748   0.319  1.00  0.00    -0.176 NA
BRANCH  20  21
ATOM     21  N   UNL     1      -0.530  -1.311   1.576  1.00  0.00    -0.252 N 
ATOM     22  H   UNL     1      -0.993  -1.982   2.127  1.00  0.00     0.193 HD
BRANCH  21  23
ATOM     23  C   UNL     1      -0.352  -0.110   2.182  1.00  0.00     0.203 A 
ATOM     24  N   UNL     1      -0.535   1.069   1.635  1.00  0.00    -0.219 NA
ATOM     25  S   UNL     1       0.252  -0.032   3.801  1.00  0.00    -0.103 S 
ATOM     26  C   UNL     1       0.132   2.041   2.350  1.00  0.00     0.084 A 
ATOM     27  C   UNL     1       0.628   1.630   3.568  1.00  0.00     0.097 A 
BRANCH  26  28
ATOM     28  C   UNL     1       0.351   3.346   1.753  1.00  0.00     0.001 A 
ATOM     29  C   UNL     1      -0.727   4.036   1.186  1.00  0.00     0.012 A 
ATOM     30  C   UNL     1       1.646   3.869   1.626  1.00  0.00     0.012 A 
ATOM     31  C   UNL     1      -0.521   5.253   0.531  1.00  0.00     0.021 A 
ATOM     32  C   UNL     1       1.853   5.080   0.960  1.00  0.00     0.021 A 
ATOM     33  C   UNL     1       0.768   5.771   0.423  1.00  0.00     0.041 A 
ATOM     34  Cl  UNL     1       1.023   7.265  -0.390  1.00  0.00    -0.084 Cl
ENDBRANCH  26  28
ENDBRANCH  21  23
ENDBRANCH  20  21
ENDBRANCH  13  18
ENDBRANCH   7  12
ENDBRANCH   3   6
ENDBRANCH   1   2
BRANCH   1  35
ATOM     35  C   UNL     1       8.556  -5.039  -3.568  1.00  0.00     0.042 C 
BRANCH  35  36
ATOM     36  C   UNL     1       9.911  -5.664  -3.832  1.00  0.00     0.118 C 
BRANCH  36  37
ATOM     37  N   UNL     1      10.958  -5.134  -2.959  1.00  0.00    -0.352 N 
ATOM     38  C   UNL     1      12.313  -5.426  -2.982  1.00  0.00     0.251 C 
ATOM     39  H   UNL     1      10.665  -4.492  -2.272  1.00  0.00     0.163 HD
ATOM     40  O   UNL     1      13.008  -5.228  -2.002  1.00  0.00    -0.269 OA
BRANCH  38  41
ATOM     41  C   UNL     1      12.881  -5.994  -4.220  1.00  0.00     0.039 A 
ATOM     42  C   UNL     1      13.821  -7.027  -4.192  1.00  0.00     0.014 A 
ATOM     43  C   UNL     1      12.397  -5.508  -5.428  1.00  0.00     0.014 A 
ATOM     44  C   UNL     1      14.194  -7.623  -5.396  1.00  0.00     0.010 A 
ATOM     45  C   UNL     1      12.605  -6.224  -6.575  1.00  0.00     0.010 A 
ATOM     46  C   UNL     1      13.560  -7.232  -6.586  1.00  0.00    -0.014 A 
BRANCH  46  47
ATOM     47  C   UNL     1      13.817  -7.917  -7.847  1.00  0.00     0.031 A 
ATOM     48  C   UNL     1      13.654  -9.395  -7.811  1.00  0.00     0.074 A 
ATOM     49  C   UNL     1      13.970  -7.265  -9.021  1.00  0.00     0.049 A 
ATOM     50  N   UNL     1      14.577 -10.291  -7.914  1.00  0.00    -0.248 NA
ATOM     51  C   UNL     1      12.324  -9.941  -7.497  1.00  0.00     0.031 C 
ATOM     52  C   UNL     1      13.831  -5.829  -9.301  1.00  0.00     0.029 A 
ATOM     53  N   UNL     1      14.160  -7.787 -10.259  1.00  0.00    -0.354 N 
ATOM     54  C   UNL     1      13.926 -11.520  -7.889  1.00  0.00     0.074 A 
ATOM     55  C   UNL     1      12.578 -11.250  -7.451  1.00  0.00     0.031 C 
ATOM     56  C   UNL     1      13.685  -5.638 -10.630  1.00  0.00     0.029 A 
ATOM     57  C   UNL     1      13.921  -6.901 -11.302  1.00  0.00     0.049 A 
ATOM     58  H   UNL     1      14.444  -8.718 -10.407  1.00  0.00     0.167 HD
ATOM     59  C   UNL     1      14.473 -12.637  -8.447  1.00  0.00     0.031 A 
ATOM     60  C   UNL     1      13.898  -7.191 -12.626  1.00  0.00     0.031 A 
ATOM     61  C   UNL     1      15.869 -12.452  -8.755  1.00  0.00     0.049 A 
ATOM     62  C   UNL     1      14.654  -8.455 -12.799  1.00  0.00     0.074 A 
ATOM     63  C   UNL     1      16.988 -12.137  -8.008  1.00  0.00     0.029 A 
ATOM     64  N   UNL     1      16.193 -12.156 -10.060  1.00  0.00    -0.354 N 
ATOM     65  N   UNL     1      15.931  -8.563 -12.556  1.00  0.00    -0.248 NA
ATOM     66  C   UNL     1      13.912  -9.705 -12.787  1.00  0.00     0.031 C 
ATOM     67  C   UNL     1      17.714 -11.210  -8.814  1.00  0.00     0.029 A 
ATOM     68  C   UNL     1      17.047 -11.080 -10.034  1.00  0.00     0.049 A 
ATOM     69  H   UNL     1      15.873 -12.628 -10.862  1.00  0.00     0.167 HD
ATOM     70  C   UNL     1      16.074  -9.798 -11.937  1.00  0.00     0.074 A 
ATOM     71  C   UNL     1      14.815 -10.495 -12.200  1.00  0.00     0.031 C 
ATOM     72  C   UNL     1      17.078 -10.035 -11.040  1.00  0.00     0.031 A 
BRANCH  59  73
ATOM     73  C   UNL     1      13.660 -13.760  -9.037  1.00  0.00    -0.014 A 
ATOM     74  C   UNL     1      14.306 -14.940  -9.455  1.00  0.00     0.010 A 
ATOM     75  C   UNL     1      12.312 -13.600  -9.420  1.00  0.00     0.010 A 
ATOM     76  C   UNL     1      13.644 -15.892 -10.244  1.00  0.00     0.020 A 
ATOM     77  C   UNL     1      11.629 -14.561 -10.167  1.00  0.00     0.020 A 
ATOM     78  C   UNL     1      12.309 -15.690 -10.599  1.00  0.00     0.054 A 
BRANCH  78  79
ATOM     79  S   UNL     1      11.482 -16.885 -11.679  1.00  0.00     0.124 S 
ATOM     80  O   UNL     1      12.206 -16.707 -12.934  1.00  0.00    -0.237 OA
ATOM     81  O   UNL     1      11.719 -18.147 -10.982  1.00  0.00    -0.237 OA
ATOM     82  O   UNL     1      10.092 -16.435 -11.686  1.00  0.00    -0.744 OA
ENDBRANCH  78  79
ENDBRANCH  59  73
BRANCH  60  83
ATOM     83  C   UNL     1      13.013  -6.618 -13.670  1.00  0.00    -0.014 A 
ATOM     84  C   UNL     1      13.270  -6.835 -15.036  1.00  0.00     0.010 A 
ATOM     85  C   UNL     1      11.751  -6.095 -13.316  1.00  0.00     0.010 A 
ATOM     86  C   UNL     1      12.277  -6.605 -16.004  1.00  0.00     0.020 A 
ATOM     87  C   UNL     1      10.759  -5.858 -14.276  1.00  0.00     0.020 A 
ATOM     88  C   UNL     1      11.019  -6.140 -15.614  1.00  0.00     0.054 A 
BRANCH  88  89
ATOM     89  S   UNL     1       9.685  -6.033 -16.845  1.00  0.00     0.124 S 
ATOM     90  O   UNL     1      10.107  -4.901 -17.664  1.00  0.00    -0.237 OA
ATOM     91  O   UNL     1       9.746  -7.340 -17.494  1.00  0.00    -0.237 OA
ATOM     92  O   UNL     1       8.488  -5.802 -16.038  1.00  0.00    -0.744 OA
ENDBRANCH  88  89
ENDBRANCH  60  83
BRANCH  72  93
ATOM     93  C   UNL     1      18.194  -9.014 -10.914  1.00  0.00    -0.014 A 
ATOM     94  C   UNL     1      17.994  -7.670 -10.540  1.00  0.00     0.010 A 
ATOM     95  C   UNL     1      19.516  -9.480 -11.028  1.00  0.00     0.010 A 
ATOM     96  C   UNL     1      19.085  -6.813 -10.315  1.00  0.00     0.020 A 
ATOM     97  C   UNL     1      20.606  -8.639 -10.787  1.00  0.00     0.020 A 
ATOM     98  C   UNL     1      20.387  -7.305 -10.441  1.00  0.00     0.054 A 
BRANCH  98  99
ATOM     99  S   UNL     1      21.797  -6.209 -10.110  1.00  0.00     0.124 S 
ATOM    100  O   UNL     1      21.738  -5.270 -11.226  1.00  0.00    -0.237 OA
ATOM    101  O   UNL     1      21.475  -5.650  -8.799  1.00  0.00    -0.237 OA
ATOM    102  O   UNL     1      22.949  -7.111 -10.122  1.00  0.00    -0.744 OA
ENDBRANCH  98  99
ENDBRANCH  72  93
ENDBRANCH  46  47
ENDBRANCH  38  41
ENDBRANCH  36  37
ENDBRANCH  35  36
ENDBRANCH   1  35
TORSDOF 18
