REMARK SMILES O=C(NCCCNC(=O)c1cc2nn[nH]n2n1)c1ccc(-c2c3nc(c(-c4ccc(S(=O)(=O)[O-])cc4)c4ccc([nH]4)c(-c4ccc(S(=O)(=O)[O-])cc4)c4nc(c(-c5ccc(S(=O)(=O)[O-])cc5)c5ccc2[nH]5)C=C4)C=C3)cc1
REMARK SMILES IDX 1 1 2 2 3 3 18 5 19 6 77 7 20 8 76 9 21 10 22 11 23 12 70 13
REMARK SMILES IDX 24 14 75 15 69 16 71 17 25 18 74 19 68 20 67 21 26 23 56 24
REMARK SMILES IDX 37 25 55 26 38 27 41 28 54 29 72 30 39 31 40 32 53 34 73 35
REMARK SMILES IDX 42 36 27 37 28 38 36 39 29 40 35 41 30 42 31 43 32 44 33 45
REMARK SMILES IDX 34 46 57 47 58 48 66 49 59 50 65 51 60 52 61 53 62 54 63 55
REMARK SMILES IDX 64 56 43 57 44 58 52 59 45 60 51 61 46 62 47 63 48 64 49 65
REMARK SMILES IDX 50 66 4 67 5 68 6 69 7 70 8 71 9 73 10 74 11 75 17 76 12 77
REMARK SMILES IDX 16 78 13 79 15 80 14 81
REMARK H PARENT 3 4 71 22 41 33 7 72 15 82
REMARK Flexibility Score: inf
ROOT
ATOM      1  O   UNL     1       1.167   0.152   0.698  1.00  0.00    -0.269 OA
ATOM      2  C   UNL     1       2.210   0.116   0.035  1.00  0.00     0.251 C 
ATOM      3  N   UNL     1       3.263   0.800   0.577  1.00  0.00    -0.352 N 
ATOM      4  H   UNL     1       2.996   1.332   1.362  1.00  0.00     0.163 HD
ENDROOT
BRANCH   2   5
ATOM      5  C   UNL     1       2.204  -0.615  -1.266  1.00  0.00     0.039 A 
ATOM      6  C   UNL     1       3.299  -0.813  -2.108  1.00  0.00     0.014 A 
ATOM      7  C   UNL     1       0.955  -1.125  -1.675  1.00  0.00     0.014 A 
ATOM      8  C   UNL     1       3.139  -1.462  -3.338  1.00  0.00     0.010 A 
ATOM      9  C   UNL     1       0.792  -1.777  -2.898  1.00  0.00     0.010 A 
ATOM     10  C   UNL     1       1.883  -1.927  -3.747  1.00  0.00    -0.014 A 
BRANCH  10  11
ATOM     11  C   UNL     1       1.781  -2.652  -5.019  1.00  0.00     0.031 A 
ATOM     12  C   UNL     1       2.517  -3.950  -5.100  1.00  0.00     0.074 A 
ATOM     13  C   UNL     1       0.963  -2.320  -6.039  1.00  0.00     0.049 A 
ATOM     14  N   UNL     1       3.487  -4.279  -5.891  1.00  0.00    -0.248 NA
ATOM     15  C   UNL     1       2.141  -5.000  -4.143  1.00  0.00     0.031 C 
ATOM     16  C   UNL     1      -0.099  -1.311  -6.061  1.00  0.00     0.029 A 
ATOM     17  N   UNL     1       0.854  -2.911  -7.266  1.00  0.00    -0.354 N 
ATOM     18  C   UNL     1       3.747  -5.628  -5.650  1.00  0.00     0.074 A 
ATOM     19  C   UNL     1       2.959  -5.992  -4.497  1.00  0.00     0.031 C 
ATOM     20  C   UNL     1      -0.876  -1.506  -7.152  1.00  0.00     0.029 A 
ATOM     21  C   UNL     1      -0.282  -2.547  -7.976  1.00  0.00     0.049 A 
ATOM     22  H   UNL     1       1.524  -3.541  -7.617  1.00  0.00     0.167 HD
ATOM     23  C   UNL     1       4.473  -6.410  -6.499  1.00  0.00     0.031 A 
ATOM     24  C   UNL     1      -0.730  -3.092  -9.134  1.00  0.00     0.031 A 
ATOM     25  C   UNL     1       5.210  -5.640  -7.462  1.00  0.00     0.049 A 
ATOM     26  C   UNL     1       0.407  -3.787  -9.781  1.00  0.00     0.074 A 
ATOM     27  C   UNL     1       6.204  -4.685  -7.395  1.00  0.00     0.029 A 
ATOM     28  N   UNL     1       4.716  -5.578  -8.742  1.00  0.00    -0.354 N 
ATOM     29  N   UNL     1       1.447  -3.178 -10.277  1.00  0.00    -0.248 NA
ATOM     30  C   UNL     1       0.565  -5.215  -9.567  1.00  0.00     0.031 C 
ATOM     31  C   UNL     1       5.922  -3.784  -8.464  1.00  0.00     0.029 A 
ATOM     32  C   UNL     1       4.796  -4.266  -9.135  1.00  0.00     0.049 A 
ATOM     33  H   UNL     1       4.371  -6.330  -9.276  1.00  0.00     0.167 HD
ATOM     34  C   UNL     1       2.506  -4.046 -10.063  1.00  0.00     0.074 A 
ATOM     35  C   UNL     1       1.885  -5.323  -9.731  1.00  0.00     0.031 C 
ATOM     36  C   UNL     1       3.783  -3.586  -9.915  1.00  0.00     0.031 A 
BRANCH  23  37
ATOM     37  C   UNL     1       4.282  -7.899  -6.656  1.00  0.00    -0.014 A 
ATOM     38  C   UNL     1       5.199  -8.639  -7.432  1.00  0.00     0.010 A 
ATOM     39  C   UNL     1       3.088  -8.549  -6.284  1.00  0.00     0.010 A 
ATOM     40  C   UNL     1       4.910  -9.944  -7.857  1.00  0.00     0.020 A 
ATOM     41  C   UNL     1       2.809  -9.865  -6.666  1.00  0.00     0.020 A 
ATOM     42  C   UNL     1       3.708 -10.542  -7.481  1.00  0.00     0.054 A 
BRANCH  42  43
ATOM     43  S   UNL     1       3.292 -12.183  -8.127  1.00  0.00     0.124 S 
ATOM     44  O   UNL     1       3.097 -11.906  -9.546  1.00  0.00    -0.237 OA
ATOM     45  O   UNL     1       4.481 -12.961  -7.791  1.00  0.00    -0.237 OA
ATOM     46  O   UNL     1       2.086 -12.546  -7.386  1.00  0.00    -0.744 OA
ENDBRANCH  42  43
ENDBRANCH  23  37
BRANCH  24  47
ATOM     47  C   UNL     1      -2.131  -3.290  -9.579  1.00  0.00    -0.014 A 
ATOM     48  C   UNL     1      -2.432  -3.596 -10.919  1.00  0.00     0.010 A 
ATOM     49  C   UNL     1      -3.150  -3.464  -8.621  1.00  0.00     0.010 A 
ATOM     50  C   UNL     1      -3.687  -4.116 -11.278  1.00  0.00     0.020 A 
ATOM     51  C   UNL     1      -4.405  -3.976  -8.972  1.00  0.00     0.020 A 
ATOM     52  C   UNL     1      -4.659  -4.323 -10.296  1.00  0.00     0.054 A 
BRANCH  52  53
ATOM     53  S   UNL     1      -6.207  -5.170 -10.734  1.00  0.00     0.124 S 
ATOM     54  O   UNL     1      -6.904  -4.157 -11.520  1.00  0.00    -0.237 OA
ATOM     55  O   UNL     1      -5.733  -6.333 -11.480  1.00  0.00    -0.237 OA
ATOM     56  O   UNL     1      -6.811  -5.475  -9.438  1.00  0.00    -0.744 OA
ENDBRANCH  52  53
ENDBRANCH  24  47
BRANCH  36  57
ATOM     57  C   UNL     1       4.095  -2.162 -10.318  1.00  0.00    -0.014 A 
ATOM     58  C   UNL     1       3.479  -1.038  -9.735  1.00  0.00     0.010 A 
ATOM     59  C   UNL     1       5.174  -1.953 -11.196  1.00  0.00     0.010 A 
ATOM     60  C   UNL     1       3.923   0.258 -10.032  1.00  0.00     0.020 A 
ATOM     61  C   UNL     1       5.635  -0.665 -11.482  1.00  0.00     0.020 A 
ATOM     62  C   UNL     1       5.005   0.436 -10.900  1.00  0.00     0.054 A 
BRANCH  62  63
ATOM     63  S   UNL     1       5.635   2.111 -11.204  1.00  0.00     0.124 S 
ATOM     64  O   UNL     1       4.580   2.703 -12.022  1.00  0.00    -0.237 OA
ATOM     65  O   UNL     1       5.769   2.657  -9.855  1.00  0.00    -0.237 OA
ATOM     66  O   UNL     1       6.903   1.885 -11.898  1.00  0.00    -0.744 OA
ENDBRANCH  62  63
ENDBRANCH  36  57
ENDBRANCH  10  11
ENDBRANCH   2   5
BRANCH   3  67
ATOM     67  C   UNL     1       4.675   0.934   0.280  1.00  0.00     0.118 C 
BRANCH  67  68
ATOM     68  C   UNL     1       5.014   2.046  -0.713  1.00  0.00     0.042 C 
BRANCH  68  69
ATOM     69  C   UNL     1       4.509   3.441  -0.335  1.00  0.00     0.118 C 
BRANCH  69  70
ATOM     70  N   UNL     1       5.069   3.937   0.910  1.00  0.00    -0.351 N 
ATOM     71  C   UNL     1       5.872   5.017   1.169  1.00  0.00     0.271 C 
ATOM     72  H   UNL     1       4.831   3.406   1.704  1.00  0.00     0.163 HD
ATOM     73  O   UNL     1       6.311   5.126   2.338  1.00  0.00    -0.267 OA
BRANCH  71  74
ATOM     74  C   UNL     1       6.188   6.003   0.132  1.00  0.00     0.154 A 
ATOM     75  C   UNL     1       5.295   6.588  -0.843  1.00  0.00     0.089 A 
ATOM     76  N   UNL     1       7.427   6.556   0.045  1.00  0.00    -0.143 NA
ATOM     77  C   UNL     1       6.077   7.482  -1.518  1.00  0.00     0.199 A 
ATOM     78  N   UNL     1       7.284   7.395  -0.960  1.00  0.00    -0.135 N 
ATOM     79  N   UNL     1       6.105   8.416  -2.495  1.00  0.00    -0.109 NA
ATOM     80  N   UNL     1       8.039   8.301  -1.549  1.00  0.00    -0.177 N 
ATOM     81  N   UNL     1       7.297   8.884  -2.561  1.00  0.00    -0.050 NA
ATOM     82  H   UNL     1       8.968   8.524  -1.311  1.00  0.00     0.216 HD
ENDBRANCH  71  74
ENDBRANCH  69  70
ENDBRANCH  68  69
ENDBRANCH  67  68
ENDBRANCH   3  67
TORSDOF 13
