REMARK SMILES COc1ccc(C(=O)N[C@@H](C(=O)NCCCNC(=O)c2ccc(-c3c4nc(c(-c5ccc(S(=O)(=O)[O-])cc5)c5ccc([nH]5)c(-c5ccc(S(=O)(=O)[O-])cc5)c5nc(c(-c6ccc(S(=O)(=O)[O-])cc6)c6ccc3[nH]6)C=C5)C=C4)cc2)C(C)C)cc1O
REMARK SMILES IDX 15 1 14 2 13 3 11 4 12 5 10 7 9 8 7 9 8 10 6 12 3 13 4 14
REMARK SMILES IDX 84 15 5 16 83 17 2 18 1 19 85 20 80 22 81 23 82 24 16 25
REMARK SMILES IDX 17 26 18 27 19 29 20 30 21 31 79 32 22 33 78 34 23 35 24 36
REMARK SMILES IDX 25 37 72 38 26 39 77 40 71 41 73 42 27 43 76 44 70 45 69 46
REMARK SMILES IDX 28 48 58 49 39 50 57 51 40 52 43 53 56 54 74 55 41 56 42 57
REMARK SMILES IDX 55 59 75 60 44 61 29 62 30 63 38 64 31 65 37 66 32 67 33 68
REMARK SMILES IDX 34 69 35 70 36 71 59 72 60 73 68 74 61 75 67 76 62 77 63 78
REMARK SMILES IDX 64 79 65 80 66 81 45 82 46 83 54 84 47 85 53 86 48 87 49 88
REMARK SMILES IDX 50 89 51 90 52 91
REMARK H PARENT 13 6 9 11 85 21 17 28 73 47 43 58
REMARK Flexibility Score: inf
ROOT
ATOM      1  C   UNL     1      -1.051   0.768   7.226  1.00  0.00     0.042 C 
ENDROOT
BRANCH   1   2
ATOM      2  C   UNL     1      -1.175  -0.459   6.332  1.00  0.00     0.117 C 
BRANCH   2   3
ATOM      3  N   UNL     1      -2.223  -1.347   6.801  1.00  0.00    -0.354 N 
ATOM      4  C   UNL     1      -3.458  -1.572   6.258  1.00  0.00     0.242 C 
ATOM      5  O   UNL     1      -4.230  -2.316   6.863  1.00  0.00    -0.273 OA
ATOM      6  H   UNL     1      -2.016  -1.855   7.618  1.00  0.00     0.163 HD
BRANCH   4   7
ATOM      7  C   UNL     1      -3.788  -0.947   4.880  1.00  0.00     0.174 C 
BRANCH   7   8
ATOM      8  N   UNL     1      -3.904   0.510   5.001  1.00  0.00    -0.340 N 
ATOM      9  C   UNL     1      -3.363   1.568   4.314  1.00  0.00     0.252 C 
ATOM     10  O   UNL     1      -3.719   2.696   4.657  1.00  0.00    -0.269 OA
ATOM     11  H   UNL     1      -4.499   0.790   5.734  1.00  0.00     0.164 HD
BRANCH   9  12
ATOM     12  C   UNL     1      -2.333   1.443   3.236  1.00  0.00     0.043 A 
ATOM     13  C   UNL     1      -0.231   1.344   1.321  1.00  0.00     0.160 A 
ATOM     14  C   UNL     1      -0.502   2.517   2.031  1.00  0.00     0.051 A 
ATOM     15  C   UNL     1      -1.059   0.246   1.540  1.00  0.00     0.158 A 
ATOM     16  C   UNL     1      -1.530   2.566   2.982  1.00  0.00     0.018 A 
ATOM     17  C   UNL     1      -2.110   0.306   2.461  1.00  0.00     0.064 A 
BRANCH  13  18
ATOM     18  O   UNL     1       0.811   1.450   0.446  1.00  0.00    -0.493 OA
ATOM     19  C   UNL     1       1.498   0.267   0.061  1.00  0.00     0.278 C 
ENDBRANCH  13  18
BRANCH  15  20
ATOM     20  O   UNL     1      -0.959  -0.941   0.871  1.00  0.00    -0.504 OA
ATOM     21  H   UNL     1      -0.281  -1.065   0.236  1.00  0.00     0.293 HD
ENDBRANCH  15  20
ENDBRANCH   9  12
ENDBRANCH   7   8
BRANCH   7  22
ATOM     22  C   UNL     1      -5.075  -1.559   4.263  1.00  0.00     0.015 C 
ATOM     23  C   UNL     1      -5.692  -0.712   3.142  1.00  0.00     0.010 C 
ATOM     24  C   UNL     1      -4.779  -2.962   3.717  1.00  0.00     0.010 C 
ENDBRANCH   7  22
ENDBRANCH   4   7
ENDBRANCH   2   3
ENDBRANCH   1   2
BRANCH   1  25
ATOM     25  C   UNL     1      -0.397   0.451   8.565  1.00  0.00     0.118 C 
BRANCH  25  26
ATOM     26  N   UNL     1       0.991   0.036   8.412  1.00  0.00    -0.352 N 
ATOM     27  C   UNL     1       2.100   0.420   9.117  1.00  0.00     0.251 C 
ATOM     28  H   UNL     1       1.157  -0.618   7.695  1.00  0.00     0.163 HD
ATOM     29  O   UNL     1       3.215   0.087   8.711  1.00  0.00    -0.269 OA
BRANCH  27  30
ATOM     30  C   UNL     1       1.966   1.236  10.339  1.00  0.00     0.039 A 
ATOM     31  C   UNL     1       2.898   2.250  10.573  1.00  0.00     0.014 A 
ATOM     32  C   UNL     1       0.948   0.994  11.266  1.00  0.00     0.014 A 
ATOM     33  C   UNL     1       2.786   3.042  11.715  1.00  0.00     0.010 A 
ATOM     34  C   UNL     1       0.785   1.840  12.357  1.00  0.00     0.010 A 
ATOM     35  C   UNL     1       1.715   2.859  12.605  1.00  0.00    -0.014 A 
BRANCH  35  36
ATOM     36  C   UNL     1       1.570   3.717  13.807  1.00  0.00     0.031 A 
ATOM     37  C   UNL     1       1.665   3.117  15.184  1.00  0.00     0.074 A 
ATOM     38  C   UNL     1       1.321   5.033  13.655  1.00  0.00     0.049 A 
ATOM     39  N   UNL     1       1.595   3.712  16.348  1.00  0.00    -0.248 NA
ATOM     40  C   UNL     1       1.835   1.657  15.268  1.00  0.00     0.031 C 
ATOM     41  C   UNL     1       1.162   5.721  12.371  1.00  0.00     0.029 A 
ATOM     42  N   UNL     1       1.168   6.028  14.586  1.00  0.00    -0.354 N 
ATOM     43  C   UNL     1       1.689   2.700  17.297  1.00  0.00     0.074 A 
ATOM     44  C   UNL     1       1.767   1.450  16.575  1.00  0.00     0.031 C 
ATOM     45  C   UNL     1       0.990   7.034  12.595  1.00  0.00     0.029 A 
ATOM     46  C   UNL     1       0.984   7.274  14.035  1.00  0.00     0.049 A 
ATOM     47  H   UNL     1       1.187   5.866  15.557  1.00  0.00     0.167 HD
ATOM     48  C   UNL     1       1.728   2.802  18.647  1.00  0.00     0.031 A 
ATOM     49  C   UNL     1       0.839   8.478  14.622  1.00  0.00     0.031 A 
ATOM     50  C   UNL     1       1.661   4.052  19.357  1.00  0.00     0.049 A 
ATOM     51  C   UNL     1       0.883   8.568  16.122  1.00  0.00     0.074 A 
ATOM     52  C   UNL     1       1.767   4.274  20.718  1.00  0.00     0.029 A 
ATOM     53  N   UNL     1       1.462   5.289  18.763  1.00  0.00    -0.354 N 
ATOM     54  N   UNL     1       1.063   7.610  17.001  1.00  0.00    -0.248 NA
ATOM     55  C   UNL     1       0.717   9.904  16.709  1.00  0.00     0.031 C 
ATOM     56  C   UNL     1       1.569   5.639  20.953  1.00  0.00     0.029 A 
ATOM     57  C   UNL     1       1.407   6.276  19.733  1.00  0.00     0.049 A 
ATOM     58  H   UNL     1       1.372   5.443  17.795  1.00  0.00     0.167 HD
ATOM     59  C   UNL     1       1.066   8.233  18.244  1.00  0.00     0.074 A 
ATOM     60  C   UNL     1       0.879   9.649  18.001  1.00  0.00     0.031 C 
ATOM     61  C   UNL     1       1.216   7.682  19.474  1.00  0.00     0.031 A 
BRANCH  48  62
ATOM     62  C   UNL     1       1.825   1.523  19.440  1.00  0.00    -0.014 A 
ATOM     63  C   UNL     1       2.982   0.723  19.403  1.00  0.00     0.010 A 
ATOM     64  C   UNL     1       0.745   1.122  20.247  1.00  0.00     0.010 A 
ATOM     65  C   UNL     1       3.033  -0.483  20.109  1.00  0.00     0.020 A 
ATOM     66  C   UNL     1       0.804  -0.067  20.981  1.00  0.00     0.020 A 
ATOM     67  C   UNL     1       1.940  -0.873  20.888  1.00  0.00     0.054 A 
BRANCH  67  68
ATOM     68  S   UNL     1       2.031  -2.444  21.790  1.00  0.00     0.124 S 
ATOM     69  O   UNL     1       1.897  -3.419  20.709  1.00  0.00    -0.237 OA
ATOM     70  O   UNL     1       3.349  -2.379  22.416  1.00  0.00    -0.237 OA
ATOM     71  O   UNL     1       0.901  -2.381  22.713  1.00  0.00    -0.744 OA
ENDBRANCH  67  68
ENDBRANCH  48  62
BRANCH  49  72
ATOM     72  C   UNL     1       0.693   9.698  13.783  1.00  0.00    -0.014 A 
ATOM     73  C   UNL     1       1.741  10.633  13.704  1.00  0.00     0.010 A 
ATOM     74  C   UNL     1      -0.477   9.919  13.034  1.00  0.00     0.010 A 
ATOM     75  C   UNL     1       1.617  11.771  12.903  1.00  0.00     0.020 A 
ATOM     76  C   UNL     1      -0.594  11.043  12.210  1.00  0.00     0.020 A 
ATOM     77  C   UNL     1       0.452  11.966  12.157  1.00  0.00     0.054 A 
BRANCH  77  78
ATOM     78  S   UNL     1       0.342  13.421  11.078  1.00  0.00     0.124 S 
ATOM     79  O   UNL     1       0.190  14.505  12.043  1.00  0.00    -0.237 OA
ATOM     80  O   UNL     1       1.616  13.381  10.365  1.00  0.00    -0.237 OA
ATOM     81  O   UNL     1      -0.833  13.148  10.254  1.00  0.00    -0.744 OA
ENDBRANCH  77  78
ENDBRANCH  49  72
BRANCH  61  82
ATOM     82  C   UNL     1       1.224   8.617  20.655  1.00  0.00    -0.014 A 
ATOM     83  C   UNL     1       0.051   9.258  21.090  1.00  0.00     0.010 A 
ATOM     84  C   UNL     1       2.418   8.809  21.375  1.00  0.00     0.010 A 
ATOM     85  C   UNL     1       0.079  10.102  22.204  1.00  0.00     0.020 A 
ATOM     86  C   UNL     1       2.443   9.627  22.507  1.00  0.00     0.020 A 
ATOM     87  C   UNL     1       1.276  10.279  22.906  1.00  0.00     0.054 A 
BRANCH  87  88
ATOM     88  S   UNL     1       1.276  11.342  24.375  1.00  0.00     0.124 S 
ATOM     89  O   UNL     1       1.176  12.675  23.787  1.00  0.00    -0.237 OA
ATOM     90  O   UNL     1       0.093  10.885  25.102  1.00  0.00    -0.237 OA
ATOM     91  O   UNL     1       2.551  11.041  25.022  1.00  0.00    -0.744 OA
ENDBRANCH  87  88
ENDBRANCH  61  82
ENDBRANCH  35  36
ENDBRANCH  27  30
ENDBRANCH  25  26
ENDBRANCH   1  25
TORSDOF 18
