REMARK SMILES O=C(NCCCNC(=O)[C@@H](CCCCl)[P@TB4](=O)(c1ccccc1)c1ccccc1)c1ccc(-c2c3nc(c(-c4ccc(S(=O)(=O)[O-])cc4)c4ccc([nH]4)c(-c4ccc(S(=O)(=O)[O-])cc4)c4nc(c(-c5ccc(S(=O)(=O)[O-])cc5)c5ccc2[nH]5)C=C4)C=C3)cc1
REMARK SMILES IDX 5 1 4 2 3 3 1 4 2 5 29 7 30 8 88 9 31 10 87 11 32 12 33 13
REMARK SMILES IDX 34 14 81 15 35 16 86 17 80 18 82 19 36 20 85 21 79 22 78 23
REMARK SMILES IDX 37 25 67 26 48 27 66 28 49 29 52 30 65 31 83 32 50 33 51 34
REMARK SMILES IDX 64 36 84 37 53 38 38 39 39 40 47 41 40 42 46 43 41 44 42 45
REMARK SMILES IDX 43 46 44 47 45 48 68 49 69 50 77 51 70 52 76 53 71 54 72 55
REMARK SMILES IDX 73 56 74 57 75 58 54 59 55 60 63 61 56 62 62 63 57 64 58 65
REMARK SMILES IDX 59 66 60 67 61 68 6 69 7 70 8 71 9 73 10 74 11 75 12 76
REMARK SMILES IDX 13 77 14 78 15 79 16 80 17 81 18 82 22 83 19 84 21 85 20 86
REMARK SMILES IDX 23 87 24 88 28 89 25 90 27 91 26 92
REMARK H PARENT 3 6 82 24 52 35 7 72
REMARK Flexibility Score: inf
ROOT
ATOM      1  C   UNL     1       4.558  -2.019   1.115  1.00  0.00       nan C 
ENDROOT
BRANCH   1   2
ATOM      2  C   UNL     1       4.225  -1.429  -0.239  1.00  0.00       nan C 
BRANCH   2   3
ATOM      3  N   UNL     1       2.812  -1.112  -0.345  1.00  0.00       nan N 
ATOM      4  O   UNL     1       0.963   0.145  -0.124  1.00  0.00       nan OA
ATOM      5  C   UNL     1       2.179   0.107  -0.278  1.00  0.00       nan C 
ATOM      6  H   UNL     1       2.219  -1.885  -0.485  1.00  0.00       nan HD
BRANCH   5   7
ATOM      7  C   UNL     1       2.961   1.363  -0.366  1.00  0.00       nan A 
ATOM      8  C   UNL     1       4.065   1.463  -1.214  1.00  0.00       nan A 
ATOM      9  C   UNL     1       2.564   2.474   0.384  1.00  0.00       nan A 
ATOM     10  C   UNL     1       4.872   2.590  -1.178  1.00  0.00       nan A 
ATOM     11  C   UNL     1       3.298   3.663   0.309  1.00  0.00       nan A 
ATOM     12  C   UNL     1       4.472   3.724  -0.457  1.00  0.00       inf A 
BRANCH  12  13
ATOM     13  C   UNL     1       5.240   4.986  -0.618  1.00  0.00     0.031 A 
ATOM     14  C   UNL     1       5.896   5.660   0.554  1.00  0.00     0.074 A 
ATOM     15  C   UNL     1       5.349   5.512  -1.855  1.00  0.00     0.049 A 
ATOM     16  N   UNL     1       6.590   6.769   0.576  1.00  0.00    -0.248 NA
ATOM     17  C   UNL     1       5.752   5.016   1.869  1.00  0.00     0.031 C 
ATOM     18  C   UNL     1       4.749   4.946  -3.070  1.00  0.00     0.029 A 
ATOM     19  N   UNL     1       6.012   6.623  -2.307  1.00  0.00    -0.354 N 
ATOM     20  C   UNL     1       6.944   6.973   1.905  1.00  0.00     0.074 A 
ATOM     21  C   UNL     1       6.368   5.883   2.663  1.00  0.00     0.031 C 
ATOM     22  C   UNL     1       5.121   5.676  -4.130  1.00  0.00     0.029 A 
ATOM     23  C   UNL     1       5.905   6.811  -3.665  1.00  0.00     0.049 A 
ATOM     24  H   UNL     1       6.517   7.228  -1.717  1.00  0.00     0.167 HD
ATOM     25  C   UNL     1       7.681   7.977   2.439  1.00  0.00     0.031 A 
ATOM     26  C   UNL     1       6.357   7.803  -4.455  1.00  0.00     0.031 A 
ATOM     27  C   UNL     1       8.242   9.060   1.671  1.00  0.00     0.049 A 
ATOM     28  C   UNL     1       7.130   8.925  -3.829  1.00  0.00     0.074 A 
ATOM     29  C   UNL     1       9.025  10.113   2.115  1.00  0.00     0.029 A 
ATOM     30  N   UNL     1       8.076   9.236   0.305  1.00  0.00    -0.354 N 
ATOM     31  N   UNL     1       7.475   9.084  -2.573  1.00  0.00    -0.248 NA
ATOM     32  C   UNL     1       7.573  10.001  -4.723  1.00  0.00     0.031 C 
ATOM     33  C   UNL     1       9.277  10.958   1.029  1.00  0.00     0.029 A 
ATOM     34  C   UNL     1       8.715  10.395  -0.106  1.00  0.00     0.049 A 
ATOM     35  H   UNL     1       7.576   8.628  -0.286  1.00  0.00     0.167 HD
ATOM     36  C   UNL     1       8.196  10.270  -2.530  1.00  0.00     0.074 A 
ATOM     37  C   UNL     1       8.254  10.773  -3.888  1.00  0.00     0.031 C 
ATOM     38  C   UNL     1       8.758  10.886  -1.461  1.00  0.00     0.031 A 
BRANCH  25  39
ATOM     39  C   UNL     1       7.896   7.974   3.932  1.00  0.00    -0.014 A 
ATOM     40  C   UNL     1       8.717   7.016   4.553  1.00  0.00     0.010 A 
ATOM     41  C   UNL     1       7.304   8.978   4.721  1.00  0.00     0.010 A 
ATOM     42  C   UNL     1       8.909   7.038   5.939  1.00  0.00     0.020 A 
ATOM     43  C   UNL     1       7.516   9.021   6.103  1.00  0.00     0.020 A 
ATOM     44  C   UNL     1       8.304   8.039   6.705  1.00  0.00     0.054 A 
BRANCH  44  45
ATOM     45  S   UNL     1       8.584   8.050   8.497  1.00  0.00     0.124 S 
ATOM     46  O   UNL     1       7.812   6.886   8.928  1.00  0.00    -0.237 OA
ATOM     47  O   UNL     1      10.034   7.912   8.595  1.00  0.00    -0.237 OA
ATOM     48  O   UNL     1       8.053   9.342   8.925  1.00  0.00    -0.744 OA
ENDBRANCH  44  45
ENDBRANCH  25  39
BRANCH  26  49
ATOM     49  C   UNL     1       6.059   7.781  -5.912  1.00  0.00    -0.014 A 
ATOM     50  C   UNL     1       7.085   7.590  -6.853  1.00  0.00     0.010 A 
ATOM     51  C   UNL     1       4.733   7.920  -6.365  1.00  0.00     0.010 A 
ATOM     52  C   UNL     1       6.793   7.555  -8.220  1.00  0.00     0.020 A 
ATOM     53  C   UNL     1       4.433   7.850  -7.727  1.00  0.00     0.020 A 
ATOM     54  C   UNL     1       5.468   7.681  -8.647  1.00  0.00     0.054 A 
BRANCH  54  55
ATOM     55  S   UNL     1       5.109   7.582 -10.422  1.00  0.00     0.124 S 
ATOM     56  O   UNL     1       5.634   8.854 -10.909  1.00  0.00    -0.237 OA
ATOM     57  O   UNL     1       5.853   6.392 -10.827  1.00  0.00    -0.237 OA
ATOM     58  O   UNL     1       3.655   7.445 -10.470  1.00  0.00    -0.744 OA
ENDBRANCH  54  55
ENDBRANCH  26  49
BRANCH  38  59
ATOM     59  C   UNL     1       9.520  12.158  -1.725  1.00  0.00    -0.014 A 
ATOM     60  C   UNL     1       8.858  13.348  -2.078  1.00  0.00     0.010 A 
ATOM     61  C   UNL     1      10.919  12.168  -1.577  1.00  0.00     0.010 A 
ATOM     62  C   UNL     1       9.586  14.517  -2.310  1.00  0.00     0.020 A 
ATOM     63  C   UNL     1      11.647  13.343  -1.777  1.00  0.00     0.020 A 
ATOM     64  C   UNL     1      10.976  14.507  -2.156  1.00  0.00     0.054 A 
BRANCH  64  65
ATOM     65  S   UNL     1      11.893  16.049  -2.421  1.00  0.00     0.124 S 
ATOM     66  O   UNL     1      11.821  16.200  -3.872  1.00  0.00    -0.237 OA
ATOM     67  O   UNL     1      11.119  17.017  -1.648  1.00  0.00    -0.237 OA
ATOM     68  O   UNL     1      13.223  15.757  -1.890  1.00  0.00    -0.744 OA
ENDBRANCH  64  65
ENDBRANCH  38  59
ENDBRANCH  12  13
ENDBRANCH   5   7
ENDBRANCH   2   3
ENDBRANCH   1   2
BRANCH   1  69
ATOM     69  C   UNL     1       4.221  -3.497   1.194  1.00  0.00       nan C 
BRANCH  69  70
ATOM     70  N   UNL     1       5.236  -4.287   0.531  1.00  0.00       nan N 
ATOM     71  C   UNL     1       6.121  -5.200   0.995  1.00  0.00       nan C 
ATOM     72  H   UNL     1       5.293  -4.132  -0.439  1.00  0.00       nan HD
ATOM     73  O   UNL     1       6.909  -5.667   0.164  1.00  0.00       nan OA
BRANCH  71  74
ATOM     74  C   UNL     1       6.257  -5.582   2.450  1.00  0.00       nan C 
BRANCH  74  75
ATOM     75  C   UNL     1       7.298  -4.677   3.182  1.00  0.00       nan C 
BRANCH  75  76
ATOM     76  C   UNL     1       7.013  -3.191   3.466  1.00  0.00       nan C 
BRANCH  76  77
ATOM     77  C   UNL     1       5.854  -2.796   4.375  1.00  0.00       nan C 
ATOM     78  Cl  UNL     1       6.225  -3.021   6.092  1.00  0.00       nan Cl
ENDBRANCH  76  77
ENDBRANCH  75  76
ENDBRANCH  74  75
BRANCH  74  79
ATOM     79  P   UNL     1       4.732  -5.868   3.421  1.00  0.00       nan P 
ATOM     80  O   UNL     1       4.131  -6.639   2.221  1.00  0.00       nan OA
BRANCH  79  81
ATOM     81  C   UNL     1       5.667  -7.123   4.593  1.00  0.00       nan A 
ATOM     82  C   UNL     1       5.745  -8.479   4.236  1.00  0.00       nan A 
ATOM     83  C   UNL     1       6.171  -6.699   5.828  1.00  0.00       nan A 
ATOM     84  C   UNL     1       6.289  -9.401   5.131  1.00  0.00       nan A 
ATOM     85  C   UNL     1       6.754  -7.620   6.698  1.00  0.00       nan A 
ATOM     86  C   UNL     1       6.797  -8.971   6.357  1.00  0.00       nan A 
ENDBRANCH  79  81
BRANCH  79  87
ATOM     87  C   UNL     1       3.207  -6.154   4.391  1.00  0.00       nan A 
ATOM     88  C   UNL     1       2.569  -5.052   4.984  1.00  0.00       nan A 
ATOM     89  C   UNL     1       2.636  -7.424   4.592  1.00  0.00       nan A 
ATOM     90  C   UNL     1       1.441  -5.223   5.793  1.00  0.00       nan A 
ATOM     91  C   UNL     1       1.526  -7.599   5.421  1.00  0.00       nan A 
ATOM     92  C   UNL     1       0.933  -6.498   6.027  1.00  0.00       nan A 
ENDBRANCH  79  87
ENDBRANCH  74  79
ENDBRANCH  71  74
ENDBRANCH  69  70
ENDBRANCH   1  69
TORSDOF 19
