REMARK SMILES Cc1ccc(NC(=O)C[NH+]2CCC(C(=O)NCCCNC(=O)c3ccc(-c4c5nc(c(-c6ccc(S(=O)(=O)[O-])cc6)c6ccc([nH]6)c(-c6ccc(S(=O)(=O)[O-])cc6)c6nc(c(-c7ccc(S(=O)(=O)[O-])cc7)c7ccc4[nH]7)C=C6)C=C5)cc3)CC2)cc1Cl
REMARK SMILES IDX 18 1 17 2 16 3 14 4 15 5 13 7 10 8 11 9 84 10 12 12 83 13
REMARK SMILES IDX 9 14 7 15 6 16 8 18 5 19 1 20 2 21 3 22 86 23 4 24 85 25
REMARK SMILES IDX 87 26 19 27 20 28 21 29 22 31 23 32 24 33 82 34 25 35 81 36
REMARK SMILES IDX 26 37 27 38 28 39 75 40 29 41 80 42 74 43 76 44 30 45 79 46
REMARK SMILES IDX 73 47 72 48 31 50 61 51 42 52 60 53 43 54 46 55 59 56 77 57
REMARK SMILES IDX 44 58 45 59 58 61 78 62 47 63 32 64 33 65 41 66 34 67 40 68
REMARK SMILES IDX 35 69 36 70 37 71 38 72 39 73 62 74 63 75 71 76 64 77 70 78
REMARK SMILES IDX 65 79 66 80 67 81 68 82 69 83 48 84 49 85 57 86 50 87 56 88
REMARK SMILES IDX 51 89 52 90 53 91 54 92 55 93
REMARK H PARENT 16 6 10 11 6 17 20 30 76 49 46 60
REMARK Flexibility Score: inf
ROOT
ATOM      1  C   UNL     1       3.496  -3.008  -4.635  1.00  0.00     0.042 C 
ENDROOT
BRANCH   1   2
ATOM      2  C   UNL     1       2.549  -1.931  -4.142  1.00  0.00     0.117 C 
BRANCH   2   3
ATOM      3  N   UNL     1       1.632  -1.498  -5.190  1.00  0.00    -0.356 N 
ATOM      4  C   UNL     1       0.281  -1.618  -5.299  1.00  0.00     0.223 C 
ATOM      5  O   UNL     1      -0.260  -1.194  -6.323  1.00  0.00    -0.275 OA
ATOM      6  H   UNL     1       2.064  -1.041  -5.948  1.00  0.00     0.163 HD
BRANCH   4   7
ATOM      7  C   UNL     1      -0.550  -2.181  -4.162  1.00  0.00     0.089 C 
ATOM      8  N   UNL     1      -0.360  -3.366  -1.500  1.00  0.00    -0.327 N 
ATOM      9  C   UNL     1      -0.922  -4.158  -2.592  1.00  0.00     0.263 C 
ATOM     10  C   UNL     1      -0.707  -1.961  -1.645  1.00  0.00     0.263 C 
ATOM     11  H   UNL     1       0.654  -3.450  -1.571  1.00  0.00     0.348 HD
ATOM     12  C   UNL     1      -0.327  -3.679  -3.922  1.00  0.00     0.075 C 
ATOM     13  C   UNL     1      -0.351  -1.288  -2.946  1.00  0.00     0.075 C 
BRANCH   8  14
ATOM     14  C   UNL     1      -0.699  -3.893  -0.146  1.00  0.00     0.363 C 
BRANCH  14  15
ATOM     15  C   UNL     1      -2.143  -3.644   0.335  1.00  0.00     0.279 C 
ATOM     16  N   UNL     1      -2.569  -2.455   0.888  1.00  0.00    -0.321 N 
ATOM     17  H   UNL     1      -3.498  -2.465   1.213  1.00  0.00     0.170 HD
ATOM     18  O   UNL     1      -3.013  -4.508   0.159  1.00  0.00    -0.268 OA
BRANCH  16  19
ATOM     19  C   UNL     1      -1.899  -1.230   1.068  1.00  0.00     0.042 A 
ATOM     20  C   UNL     1       0.292   2.398   0.279  1.00  0.00     0.046 C 
ATOM     21  C   UNL     1      -0.487   1.186   0.714  1.00  0.00    -0.032 A 
ATOM     22  C   UNL     1      -1.851   1.104   0.401  1.00  0.00     0.007 A 
ATOM     23  C   UNL     1       0.124   0.076   1.319  1.00  0.00     0.046 A 
ATOM     24  C   UNL     1      -2.560  -0.085   0.606  1.00  0.00     0.026 A 
ATOM     25  C   UNL     1      -0.585  -1.119   1.517  1.00  0.00     0.047 A 
ATOM     26  Cl  UNL     1       1.805   0.083   1.723  1.00  0.00    -0.084 Cl
ENDBRANCH  16  19
ENDBRANCH  14  15
ENDBRANCH   8  14
ENDBRANCH   4   7
ENDBRANCH   2   3
ENDBRANCH   1   2
BRANCH   1  27
ATOM     27  C   UNL     1       4.376  -2.547  -5.785  1.00  0.00     0.118 C 
BRANCH  27  28
ATOM     28  N   UNL     1       5.294  -1.483  -5.399  1.00  0.00    -0.352 N 
ATOM     29  C   UNL     1       6.667  -1.484  -5.369  1.00  0.00     0.251 C 
ATOM     30  H   UNL     1       4.868  -0.641  -5.119  1.00  0.00     0.163 HD
ATOM     31  O   UNL     1       7.270  -0.555  -4.836  1.00  0.00    -0.269 OA
BRANCH  29  32
ATOM     32  C   UNL     1       7.409  -2.622  -5.948  1.00  0.00     0.039 A 
ATOM     33  C   UNL     1       8.462  -3.183  -5.224  1.00  0.00     0.014 A 
ATOM     34  C   UNL     1       7.035  -3.163  -7.181  1.00  0.00     0.014 A 
ATOM     35  C   UNL     1       9.075  -4.346  -5.692  1.00  0.00     0.010 A 
ATOM     36  C   UNL     1       7.579  -4.374  -7.596  1.00  0.00     0.010 A 
ATOM     37  C   UNL     1       8.599  -4.983  -6.851  1.00  0.00    -0.014 A 
BRANCH  37  38
ATOM     38  C   UNL     1       9.125  -6.305  -7.275  1.00  0.00     0.031 A 
ATOM     39  C   UNL     1       9.802  -6.463  -8.610  1.00  0.00     0.074 A 
ATOM     40  C   UNL     1       8.923  -7.380  -6.484  1.00  0.00     0.049 A 
ATOM     41  N   UNL     1      10.267  -7.549  -9.170  1.00  0.00    -0.248 NA
ATOM     42  C   UNL     1       9.956  -5.251  -9.433  1.00  0.00     0.031 C 
ATOM     43  C   UNL     1       8.231  -7.364  -5.191  1.00  0.00     0.029 A 
ATOM     44  N   UNL     1       9.269  -8.697  -6.653  1.00  0.00    -0.354 N 
ATOM     45  C   UNL     1      10.752  -7.157 -10.412  1.00  0.00     0.074 A 
ATOM     46  C   UNL     1      10.488  -5.742 -10.544  1.00  0.00     0.031 C 
ATOM     47  C   UNL     1       8.228  -8.603  -4.675  1.00  0.00     0.029 A 
ATOM     48  C   UNL     1       8.870  -9.512  -5.618  1.00  0.00     0.049 A 
ATOM     49  H   UNL     1       9.758  -9.028  -7.441  1.00  0.00     0.167 HD
ATOM     50  C   UNL     1      11.375  -7.907 -11.351  1.00  0.00     0.031 A 
ATOM     51  C   UNL     1       8.989 -10.844  -5.453  1.00  0.00     0.031 A 
ATOM     52  C   UNL     1      11.651  -9.312 -11.207  1.00  0.00     0.049 A 
ATOM     53  C   UNL     1       9.674 -11.652  -6.522  1.00  0.00     0.074 A 
ATOM     54  C   UNL     1      12.348 -10.140 -12.069  1.00  0.00     0.029 A 
ATOM     55  N   UNL     1      11.241 -10.098 -10.142  1.00  0.00    -0.354 N 
ATOM     56  N   UNL     1      10.213 -11.243  -7.646  1.00  0.00    -0.248 NA
ATOM     57  C   UNL     1       9.772 -13.102  -6.299  1.00  0.00     0.031 C 
ATOM     58  C   UNL     1      12.300 -11.441 -11.559  1.00  0.00     0.029 A 
ATOM     59  C   UNL     1      11.632 -11.410 -10.346  1.00  0.00     0.049 A 
ATOM     60  H   UNL     1      10.744  -9.771  -9.357  1.00  0.00     0.167 HD
ATOM     61  C   UNL     1      10.731 -12.382  -8.252  1.00  0.00     0.074 A 
ATOM     62  C   UNL     1      10.467 -13.490  -7.359  1.00  0.00     0.031 C 
ATOM     63  C   UNL     1      11.361 -12.502  -9.447  1.00  0.00     0.031 A 
BRANCH  50  64
ATOM     64  C   UNL     1      11.807  -7.234 -12.627  1.00  0.00    -0.014 A 
ATOM     65  C   UNL     1      12.888  -6.336 -12.645  1.00  0.00     0.010 A 
ATOM     66  C   UNL     1      11.187  -7.584 -13.841  1.00  0.00     0.010 A 
ATOM     67  C   UNL     1      13.334  -5.790 -13.852  1.00  0.00     0.020 A 
ATOM     68  C   UNL     1      11.646  -7.062 -15.053  1.00  0.00     0.020 A 
ATOM     69  C   UNL     1      12.715  -6.163 -15.050  1.00  0.00     0.054 A 
BRANCH  69  70
ATOM     70  S   UNL     1      13.366  -5.497 -16.606  1.00  0.00     0.124 S 
ATOM     71  O   UNL     1      12.969  -4.094 -16.524  1.00  0.00    -0.237 OA
ATOM     72  O   UNL     1      14.799  -5.753 -16.487  1.00  0.00    -0.237 OA
ATOM     73  O   UNL     1      12.679  -6.278 -17.633  1.00  0.00    -0.744 OA
ENDBRANCH  69  70
ENDBRANCH  50  64
BRANCH  51  74
ATOM     74  C   UNL     1       8.429 -11.507  -4.242  1.00  0.00    -0.014 A 
ATOM     75  C   UNL     1       9.275 -12.113  -3.296  1.00  0.00     0.010 A 
ATOM     76  C   UNL     1       7.037 -11.562  -4.043  1.00  0.00     0.010 A 
ATOM     77  C   UNL     1       8.739 -12.795  -2.199  1.00  0.00     0.020 A 
ATOM     78  C   UNL     1       6.498 -12.212  -2.930  1.00  0.00     0.020 A 
ATOM     79  C   UNL     1       7.353 -12.843  -2.025  1.00  0.00     0.054 A 
BRANCH  79  80
ATOM     80  S   UNL     1       6.679 -13.723  -0.589  1.00  0.00     0.124 S 
ATOM     81  O   UNL     1       6.898 -15.118  -0.960  1.00  0.00    -0.237 OA
ATOM     82  O   UNL     1       7.506 -13.221   0.505  1.00  0.00    -0.237 OA
ATOM     83  O   UNL     1       5.282 -13.296  -0.552  1.00  0.00    -0.744 OA
ENDBRANCH  79  80
ENDBRANCH  51  74
BRANCH  63  84
ATOM     84  C   UNL     1      11.829 -13.876  -9.848  1.00  0.00    -0.014 A 
ATOM     85  C   UNL     1      10.912 -14.875 -10.219  1.00  0.00     0.010 A 
ATOM     86  C   UNL     1      13.207 -14.152  -9.908  1.00  0.00     0.010 A 
ATOM     87  C   UNL     1      11.364 -16.138 -10.610  1.00  0.00     0.020 A 
ATOM     88  C   UNL     1      13.664 -15.403 -10.330  1.00  0.00     0.020 A 
ATOM     89  C   UNL     1      12.738 -16.393 -10.666  1.00  0.00     0.054 A 
BRANCH  89  90
ATOM     90  S   UNL     1      13.298 -18.025 -11.222  1.00  0.00     0.124 S 
ATOM     91  O   UNL     1      12.945 -18.871 -10.085  1.00  0.00    -0.237 OA
ATOM     92  O   UNL     1      12.510 -18.238 -12.433  1.00  0.00    -0.237 OA
ATOM     93  O   UNL     1      14.732 -17.844 -11.441  1.00  0.00    -0.744 OA
ENDBRANCH  89  90
ENDBRANCH  63  84
ENDBRANCH  37  38
ENDBRANCH  29  32
ENDBRANCH  27  28
ENDBRANCH   1  27
TORSDOF 16
