REMARK SMILES C[NH+]1CCC(NC(=O)N[C@@H]2C=C[C@H](C(=O)NCCCNC(=O)c3ccc(-c4c5nc(c(-c6ccc(S(=O)(=O)[O-])cc6)c6ccc([nH]6)c(-c6ccc(S(=O)(=O)[O-])cc6)c6nc(c(-c7ccc(S(=O)(=O)[O-])cc7)c7ccc4[nH]7)C=C6)C=C5)cc3)C2)CC1
REMARK SMILES IDX 18 1 17 2 16 3 14 4 15 5 13 7 10 8 11 9 83 10 12 11 9 12
REMARK SMILES IDX 6 13 7 14 8 16 5 18 1 19 2 20 3 21 85 22 4 24 84 25 19 26
REMARK SMILES IDX 20 27 21 28 22 30 23 31 24 32 82 33 25 34 81 35 26 36 27 37
REMARK SMILES IDX 28 38 75 39 29 40 80 41 74 42 76 43 30 44 79 45 73 46 72 47
REMARK SMILES IDX 31 49 61 50 42 51 60 52 43 53 46 54 59 55 77 56 44 57 45 58
REMARK SMILES IDX 58 60 78 61 47 62 32 63 33 64 41 65 34 66 40 67 35 68 36 69
REMARK SMILES IDX 37 70 38 71 39 72 62 73 63 74 71 75 64 76 70 77 65 78 66 79
REMARK SMILES IDX 67 80 68 81 69 82 48 83 49 84 57 85 50 86 56 87 51 88 52 89
REMARK SMILES IDX 53 90 54 91 55 92
REMARK H PARENT 16 6 6 15 9 17 2 23 20 29 76 48 46 59
REMARK Flexibility Score: inf
ROOT
ATOM      1  C   UNL     1      -2.676   2.187   0.083  1.00  0.00     0.042 C 
ENDROOT
BRANCH   1   2
ATOM      2  C   UNL     1      -2.361   0.802  -0.470  1.00  0.00     0.117 C 
BRANCH   2   3
ATOM      3  N   UNL     1      -2.124   0.838  -1.901  1.00  0.00    -0.356 N 
ATOM      4  C   UNL     1      -0.934   0.913  -2.567  1.00  0.00     0.227 C 
ATOM      5  O   UNL     1      -0.948   0.972  -3.796  1.00  0.00    -0.274 OA
ATOM      6  H   UNL     1      -2.928   0.803  -2.467  1.00  0.00     0.163 HD
BRANCH   4   7
ATOM      7  C   UNL     1       0.351   0.854  -1.752  1.00  0.00     0.103 C 
ATOM      8  C   UNL     1       2.597   0.463  -2.684  1.00  0.00     0.107 C 
ATOM      9  C   UNL     1       1.966  -0.794  -2.180  1.00  0.00    -0.006 C 
ATOM     10  C   UNL     1       1.525   1.535  -2.469  1.00  0.00     0.047 C 
ATOM     11  C   UNL     1       0.762  -0.583  -1.649  1.00  0.00    -0.016 C 
BRANCH   8  12
ATOM     12  N   UNL     1       2.980   0.265  -4.061  1.00  0.00    -0.332 N 
ATOM     13  N   UNL     1       5.171  -0.642  -3.967  1.00  0.00    -0.335 N 
ATOM     14  C   UNL     1       4.098  -0.196  -4.650  1.00  0.00     0.315 C 
ATOM     15  H   UNL     1       5.913  -0.944  -4.539  1.00  0.00     0.165 HD
ATOM     16  O   UNL     1       4.147  -0.224  -5.881  1.00  0.00    -0.249 OA
ATOM     17  H   UNL     1       2.278   0.520  -4.702  1.00  0.00     0.165 HD
BRANCH  13  18
ATOM     18  C   UNL     1       5.436  -0.759  -2.548  1.00  0.00     0.095 C 
ATOM     19  C   UNL     1       6.624  -0.976   1.471  1.00  0.00     0.332 C 
ATOM     20  N   UNL     1       6.764  -0.914   0.012  1.00  0.00    -0.337 N 
ATOM     21  C   UNL     1       6.209   0.361  -0.474  1.00  0.00     0.264 C 
ATOM     22  C   UNL     1       6.138  -2.096  -0.604  1.00  0.00     0.264 C 
ATOM     23  H   UNL     1       7.747  -0.937  -0.258  1.00  0.00     0.347 HD
ATOM     24  C   UNL     1       6.190   0.447  -1.999  1.00  0.00     0.086 C 
ATOM     25  C   UNL     1       6.161  -2.033  -2.138  1.00  0.00     0.086 C 
ENDBRANCH  13  18
ENDBRANCH   8  12
ENDBRANCH   4   7
ENDBRANCH   2   3
ENDBRANCH   1   2
BRANCH   1  26
ATOM     26  C   UNL     1      -3.925   2.816  -0.529  1.00  0.00     0.118 C 
BRANCH  26  27
ATOM     27  N   UNL     1      -5.110   1.986  -0.349  1.00  0.00    -0.352 N 
ATOM     28  C   UNL     1      -6.303   2.269   0.265  1.00  0.00     0.251 C 
ATOM     29  H   UNL     1      -5.043   1.081  -0.729  1.00  0.00     0.163 HD
ATOM     30  O   UNL     1      -7.092   1.359   0.497  1.00  0.00    -0.269 OA
BRANCH  28  31
ATOM     31  C   UNL     1      -6.628   3.656   0.656  1.00  0.00     0.039 A 
ATOM     32  C   UNL     1      -7.246   3.885   1.887  1.00  0.00     0.014 A 
ATOM     33  C   UNL     1      -6.343   4.726  -0.196  1.00  0.00     0.014 A 
ATOM     34  C   UNL     1      -7.523   5.192   2.289  1.00  0.00     0.010 A 
ATOM     35  C   UNL     1      -6.541   6.032   0.241  1.00  0.00     0.010 A 
ATOM     36  C   UNL     1      -7.140   6.279   1.485  1.00  0.00    -0.014 A 
BRANCH  36  37
ATOM     37  C   UNL     1      -7.355   7.679   1.927  1.00  0.00     0.031 A 
ATOM     38  C   UNL     1      -8.260   8.591   1.144  1.00  0.00     0.074 A 
ATOM     39  C   UNL     1      -6.687   8.147   2.999  1.00  0.00     0.049 A 
ATOM     40  N   UNL     1      -8.533   9.854   1.347  1.00  0.00    -0.248 NA
ATOM     41  C   UNL     1      -8.925   8.014  -0.036  1.00  0.00     0.031 C 
ATOM     42  C   UNL     1      -5.755   7.372   3.822  1.00  0.00     0.029 A 
ATOM     43  N   UNL     1      -6.686   9.390   3.581  1.00  0.00    -0.354 N 
ATOM     44  C   UNL     1      -9.387  10.226   0.315  1.00  0.00     0.074 A 
ATOM     45  C   UNL     1      -9.538   9.072  -0.544  1.00  0.00     0.031 C 
ATOM     46  C   UNL     1      -5.303   8.145   4.822  1.00  0.00     0.029 A 
ATOM     47  C   UNL     1      -5.872   9.482   4.684  1.00  0.00     0.049 A 
ATOM     48  H   UNL     1      -7.219  10.145   3.240  1.00  0.00     0.167 HD
ATOM     49  C   UNL     1     -10.007  11.414   0.111  1.00  0.00     0.031 A 
ATOM     50  C   UNL     1      -5.608  10.526   5.494  1.00  0.00     0.031 A 
ATOM     51  C   UNL     1      -9.848  12.560   0.967  1.00  0.00     0.049 A 
ATOM     52  C   UNL     1      -6.280  11.845   5.231  1.00  0.00     0.074 A 
ATOM     53  C   UNL     1     -10.465  13.795   0.875  1.00  0.00     0.029 A 
ATOM     54  N   UNL     1      -9.004  12.616   2.067  1.00  0.00    -0.354 N 
ATOM     55  N   UNL     1      -7.133  12.160   4.286  1.00  0.00    -0.248 NA
ATOM     56  C   UNL     1      -5.960  12.945   6.150  1.00  0.00     0.031 C 
ATOM     57  C   UNL     1      -9.948  14.617   1.882  1.00  0.00     0.029 A 
ATOM     58  C   UNL     1      -9.062  13.873   2.645  1.00  0.00     0.049 A 
ATOM     59  H   UNL     1      -8.447  11.872   2.390  1.00  0.00     0.167 HD
ATOM     60  C   UNL     1      -7.477  13.488   4.515  1.00  0.00     0.074 A 
ATOM     61  C   UNL     1      -6.748  13.910   5.694  1.00  0.00     0.031 C 
ATOM     62  C   UNL     1      -8.324  14.283   3.815  1.00  0.00     0.031 A 
BRANCH  49  63
ATOM     63  C   UNL     1     -10.899  11.530  -1.100  1.00  0.00    -0.014 A 
ATOM     64  C   UNL     1     -12.096  10.796  -1.198  1.00  0.00     0.010 A 
ATOM     65  C   UNL     1     -10.540  12.391  -2.153  1.00  0.00     0.010 A 
ATOM     66  C   UNL     1     -12.883  10.873  -2.350  1.00  0.00     0.020 A 
ATOM     67  C   UNL     1     -11.344  12.498  -3.292  1.00  0.00     0.020 A 
ATOM     68  C   UNL     1     -12.498  11.719  -3.393  1.00  0.00     0.054 A 
BRANCH  68  69
ATOM     69  S   UNL     1     -13.534  11.793  -4.880  1.00  0.00     0.124 S 
ATOM     70  O   UNL     1     -13.261  10.498  -5.500  1.00  0.00    -0.237 OA
ATOM     71  O   UNL     1     -14.876  11.953  -4.326  1.00  0.00    -0.237 OA
ATOM     72  O   UNL     1     -13.020  12.951  -5.606  1.00  0.00    -0.744 OA
ENDBRANCH  68  69
ENDBRANCH  49  63
BRANCH  50  73
ATOM     73  C   UNL     1      -4.683  10.349   6.647  1.00  0.00    -0.014 A 
ATOM     74  C   UNL     1      -5.179  10.348   7.963  1.00  0.00     0.010 A 
ATOM     75  C   UNL     1      -3.307  10.141   6.435  1.00  0.00     0.010 A 
ATOM     76  C   UNL     1      -4.317  10.150   9.045  1.00  0.00     0.020 A 
ATOM     77  C   UNL     1      -2.447   9.913   7.513  1.00  0.00     0.020 A 
ATOM     78  C   UNL     1      -2.957   9.925   8.812  1.00  0.00     0.054 A 
BRANCH  78  79
ATOM     79  S   UNL     1      -1.873   9.594  10.229  1.00  0.00     0.124 S 
ATOM     80  O   UNL     1      -1.802  10.903  10.871  1.00  0.00    -0.237 OA
ATOM     81  O   UNL     1      -2.614   8.569  10.959  1.00  0.00    -0.237 OA
ATOM     82  O   UNL     1      -0.632   9.132   9.609  1.00  0.00    -0.744 OA
ENDBRANCH  78  79
ENDBRANCH  50  73
BRANCH  62  83
ATOM     83  C   UNL     1      -8.539  15.686   4.323  1.00  0.00    -0.014 A 
ATOM     84  C   UNL     1      -7.532  16.663   4.227  1.00  0.00     0.010 A 
ATOM     85  C   UNL     1      -9.791  16.043   4.856  1.00  0.00     0.010 A 
ATOM     86  C   UNL     1      -7.764  17.963   4.684  1.00  0.00     0.020 A 
ATOM     87  C   UNL     1     -10.038  17.350   5.284  1.00  0.00     0.020 A 
ATOM     88  C   UNL     1      -9.017  18.299   5.208  1.00  0.00     0.054 A 
BRANCH  88  89
ATOM     89  S   UNL     1      -9.306  20.005   5.751  1.00  0.00     0.124 S 
ATOM     90  O   UNL     1      -8.512  20.073   6.975  1.00  0.00    -0.237 OA
ATOM     91  O   UNL     1      -8.799  20.788   4.628  1.00  0.00    -0.237 OA
ATOM     92  O   UNL     1     -10.753  20.067   5.944  1.00  0.00    -0.744 OA
ENDBRANCH  88  89
ENDBRANCH  62  83
ENDBRANCH  36  37
ENDBRANCH  28  31
ENDBRANCH  26  27
ENDBRANCH   1  26
TORSDOF 15
