REMARK SMILES O=C(NCCCNC(=O)c1ccc(C[NH+]2CC[NH2+]CC2)c(Br)c1)c1ccc(-c2c3nc(c(-c4ccc(S(=O)(=O)[O-])cc4)c4ccc([nH]4)c(-c4ccc(S(=O)(=O)[O-])cc4)c4nc(c(-c5ccc(S(=O)(=O)[O-])cc5)c5ccc2[nH]5)C=C4)C=C3)cc1
REMARK SMILES IDX 4 1 3 2 1 3 2 4 24 6 25 7 83 8 26 9 82 10 27 11 28 12 29 13
REMARK SMILES IDX 76 14 30 15 81 16 75 17 77 18 31 19 80 20 74 21 73 22 32 24
REMARK SMILES IDX 62 25 43 26 61 27 44 28 47 29 60 30 78 31 45 32 46 33 59 35
REMARK SMILES IDX 79 36 48 37 33 38 34 39 42 40 35 41 41 42 36 43 37 44 38 45
REMARK SMILES IDX 39 46 40 47 63 48 64 49 72 50 65 51 71 52 66 53 67 54 68 55
REMARK SMILES IDX 69 56 70 57 49 58 50 59 58 60 51 61 57 62 52 63 53 64 54 65
REMARK SMILES IDX 55 66 56 67 5 68 6 69 7 70 8 71 9 73 10 74 11 75 23 76 12 77
REMARK SMILES IDX 21 78 13 79 22 80 14 81 15 82 16 83 20 84 17 86 19 87 18 88
REMARK H PARENT 3 5 77 23 47 34 7 72 15 85 18 89 18 90
REMARK Flexibility Score: inf
ROOT
ATOM      1  C   UNL     1       4.635  -1.398   0.198  1.00  0.00     0.118 C 
ENDROOT
BRANCH   1   2
ATOM      2  N   UNL     1       3.200  -1.177   0.085  1.00  0.00    -0.352 N 
ATOM      3  O   UNL     1       1.255  -0.048   0.112  1.00  0.00    -0.269 OA
ATOM      4  C   UNL     1       2.482  -0.003   0.086  1.00  0.00     0.251 C 
ATOM      5  H   UNL     1       2.659  -1.994  -0.007  1.00  0.00     0.163 HD
BRANCH   4   6
ATOM      6  C   UNL     1       3.176   1.306   0.082  1.00  0.00     0.039 A 
ATOM      7  C   UNL     1       4.289   1.532  -0.729  1.00  0.00     0.014 A 
ATOM      8  C   UNL     1       2.685   2.338   0.890  1.00  0.00     0.014 A 
ATOM      9  C   UNL     1       5.000   2.724  -0.617  1.00  0.00     0.010 A 
ATOM     10  C   UNL     1       3.348   3.570   0.932  1.00  0.00     0.010 A 
ATOM     11  C   UNL     1       4.532   3.763   0.204  1.00  0.00    -0.014 A 
BRANCH  11  12
ATOM     12  C   UNL     1       5.262   5.058   0.231  1.00  0.00     0.031 A 
ATOM     13  C   UNL     1       5.920   5.561   1.488  1.00  0.00     0.074 A 
ATOM     14  C   UNL     1       5.351   5.774  -0.908  1.00  0.00     0.049 A 
ATOM     15  N   UNL     1       6.624   6.651   1.667  1.00  0.00    -0.248 NA
ATOM     16  C   UNL     1       5.767   4.742   2.701  1.00  0.00     0.031 C 
ATOM     17  C   UNL     1       4.749   5.396  -2.190  1.00  0.00     0.029 A 
ATOM     18  N   UNL     1       5.996   6.954  -1.180  1.00  0.00    -0.354 N 
ATOM     19  C   UNL     1       6.984   6.659   3.010  1.00  0.00     0.074 A 
ATOM     20  C   UNL     1       6.396   5.478   3.607  1.00  0.00     0.031 C 
ATOM     21  C   UNL     1       5.094   6.298  -3.120  1.00  0.00     0.029 A 
ATOM     22  C   UNL     1       5.883   7.350  -2.492  1.00  0.00     0.049 A 
ATOM     23  H   UNL     1       6.491   7.467  -0.502  1.00  0.00     0.167 HD
ATOM     24  C   UNL     1       7.737   7.565   3.682  1.00  0.00     0.031 A 
ATOM     25  C   UNL     1       6.347   8.445  -3.123  1.00  0.00     0.031 A 
ATOM     26  C   UNL     1       8.313   8.742   3.083  1.00  0.00     0.049 A 
ATOM     27  C   UNL     1       7.146   9.451  -2.347  1.00  0.00     0.074 A 
ATOM     28  C   UNL     1       9.119   9.701   3.674  1.00  0.00     0.029 A 
ATOM     29  N   UNL     1       8.140   9.129   1.762  1.00  0.00    -0.354 N 
ATOM     30  N   UNL     1       7.508   9.419  -1.087  1.00  0.00    -0.248 NA
ATOM     31  C   UNL     1       7.601  10.641  -3.079  1.00  0.00     0.031 C 
ATOM     32  C   UNL     1       9.383  10.697   2.727  1.00  0.00     0.029 A 
ATOM     33  C   UNL     1       8.797  10.327   1.528  1.00  0.00     0.049 A 
ATOM     34  H   UNL     1       7.626   8.626   1.090  1.00  0.00     0.167 HD
ATOM     35  C   UNL     1       8.248  10.576  -0.878  1.00  0.00     0.074 A 
ATOM     36  C   UNL     1       8.300  11.275  -2.147  1.00  0.00     0.031 C 
ATOM     37  C   UNL     1       8.831  11.020   0.263  1.00  0.00     0.031 A 
BRANCH  24  38
ATOM     38  C   UNL     1       7.960   7.334   5.156  1.00  0.00    -0.014 A 
ATOM     39  C   UNL     1       8.787   6.294   5.617  1.00  0.00     0.010 A 
ATOM     40  C   UNL     1       7.369   8.201   6.094  1.00  0.00     0.010 A 
ATOM     41  C   UNL     1       8.983   6.098   6.988  1.00  0.00     0.020 A 
ATOM     42  C   UNL     1       7.585   8.026   7.465  1.00  0.00     0.020 A 
ATOM     43  C   UNL     1       8.376   6.963   7.904  1.00  0.00     0.054 A 
BRANCH  43  44
ATOM     44  S   UNL     1       8.654   6.691   9.676  1.00  0.00     0.124 S 
ATOM     45  O   UNL     1       7.857   5.492   9.924  1.00  0.00    -0.237 OA
ATOM     46  O   UNL     1      10.101   6.506   9.749  1.00  0.00    -0.237 OA
ATOM     47  O   UNL     1       8.152   7.912  10.299  1.00  0.00    -0.744 OA
ENDBRANCH  43  44
ENDBRANCH  24  38
BRANCH  25  48
ATOM     48  C   UNL     1       6.048   8.643  -4.567  1.00  0.00    -0.014 A 
ATOM     49  C   UNL     1       7.065   8.544  -5.531  1.00  0.00     0.010 A 
ATOM     50  C   UNL     1       4.729   8.896  -4.987  1.00  0.00     0.010 A 
ATOM     51  C   UNL     1       6.771   8.704  -6.888  1.00  0.00     0.020 A 
ATOM     52  C   UNL     1       4.425   9.026  -6.344  1.00  0.00     0.020 A 
ATOM     53  C   UNL     1       5.451   8.939  -7.286  1.00  0.00     0.054 A 
BRANCH  53  54
ATOM     54  S   UNL     1       5.082   9.080  -9.056  1.00  0.00     0.124 S 
ATOM     55  O   UNL     1       5.622  10.398  -9.374  1.00  0.00    -0.237 OA
ATOM     56  O   UNL     1       5.808   7.945  -9.621  1.00  0.00    -0.237 OA
ATOM     57  O   UNL     1       3.626   8.968  -9.112  1.00  0.00    -0.744 OA
ENDBRANCH  53  54
ENDBRANCH  25  48
BRANCH  37  58
ATOM     58  C   UNL     1       9.596  12.314   0.187  1.00  0.00    -0.014 A 
ATOM     59  C   UNL     1       8.933  13.546   0.050  1.00  0.00     0.010 A 
ATOM     60  C   UNL     1      10.999  12.299   0.292  1.00  0.00     0.010 A 
ATOM     61  C   UNL     1       9.661  14.737  -0.013  1.00  0.00     0.020 A 
ATOM     62  C   UNL     1      11.729  13.490   0.258  1.00  0.00     0.020 A 
ATOM     63  C   UNL     1      11.055  14.701   0.091  1.00  0.00     0.054 A 
BRANCH  63  64
ATOM     64  S   UNL     1      11.975  16.264   0.045  1.00  0.00     0.124 S 
ATOM     65  O   UNL     1      11.887  16.627  -1.366  1.00  0.00    -0.237 OA
ATOM     66  O   UNL     1      11.214  17.111   0.961  1.00  0.00    -0.237 OA
ATOM     67  O   UNL     1      13.309  15.894   0.512  1.00  0.00    -0.744 OA
ENDBRANCH  63  64
ENDBRANCH  37  58
ENDBRANCH  11  12
ENDBRANCH   4   6
ENDBRANCH   1   2
BRANCH   1  68
ATOM     68  C   UNL     1       5.018  -2.301   1.363  1.00  0.00     0.042 C 
BRANCH  68  69
ATOM     69  C   UNL     1       4.511  -3.733   1.258  1.00  0.00     0.118 C 
BRANCH  69  70
ATOM     70  N   UNL     1       5.015  -4.430   0.080  1.00  0.00    -0.352 N 
ATOM     71  C   UNL     1       5.829  -5.532  -0.004  1.00  0.00     0.251 C 
ATOM     72  H   UNL     1       4.729  -4.054  -0.784  1.00  0.00     0.163 HD
ATOM     73  O   UNL     1       6.277  -5.903  -1.084  1.00  0.00    -0.269 OA
BRANCH  71  74
ATOM     74  C   UNL     1       6.183  -6.268   1.221  1.00  0.00     0.040 A 
ATOM     75  C   UNL     1       5.188  -6.787   2.047  1.00  0.00     0.014 A 
ATOM     76  C   UNL     1       7.529  -6.436   1.543  1.00  0.00     0.030 A 
ATOM     77  C   UNL     1       5.540  -7.334   3.278  1.00  0.00     0.011 A 
ATOM     78  C   UNL     1       7.878  -6.995   2.776  1.00  0.00     0.027 A 
ATOM     79  C   UNL     1       6.883  -7.364   3.701  1.00  0.00     0.020 A 
ATOM     80  Br  UNL     1       9.737  -7.199   3.115  1.00  0.00    -0.050 Br
BRANCH  79  81
ATOM     81  C   UNL     1       7.164  -7.724   5.145  1.00  0.00     0.300 C 
BRANCH  81  82
ATOM     82  N   UNL     1       7.039  -6.652   6.144  1.00  0.00    -0.322 N 
ATOM     83  C   UNL     1       8.019  -5.562   6.046  1.00  0.00     0.324 C 
ATOM     84  C   UNL     1       5.687  -6.133   6.393  1.00  0.00     0.324 C 
ATOM     85  H   UNL     1       7.281  -7.182   6.980  1.00  0.00     0.348 HD
ATOM     86  C   UNL     1       7.585  -4.351   5.190  1.00  0.00     0.322 C 
ATOM     87  C   UNL     1       5.274  -4.867   5.602  1.00  0.00     0.322 C 
ATOM     88  N   UNL     1       6.282  -3.798   5.593  1.00  0.00    -0.337 N 
ATOM     89  H   UNL     1       6.002  -3.073   4.933  1.00  0.00     0.346 HD
ATOM     90  H   UNL     1       6.358  -3.398   6.528  1.00  0.00     0.346 HD
ENDBRANCH  81  82
ENDBRANCH  79  81
ENDBRANCH  71  74
ENDBRANCH  69  70
ENDBRANCH  68  69
ENDBRANCH   1  68
TORSDOF 15
