REMARK SMILES Cc1nn(C)c(C)c1[C@H](C)N1C(=O)CC[C@@H](C(=O)NCCCNC(=O)c2ccc(-c3c4nc(c(-c5ccc(S(=O)(=O)[O-])cc5)c5ccc([nH]5)c(-c5ccc(S(=O)(=O)[O-])cc5)c5nc(c(-c6ccc(S(=O)(=O)[O-])cc6)c6ccc3[nH]6)C=C5)C=C4)cc2)[C@@H]1c1ccco1
REMARK SMILES IDX 21 1 20 2 19 3 17 4 18 5 16 7 11 8 12 9 86 10 13 11 14 12
REMARK SMILES IDX 15 13 9 14 10 15 8 16 1 17 2 18 3 19 4 20 6 21 5 22 7 23
REMARK SMILES IDX 87 24 88 25 91 26 89 27 90 28 22 29 23 30 24 31 25 33 26 34
REMARK SMILES IDX 27 35 85 36 28 37 84 38 29 39 30 40 31 41 78 42 32 43 83 44
REMARK SMILES IDX 77 45 79 46 33 47 82 48 76 49 75 50 34 52 64 53 45 54 63 55
REMARK SMILES IDX 46 56 49 57 62 58 80 59 47 60 48 61 61 63 81 64 50 65 35 66
REMARK SMILES IDX 36 67 44 68 37 69 43 70 38 71 39 72 40 73 41 74 42 75 65 76
REMARK SMILES IDX 66 77 74 78 67 79 73 80 68 81 69 82 70 83 71 84 72 85 51 86
REMARK SMILES IDX 52 87 60 88 53 89 59 90 54 91 55 92 56 93 57 94 58 95
REMARK H PARENT 19 6 23 32 79 51 49 62
REMARK Flexibility Score: inf
ROOT
ATOM      1  C   UNL     1       0.439   9.450  -2.816  1.00  0.00     0.042 C 
ENDROOT
BRANCH   1   2
ATOM      2  C   UNL     1       0.381   8.560  -1.577  1.00  0.00     0.117 C 
BRANCH   2   3
ATOM      3  N   UNL     1      -0.690   7.590  -1.682  1.00  0.00    -0.356 N 
ATOM      4  C   UNL     1      -0.680   6.303  -2.118  1.00  0.00     0.225 C 
ATOM      5  O   UNL     1      -1.780   5.795  -2.337  1.00  0.00    -0.275 OA
ATOM      6  H   UNL     1      -1.571   7.917  -1.389  1.00  0.00     0.163 HD
BRANCH   4   7
ATOM      7  C   UNL     1       0.627   5.522  -2.234  1.00  0.00     0.109 C 
ATOM      8  N   UNL     1      -0.196   3.421  -1.083  1.00  0.00    -0.325 N 
ATOM      9  C   UNL     1      -0.770   3.011  -2.286  1.00  0.00     0.223 C 
ATOM     10  C   UNL     1       0.730   4.570  -1.029  1.00  0.00     0.164 C 
ATOM     11  O   UNL     1      -1.667   2.163  -2.340  1.00  0.00    -0.275 OA
ATOM     12  C   UNL     1      -0.293   3.611  -3.596  1.00  0.00     0.101 C 
ATOM     13  C   UNL     1       0.718   4.734  -3.527  1.00  0.00     0.026 C 
BRANCH   8  14
ATOM     14  C   UNL     1      -0.661   2.715   0.155  1.00  0.00     0.117 C 
ATOM     15  C   UNL     1      -0.373   1.207   0.066  1.00  0.00     0.036 C 
BRANCH  14  16
ATOM     16  C   UNL     1      -0.206   3.345   1.476  1.00  0.00     0.018 A 
ATOM     17  C   UNL     1       1.236   1.487   2.780  1.00  0.00     0.069 C 
ATOM     18  C   UNL     1       0.604   2.814   2.544  1.00  0.00     0.065 A 
ATOM     19  N   UNL     1       0.778   3.707   3.526  1.00  0.00    -0.178 NA
ATOM     20  N   UNL     1       0.094   4.782   3.138  1.00  0.00    -0.272 N 
ATOM     21  C   UNL     1      -0.598   4.595   1.974  1.00  0.00     0.040 A 
ATOM     22  C   UNL     1       0.176   5.963   3.965  1.00  0.00     0.174 C 
ATOM     23  C   UNL     1      -1.520   5.629   1.427  1.00  0.00     0.067 C 
ENDBRANCH  14  16
ENDBRANCH   8  14
BRANCH  10  24
ATOM     24  C   UNL     1       2.148   4.148  -0.769  1.00  0.00     0.127 A 
ATOM     25  C   UNL     1       3.235   4.851  -0.282  1.00  0.00     0.048 A 
ATOM     26  O   UNL     1       2.503   2.850  -0.995  1.00  0.00    -0.467 OA
ATOM     27  C   UNL     1       4.302   3.930  -0.188  1.00  0.00     0.042 A 
ATOM     28  C   UNL     1       3.803   2.725  -0.622  1.00  0.00     0.195 A 
ENDBRANCH  10  24
ENDBRANCH   4   7
ENDBRANCH   2   3
ENDBRANCH   1   2
BRANCH   1  29
ATOM     29  C   UNL     1      -0.822  10.286  -3.041  1.00  0.00     0.118 C 
BRANCH  29  30
ATOM     30  N   UNL     1      -1.084  11.213  -1.948  1.00  0.00    -0.352 N 
ATOM     31  C   UNL     1      -1.152  12.584  -1.946  1.00  0.00     0.251 C 
ATOM     32  H   UNL     1      -1.236  10.790  -1.072  1.00  0.00     0.163 HD
ATOM     33  O   UNL     1      -1.186  13.181  -0.869  1.00  0.00    -0.269 OA
BRANCH  31  34
ATOM     34  C   UNL     1      -1.166  13.342  -3.214  1.00  0.00     0.039 A 
ATOM     35  C   UNL     1      -0.404  14.510  -3.313  1.00  0.00     0.014 A 
ATOM     36  C   UNL     1      -1.942  12.923  -4.298  1.00  0.00     0.014 A 
ATOM     37  C   UNL     1      -0.365  15.215  -4.518  1.00  0.00     0.010 A 
ATOM     38  C   UNL     1      -1.840  13.582  -5.522  1.00  0.00     0.010 A 
ATOM     39  C   UNL     1      -1.051  14.735  -5.646  1.00  0.00    -0.014 A 
BRANCH  39  40
ATOM     40  C   UNL     1      -0.942  15.416  -6.963  1.00  0.00     0.031 A 
ATOM     41  C   UNL     1      -2.161  16.009  -7.620  1.00  0.00     0.074 A 
ATOM     42  C   UNL     1       0.245  15.441  -7.602  1.00  0.00     0.049 A 
ATOM     43  N   UNL     1      -2.267  16.588  -8.788  1.00  0.00    -0.248 NA
ATOM     44  C   UNL     1      -3.429  15.917  -6.878  1.00  0.00     0.031 C 
ATOM     45  C   UNL     1       1.493  14.865  -7.093  1.00  0.00     0.029 A 
ATOM     46  N   UNL     1       0.598  15.964  -8.822  1.00  0.00    -0.354 N 
ATOM     47  C   UNL     1      -3.612  16.912  -8.930  1.00  0.00     0.074 A 
ATOM     48  C   UNL     1      -4.290  16.422  -7.750  1.00  0.00     0.031 C 
ATOM     49  C   UNL     1       2.475  15.088  -7.980  1.00  0.00     0.029 A 
ATOM     50  C   UNL     1       1.923  15.780  -9.141  1.00  0.00     0.049 A 
ATOM     51  H   UNL     1      -0.039  16.429  -9.412  1.00  0.00     0.167 HD
ATOM     52  C   UNL     1      -4.224  17.573  -9.942  1.00  0.00     0.031 A 
ATOM     53  C   UNL     1       2.616  16.115 -10.246  1.00  0.00     0.031 A 
ATOM     54  C   UNL     1      -3.545  18.063 -11.113  1.00  0.00     0.049 A 
ATOM     55  C   UNL     1       1.912  16.835 -11.363  1.00  0.00     0.074 A 
ATOM     56  C   UNL     1      -4.066  18.797 -12.164  1.00  0.00     0.029 A 
ATOM     57  N   UNL     1      -2.201  17.863 -11.393  1.00  0.00    -0.354 N 
ATOM     58  N   UNL     1       0.654  17.200 -11.444  1.00  0.00    -0.248 NA
ATOM     59  C   UNL     1       2.722  17.200 -12.533  1.00  0.00     0.031 C 
ATOM     60  C   UNL     1      -3.053  18.985 -13.110  1.00  0.00     0.029 A 
ATOM     61  C   UNL     1      -1.883  18.432 -12.615  1.00  0.00     0.049 A 
ATOM     62  H   UNL     1      -1.567  17.387 -10.809  1.00  0.00     0.167 HD
ATOM     63  C   UNL     1       0.529  17.862 -12.660  1.00  0.00     0.074 A 
ATOM     64  C   UNL     1       1.842  17.861 -13.273  1.00  0.00     0.031 C 
ATOM     65  C   UNL     1      -0.573  18.422 -13.217  1.00  0.00     0.031 A 
BRANCH  52  66
ATOM     66  C   UNL     1      -5.713  17.791  -9.836  1.00  0.00    -0.014 A 
ATOM     67  C   UNL     1      -6.256  18.662  -8.874  1.00  0.00     0.010 A 
ATOM     68  C   UNL     1      -6.578  17.149 -10.741  1.00  0.00     0.010 A 
ATOM     69  C   UNL     1      -7.639  18.851  -8.790  1.00  0.00     0.020 A 
ATOM     70  C   UNL     1      -7.959  17.361 -10.681  1.00  0.00     0.020 A 
ATOM     71  C   UNL     1      -8.482  18.197  -9.693  1.00  0.00     0.054 A 
BRANCH  71  72
ATOM     72  S   UNL     1     -10.269  18.479  -9.572  1.00  0.00     0.124 S 
ATOM     73  O   UNL     1     -10.604  17.763  -8.344  1.00  0.00    -0.237 OA
ATOM     74  O   UNL     1     -10.358  19.935  -9.494  1.00  0.00    -0.237 OA
ATOM     75  O   UNL     1     -10.798  17.890 -10.800  1.00  0.00    -0.744 OA
ENDBRANCH  71  72
ENDBRANCH  52  66
BRANCH  53  76
ATOM     76  C   UNL     1       4.063  15.775 -10.346  1.00  0.00    -0.014 A 
ATOM     77  C   UNL     1       5.042  16.784 -10.309  1.00  0.00     0.010 A 
ATOM     78  C   UNL     1       4.471  14.433 -10.459  1.00  0.00     0.010 A 
ATOM     79  C   UNL     1       6.399  16.459 -10.401  1.00  0.00     0.020 A 
ATOM     80  C   UNL     1       5.827  14.102 -10.519  1.00  0.00     0.020 A 
ATOM     81  C   UNL     1       6.783  15.119 -10.500  1.00  0.00     0.054 A 
BRANCH  81  82
ATOM     82  S   UNL     1       8.551  14.718 -10.558  1.00  0.00     0.124 S 
ATOM     83  O   UNL     1       8.922  15.167 -11.896  1.00  0.00    -0.237 OA
ATOM     84  O   UNL     1       9.088  15.507  -9.452  1.00  0.00    -0.237 OA
ATOM     85  O   UNL     1       8.580  13.271 -10.351  1.00  0.00    -0.744 OA
ENDBRANCH  81  82
ENDBRANCH  53  76
BRANCH  65  86
ATOM     86  C   UNL     1      -0.406  19.116 -14.545  1.00  0.00    -0.014 A 
ATOM     87  C   UNL     1      -0.169  18.391 -15.726  1.00  0.00     0.010 A 
ATOM     88  C   UNL     1      -0.546  20.514 -14.616  1.00  0.00     0.010 A 
ATOM     89  C   UNL     1      -0.043  19.056 -16.949  1.00  0.00     0.020 A 
ATOM     90  C   UNL     1      -0.453  21.179 -15.841  1.00  0.00     0.020 A 
ATOM     91  C   UNL     1      -0.188  20.447 -16.999  1.00  0.00     0.054 A 
BRANCH  91  92
ATOM     92  S   UNL     1      -0.064  21.280 -18.605  1.00  0.00     0.124 S 
ATOM     93  O   UNL     1       1.364  21.180 -18.890  1.00  0.00    -0.237 OA
ATOM     94  O   UNL     1      -0.933  20.468 -19.453  1.00  0.00    -0.237 OA
ATOM     95  O   UNL     1      -0.552  22.630 -18.334  1.00  0.00    -0.744 OA
ENDBRANCH  91  92
ENDBRANCH  65  86
ENDBRANCH  39  40
ENDBRANCH  31  34
ENDBRANCH  29  30
ENDBRANCH   1  29
TORSDOF 16
