REMARK SMILES Cc1ccc(C2=NN(C(=O)CCC(=O)NCCCNC(=O)c3ccc(-c4c5nc(c(-c6ccc(S(=O)(=O)[O-])cc6)c6ccc([nH]6)c(-c6ccc(S(=O)(=O)[O-])cc6)c6nc(c(-c7ccc(S(=O)(=O)[O-])cc7)c7ccc4[nH]7)C=C6)C=C5)cc3)[C@H](C[C@@H]3C=c4cccc(C)c4=NC3=O)C2)cc1
REMARK SMILES IDX 16 1 15 2 13 3 14 4 12 6 11 7 9 8 10 9 8 10 6 11 7 12 96 13
REMARK SMILES IDX 82 14 5 15 1 16 2 17 3 18 98 19 4 20 97 21 83 22 84 23 85 24
REMARK SMILES IDX 94 25 86 26 93 27 95 28 87 29 92 30 88 31 90 32 89 33 91 34
REMARK SMILES IDX 17 35 18 36 19 37 20 38 21 40 22 41 23 42 81 43 24 44 80 45
REMARK SMILES IDX 25 46 26 47 27 48 74 49 28 50 79 51 73 52 75 53 29 54 78 55
REMARK SMILES IDX 72 56 71 57 30 59 60 60 41 61 59 62 42 63 45 64 58 65 76 66
REMARK SMILES IDX 43 67 44 68 57 70 77 71 46 72 31 73 32 74 40 75 33 76 39 77
REMARK SMILES IDX 34 78 35 79 36 80 37 81 38 82 61 83 62 84 70 85 63 86 69 87
REMARK SMILES IDX 64 88 65 89 66 90 67 91 68 92 47 93 48 94 56 95 49 96 55 97
REMARK SMILES IDX 50 98 51 99 52 100 53 101 54 102
REMARK H PARENT 15 5 19 39 75 58 45 69
REMARK Flexibility Score: inf
ROOT
ATOM      1  C   UNL     1      -5.356   0.859   1.379  1.00  0.00     0.117 C 
ENDROOT
BRANCH   1   2
ATOM      2  N   UNL     1      -6.481   2.002   1.553  1.00  0.00    -0.356 N 
ATOM      3  C   UNL     1      -7.795   2.058   1.849  1.00  0.00     0.220 C 
ATOM      4  O   UNL     1      -8.369   3.134   1.662  1.00  0.00    -0.275 OA
ATOM      5  H   UNL     1      -6.108   2.901   1.402  1.00  0.00     0.163 HD
BRANCH   3   6
ATOM      6  C   UNL     1      -8.535   0.877   2.406  1.00  0.00     0.110 C 
BRANCH   6   7
ATOM      7  C   UNL     1      -8.473  -0.432   1.643  1.00  0.00     0.112 C 
BRANCH   7   8
ATOM      8  C   UNL     1      -7.144  -1.167   1.757  1.00  0.00     0.243 C 
ATOM      9  O   UNL     1      -6.920  -1.901   2.718  1.00  0.00    -0.273 OA
BRANCH   8  10
ATOM     10  N   UNL     1      -6.185  -0.825   0.756  1.00  0.00    -0.230 N 
ATOM     11  C   UNL     1      -3.609   0.176   0.896  1.00  0.00     0.070 C 
ATOM     12  N   UNL     1      -4.481  -1.009   1.267  1.00  0.00    -0.174 NA
ATOM     13  C   UNL     1      -4.772   1.733  -0.079  1.00  0.00     0.086 C 
ATOM     14  C   UNL     1      -6.464   0.572  -0.388  1.00  0.00     0.118 C 
BRANCH  11  15
ATOM     15  C   UNL     1      -2.013  -0.524   0.261  1.00  0.00    -0.002 A 
ATOM     16  C   UNL     1       2.837  -0.024   1.865  1.00  0.00     0.044 C 
ATOM     17  C   UNL     1       1.420  -0.151   1.389  1.00  0.00    -0.051 A 
ATOM     18  C   UNL     1       0.327  -1.363   2.094  1.00  0.00     0.004 A 
ATOM     19  C   UNL     1       0.912   0.891   0.051  1.00  0.00     0.004 A 
ATOM     20  C   UNL     1      -1.367  -1.530   1.598  1.00  0.00     0.010 A 
ATOM     21  C   UNL     1      -0.726   0.597  -0.664  1.00  0.00     0.010 A 
ENDBRANCH  11  15
BRANCH  14  22
ATOM     22  C   UNL     1      -6.914  -0.365  -1.809  1.00  0.00     0.045 C 
BRANCH  22  23
ATOM     23  C   UNL     1      -7.801  -1.666  -1.562  1.00  0.00     0.106 C 
ATOM     24  C   UNL     1      -7.137  -2.792  -0.789  1.00  0.00    -0.003 C 
ATOM     25  C   UNL     1      -8.493  -2.398  -2.730  1.00  0.00     0.253 C 
ATOM     26  C   UNL     1      -7.906  -3.793  -0.353  1.00  0.00    -0.003 A 
ATOM     27  N   UNL     1      -9.266  -3.522  -2.397  1.00  0.00    -0.212 NA
ATOM     28  O   UNL     1      -8.448  -1.953  -3.872  1.00  0.00    -0.272 OA
ATOM     29  C   UNL     1      -7.754  -4.441   0.926  1.00  0.00     0.010 A 
ATOM     30  C   UNL     1      -9.004  -4.163  -1.293  1.00  0.00     0.077 A 
ATOM     31  C   UNL     1      -8.635  -5.370   1.315  1.00  0.00     0.001 A 
ATOM     32  C   UNL     1      -9.716  -5.437  -0.885  1.00  0.00    -0.025 A 
ATOM     33  C   UNL     1      -9.560  -5.930   0.360  1.00  0.00     0.005 A 
ATOM     34  C   UNL     1     -10.417  -6.218  -1.948  1.00  0.00     0.047 C 
ENDBRANCH  22  23
ENDBRANCH  14  22
ENDBRANCH   8  10
ENDBRANCH   7   8
ENDBRANCH   6   7
ENDBRANCH   3   6
ENDBRANCH   1   2
BRANCH   1  35
ATOM     35  C   UNL     1      -4.582   0.066  -0.563  1.00  0.00     0.042 C 
BRANCH  35  36
ATOM     36  C   UNL     1      -2.957   1.173  -0.885  1.00  0.00     0.118 C 
BRANCH  36  37
ATOM     37  N   UNL     1      -1.941   1.538   0.631  1.00  0.00    -0.352 N 
ATOM     38  C   UNL     1      -0.666   0.414   1.228  1.00  0.00     0.251 C 
ATOM     39  H   UNL     1      -2.106   2.374   1.124  1.00  0.00     0.163 HD
ATOM     40  O   UNL     1      -0.508   0.786   2.413  1.00  0.00    -0.269 OA
BRANCH  38  41
ATOM     41  C   UNL     1       0.026  -1.162  -0.082  1.00  0.00     0.039 A 
ATOM     42  C   UNL     1       1.258  -1.200  -0.935  1.00  0.00     0.014 A 
ATOM     43  C   UNL     1      -0.782  -1.966  -1.036  1.00  0.00     0.014 A 
ATOM     44  C   UNL     1       1.238  -0.725  -2.291  1.00  0.00     0.010 A 
ATOM     45  C   UNL     1      -0.913  -1.559  -2.400  1.00  0.00     0.010 A 
ATOM     46  C   UNL     1       0.006  -0.643  -2.906  1.00  0.00    -0.014 A 
BRANCH  46  47
ATOM     47  C   UNL     1      -0.356   0.240  -4.036  1.00  0.00     0.031 A 
ATOM     48  C   UNL     1       0.089  -0.240  -5.347  1.00  0.00     0.074 A 
ATOM     49  C   UNL     1      -0.968   1.464  -4.047  1.00  0.00     0.049 A 
ATOM     50  N   UNL     1       0.431   0.512  -6.339  1.00  0.00    -0.248 NA
ATOM     51  C   UNL     1       0.343  -1.661  -5.546  1.00  0.00     0.031 C 
ATOM     52  C   UNL     1      -1.730   2.016  -5.178  1.00  0.00     0.029 A 
ATOM     53  N   UNL     1      -1.011   2.512  -3.122  1.00  0.00    -0.354 N 
ATOM     54  C   UNL     1       0.585  -0.349  -7.395  1.00  0.00     0.074 A 
ATOM     55  C   UNL     1       0.790  -1.646  -6.797  1.00  0.00     0.031 C 
ATOM     56  C   UNL     1      -2.051   3.298  -4.940  1.00  0.00     0.029 A 
ATOM     57  C   UNL     1      -1.409   3.717  -3.710  1.00  0.00     0.049 A 
ATOM     58  H   UNL     1      -0.787   2.413  -2.169  1.00  0.00     0.167 HD
ATOM     59  C   UNL     1       0.243   0.038  -8.655  1.00  0.00     0.031 A 
ATOM     60  C   UNL     1      -0.836   4.929  -3.460  1.00  0.00     0.031 A 
ATOM     61  C   UNL     1      -0.179   1.439  -8.719  1.00  0.00     0.049 A 
ATOM     62  C   UNL     1      -0.091   5.427  -4.678  1.00  0.00     0.074 A 
ATOM     63  C   UNL     1      -1.400   2.083  -8.856  1.00  0.00     0.029 A 
ATOM     64  N   UNL     1       0.711   2.423  -8.319  1.00  0.00    -0.354 N 
ATOM     65  N   UNL     1      -0.272   4.947  -5.875  1.00  0.00    -0.248 NA
ATOM     66  C   UNL     1       1.011   6.389  -4.626  1.00  0.00     0.031 C 
ATOM     67  C   UNL     1      -1.216   3.469  -8.566  1.00  0.00     0.029 A 
ATOM     68  C   UNL     1       0.121   3.675  -8.283  1.00  0.00     0.049 A 
ATOM     69  H   UNL     1       1.652   2.252  -8.088  1.00  0.00     0.167 HD
ATOM     70  C   UNL     1       0.749   5.357  -6.686  1.00  0.00     0.074 A 
ATOM     71  C   UNL     1       1.501   6.301  -5.876  1.00  0.00     0.031 C 
ATOM     72  C   UNL     1       0.952   4.819  -7.924  1.00  0.00     0.031 A 
BRANCH  59  73
ATOM     73  C   UNL     1      -0.020  -1.004  -9.719  1.00  0.00    -0.014 A 
ATOM     74  C   UNL     1      -0.966  -0.769 -10.730  1.00  0.00     0.010 A 
ATOM     75  C   UNL     1       0.604  -2.269  -9.737  1.00  0.00     0.010 A 
ATOM     76  C   UNL     1      -1.333  -1.772 -11.642  1.00  0.00     0.020 A 
ATOM     77  C   UNL     1       0.197  -3.302 -10.584  1.00  0.00     0.020 A 
ATOM     78  C   UNL     1      -0.766  -3.042 -11.545  1.00  0.00     0.054 A 
BRANCH  78  79
ATOM     79  S   UNL     1      -1.253  -4.336 -12.713  1.00  0.00     0.124 S 
ATOM     80  O   UNL     1      -2.709  -4.327 -12.610  1.00  0.00    -0.237 OA
ATOM     81  O   UNL     1      -0.702  -3.835 -13.968  1.00  0.00    -0.237 OA
ATOM     82  O   UNL     1      -0.607  -5.537 -12.186  1.00  0.00    -0.744 OA
ENDBRANCH  78  79
ENDBRANCH  59  73
BRANCH  60  83
ATOM     83  C   UNL     1      -0.463   5.200  -2.045  1.00  0.00    -0.014 A 
ATOM     84  C   UNL     1      -1.475   5.689  -1.193  1.00  0.00     0.010 A 
ATOM     85  C   UNL     1       0.714   4.687  -1.473  1.00  0.00     0.010 A 
ATOM     86  C   UNL     1      -1.382   5.529   0.191  1.00  0.00     0.020 A 
ATOM     87  C   UNL     1       0.804   4.512  -0.084  1.00  0.00     0.020 A 
ATOM     88  C   UNL     1      -0.268   4.888   0.730  1.00  0.00     0.054 A 
BRANCH  88  89
ATOM     89  S   UNL     1      -0.369   4.351   2.464  1.00  0.00     0.124 S 
ATOM     90  O   UNL     1      -0.378   5.624   3.179  1.00  0.00    -0.237 OA
ATOM     91  O   UNL     1      -1.647   3.635   2.452  1.00  0.00    -0.237 OA
ATOM     92  O   UNL     1       0.842   3.555   2.631  1.00  0.00    -0.744 OA
ENDBRANCH  88  89
ENDBRANCH  60  83
BRANCH  72  93
ATOM     93  C   UNL     1       2.025   5.281  -8.877  1.00  0.00    -0.014 A 
ATOM     94  C   UNL     1       2.451   6.616  -8.952  1.00  0.00     0.010 A 
ATOM     95  C   UNL     1       2.559   4.386  -9.833  1.00  0.00     0.010 A 
ATOM     96  C   UNL     1       3.438   7.012  -9.865  1.00  0.00     0.020 A 
ATOM     97  C   UNL     1       3.528   4.771 -10.759  1.00  0.00     0.020 A 
ATOM     98  C   UNL     1       3.982   6.081 -10.750  1.00  0.00     0.054 A 
BRANCH  98  99
ATOM     99  S   UNL     1       5.250   6.608 -11.925  1.00  0.00     0.124 S 
ATOM    100  O   UNL     1       4.692   7.848 -12.459  1.00  0.00    -0.237 OA
ATOM    101  O   UNL     1       6.414   6.764 -11.058  1.00  0.00    -0.237 OA
ATOM    102  O   UNL     1       5.324   5.503 -12.877  1.00  0.00    -0.744 OA
ENDBRANCH  98  99
ENDBRANCH  72  93
ENDBRANCH  46  47
ENDBRANCH  38  41
ENDBRANCH  36  37
ENDBRANCH  35  36
ENDBRANCH   1  35
TORSDOF 19
