REMARK SMILES C[C@@H](C(=O)NCCCNC(=O)c1ccc(-c2c3nc(c(-c4ccc(S(=O)(=O)[O-])cc4)c4ccc([nH]4)c(-c4ccc(S(=O)(=O)[O-])cc4)c4nc(c(-c5ccc(S(=O)(=O)[O-])cc5)c5ccc2[nH]5)C=C4)C=C3)cc1)c1cc(C(=O)c2ccccc2)ccc1O
REMARK SMILES IDX 7 1 6 2 5 3 3 4 4 5 2 7 1 8 72 9 73 10 85 11 74 12 84 13
REMARK SMILES IDX 83 14 86 15 75 17 76 18 77 19 78 20 82 21 79 22 81 23 80 24
REMARK SMILES IDX 8 25 9 26 10 27 11 29 12 30 13 31 71 32 14 33 70 34 15 35
REMARK SMILES IDX 16 36 17 37 64 38 18 39 69 40 63 41 65 42 19 43 68 44 62 45
REMARK SMILES IDX 61 46 20 48 50 49 31 50 49 51 32 52 35 53 48 54 66 55 33 56
REMARK SMILES IDX 34 57 47 59 67 60 36 61 21 62 22 63 30 64 23 65 29 66 24 67
REMARK SMILES IDX 25 68 26 69 27 70 28 71 51 72 52 73 60 74 53 75 59 76 54 77
REMARK SMILES IDX 55 78 56 79 57 80 58 81 37 82 38 83 46 84 39 85 45 86 40 87
REMARK SMILES IDX 41 88 42 89 43 90 44 91
REMARK H PARENT 5 6 86 16 9 28 65 47 35 58
REMARK Flexibility Score: inf
ROOT
ATOM      1  C   UNL     1       4.406  -0.434  -1.083  1.00  0.00     0.042 C 
ENDROOT
BRANCH   1   2
ATOM      2  C   UNL     1       3.498   0.530  -1.848  1.00  0.00     0.117 C 
BRANCH   2   3
ATOM      3  N   UNL     1       2.453  -0.169  -2.569  1.00  0.00    -0.356 N 
ATOM      4  C   UNL     1       1.134  -0.343  -2.281  1.00  0.00     0.227 C 
ATOM      5  O   UNL     1       0.510  -1.104  -3.030  1.00  0.00    -0.274 OA
ATOM      6  H   UNL     1       2.746  -0.589  -3.409  1.00  0.00     0.163 HD
BRANCH   4   7
ATOM      7  C   UNL     1       0.471   0.376  -1.093  1.00  0.00     0.109 C 
ATOM      8  C   UNL     1       0.936  -0.176   0.256  1.00  0.00     0.023 C 
BRANCH   7   9
ATOM      9  C   UNL     1      -1.061   0.344  -1.134  1.00  0.00     0.007 A 
ATOM     10  C   UNL     1      -1.774   1.551  -0.990  1.00  0.00     0.020 A 
ATOM     11  C   UNL     1      -1.808  -0.841  -1.219  1.00  0.00     0.119 A 
ATOM     12  C   UNL     1      -3.179   1.563  -0.934  1.00  0.00     0.023 A 
ATOM     13  C   UNL     1      -3.198  -0.840  -1.174  1.00  0.00     0.047 A 
ATOM     14  C   UNL     1      -3.887   0.362  -1.050  1.00  0.00     0.016 A 
BRANCH  11  15
ATOM     15  O   UNL     1      -1.222  -2.065  -1.371  1.00  0.00    -0.508 OA
ATOM     16  H   UNL     1      -0.288  -2.136  -1.409  1.00  0.00     0.293 HD
ENDBRANCH  11  15
BRANCH  12  17
ATOM     17  C   UNL     1      -3.882   2.869  -0.782  1.00  0.00     0.193 C 
ATOM     18  O   UNL     1      -3.322   3.912  -1.108  1.00  0.00    -0.289 OA
BRANCH  17  19
ATOM     19  C   UNL     1      -5.272   2.934  -0.270  1.00  0.00     0.022 A 
ATOM     20  C   UNL     1      -6.197   3.737  -0.947  1.00  0.00     0.012 A 
ATOM     21  C   UNL     1      -5.665   2.215   0.865  1.00  0.00     0.012 A 
ATOM     22  C   UNL     1      -7.524   3.778  -0.519  1.00  0.00     0.001 A 
ATOM     23  C   UNL     1      -6.995   2.258   1.287  1.00  0.00     0.001 A 
ATOM     24  C   UNL     1      -7.924   3.032   0.591  1.00  0.00     0.000 A 
ENDBRANCH  17  19
ENDBRANCH  12  17
ENDBRANCH   7   9
ENDBRANCH   4   7
ENDBRANCH   2   3
ENDBRANCH   1   2
BRANCH   1  25
ATOM     25  C   UNL     1       5.136  -1.462  -1.948  1.00  0.00     0.118 C 
BRANCH  25  26
ATOM     26  N   UNL     1       6.045  -0.855  -2.906  1.00  0.00    -0.352 N 
ATOM     27  C   UNL     1       7.380  -1.072  -3.130  1.00  0.00     0.251 C 
ATOM     28  H   UNL     1       5.635  -0.176  -3.489  1.00  0.00     0.163 HD
ATOM     29  O   UNL     1       7.979  -0.313  -3.896  1.00  0.00    -0.269 OA
BRANCH  27  30
ATOM     30  C   UNL     1       8.117  -2.172  -2.466  1.00  0.00     0.039 A 
ATOM     31  C   UNL     1       9.426  -1.926  -2.038  1.00  0.00     0.014 A 
ATOM     32  C   UNL     1       7.571  -3.451  -2.312  1.00  0.00     0.014 A 
ATOM     33  C   UNL     1      10.163  -2.937  -1.415  1.00  0.00     0.010 A 
ATOM     34  C   UNL     1       8.287  -4.444  -1.635  1.00  0.00     0.010 A 
ATOM     35  C   UNL     1       9.590  -4.197  -1.180  1.00  0.00    -0.014 A 
BRANCH  35  36
ATOM     36  C   UNL     1      10.347  -5.242  -0.439  1.00  0.00     0.031 A 
ATOM     37  C   UNL     1      10.791  -6.509  -1.119  1.00  0.00     0.074 A 
ATOM     38  C   UNL     1      10.617  -5.055   0.868  1.00  0.00     0.049 A 
ATOM     39  N   UNL     1      11.477  -7.510  -0.627  1.00  0.00    -0.248 NA
ATOM     40  C   UNL     1      10.402  -6.683  -2.527  1.00  0.00     0.031 C 
ATOM     41  C   UNL     1      10.200  -3.895   1.660  1.00  0.00     0.029 A 
ATOM     42  N   UNL     1      11.307  -5.836   1.762  1.00  0.00    -0.354 N 
ATOM     43  C   UNL     1      11.599  -8.433  -1.659  1.00  0.00     0.074 A 
ATOM     44  C   UNL     1      10.877  -7.893  -2.791  1.00  0.00     0.031 C 
ATOM     45  C   UNL     1      10.667  -4.027   2.912  1.00  0.00     0.029 A 
ATOM     46  C   UNL     1      11.391  -5.290   3.021  1.00  0.00     0.049 A 
ATOM     47  H   UNL     1      11.704  -6.705   1.524  1.00  0.00     0.167 HD
ATOM     48  C   UNL     1      12.267  -9.613  -1.672  1.00  0.00     0.031 A 
ATOM     49  C   UNL     1      11.985  -5.748   4.139  1.00  0.00     0.031 A 
ATOM     50  C   UNL     1      12.986 -10.153  -0.547  1.00  0.00     0.049 A 
ATOM     51  C   UNL     1      12.728  -7.053   4.098  1.00  0.00     0.074 A 
ATOM     52  C   UNL     1      13.729 -11.320  -0.479  1.00  0.00     0.029 A 
ATOM     53  N   UNL     1      13.055  -9.565   0.707  1.00  0.00    -0.354 N 
ATOM     54  N   UNL     1      12.882  -7.880   3.092  1.00  0.00    -0.248 NA
ATOM     55  C   UNL     1      13.391  -7.476   5.338  1.00  0.00     0.031 C 
ATOM     56  C   UNL     1      14.213 -11.457   0.828  1.00  0.00     0.029 A 
ATOM     57  C   UNL     1      13.811 -10.352   1.560  1.00  0.00     0.049 A 
ATOM     58  H   UNL     1      12.629  -8.713   0.954  1.00  0.00     0.167 HD
ATOM     59  C   UNL     1      13.672  -8.918   3.576  1.00  0.00     0.074 A 
ATOM     60  C   UNL     1      13.983  -8.599   4.955  1.00  0.00     0.031 C 
ATOM     61  C   UNL     1      14.098 -10.034   2.936  1.00  0.00     0.031 A 
BRANCH  48  62
ATOM     62  C   UNL     1      12.249 -10.405  -2.953  1.00  0.00    -0.014 A 
ATOM     63  C   UNL     1      12.977  -9.974  -4.077  1.00  0.00     0.010 A 
ATOM     64  C   UNL     1      11.531 -11.613  -3.025  1.00  0.00     0.010 A 
ATOM     65  C   UNL     1      12.955 -10.715  -5.262  1.00  0.00     0.020 A 
ATOM     66  C   UNL     1      11.526 -12.369  -4.201  1.00  0.00     0.020 A 
ATOM     67  C   UNL     1      12.224 -11.905  -5.319  1.00  0.00     0.054 A 
BRANCH  67  68
ATOM     68  S   UNL     1      12.226 -12.856  -6.864  1.00  0.00     0.124 S 
ATOM     69  O   UNL     1      11.335 -12.062  -7.706  1.00  0.00    -0.237 OA
ATOM     70  O   UNL     1      13.635 -12.840  -7.250  1.00  0.00    -0.237 OA
ATOM     71  O   UNL     1      11.708 -14.163  -6.467  1.00  0.00    -0.744 OA
ENDBRANCH  67  68
ENDBRANCH  48  62
BRANCH  49  72
ATOM     72  C   UNL     1      11.913  -4.950   5.392  1.00  0.00    -0.014 A 
ATOM     73  C   UNL     1      13.044  -4.264   5.869  1.00  0.00     0.010 A 
ATOM     74  C   UNL     1      10.703  -4.854   6.103  1.00  0.00     0.010 A 
ATOM     75  C   UNL     1      12.970  -3.507   7.041  1.00  0.00     0.020 A 
ATOM     76  C   UNL     1      10.619  -4.078   7.262  1.00  0.00     0.020 A 
ATOM     77  C   UNL     1      11.756  -3.418   7.730  1.00  0.00     0.054 A 
BRANCH  77  78
ATOM     78  S   UNL     1      11.662  -2.378   9.214  1.00  0.00     0.124 S 
ATOM     79  O   UNL     1      12.303  -3.223  10.217  1.00  0.00    -0.237 OA
ATOM     80  O   UNL     1      12.410  -1.188   8.817  1.00  0.00    -0.237 OA
ATOM     81  O   UNL     1      10.227  -2.170   9.392  1.00  0.00    -0.744 OA
ENDBRANCH  77  78
ENDBRANCH  49  72
BRANCH  61  82
ATOM     82  C   UNL     1      14.955 -10.988   3.724  1.00  0.00    -0.014 A 
ATOM     83  C   UNL     1      14.402 -11.789   4.740  1.00  0.00     0.010 A 
ATOM     84  C   UNL     1      16.328 -11.094   3.437  1.00  0.00     0.010 A 
ATOM     85  C   UNL     1      15.216 -12.645   5.486  1.00  0.00     0.020 A 
ATOM     86  C   UNL     1      17.140 -11.967   4.165  1.00  0.00     0.020 A 
ATOM     87  C   UNL     1      16.582 -12.722   5.199  1.00  0.00     0.054 A 
BRANCH  87  88
ATOM     88  S   UNL     1      17.620 -13.848   6.173  1.00  0.00     0.124 S 
ATOM     89  O   UNL     1      17.796 -13.100   7.414  1.00  0.00    -0.237 OA
ATOM     90  O   UNL     1      16.791 -15.047   6.274  1.00  0.00    -0.237 OA
ATOM     91  O   UNL     1      18.824 -13.998   5.359  1.00  0.00    -0.744 OA
ENDBRANCH  87  88
ENDBRANCH  61  82
ENDBRANCH  35  36
ENDBRANCH  27  30
ENDBRANCH  25  26
ENDBRANCH   1  25
TORSDOF 17
