REMARK SMILES O=C(NCCCNC(=O)c1cccc2c1N[C@H](c1ccccc1Br)[C@H]1CC=C[C@H]21)c1ccc(-c2c3nc(c(-c4ccc(S(=O)(=O)[O-])cc4)c4ccc([nH]4)c(-c4ccc(S(=O)(=O)[O-])cc4)c4nc(c(-c5ccc(S(=O)(=O)[O-])cc5)c5ccc2[nH]5)C=C4)C=C3)cc1
REMARK SMILES IDX 4 1 3 2 1 3 2 4 30 6 31 7 89 8 32 9 88 10 33 11 34 12 35 13
REMARK SMILES IDX 82 14 36 15 87 16 81 17 83 18 37 19 86 20 80 21 79 22 38 24
REMARK SMILES IDX 68 25 49 26 67 27 50 28 53 29 66 30 84 31 51 32 52 33 65 35
REMARK SMILES IDX 85 36 54 37 39 38 40 39 48 40 41 41 47 42 42 43 43 44 44 45
REMARK SMILES IDX 45 46 46 47 69 48 70 49 78 50 71 51 77 52 72 53 73 54 74 55
REMARK SMILES IDX 75 56 76 57 55 58 56 59 64 60 57 61 63 62 58 63 59 64 60 65
REMARK SMILES IDX 61 66 62 67 5 68 6 69 7 70 8 71 9 73 10 74 11 75 15 76 12 77
REMARK SMILES IDX 14 78 16 79 13 80 29 81 17 82 25 84 28 85 26 86 27 87 18 88
REMARK SMILES IDX 19 89 23 90 20 91 22 92 24 93 21 94
REMARK H PARENT 3 5 83 23 53 34 7 72 16 83
REMARK Flexibility Score: inf
ROOT
ATOM      1  C   UNL     1       4.733  -0.040  -1.149  1.00  0.00     0.118 C 
ENDROOT
BRANCH   1   2
ATOM      2  N   UNL     1       3.278  -0.011  -1.054  1.00  0.00    -0.352 N 
ATOM      3  O   UNL     1       1.245  -0.083  -0.086  1.00  0.00    -0.269 OA
ATOM      4  C   UNL     1       2.459   0.010   0.049  1.00  0.00     0.251 C 
ATOM      5  H   UNL     1       2.807  -0.007  -1.919  1.00  0.00     0.163 HD
BRANCH   4   6
ATOM      6  C   UNL     1       3.039   0.127   1.403  1.00  0.00     0.039 A 
ATOM      7  C   UNL     1       2.475  -0.612   2.446  1.00  0.00     0.014 A 
ATOM      8  C   UNL     1       4.114   0.980   1.655  1.00  0.00     0.014 A 
ATOM      9  C   UNL     1       3.010  -0.510   3.731  1.00  0.00     0.010 A 
ATOM     10  C   UNL     1       4.730   0.975   2.897  1.00  0.00     0.010 A 
ATOM     11  C   UNL     1       4.151   0.274   3.962  1.00  0.00    -0.014 A 
BRANCH  11  12
ATOM     12  C   UNL     1       4.694   0.475   5.328  1.00  0.00     0.031 A 
ATOM     13  C   UNL     1       4.715   1.865   5.911  1.00  0.00     0.074 A 
ATOM     14  C   UNL     1       5.184  -0.568   6.026  1.00  0.00     0.049 A 
ATOM     15  N   UNL     1       5.194   2.268   7.059  1.00  0.00    -0.248 NA
ATOM     16  C   UNL     1       4.153   2.952   5.087  1.00  0.00     0.031 C 
ATOM     17  C   UNL     1       5.231  -1.953   5.555  1.00  0.00     0.029 A 
ATOM     18  N   UNL     1       5.726  -0.626   7.285  1.00  0.00    -0.354 N 
ATOM     19  C   UNL     1       5.004   3.645   7.082  1.00  0.00     0.074 A 
ATOM     20  C   UNL     1       4.443   4.023   5.808  1.00  0.00     0.031 C 
ATOM     21  C   UNL     1       5.724  -2.730   6.531  1.00  0.00     0.029 A 
ATOM     22  C   UNL     1       6.079  -1.896   7.677  1.00  0.00     0.049 A 
ATOM     23  H   UNL     1       5.851   0.168   7.855  1.00  0.00     0.167 HD
ATOM     24  C   UNL     1       5.234   4.512   8.092  1.00  0.00     0.031 A 
ATOM     25  C   UNL     1       6.620  -2.341   8.829  1.00  0.00     0.031 A 
ATOM     26  C   UNL     1       5.750   4.118   9.375  1.00  0.00     0.049 A 
ATOM     27  C   UNL     1       6.885  -1.355   9.936  1.00  0.00     0.074 A 
ATOM     28  C   UNL     1       5.974   4.911  10.485  1.00  0.00     0.029 A 
ATOM     29  N   UNL     1       6.104   2.823   9.725  1.00  0.00    -0.354 N 
ATOM     30  N   UNL     1       6.657  -0.063   9.957  1.00  0.00    -0.248 NA
ATOM     31  C   UNL     1       7.465  -1.884  11.178  1.00  0.00     0.031 C 
ATOM     32  C   UNL     1       6.534   4.112  11.481  1.00  0.00     0.029 A 
ATOM     33  C   UNL     1       6.574   2.802  11.026  1.00  0.00     0.049 A 
ATOM     34  H   UNL     1       6.032   2.038   9.137  1.00  0.00     0.167 HD
ATOM     35  C   UNL     1       7.040   0.371  11.222  1.00  0.00     0.074 A 
ATOM     36  C   UNL     1       7.497  -0.799  11.942  1.00  0.00     0.031 C 
ATOM     37  C   UNL     1       7.018   1.626  11.735  1.00  0.00     0.031 A 
BRANCH  24  38
ATOM     38  C   UNL     1       4.901   5.967   7.879  1.00  0.00    -0.014 A 
ATOM     39  C   UNL     1       5.921   6.934   7.927  1.00  0.00     0.010 A 
ATOM     40  C   UNL     1       3.565   6.391   7.749  1.00  0.00     0.010 A 
ATOM     41  C   UNL     1       5.612   8.296   7.894  1.00  0.00     0.020 A 
ATOM     42  C   UNL     1       3.254   7.751   7.677  1.00  0.00     0.020 A 
ATOM     43  C   UNL     1       4.277   8.695   7.781  1.00  0.00     0.054 A 
BRANCH  43  44
ATOM     44  S   UNL     1       3.891  10.467   7.795  1.00  0.00     0.124 S 
ATOM     45  O   UNL     1       4.123  10.822   9.191  1.00  0.00    -0.237 OA
ATOM     46  O   UNL     1       4.852  11.009   6.836  1.00  0.00    -0.237 OA
ATOM     47  O   UNL     1       2.497  10.517   7.360  1.00  0.00    -0.744 OA
ENDBRANCH  43  44
ENDBRANCH  24  38
BRANCH  25  48
ATOM     48  C   UNL     1       6.877  -3.800   8.997  1.00  0.00    -0.014 A 
ATOM     49  C   UNL     1       7.833  -4.456   8.198  1.00  0.00     0.010 A 
ATOM     50  C   UNL     1       6.099  -4.561   9.889  1.00  0.00     0.010 A 
ATOM     51  C   UNL     1       7.959  -5.848   8.238  1.00  0.00     0.020 A 
ATOM     52  C   UNL     1       6.247  -5.950   9.957  1.00  0.00     0.020 A 
ATOM     53  C   UNL     1       7.152  -6.587   9.106  1.00  0.00     0.054 A 
BRANCH  53  54
ATOM     54  S   UNL     1       7.281  -8.397   9.083  1.00  0.00     0.124 S 
ATOM     55  O   UNL     1       6.636  -8.726   7.814  1.00  0.00    -0.237 OA
ATOM     56  O   UNL     1       8.725  -8.613   9.129  1.00  0.00    -0.237 OA
ATOM     57  O   UNL     1       6.553  -8.809  10.280  1.00  0.00    -0.744 OA
ENDBRANCH  53  54
ENDBRANCH  25  48
BRANCH  37  58
ATOM     58  C   UNL     1       7.491   1.830  13.153  1.00  0.00    -0.014 A 
ATOM     59  C   UNL     1       6.585   2.290  14.128  1.00  0.00     0.010 A 
ATOM     60  C   UNL     1       8.853   1.719  13.483  1.00  0.00     0.010 A 
ATOM     61  C   UNL     1       7.038   2.682  15.390  1.00  0.00     0.020 A 
ATOM     62  C   UNL     1       9.304   2.074  14.757  1.00  0.00     0.020 A 
ATOM     63  C   UNL     1       8.398   2.581  15.692  1.00  0.00     0.054 A 
BRANCH  63  64
ATOM     64  S   UNL     1       8.973   3.139  17.319  1.00  0.00     0.124 S 
ATOM     65  O   UNL     1       8.896   4.591  17.191  1.00  0.00    -0.237 OA
ATOM     66  O   UNL     1       8.001   2.533  18.227  1.00  0.00    -0.237 OA
ATOM     67  O   UNL     1      10.325   2.591  17.412  1.00  0.00    -0.744 OA
ENDBRANCH  63  64
ENDBRANCH  37  58
ENDBRANCH  11  12
ENDBRANCH   4   6
ENDBRANCH   1   2
BRANCH   1  68
ATOM     68  C   UNL     1       5.270  -1.296  -1.806  1.00  0.00     0.042 C 
BRANCH  68  69
ATOM     69  C   UNL     1       4.815  -1.464  -3.236  1.00  0.00     0.118 C 
BRANCH  69  70
ATOM     70  N   UNL     1       5.264  -0.403  -4.124  1.00  0.00    -0.352 N 
ATOM     71  C   UNL     1       5.846  -0.526  -5.362  1.00  0.00     0.253 C 
ATOM     72  H   UNL     1       5.134   0.517  -3.797  1.00  0.00     0.163 HD
ATOM     73  O   UNL     1       6.212   0.472  -5.974  1.00  0.00    -0.269 OA
BRANCH  71  74
ATOM     74  C   UNL     1       6.070  -1.871  -5.935  1.00  0.00     0.063 A 
ATOM     75  C   UNL     1       7.396  -2.178  -6.272  1.00  0.00     0.016 A 
ATOM     76  C   UNL     1       5.033  -2.813  -6.104  1.00  0.00     0.051 A 
ATOM     77  C   UNL     1       7.717  -3.446  -6.742  1.00  0.00     0.001 A 
ATOM     78  C   UNL     1       5.386  -4.105  -6.555  1.00  0.00    -0.017 A 
ATOM     79  N   UNL     1       3.709  -2.528  -5.767  1.00  0.00    -0.377 N 
ATOM     80  C   UNL     1       6.716  -4.407  -6.882  1.00  0.00     0.006 A 
ATOM     81  C   UNL     1       4.252  -5.073  -6.741  1.00  0.00     0.049 C 
ATOM     82  C   UNL     1       2.659  -3.538  -5.547  1.00  0.00     0.115 C 
ATOM     83  H   UNL     1       3.459  -1.581  -5.668  1.00  0.00     0.161 HD
ATOM     84  C   UNL     1       3.295  -4.923  -5.545  1.00  0.00     0.031 C 
ATOM     85  C   UNL     1       4.472  -6.557  -6.687  1.00  0.00    -0.023 C 
ATOM     86  C   UNL     1       2.389  -6.143  -5.690  1.00  0.00     0.034 C 
ATOM     87  C   UNL     1       3.406  -7.157  -6.132  1.00  0.00    -0.030 C 
BRANCH  82  88
ATOM     88  C   UNL     1       1.777  -3.083  -4.369  1.00  0.00    -0.011 A 
ATOM     89  C   UNL     1       1.026  -1.898  -4.615  1.00  0.00     0.007 A 
ATOM     90  C   UNL     1       1.633  -3.647  -3.083  1.00  0.00     0.023 A 
ATOM     91  C   UNL     1       0.175  -1.329  -3.663  1.00  0.00     0.000 A 
ATOM     92  C   UNL     1       0.727  -3.099  -2.152  1.00  0.00     0.016 A 
ATOM     93  Br  UNL     1       2.644  -5.077  -2.342  1.00  0.00    -0.050 Br
ATOM     94  C   UNL     1       0.005  -1.948  -2.437  1.00  0.00     0.001 A 
ENDBRANCH  82  88
ENDBRANCH  71  74
ENDBRANCH  69  70
ENDBRANCH  68  69
ENDBRANCH   1  68
TORSDOF 14
