REMARK SMILES COc1cc(C)cc2c1[C@@H](C)[C@@H](CC(=O)N[C@@H](Cc1c[nH]c3ccccc13)C(=O)NCCCNC(=O)c1ccc(-c3c4nc(c(-c5ccc(S(=O)(=O)[O-])cc5)c5ccc([nH]5)c(-c5ccc(S(=O)(=O)[O-])cc5)c5nc(c(-c6ccc(S(=O)(=O)[O-])cc6)c6ccc3[nH]6)C=C5)C=C4)cc1)C(=O)O2
REMARK SMILES IDX 31 1 30 2 28 3 29 4 17 6 16 7 14 8 15 9 13 11 12 12 3 13
REMARK SMILES IDX 4 14 9 15 5 16 8 17 10 18 6 19 7 20 99 21 11 22 97 23 98 24
REMARK SMILES IDX 2 25 1 26 18 27 19 28 20 29 27 30 21 31 22 32 26 33 23 35
REMARK SMILES IDX 25 36 24 37 32 38 33 39 34 40 35 41 36 43 37 44 38 45 96 46
REMARK SMILES IDX 39 47 95 48 40 49 41 50 42 51 89 52 43 53 94 54 88 55 90 56
REMARK SMILES IDX 44 57 93 58 87 59 86 60 45 62 75 63 56 64 74 65 57 66 60 67
REMARK SMILES IDX 73 68 91 69 58 70 59 71 72 73 92 74 61 75 46 76 47 77 55 78
REMARK SMILES IDX 48 79 54 80 49 81 50 82 51 83 52 84 53 85 76 86 77 87 85 88
REMARK SMILES IDX 78 89 84 90 79 91 80 92 81 93 82 94 83 95 62 96 63 97 71 98
REMARK SMILES IDX 64 99 70 100 65 101 66 102 67 103 68 104 69 105
REMARK H PARENT 30 5 16 10 21 34 34 42 90 61 60 72
REMARK Flexibility Score: inf
ROOT
ATOM      1  C   UNL     1      -2.475   5.600   8.824  1.00  0.00     0.117 C 
ENDROOT
BRANCH   1   2
ATOM      2  N   UNL     1      -1.442   4.643   8.513  1.00  0.00    -0.354 N 
ATOM      3  C   UNL     1      -1.433   3.638   7.606  1.00  0.00     0.242 C 
ATOM      4  O   UNL     1      -0.505   2.824   7.710  1.00  0.00    -0.273 OA
ATOM      5  H   UNL     1      -0.616   4.734   9.041  1.00  0.00     0.163 HD
BRANCH   3   6
ATOM      6  C   UNL     1      -2.442   3.499   6.444  1.00  0.00     0.175 C 
BRANCH   6   7
ATOM      7  N   UNL     1      -3.062   2.195   6.284  1.00  0.00    -0.344 N 
ATOM      8  C   UNL     1      -3.221   1.532   5.097  1.00  0.00     0.221 C 
ATOM      9  O   UNL     1      -4.205   0.816   4.928  1.00  0.00    -0.275 OA
ATOM     10  H   UNL     1      -3.396   1.750   7.096  1.00  0.00     0.164 HD
BRANCH   8  11
ATOM     11  C   UNL     1      -2.098   1.588   4.070  1.00  0.00     0.116 C 
BRANCH  11  12
ATOM     12  C   UNL     1      -2.208   2.607   2.907  1.00  0.00     0.116 C 
ATOM     13  C   UNL     1       1.119   1.478   1.464  1.00  0.00     0.126 A 
ATOM     14  C   UNL     1       2.402   1.415   2.035  1.00  0.00     0.050 A 
ATOM     15  C   UNL     1       0.111   2.226   2.076  1.00  0.00     0.041 A 
ATOM     16  C   UNL     1       2.706   2.105   3.219  1.00  0.00    -0.044 A 
ATOM     17  C   UNL     1       0.490   3.028   3.165  1.00  0.00     0.138 A 
ATOM     18  C   UNL     1      -1.358   2.228   1.662  1.00  0.00     0.038 C 
ATOM     19  C   UNL     1       4.061   1.987   3.849  1.00  0.00     0.044 C 
ATOM     20  C   UNL     1       1.747   2.954   3.760  1.00  0.00     0.051 A 
ATOM     21  O   UNL     1      -0.375   3.997   3.697  1.00  0.00    -0.426 OA
ATOM     22  C   UNL     1      -1.904   0.940   1.035  1.00  0.00     0.014 C 
ATOM     23  C   UNL     1      -1.671   3.983   3.224  1.00  0.00     0.315 C 
ATOM     24  O   UNL     1      -2.310   5.019   3.079  1.00  0.00    -0.251 OA
BRANCH  13  25
ATOM     25  O   UNL     1       0.843   0.935   0.239  1.00  0.00    -0.496 OA
ATOM     26  C   UNL     1       1.300  -0.400   0.066  1.00  0.00     0.278 C 
ENDBRANCH  13  25
ENDBRANCH  11  12
ENDBRANCH   8  11
ENDBRANCH   6   7
BRANCH   6  27
ATOM     27  C   UNL     1      -3.325   4.623   5.925  1.00  0.00     0.072 C 
BRANCH  27  28
ATOM     28  C   UNL     1      -4.701   5.028   6.374  1.00  0.00    -0.020 A 
ATOM     29  C   UNL     1      -5.103   6.335   6.128  1.00  0.00     0.087 A 
ATOM     30  C   UNL     1      -5.875   4.339   6.862  1.00  0.00     0.003 A 
ATOM     31  N   UNL     1      -6.460   6.378   6.154  1.00  0.00    -0.361 N 
ATOM     32  C   UNL     1      -6.947   5.235   6.726  1.00  0.00     0.046 A 
ATOM     33  C   UNL     1      -6.201   3.058   7.365  1.00  0.00     0.010 A 
ATOM     34  H   UNL     1      -7.010   7.120   5.812  1.00  0.00     0.166 HD
ATOM     35  C   UNL     1      -8.269   4.940   7.078  1.00  0.00     0.026 A 
ATOM     36  C   UNL     1      -7.516   2.760   7.766  1.00  0.00     0.001 A 
ATOM     37  C   UNL     1      -8.534   3.693   7.631  1.00  0.00     0.002 A 
ENDBRANCH  27  28
ENDBRANCH   6  27
ENDBRANCH   3   6
ENDBRANCH   1   2
BRANCH   1  38
ATOM     38  C   UNL     1      -3.614   4.933   9.577  1.00  0.00     0.042 C 
BRANCH  38  39
ATOM     39  C   UNL     1      -3.266   4.696  11.036  1.00  0.00     0.118 C 
BRANCH  39  40
ATOM     40  N   UNL     1      -3.148   5.945  11.780  1.00  0.00    -0.352 N 
ATOM     41  C   UNL     1      -3.731   6.307  12.973  1.00  0.00     0.251 C 
ATOM     42  H   UNL     1      -2.568   6.627  11.370  1.00  0.00     0.163 HD
ATOM     43  O   UNL     1      -3.679   7.462  13.355  1.00  0.00    -0.269 OA
BRANCH  41  44
ATOM     44  C   UNL     1      -4.443   5.276  13.757  1.00  0.00     0.039 A 
ATOM     45  C   UNL     1      -3.902   3.997  13.887  1.00  0.00     0.014 A 
ATOM     46  C   UNL     1      -5.686   5.580  14.314  1.00  0.00     0.014 A 
ATOM     47  C   UNL     1      -4.688   2.974  14.391  1.00  0.00     0.010 A 
ATOM     48  C   UNL     1      -6.426   4.570  14.932  1.00  0.00     0.010 A 
ATOM     49  C   UNL     1      -5.957   3.247  14.925  1.00  0.00    -0.014 A 
BRANCH  49  50
ATOM     50  C   UNL     1      -6.773   2.126  15.457  1.00  0.00     0.031 A 
ATOM     51  C   UNL     1      -8.103   1.785  14.839  1.00  0.00     0.074 A 
ATOM     52  C   UNL     1      -6.270   1.369  16.454  1.00  0.00     0.049 A 
ATOM     53  N   UNL     1      -8.936   0.830  15.165  1.00  0.00    -0.248 NA
ATOM     54  C   UNL     1      -8.566   2.620  13.716  1.00  0.00     0.031 C 
ATOM     55  C   UNL     1      -4.975   1.592  17.103  1.00  0.00     0.029 A 
ATOM     56  N   UNL     1      -6.756   0.243  17.067  1.00  0.00    -0.354 N 
ATOM     57  C   UNL     1     -10.023   0.962  14.308  1.00  0.00     0.074 A 
ATOM     58  C   UNL     1      -9.765   2.110  13.470  1.00  0.00     0.031 C 
ATOM     59  C   UNL     1      -4.734   0.591  17.960  1.00  0.00     0.029 A 
ATOM     60  C   UNL     1      -5.893  -0.294  17.995  1.00  0.00     0.049 A 
ATOM     61  H   UNL     1      -7.638  -0.144  16.864  1.00  0.00     0.167 HD
ATOM     62  C   UNL     1     -11.125   0.181  14.220  1.00  0.00     0.031 A 
ATOM     63  C   UNL     1      -6.017  -1.370  18.797  1.00  0.00     0.031 A 
ATOM     64  C   UNL     1     -11.351  -0.978  15.044  1.00  0.00     0.049 A 
ATOM     65  C   UNL     1      -7.270  -2.192  18.709  1.00  0.00     0.074 A 
ATOM     66  C   UNL     1     -12.435  -1.839  15.027  1.00  0.00     0.029 A 
ATOM     67  N   UNL     1     -10.480  -1.450  16.015  1.00  0.00    -0.354 N 
ATOM     68  N   UNL     1      -8.292  -2.044  17.900  1.00  0.00    -0.248 NA
ATOM     69  C   UNL     1      -7.392  -3.326  19.634  1.00  0.00     0.031 C 
ATOM     70  C   UNL     1     -12.252  -2.787  16.034  1.00  0.00     0.029 A 
ATOM     71  C   UNL     1     -11.014  -2.575  16.620  1.00  0.00     0.049 A 
ATOM     72  H   UNL     1      -9.612  -1.044  16.241  1.00  0.00     0.167 HD
ATOM     73  C   UNL     1      -9.169  -3.077  18.204  1.00  0.00     0.074 A 
ATOM     74  C   UNL     1      -8.550  -3.855  19.258  1.00  0.00     0.031 C 
ATOM     75  C   UNL     1     -10.380  -3.350  17.659  1.00  0.00     0.031 A 
BRANCH  62  76
ATOM     76  C   UNL     1     -12.180   0.532  13.200  1.00  0.00    -0.014 A 
ATOM     77  C   UNL     1     -13.465   0.916  13.631  1.00  0.00     0.010 A 
ATOM     78  C   UNL     1     -11.949   0.354  11.824  1.00  0.00     0.010 A 
ATOM     79  C   UNL     1     -14.507   1.071  12.714  1.00  0.00     0.020 A 
ATOM     80  C   UNL     1     -12.982   0.541  10.899  1.00  0.00     0.020 A 
ATOM     81  C   UNL     1     -14.261   0.871  11.353  1.00  0.00     0.054 A 
BRANCH  81  82
ATOM     82  S   UNL     1     -15.637   1.033  10.183  1.00  0.00     0.124 S 
ATOM     83  O   UNL     1     -16.409  -0.177  10.444  1.00  0.00    -0.237 OA
ATOM     84  O   UNL     1     -16.264   2.285  10.600  1.00  0.00    -0.237 OA
ATOM     85  O   UNL     1     -14.975   1.084   8.881  1.00  0.00    -0.744 OA
ENDBRANCH  81  82
ENDBRANCH  62  76
BRANCH  63  86
ATOM     86  C   UNL     1      -4.902  -1.720  19.722  1.00  0.00    -0.014 A 
ATOM     87  C   UNL     1      -4.532  -0.839  20.757  1.00  0.00     0.010 A 
ATOM     88  C   UNL     1      -4.142  -2.885  19.517  1.00  0.00     0.010 A 
ATOM     89  C   UNL     1      -3.388  -1.077  21.521  1.00  0.00     0.020 A 
ATOM     90  C   UNL     1      -3.017  -3.148  20.307  1.00  0.00     0.020 A 
ATOM     91  C   UNL     1      -2.629  -2.225  21.281  1.00  0.00     0.054 A 
BRANCH  91  92
ATOM     92  S   UNL     1      -1.116  -2.482  22.247  1.00  0.00     0.124 S 
ATOM     93  O   UNL     1      -0.208  -1.508  21.647  1.00  0.00    -0.237 OA
ATOM     94  O   UNL     1      -1.552  -2.181  23.608  1.00  0.00    -0.237 OA
ATOM     95  O   UNL     1      -0.784  -3.882  21.997  1.00  0.00    -0.744 OA
ENDBRANCH  91  92
ENDBRANCH  63  86
BRANCH  75  96
ATOM     96  C   UNL     1     -11.134  -4.554  18.163  1.00  0.00    -0.014 A 
ATOM     97  C   UNL     1     -11.377  -5.632  17.291  1.00  0.00     0.010 A 
ATOM     98  C   UNL     1     -11.730  -4.553  19.436  1.00  0.00     0.010 A 
ATOM     99  C   UNL     1     -12.243  -6.662  17.661  1.00  0.00     0.020 A 
ATOM    100  C   UNL     1     -12.570  -5.601  19.823  1.00  0.00     0.020 A 
ATOM    101  C   UNL     1     -12.845  -6.633  18.922  1.00  0.00     0.054 A 
BRANCH 101 102
ATOM    102  S   UNL     1     -14.011  -7.950  19.362  1.00  0.00     0.124 S 
ATOM    103  O   UNL     1     -15.187  -7.595  18.573  1.00  0.00    -0.237 OA
ATOM    104  O   UNL     1     -13.307  -9.157  18.935  1.00  0.00    -0.237 OA
ATOM    105  O   UNL     1     -14.162  -7.805  20.808  1.00  0.00    -0.744 OA
ENDBRANCH 101 102
ENDBRANCH  75  96
ENDBRANCH  49  50
ENDBRANCH  41  44
ENDBRANCH  39  40
ENDBRANCH  38  39
ENDBRANCH   1  38
TORSDOF 19
