REMARK SMILES COc1ccccc1[C@@H]1CN(C(=O)c2cnn3ccccc23)C[C@H]1C(=O)NCCCNC(=O)c1ccc(-c2c3nc(c(-c4ccc(S(=O)(=O)[O-])cc4)c4ccc([nH]4)c(-c4ccc(S(=O)(=O)[O-])cc4)c4nc(c(-c5ccc(S(=O)(=O)[O-])cc5)c5ccc2[nH]5)C=C4)C=C3)cc1
REMARK SMILES IDX 29 1 28 2 27 3 25 4 26 5 24 7 9 8 10 9 11 10 23 11 8 12 3 13
REMARK SMILES IDX 4 14 5 15 7 16 6 17 2 18 1 19 12 20 13 21 14 22 15 23 22 24
REMARK SMILES IDX 16 25 17 26 21 27 18 28 20 29 19 30 30 31 31 32 32 33 33 35
REMARK SMILES IDX 34 36 35 37 93 38 36 39 92 40 37 41 38 42 39 43 86 44 40 45
REMARK SMILES IDX 91 46 85 47 87 48 41 49 90 50 84 51 83 52 42 54 72 55 53 56
REMARK SMILES IDX 71 57 54 58 57 59 70 60 88 61 55 62 56 63 69 65 89 66 58 67
REMARK SMILES IDX 43 68 44 69 52 70 45 71 51 72 46 73 47 74 48 75 49 76 50 77
REMARK SMILES IDX 73 78 74 79 82 80 75 81 81 82 76 83 77 84 78 85 79 86 80 87
REMARK SMILES IDX 59 88 60 89 68 90 61 91 67 92 62 93 63 94 64 95 65 96 66 97
REMARK H PARENT 27 6 31 34 87 53 57 64
REMARK Flexibility Score: inf
ROOT
ATOM      1  C   UNL     1       6.480   2.091  -0.151  1.00  0.00     0.042 C 
ENDROOT
BRANCH   1   2
ATOM      2  C   UNL     1       5.730   1.275   0.898  1.00  0.00     0.117 C 
BRANCH   2   3
ATOM      3  N   UNL     1       4.569   1.966   1.429  1.00  0.00    -0.356 N 
ATOM      4  C   UNL     1       3.239   1.720   1.315  1.00  0.00     0.225 C 
ATOM      5  O   UNL     1       2.479   2.458   1.947  1.00  0.00    -0.275 OA
ATOM      6  H   UNL     1       4.786   2.759   1.971  1.00  0.00     0.163 HD
BRANCH   4   7
ATOM      7  C   UNL     1       2.665   0.600   0.467  1.00  0.00     0.107 C 
ATOM      8  C   UNL     1       2.912   0.750  -1.049  1.00  0.00     0.057 C 
ATOM      9  C   UNL     1       3.111  -0.684  -1.538  1.00  0.00     0.129 C 
ATOM     10  N   UNL     1       3.745  -1.330  -0.401  1.00  0.00    -0.337 N 
ATOM     11  C   UNL     1       3.205  -0.783   0.838  1.00  0.00     0.134 C 
BRANCH   8  12
ATOM     12  C   UNL     1       1.901   1.571  -1.816  1.00  0.00    -0.000 A 
ATOM     13  C   UNL     1       0.590   1.162  -2.114  1.00  0.00     0.122 A 
ATOM     14  C   UNL     1      -0.268   1.988  -2.850  1.00  0.00     0.047 A 
ATOM     15  C   UNL     1       0.168   3.230  -3.309  1.00  0.00     0.004 A 
ATOM     16  C   UNL     1       2.317   2.832  -2.291  1.00  0.00     0.008 A 
ATOM     17  C   UNL     1       1.466   3.647  -3.040  1.00  0.00     0.001 A 
BRANCH  13  18
ATOM     18  O   UNL     1       0.154  -0.114  -1.876  1.00  0.00    -0.496 OA
ATOM     19  C   UNL     1      -0.445  -0.280  -0.595  1.00  0.00     0.278 C 
ENDBRANCH  13  18
ENDBRANCH   8  12
BRANCH  10  20
ATOM     20  C   UNL     1       4.614  -2.403  -0.393  1.00  0.00     0.257 C 
ATOM     21  O   UNL     1       4.889  -2.996   0.647  1.00  0.00    -0.269 OA
BRANCH  20  22
ATOM     22  C   UNL     1       5.192  -2.829  -1.652  1.00  0.00     0.085 A 
ATOM     23  C   UNL     1       5.245  -4.151  -2.136  1.00  0.00     0.150 A 
ATOM     24  C   UNL     1       5.905  -2.107  -2.594  1.00  0.00     0.079 A 
ATOM     25  N   UNL     1       5.849  -4.261  -3.319  1.00  0.00    -0.176 NA
ATOM     26  N   UNL     1       6.263  -3.001  -3.610  1.00  0.00    -0.240 N 
ATOM     27  C   UNL     1       6.328  -0.751  -2.737  1.00  0.00     0.029 A 
ATOM     28  C   UNL     1       6.959  -2.590  -4.748  1.00  0.00     0.113 A 
ATOM     29  C   UNL     1       7.000  -0.365  -3.837  1.00  0.00     0.004 A 
ATOM     30  C   UNL     1       7.327  -1.306  -4.893  1.00  0.00     0.020 A 
ENDBRANCH  20  22
ENDBRANCH  10  20
ENDBRANCH   4   7
ENDBRANCH   2   3
ENDBRANCH   1   2
BRANCH   1  31
ATOM     31  C   UNL     1       7.236   3.260   0.447  1.00  0.00     0.118 C 
BRANCH  31  32
ATOM     32  N   UNL     1       8.325   2.821   1.316  1.00  0.00    -0.352 N 
ATOM     33  C   UNL     1       9.178   3.613   2.051  1.00  0.00     0.251 C 
ATOM     34  H   UNL     1       8.465   1.848   1.383  1.00  0.00     0.163 HD
ATOM     35  O   UNL     1      10.236   3.167   2.484  1.00  0.00    -0.269 OA
BRANCH  33  36
ATOM     36  C   UNL     1       8.793   5.013   2.279  1.00  0.00     0.039 A 
ATOM     37  C   UNL     1       9.684   6.046   1.989  1.00  0.00     0.014 A 
ATOM     38  C   UNL     1       7.487   5.276   2.692  1.00  0.00     0.014 A 
ATOM     39  C   UNL     1       9.219   7.356   2.023  1.00  0.00     0.010 A 
ATOM     40  C   UNL     1       6.999   6.559   2.611  1.00  0.00     0.010 A 
ATOM     41  C   UNL     1       7.865   7.606   2.301  1.00  0.00    -0.014 A 
BRANCH  41  42
ATOM     42  C   UNL     1       7.326   8.954   2.139  1.00  0.00     0.031 A 
ATOM     43  C   UNL     1       7.552   9.570   0.801  1.00  0.00     0.074 A 
ATOM     44  C   UNL     1       6.499   9.541   3.027  1.00  0.00     0.049 A 
ATOM     45  N   UNL     1       8.347  10.544   0.506  1.00  0.00    -0.248 NA
ATOM     46  C   UNL     1       6.915   8.948  -0.372  1.00  0.00     0.031 C 
ATOM     47  C   UNL     1       5.902   8.960   4.236  1.00  0.00     0.029 A 
ATOM     48  N   UNL     1       5.914  10.768   2.963  1.00  0.00    -0.354 N 
ATOM     49  C   UNL     1       8.149  10.811  -0.846  1.00  0.00     0.074 A 
ATOM     50  C   UNL     1       7.406   9.691  -1.368  1.00  0.00     0.031 C 
ATOM     51  C   UNL     1       4.869   9.730   4.641  1.00  0.00     0.029 A 
ATOM     52  C   UNL     1       4.850  10.940   3.840  1.00  0.00     0.049 A 
ATOM     53  H   UNL     1       6.219  11.473   2.348  1.00  0.00     0.167 HD
ATOM     54  C   UNL     1       8.404  12.040  -1.379  1.00  0.00     0.031 A 
ATOM     55  C   UNL     1       3.994  11.990   3.885  1.00  0.00     0.031 A 
ATOM     56  C   UNL     1       9.124  12.880  -0.456  1.00  0.00     0.049 A 
ATOM     57  C   UNL     1       4.666  13.128   3.212  1.00  0.00     0.074 A 
ATOM     58  C   UNL     1      10.339  12.803   0.195  1.00  0.00     0.029 A 
ATOM     59  N   UNL     1       8.387  13.823   0.222  1.00  0.00    -0.354 N 
ATOM     60  N   UNL     1       5.733  13.709   3.683  1.00  0.00    -0.248 NA
ATOM     61  C   UNL     1       4.414  13.345   1.797  1.00  0.00     0.031 C 
ATOM     62  C   UNL     1      10.092  13.339   1.493  1.00  0.00     0.029 A 
ATOM     63  C   UNL     1       8.767  13.780   1.537  1.00  0.00     0.049 A 
ATOM     64  H   UNL     1       7.709  14.422  -0.168  1.00  0.00     0.167 HD
ATOM     65  C   UNL     1       6.509  13.986   2.567  1.00  0.00     0.074 A 
ATOM     66  C   UNL     1       5.598  13.845   1.433  1.00  0.00     0.031 C 
ATOM     67  C   UNL     1       7.872  14.029   2.649  1.00  0.00     0.031 A 
BRANCH  54  68
ATOM     68  C   UNL     1       7.663  12.635  -2.555  1.00  0.00    -0.014 A 
ATOM     69  C   UNL     1       8.062  13.901  -3.036  1.00  0.00     0.010 A 
ATOM     70  C   UNL     1       6.427  12.139  -3.014  1.00  0.00     0.010 A 
ATOM     71  C   UNL     1       7.229  14.663  -3.866  1.00  0.00     0.020 A 
ATOM     72  C   UNL     1       5.609  12.871  -3.879  1.00  0.00     0.020 A 
ATOM     73  C   UNL     1       5.999  14.145  -4.269  1.00  0.00     0.054 A 
BRANCH  73  74
ATOM     74  S   UNL     1       4.882  15.176  -5.251  1.00  0.00     0.124 S 
ATOM     75  O   UNL     1       4.522  16.221  -4.297  1.00  0.00    -0.237 OA
ATOM     76  O   UNL     1       5.739  15.594  -6.358  1.00  0.00    -0.237 OA
ATOM     77  O   UNL     1       3.805  14.259  -5.616  1.00  0.00    -0.744 OA
ENDBRANCH  73  74
ENDBRANCH  54  68
BRANCH  55  78
ATOM     78  C   UNL     1       2.551  11.990   4.224  1.00  0.00    -0.014 A 
ATOM     79  C   UNL     1       1.869  13.196   4.467  1.00  0.00     0.010 A 
ATOM     80  C   UNL     1       1.779  10.826   4.024  1.00  0.00     0.010 A 
ATOM     81  C   UNL     1       0.465  13.250   4.434  1.00  0.00     0.020 A 
ATOM     82  C   UNL     1       0.380  10.872   3.999  1.00  0.00     0.020 A 
ATOM     83  C   UNL     1      -0.270  12.091   4.175  1.00  0.00     0.054 A 
BRANCH  83  84
ATOM     84  S   UNL     1      -2.067  12.210   3.929  1.00  0.00     0.124 S 
ATOM     85  O   UNL     1      -2.549  12.483   5.279  1.00  0.00    -0.237 OA
ATOM     86  O   UNL     1      -2.185  13.314   2.980  1.00  0.00    -0.237 OA
ATOM     87  O   UNL     1      -2.429  10.898   3.394  1.00  0.00    -0.744 OA
ENDBRANCH  83  84
ENDBRANCH  55  78
BRANCH  67  88
ATOM     88  C   UNL     1       8.514  14.113   4.015  1.00  0.00    -0.014 A 
ATOM     89  C   UNL     1       8.356  13.144   5.025  1.00  0.00     0.010 A 
ATOM     90  C   UNL     1       9.432  15.156   4.226  1.00  0.00     0.010 A 
ATOM     91  C   UNL     1       9.076  13.239   6.226  1.00  0.00     0.020 A 
ATOM     92  C   UNL     1      10.167  15.245   5.410  1.00  0.00     0.020 A 
ATOM     93  C   UNL     1       9.977  14.292   6.410  1.00  0.00     0.054 A 
BRANCH  93  94
ATOM     94  S   UNL     1      10.933  14.396   7.949  1.00  0.00     0.124 S 
ATOM     95  O   UNL     1       9.909  14.721   8.938  1.00  0.00    -0.237 OA
ATOM     96  O   UNL     1      11.514  13.060   8.062  1.00  0.00    -0.237 OA
ATOM     97  O   UNL     1      11.900  15.462   7.688  1.00  0.00    -0.744 OA
ENDBRANCH  93  94
ENDBRANCH  67  88
ENDBRANCH  41  42
ENDBRANCH  33  36
ENDBRANCH  31  32
ENDBRANCH   1  31
TORSDOF 17
