REMARK SMILES CC[NH2+][C@@]1(C(=O)NCCCNC(=O)c2ccc(-c3c4nc(c(-c5ccc(S(=O)(=O)[O-])cc5)c5ccc([nH]5)c(-c5ccc(S(=O)(=O)[O-])cc5)c5nc(c(-c6ccc(S(=O)(=O)[O-])cc6)c6ccc3[nH]6)C=C5)C=C4)cc2)CCC[C@H]1CC[N@H+]1C[C@H](C)CC[C@@H]1C
REMARK SMILES IDX 9 1 8 2 7 3 5 4 6 5 4 7 74 8 77 9 75 10 76 11 3 12 2 15 1 16
REMARK SMILES IDX 78 17 79 18 80 19 81 20 86 21 82 23 85 24 87 25 84 26 83 27
REMARK SMILES IDX 10 28 11 29 12 30 13 32 14 33 15 34 73 35 16 36 72 37 17 38
REMARK SMILES IDX 18 39 19 40 66 41 20 42 71 43 65 44 67 45 21 46 70 47 64 48
REMARK SMILES IDX 63 49 22 51 52 52 33 53 51 54 34 55 37 56 50 57 68 58 35 59
REMARK SMILES IDX 36 60 49 62 69 63 38 64 23 65 24 66 32 67 25 68 31 69 26 70
REMARK SMILES IDX 27 71 28 72 29 73 30 74 53 75 54 76 62 77 55 78 61 79 56 80
REMARK SMILES IDX 57 81 58 82 59 83 60 84 39 85 40 86 48 87 41 88 47 89 42 90
REMARK SMILES IDX 43 91 44 92 45 93 46 94
REMARK H PARENT 7 6 3 13 3 14 80 22 11 31 67 50 37 61
REMARK Flexibility Score: inf
ROOT
ATOM      1  C   UNL     1      -1.800  -3.034  -6.618  1.00  0.00     0.042 C 
ENDROOT
BRANCH   1   2
ATOM      2  C   UNL     1      -1.072  -1.744  -6.263  1.00  0.00     0.118 C 
BRANCH   2   3
ATOM      3  N   UNL     1      -1.224  -1.326  -4.877  1.00  0.00    -0.351 N 
ATOM      4  C   UNL     1      -0.373  -0.526  -4.162  1.00  0.00     0.281 C 
ATOM      5  O   UNL     1      -0.902   0.512  -3.740  1.00  0.00    -0.268 OA
ATOM      6  H   UNL     1      -2.023  -1.652  -4.404  1.00  0.00     0.163 HD
BRANCH   4   7
ATOM      7  C   UNL     1       1.164  -0.870  -3.866  1.00  0.00     0.178 C 
ATOM      8  C   UNL     1       2.024   0.148  -4.640  1.00  0.00     0.079 C 
ATOM      9  C   UNL     1       1.641  -2.270  -4.388  1.00  0.00     0.066 C 
ATOM     10  C   UNL     1       2.205  -0.473  -6.011  1.00  0.00     0.008 C 
ATOM     11  C   UNL     1       2.394  -1.954  -5.717  1.00  0.00     0.011 C 
BRANCH   7  12
ATOM     12  N   UNL     1       1.456  -0.786  -2.410  1.00  0.00    -0.334 N 
ATOM     13  H   UNL     1       1.085  -1.634  -1.981  1.00  0.00     0.347 HD
ATOM     14  H   UNL     1       2.467  -0.662  -2.367  1.00  0.00     0.347 HD
BRANCH  12  15
ATOM     15  C   UNL     1       0.928   0.343  -1.653  1.00  0.00     0.257 C 
ATOM     16  C   UNL     1       1.424   0.243  -0.214  1.00  0.00     0.071 C 
ENDBRANCH  12  15
ENDBRANCH   7  12
BRANCH   9  17
ATOM     17  C   UNL     1       2.583  -3.201  -3.555  1.00  0.00     0.072 C 
BRANCH  17  18
ATOM     18  C   UNL     1       2.303  -3.732  -2.125  1.00  0.00     0.263 C 
BRANCH  18  19
ATOM     19  N   UNL     1       1.246  -4.671  -1.741  1.00  0.00    -0.333 N 
ATOM     20  C   UNL     1       0.116  -4.059  -1.051  1.00  0.00     0.265 C 
ATOM     21  C   UNL     1       0.877  -5.747  -2.661  1.00  0.00     0.180 C 
ATOM     22  H   UNL     1       1.755  -5.215  -1.044  1.00  0.00     0.348 HD
ATOM     23  C   UNL     1      -0.882  -3.470  -2.038  1.00  0.00     0.041 C 
ATOM     24  C   UNL     1      -0.204  -5.324  -3.667  1.00  0.00     0.065 C 
ATOM     25  C   UNL     1       0.379  -6.978  -1.879  1.00  0.00     0.075 C 
ATOM     26  C   UNL     1      -1.359  -4.534  -3.032  1.00  0.00     0.015 C 
ATOM     27  C   UNL     1      -2.039  -2.775  -1.319  1.00  0.00     0.013 C 
ENDBRANCH  18  19
ENDBRANCH  17  18
ENDBRANCH   9  17
ENDBRANCH   4   7
ENDBRANCH   2   3
ENDBRANCH   1   2
BRANCH   1  28
ATOM     28  C   UNL     1      -3.314  -2.975  -6.451  1.00  0.00     0.118 C 
BRANCH  28  29
ATOM     29  N   UNL     1      -3.942  -2.109  -7.440  1.00  0.00    -0.352 N 
ATOM     30  C   UNL     1      -4.566  -2.417  -8.622  1.00  0.00     0.251 C 
ATOM     31  H   UNL     1      -3.915  -1.148  -7.225  1.00  0.00     0.163 HD
ATOM     32  O   UNL     1      -4.791  -1.511  -9.433  1.00  0.00    -0.269 OA
BRANCH  30  33
ATOM     33  C   UNL     1      -4.964  -3.804  -8.950  1.00  0.00     0.039 A 
ATOM     34  C   UNL     1      -4.824  -4.262 -10.265  1.00  0.00     0.014 A 
ATOM     35  C   UNL     1      -5.538  -4.639  -7.989  1.00  0.00     0.014 A 
ATOM     36  C   UNL     1      -5.205  -5.567 -10.599  1.00  0.00     0.010 A 
ATOM     37  C   UNL     1      -5.841  -5.963  -8.303  1.00  0.00     0.010 A 
ATOM     38  C   UNL     1      -5.690  -6.440  -9.614  1.00  0.00    -0.014 A 
BRANCH  38  39
ATOM     39  C   UNL     1      -6.077  -7.843  -9.925  1.00  0.00     0.031 A 
ATOM     40  C   UNL     1      -7.500  -8.296  -9.717  1.00  0.00     0.074 A 
ATOM     41  C   UNL     1      -5.141  -8.732 -10.315  1.00  0.00     0.049 A 
ATOM     42  N   UNL     1      -8.006  -9.500  -9.803  1.00  0.00    -0.248 NA
ATOM     43  C   UNL     1      -8.475  -7.262  -9.333  1.00  0.00     0.031 C 
ATOM     44  C   UNL     1      -3.723  -8.434 -10.527  1.00  0.00     0.029 A 
ATOM     45  N   UNL     1      -5.240 -10.075 -10.586  1.00  0.00    -0.354 N 
ATOM     46  C   UNL     1      -9.346  -9.374  -9.452  1.00  0.00     0.074 A 
ATOM     47  C   UNL     1      -9.564  -7.985  -9.111  1.00  0.00     0.031 C 
ATOM     48  C   UNL     1      -3.090  -9.554 -10.913  1.00  0.00     0.029 A 
ATOM     49  C   UNL     1      -4.044 -10.659 -10.932  1.00  0.00     0.049 A 
ATOM     50  H   UNL     1      -6.088 -10.572 -10.538  1.00  0.00     0.167 HD
ATOM     51  C   UNL     1     -10.313 -10.323  -9.429  1.00  0.00     0.031 A 
ATOM     52  C   UNL     1      -3.743 -11.941 -11.218  1.00  0.00     0.031 A 
ATOM     53  C   UNL     1     -10.102 -11.698  -9.794  1.00  0.00     0.049 A 
ATOM     54  C   UNL     1      -4.833 -12.977 -11.191  1.00  0.00     0.074 A 
ATOM     55  C   UNL     1     -11.030 -12.724  -9.857  1.00  0.00     0.029 A 
ATOM     56  N   UNL     1      -8.881 -12.240 -10.164  1.00  0.00    -0.354 N 
ATOM     57  N   UNL     1      -6.103 -12.829 -10.897  1.00  0.00    -0.248 NA
ATOM     58  C   UNL     1      -4.452 -14.352 -11.545  1.00  0.00     0.031 C 
ATOM     59  C   UNL     1     -10.361 -13.896 -10.225  1.00  0.00     0.029 A 
ATOM     60  C   UNL     1      -9.027 -13.588 -10.443  1.00  0.00     0.049 A 
ATOM     61  H   UNL     1      -8.035 -11.740 -10.220  1.00  0.00     0.167 HD
ATOM     62  C   UNL     1      -6.678 -14.085 -11.060  1.00  0.00     0.074 A 
ATOM     63  C   UNL     1      -5.620 -14.977 -11.487  1.00  0.00     0.031 C 
ATOM     64  C   UNL     1      -7.966 -14.463 -10.874  1.00  0.00     0.031 A 
BRANCH  51  65
ATOM     65  C   UNL     1     -11.691  -9.902  -8.987  1.00  0.00    -0.014 A 
ATOM     66  C   UNL     1     -12.488  -9.064  -9.789  1.00  0.00     0.010 A 
ATOM     67  C   UNL     1     -12.210 -10.373  -7.767  1.00  0.00     0.010 A 
ATOM     68  C   UNL     1     -13.756  -8.665  -9.357  1.00  0.00     0.020 A 
ATOM     69  C   UNL     1     -13.490 -10.000  -7.345  1.00  0.00     0.020 A 
ATOM     70  C   UNL     1     -14.246  -9.132  -8.134  1.00  0.00     0.054 A 
BRANCH  70  71
ATOM     71  S   UNL     1     -15.899  -8.607  -7.602  1.00  0.00     0.124 S 
ATOM     72  O   UNL     1     -15.660  -7.222  -7.202  1.00  0.00    -0.237 OA
ATOM     73  O   UNL     1     -16.697  -8.781  -8.813  1.00  0.00    -0.237 OA
ATOM     74  O   UNL     1     -16.220  -9.524  -6.512  1.00  0.00    -0.744 OA
ENDBRANCH  70  71
ENDBRANCH  51  65
BRANCH  52  75
ATOM     75  C   UNL     1      -2.346 -12.314 -11.572  1.00  0.00    -0.014 A 
ATOM     76  C   UNL     1      -2.016 -12.659 -12.895  1.00  0.00     0.010 A 
ATOM     77  C   UNL     1      -1.335 -12.312 -10.594  1.00  0.00     0.010 A 
ATOM     78  C   UNL     1      -0.705 -13.010 -13.230  1.00  0.00     0.020 A 
ATOM     79  C   UNL     1      -0.018 -12.637 -10.930  1.00  0.00     0.020 A 
ATOM     80  C   UNL     1       0.287 -12.994 -12.245  1.00  0.00     0.054 A 
BRANCH  80  81
ATOM     81  S   UNL     1       1.993 -13.398 -12.715  1.00  0.00     0.124 S 
ATOM     82  O   UNL     1       1.927 -14.846 -12.880  1.00  0.00    -0.237 OA
ATOM     83  O   UNL     1       2.173 -12.627 -13.943  1.00  0.00    -0.237 OA
ATOM     84  O   UNL     1       2.779 -12.931 -11.576  1.00  0.00    -0.744 OA
ENDBRANCH  80  81
ENDBRANCH  52  75
BRANCH  64  85
ATOM     85  C   UNL     1      -8.320 -15.895 -11.174  1.00  0.00    -0.014 A 
ATOM     86  C   UNL     1      -7.933 -16.939 -10.316  1.00  0.00     0.010 A 
ATOM     87  C   UNL     1      -9.107 -16.191 -12.302  1.00  0.00     0.010 A 
ATOM     88  C   UNL     1      -8.304 -18.257 -10.595  1.00  0.00     0.020 A 
ATOM     89  C   UNL     1      -9.502 -17.503 -12.571  1.00  0.00     0.020 A 
ATOM     90  C   UNL     1      -9.087 -18.530 -11.722  1.00  0.00     0.054 A 
BRANCH  90  91
ATOM     91  S   UNL     1      -9.598 -20.242 -12.036  1.00  0.00     0.124 S 
ATOM     92  O   UNL     1      -8.362 -20.843 -12.530  1.00  0.00    -0.237 OA
ATOM     93  O   UNL     1     -10.035 -20.694 -10.717  1.00  0.00    -0.237 OA
ATOM     94  O   UNL     1     -10.665 -20.108 -13.026  1.00  0.00    -0.744 OA
ENDBRANCH  90  91
ENDBRANCH  64  85
ENDBRANCH  38  39
ENDBRANCH  30  33
ENDBRANCH  28  29
ENDBRANCH   1  28
TORSDOF 18
