REMARK SMILES C[C@]1(C(=O)NCCCNC(=O)c2ccc(-c3c4nc(c(-c5ccc(S(=O)(=O)[O-])cc5)c5ccc([nH]5)c(-c5ccc(S(=O)(=O)[O-])cc5)c5nc(c(-c6ccc(S(=O)(=O)[O-])cc6)c6ccc3[nH]6)C=C5)C=C4)cc2)CCN(c2ccc([N+](=O)[O-])c(N)n2)C1
REMARK SMILES IDX 7 1 6 2 5 3 3 4 4 5 2 7 1 8 72 9 85 10 73 11 74 12 75 13
REMARK SMILES IDX 76 14 84 15 77 16 82 17 78 18 83 19 79 22 80 23 81 24 8 25
REMARK SMILES IDX 9 26 10 27 11 29 12 30 13 31 71 32 14 33 70 34 15 35 16 36
REMARK SMILES IDX 17 37 64 38 18 39 69 40 63 41 65 42 19 43 68 44 62 45 61 46
REMARK SMILES IDX 20 48 50 49 31 50 49 51 32 52 35 53 48 54 66 55 33 56 34 57
REMARK SMILES IDX 47 59 67 60 36 61 21 62 22 63 30 64 23 65 29 66 24 67 25 68
REMARK SMILES IDX 26 69 27 70 28 71 51 72 52 73 60 74 53 75 59 76 54 77 55 78
REMARK SMILES IDX 56 79 57 80 58 81 37 82 38 83 46 84 39 85 45 86 40 87 41 88
REMARK SMILES IDX 42 89 43 90 44 91
REMARK H PARENT 5 6 83 20 83 21 9 28 65 47 35 58
REMARK Flexibility Score: inf
ROOT
ATOM      1  C   UNL     1       3.763   2.226   0.299  1.00  0.00     0.042 C 
ENDROOT
BRANCH   1   2
ATOM      2  C   UNL     1       3.429   0.909  -0.388  1.00  0.00     0.117 C 
BRANCH   2   3
ATOM      3  N   UNL     1       2.324   0.225   0.258  1.00  0.00    -0.356 N 
ATOM      4  C   UNL     1       1.032   0.034  -0.118  1.00  0.00     0.227 C 
ATOM      5  O   UNL     1       0.327  -0.618   0.658  1.00  0.00    -0.274 OA
ATOM      6  H   UNL     1       2.552  -0.174   1.129  1.00  0.00     0.163 HD
BRANCH   4   7
ATOM      7  C   UNL     1       0.495   0.534  -1.460  1.00  0.00     0.066 C 
ATOM      8  C   UNL     1       1.139  -0.248  -2.617  1.00  0.00     0.024 C 
ATOM      9  C   UNL     1      -1.043   0.374  -1.510  1.00  0.00     0.040 C 
ATOM     10  C   UNL     1       0.634   2.055  -1.609  1.00  0.00     0.134 C 
ATOM     11  C   UNL     1      -1.530   1.448  -2.485  1.00  0.00     0.119 C 
ATOM     12  N   UNL     1      -0.463   2.435  -2.489  1.00  0.00    -0.355 N 
BRANCH  12  13
ATOM     13  C   UNL     1      -0.705   3.762  -2.755  1.00  0.00     0.131 A 
ATOM     14  C   UNL     1       0.311   4.566  -3.267  1.00  0.00     0.054 A 
ATOM     15  N   UNL     1      -1.935   4.269  -2.517  1.00  0.00    -0.207 NA
ATOM     16  C   UNL     1       0.062   5.906  -3.544  1.00  0.00     0.093 A 
ATOM     17  C   UNL     1      -2.179   5.584  -2.733  1.00  0.00     0.204 A 
ATOM     18  C   UNL     1      -1.205   6.420  -3.271  1.00  0.00     0.311 A 
BRANCH  17  19
ATOM     19  N   UNL     1      -3.476   5.967  -2.452  1.00  0.00    -0.378 N 
ATOM     20  H   UNL     1      -3.751   6.904  -2.578  1.00  0.00     0.158 HD
ATOM     21  H   UNL     1      -4.125   5.303  -2.126  1.00  0.00     0.158 HD
ENDBRANCH  17  19
BRANCH  18  22
ATOM     22  N   UNL     1      -1.475   7.822  -3.555  1.00  0.00     0.066 N 
ATOM     23  O   UNL     1      -0.774   8.369  -4.419  1.00  0.00    -0.258 OA
ATOM     24  O   UNL     1      -2.371   8.392  -2.914  1.00  0.00    -0.258 OA
ENDBRANCH  18  22
ENDBRANCH  12  13
ENDBRANCH   4   7
ENDBRANCH   2   3
ENDBRANCH   1   2
BRANCH   1  25
ATOM     25  C   UNL     1       4.375   2.048   1.683  1.00  0.00     0.118 C 
BRANCH  25  26
ATOM     26  N   UNL     1       5.678   1.395   1.634  1.00  0.00    -0.352 N 
ATOM     27  C   UNL     1       6.905   1.853   2.044  1.00  0.00     0.251 C 
ATOM     28  H   UNL     1       5.677   0.489   1.248  1.00  0.00     0.163 HD
ATOM     29  O   UNL     1       7.920   1.238   1.728  1.00  0.00    -0.269 OA
BRANCH  27  30
ATOM     30  C   UNL     1       7.003   3.090   2.847  1.00  0.00     0.039 A 
ATOM     31  C   UNL     1       8.001   4.021   2.550  1.00  0.00     0.014 A 
ATOM     32  C   UNL     1       6.110   3.328   3.895  1.00  0.00     0.014 A 
ATOM     33  C   UNL     1       8.058   5.224   3.259  1.00  0.00     0.010 A 
ATOM     34  C   UNL     1       6.114   4.559   4.539  1.00  0.00     0.010 A 
ATOM     35  C   UNL     1       7.091   5.519   4.234  1.00  0.00    -0.014 A 
BRANCH  35  36
ATOM     36  C   UNL     1       7.085   6.808   4.971  1.00  0.00     0.031 A 
ATOM     37  C   UNL     1       7.261   6.811   6.467  1.00  0.00     0.074 A 
ATOM     38  C   UNL     1       6.849   7.961   4.314  1.00  0.00     0.049 A 
ATOM     39  N   UNL     1       7.157   7.806   7.309  1.00  0.00    -0.248 NA
ATOM     40  C   UNL     1       7.569   5.517   7.102  1.00  0.00     0.031 C 
ATOM     41  C   UNL     1       6.645   8.092   2.869  1.00  0.00     0.029 A 
ATOM     42  N   UNL     1       6.728   9.247   4.780  1.00  0.00    -0.354 N 
ATOM     43  C   UNL     1       7.372   7.258   8.569  1.00  0.00     0.074 A 
ATOM     44  C   UNL     1       7.552   5.835   8.388  1.00  0.00     0.031 C 
ATOM     45  C   UNL     1       6.451   9.386   2.566  1.00  0.00     0.029 A 
ATOM     46  C   UNL     1       6.463  10.171   3.796  1.00  0.00     0.049 A 
ATOM     47  H   UNL     1       6.823   9.485   5.731  1.00  0.00     0.167 HD
ATOM     48  C   UNL     1       7.441   7.886   9.766  1.00  0.00     0.031 A 
ATOM     49  C   UNL     1       6.242  11.498   3.878  1.00  0.00     0.031 A 
ATOM     50  C   UNL     1       7.273   9.303   9.942  1.00  0.00     0.049 A 
ATOM     51  C   UNL     1       6.275  12.164   5.229  1.00  0.00     0.074 A 
ATOM     52  C   UNL     1       7.346  10.039  11.112  1.00  0.00     0.029 A 
ATOM     53  N   UNL     1       7.010  10.201   8.919  1.00  0.00    -0.354 N 
ATOM     54  N   UNL     1       6.511  11.633   6.405  1.00  0.00    -0.248 NA
ATOM     55  C   UNL     1       6.022  13.611   5.262  1.00  0.00     0.031 C 
ATOM     56  C   UNL     1       7.082  11.377  10.803  1.00  0.00     0.029 A 
ATOM     57  C   UNL     1       6.908  11.482   9.432  1.00  0.00     0.049 A 
ATOM     58  H   UNL     1       6.910   9.963   7.969  1.00  0.00     0.167 HD
ATOM     59  C   UNL     1       6.481  12.689   7.309  1.00  0.00     0.074 A 
ATOM     60  C   UNL     1       6.210  13.889   6.545  1.00  0.00     0.031 C 
ATOM     61  C   UNL     1       6.665  12.669   8.652  1.00  0.00     0.031 A 
BRANCH  48  62
ATOM     62  C   UNL     1       7.723   7.042  10.981  1.00  0.00    -0.014 A 
ATOM     63  C   UNL     1       8.986   6.453  11.172  1.00  0.00     0.010 A 
ATOM     64  C   UNL     1       6.736   6.877  11.970  1.00  0.00     0.010 A 
ATOM     65  C   UNL     1       9.247   5.687  12.310  1.00  0.00     0.020 A 
ATOM     66  C   UNL     1       7.002   6.137  13.126  1.00  0.00     0.020 A 
ATOM     67  C   UNL     1       8.253   5.535  13.281  1.00  0.00     0.054 A 
BRANCH  67  68
ATOM     68  S   UNL     1       8.635   4.566  14.765  1.00  0.00     0.124 S 
ATOM     69  O   UNL     1       8.684   3.206  14.233  1.00  0.00    -0.237 OA
ATOM     70  O   UNL     1       9.918   5.121  15.187  1.00  0.00    -0.237 OA
ATOM     71  O   UNL     1       7.514   4.844  15.660  1.00  0.00    -0.744 OA
ENDBRANCH  67  68
ENDBRANCH  48  62
BRANCH  49  72
ATOM     72  C   UNL     1       5.976  12.297   2.649  1.00  0.00    -0.014 A 
ATOM     73  C   UNL     1       6.907  13.257   2.211  1.00  0.00     0.010 A 
ATOM     74  C   UNL     1       4.780  12.130   1.929  1.00  0.00     0.010 A 
ATOM     75  C   UNL     1       6.629  14.062   1.103  1.00  0.00     0.020 A 
ATOM     76  C   UNL     1       4.512  12.910   0.800  1.00  0.00     0.020 A 
ATOM     77  C   UNL     1       5.430  13.886   0.407  1.00  0.00     0.054 A 
BRANCH  77  78
ATOM     78  S   UNL     1       5.094  14.937  -1.033  1.00  0.00     0.124 S 
ATOM     79  O   UNL     1       4.797  16.221  -0.407  1.00  0.00    -0.237 OA
ATOM     80  O   UNL     1       6.351  14.868  -1.773  1.00  0.00    -0.237 OA
ATOM     81  O   UNL     1       3.962  14.277  -1.679  1.00  0.00    -0.744 OA
ENDBRANCH  77  78
ENDBRANCH  49  72
BRANCH  61  82
ATOM     82  C   UNL     1       6.655  13.987   9.380  1.00  0.00    -0.014 A 
ATOM     83  C   UNL     1       5.466  14.707   9.582  1.00  0.00     0.010 A 
ATOM     84  C   UNL     1       7.855  14.473   9.934  1.00  0.00     0.010 A 
ATOM     85  C   UNL     1       5.481  15.903  10.307  1.00  0.00     0.020 A 
ATOM     86  C   UNL     1       7.868  15.650  10.684  1.00  0.00     0.020 A 
ATOM     87  C   UNL     1       6.681  16.364  10.857  1.00  0.00     0.054 A 
BRANCH  87  88
ATOM     88  S   UNL     1       6.661  17.884  11.847  1.00  0.00     0.124 S 
ATOM     89  O   UNL     1       6.474  18.910  10.825  1.00  0.00    -0.237 OA
ATOM     90  O   UNL     1       5.523  17.669  12.738  1.00  0.00    -0.237 OA
ATOM     91  O   UNL     1       7.966  17.889  12.503  1.00  0.00    -0.744 OA
ENDBRANCH  87  88
ENDBRANCH  61  82
ENDBRANCH  35  36
ENDBRANCH  27  30
ENDBRANCH  25  26
ENDBRANCH   1  25
TORSDOF 16
