REMARK SMILES O=C(NCCCNC(=O)[C@H]1Cc2c([nH]c3ccccc23)[C@@H](c2ccc(OC(F)(F)F)cc2)[NH2+]1)c1ccc(-c2c3nc(c(-c4ccc(S(=O)(=O)[O-])cc4)c4ccc([nH]4)c(-c4ccc(S(=O)(=O)[O-])cc4)c4nc(c(-c5ccc(S(=O)(=O)[O-])cc5)c5ccc2[nH]5)C=C4)C=C3)cc1
REMARK SMILES IDX 5 1 4 2 3 3 1 4 2 5 34 7 35 8 93 9 36 10 92 11 37 12 38 13
REMARK SMILES IDX 39 14 86 15 40 16 91 17 85 18 87 19 41 20 90 21 84 22 83 23
REMARK SMILES IDX 42 25 72 26 53 27 71 28 54 29 57 30 70 31 88 32 55 33 56 34
REMARK SMILES IDX 69 36 89 37 58 38 43 39 44 40 52 41 45 42 51 43 46 44 47 45
REMARK SMILES IDX 48 46 49 47 50 48 73 49 74 50 82 51 75 52 81 53 76 54 77 55
REMARK SMILES IDX 78 56 79 57 80 58 59 59 60 60 68 61 61 62 67 63 62 64 63 65
REMARK SMILES IDX 64 66 65 67 66 68 6 69 7 70 8 71 9 73 10 74 11 75 33 76
REMARK SMILES IDX 12 77 21 78 13 81 20 82 14 83 15 84 19 85 16 87 18 88 17 89
REMARK SMILES IDX 22 90 23 91 32 92 24 93 31 94 25 95 26 96 27 97 28 98 29 99
REMARK SMILES IDX 30 100
REMARK H PARENT 3 6 87 24 57 35 7 72 33 79 33 80 14 86
REMARK Flexibility Score: inf
ROOT
ATOM      1  C   UNL     1       4.715   2.166   0.858  1.00  0.00     0.042 C 
ENDROOT
BRANCH   1   2
ATOM      2  C   UNL     1       4.446   0.697   1.130  1.00  0.00     0.118 C 
BRANCH   2   3
ATOM      3  N   UNL     1       3.019   0.400   1.030  1.00  0.00    -0.352 N 
ATOM      4  O   UNL     1       1.124  -0.178  -0.036  1.00  0.00    -0.269 OA
ATOM      5  C   UNL     1       2.339  -0.297   0.065  1.00  0.00     0.251 C 
ATOM      6  H   UNL     1       2.464   0.751   1.764  1.00  0.00     0.163 HD
BRANCH   5   7
ATOM      7  C   UNL     1       3.087  -1.198  -0.830  1.00  0.00     0.039 A 
ATOM      8  C   UNL     1       4.145  -1.952  -0.317  1.00  0.00     0.014 A 
ATOM      9  C   UNL     1       2.705  -1.330  -2.167  1.00  0.00     0.014 A 
ATOM     10  C   UNL     1       4.910  -2.733  -1.162  1.00  0.00     0.010 A 
ATOM     11  C   UNL     1       3.399  -2.217  -2.991  1.00  0.00     0.010 A 
ATOM     12  C   UNL     1       4.504  -2.923  -2.490  1.00  0.00    -0.014 A 
BRANCH  12  13
ATOM     13  C   UNL     1       5.152  -4.000  -3.268  1.00  0.00     0.031 A 
ATOM     14  C   UNL     1       5.945  -3.703  -4.502  1.00  0.00     0.074 A 
ATOM     15  C   UNL     1       5.008  -5.262  -2.813  1.00  0.00     0.049 A 
ATOM     16  N   UNL     1       6.559  -4.544  -5.292  1.00  0.00    -0.248 NA
ATOM     17  C   UNL     1       6.063  -2.294  -4.912  1.00  0.00     0.031 C 
ATOM     18  C   UNL     1       4.241  -5.646  -1.619  1.00  0.00     0.029 A 
ATOM     19  N   UNL     1       5.501  -6.450  -3.278  1.00  0.00    -0.354 N 
ATOM     20  C   UNL     1       7.112  -3.776  -6.308  1.00  0.00     0.074 A 
ATOM     21  C   UNL     1       6.758  -2.398  -6.039  1.00  0.00     0.031 C 
ATOM     22  C   UNL     1       4.352  -6.966  -1.426  1.00  0.00     0.029 A 
ATOM     23  C   UNL     1       5.115  -7.535  -2.526  1.00  0.00     0.049 A 
ATOM     24  H   UNL     1       6.076  -6.522  -4.074  1.00  0.00     0.167 HD
ATOM     25  C   UNL     1       7.839  -4.196  -7.368  1.00  0.00     0.031 A 
ATOM     26  C   UNL     1       5.311  -8.850  -2.723  1.00  0.00     0.031 A 
ATOM     27  C   UNL     1       8.182  -5.574  -7.608  1.00  0.00     0.049 A 
ATOM     28  C   UNL     1       6.085  -9.279  -3.933  1.00  0.00     0.074 A 
ATOM     29  C   UNL     1       8.970  -6.096  -8.620  1.00  0.00     0.029 A 
ATOM     30  N   UNL     1       7.748  -6.648  -6.845  1.00  0.00    -0.354 N 
ATOM     31  N   UNL     1       6.665  -8.531  -4.842  1.00  0.00    -0.248 NA
ATOM     32  C   UNL     1       6.224 -10.722  -4.153  1.00  0.00     0.031 C 
ATOM     33  C   UNL     1       8.950  -7.490  -8.511  1.00  0.00     0.029 A 
ATOM     34  C   UNL     1       8.207  -7.833  -7.393  1.00  0.00     0.049 A 
ATOM     35  H   UNL     1       7.195  -6.577  -6.033  1.00  0.00     0.167 HD
ATOM     36  C   UNL     1       7.243  -9.416  -5.741  1.00  0.00     0.074 A 
ATOM     37  C   UNL     1       6.976 -10.751  -5.245  1.00  0.00     0.031 C 
ATOM     38  C   UNL     1       7.923  -9.150  -6.882  1.00  0.00     0.031 A 
BRANCH  25  39
ATOM     39  C   UNL     1       8.291  -3.177  -8.380  1.00  0.00    -0.014 A 
ATOM     40  C   UNL     1       9.341  -2.285  -8.104  1.00  0.00     0.010 A 
ATOM     41  C   UNL     1       7.731  -3.198  -9.671  1.00  0.00     0.010 A 
ATOM     42  C   UNL     1       9.822  -1.431  -9.102  1.00  0.00     0.020 A 
ATOM     43  C   UNL     1       8.223  -2.363 -10.678  1.00  0.00     0.020 A 
ATOM     44  C   UNL     1       9.265  -1.482 -10.385  1.00  0.00     0.054 A 
BRANCH  44  45
ATOM     45  S   UNL     1       9.966  -0.421 -11.680  1.00  0.00     0.124 S 
ATOM     46  O   UNL     1       9.534   0.906 -11.249  1.00  0.00    -0.237 OA
ATOM     47  O   UNL     1      11.399  -0.683 -11.564  1.00  0.00    -0.237 OA
ATOM     48  O   UNL     1       9.342  -0.910 -12.907  1.00  0.00    -0.744 OA
ENDBRANCH  44  45
ENDBRANCH  25  39
BRANCH  26  49
ATOM     49  C   UNL     1       4.698  -9.844  -1.801  1.00  0.00    -0.014 A 
ATOM     50  C   UNL     1       5.495 -10.687  -1.010  1.00  0.00     0.010 A 
ATOM     51  C   UNL     1       3.296  -9.956  -1.722  1.00  0.00     0.010 A 
ATOM     52  C   UNL     1       4.903 -11.652  -0.190  1.00  0.00     0.020 A 
ATOM     53  C   UNL     1       2.700 -10.892  -0.875  1.00  0.00     0.020 A 
ATOM     54  C   UNL     1       3.509 -11.750  -0.132  1.00  0.00     0.054 A 
BRANCH  54  55
ATOM     55  S   UNL     1       2.763 -13.009   0.939  1.00  0.00     0.124 S 
ATOM     56  O   UNL     1       3.029 -14.234   0.193  1.00  0.00    -0.237 OA
ATOM     57  O   UNL     1       3.511 -12.849   2.183  1.00  0.00    -0.237 OA
ATOM     58  O   UNL     1       1.359 -12.609   1.009  1.00  0.00    -0.744 OA
ENDBRANCH  54  55
ENDBRANCH  26  49
BRANCH  38  59
ATOM     59  C   UNL     1       8.429 -10.329  -7.665  1.00  0.00    -0.014 A 
ATOM     60  C   UNL     1       7.542 -11.153  -8.381  1.00  0.00     0.010 A 
ATOM     61  C   UNL     1       9.811 -10.582  -7.730  1.00  0.00     0.010 A 
ATOM     62  C   UNL     1       8.028 -12.225  -9.130  1.00  0.00     0.020 A 
ATOM     63  C   UNL     1      10.302 -11.634  -8.505  1.00  0.00     0.020 A 
ATOM     64  C   UNL     1       9.406 -12.455  -9.192  1.00  0.00     0.054 A 
BRANCH  64  65
ATOM     65  S   UNL     1      10.013 -13.817 -10.223  1.00  0.00     0.124 S 
ATOM     66  O   UNL     1       9.605 -14.988  -9.452  1.00  0.00    -0.237 OA
ATOM     67  O   UNL     1       9.297 -13.610 -11.479  1.00  0.00    -0.237 OA
ATOM     68  O   UNL     1      11.455 -13.586 -10.289  1.00  0.00    -0.744 OA
ENDBRANCH  64  65
ENDBRANCH  38  59
ENDBRANCH  12  13
ENDBRANCH   5   7
ENDBRANCH   2   3
ENDBRANCH   1   2
BRANCH   1  69
ATOM     69  C   UNL     1       4.098   3.032   1.943  1.00  0.00     0.118 C 
BRANCH  69  70
ATOM     70  N   UNL     1       4.968   3.137   3.103  1.00  0.00    -0.351 N 
ATOM     71  C   UNL     1       5.847   4.061   3.564  1.00  0.00     0.278 C 
ATOM     72  H   UNL     1       4.904   2.351   3.693  1.00  0.00     0.163 HD
ATOM     73  O   UNL     1       6.452   3.750   4.603  1.00  0.00    -0.268 OA
BRANCH  71  74
ATOM     74  C   UNL     1       6.110   5.455   2.945  1.00  0.00     0.277 C 
ATOM     75  C   UNL     1       5.377   5.750   1.645  1.00  0.00     0.114 C 
ATOM     76  N   UNL     1       5.760   6.460   3.986  1.00  0.00    -0.325 N 
ATOM     77  C   UNL     1       5.553   7.151   1.238  1.00  0.00    -0.006 A 
ATOM     78  C   UNL     1       6.044   7.873   3.648  1.00  0.00     0.262 C 
ATOM     79  H   UNL     1       6.283   6.231   4.831  1.00  0.00     0.347 HD
ATOM     80  H   UNL     1       4.747   6.403   4.093  1.00  0.00     0.347 HD
ATOM     81  C   UNL     1       5.851   8.117   2.171  1.00  0.00     0.083 A 
ATOM     82  C   UNL     1       5.242   7.768   0.011  1.00  0.00     0.003 A 
ATOM     83  N   UNL     1       5.881   9.316   1.500  1.00  0.00    -0.353 N 
ATOM     84  C   UNL     1       5.413   9.138   0.207  1.00  0.00     0.046 A 
ATOM     85  C   UNL     1       4.754   7.290  -1.219  1.00  0.00     0.010 A 
ATOM     86  H   UNL     1       6.187  10.171   1.880  1.00  0.00     0.166 HD
ATOM     87  C   UNL     1       5.098  10.066  -0.793  1.00  0.00     0.026 A 
ATOM     88  C   UNL     1       4.426   8.204  -2.219  1.00  0.00     0.001 A 
ATOM     89  C   UNL     1       4.592   9.571  -2.004  1.00  0.00     0.002 A 
BRANCH  78  90
ATOM     90  C   UNL     1       5.156   8.728   4.558  1.00  0.00     0.016 A 
ATOM     91  C   UNL     1       4.006   9.390   4.103  1.00  0.00     0.014 A 
ATOM     92  C   UNL     1       5.427   8.776   5.939  1.00  0.00     0.014 A 
ATOM     93  C   UNL     1       3.200  10.121   4.979  1.00  0.00     0.047 A 
ATOM     94  C   UNL     1       4.596   9.477   6.824  1.00  0.00     0.047 A 
ATOM     95  C   UNL     1       3.485  10.168   6.344  1.00  0.00     0.129 A 
BRANCH  95  96
ATOM     96  O   UNL     1       2.605  10.912   7.074  1.00  0.00    -0.406 OA
BRANCH  96  97
ATOM     97  C   UNL     1       2.736  10.896   8.483  1.00  0.00     0.573 C 
ATOM     98  F   UNL     1       2.571   9.651   8.976  1.00  0.00    -0.132 F 
ATOM     99  F   UNL     1       3.935  11.382   8.872  1.00  0.00    -0.132 F 
ATOM    100  F   UNL     1       1.777  11.688   9.014  1.00  0.00    -0.132 F 
ENDBRANCH  96  97
ENDBRANCH  95  96
ENDBRANCH  78  90
ENDBRANCH  71  74
ENDBRANCH  69  70
ENDBRANCH   1  69
TORSDOF 16
