REMARK SMILES O=C(NCCCNC(=O)c1ccc2nc(-c3c[nH]nc3-c3ccc(F)cc3F)[nH]c2c1)c1ccc(-c2c3nc(c(-c4ccc(S(=O)(=O)[O-])cc4)c4ccc([nH]4)c(-c4ccc(S(=O)(=O)[O-])cc4)c4nc(c(-c5ccc(S(=O)(=O)[O-])cc5)c5ccc2[nH]5)C=C4)C=C3)cc1
REMARK SMILES IDX 4 1 3 2 1 3 2 4 32 6 33 7 91 8 34 9 90 10 35 11 36 12 37 13
REMARK SMILES IDX 84 14 38 15 89 16 83 17 85 18 39 19 88 20 82 21 81 22 40 24
REMARK SMILES IDX 70 25 51 26 69 27 52 28 55 29 68 30 86 31 53 32 54 33 67 35
REMARK SMILES IDX 87 36 56 37 41 38 42 39 50 40 43 41 49 42 44 43 45 44 46 45
REMARK SMILES IDX 47 46 48 47 71 48 72 49 80 50 73 51 79 52 74 53 75 54 76 55
REMARK SMILES IDX 77 56 78 57 57 58 58 59 66 60 59 61 65 62 60 63 61 64 62 65
REMARK SMILES IDX 63 66 64 67 5 68 6 69 7 70 8 71 9 73 10 74 11 75 31 76 12 77
REMARK SMILES IDX 30 78 13 79 29 80 14 81 15 82 16 84 17 85 20 86 18 87 19 88
REMARK SMILES IDX 21 90 22 91 27 92 23 93 26 94 28 95 24 96 25 97
REMARK H PARENT 3 5 85 23 55 34 7 72 29 83 18 89
REMARK Flexibility Score: inf
ROOT
ATOM      1  C   UNL     1       4.474   1.377  -0.396  1.00  0.00     0.118 C 
ENDROOT
BRANCH   1   2
ATOM      2  N   UNL     1       3.045   1.164  -0.204  1.00  0.00    -0.352 N 
ATOM      3  O   UNL     1       1.111   0.025  -0.072  1.00  0.00    -0.269 OA
ATOM      4  C   UNL     1       2.339   0.001  -0.018  1.00  0.00     0.251 C 
ATOM      5  H   UNL     1       2.500   1.984  -0.208  1.00  0.00     0.163 HD
BRANCH   4   6
ATOM      6  C   UNL     1       3.046  -1.275   0.228  1.00  0.00     0.039 A 
ATOM      7  C   UNL     1       4.156  -1.323   1.072  1.00  0.00     0.014 A 
ATOM      8  C   UNL     1       2.573  -2.448  -0.369  1.00  0.00     0.014 A 
ATOM      9  C   UNL     1       4.886  -2.499   1.189  1.00  0.00     0.010 A 
ATOM     10  C   UNL     1       3.249  -3.655  -0.164  1.00  0.00     0.010 A 
ATOM     11  C   UNL     1       4.429  -3.685   0.594  1.00  0.00    -0.014 A 
BRANCH  11  12
ATOM     12  C   UNL     1       5.163  -4.949   0.856  1.00  0.00     0.031 A 
ATOM     13  C   UNL     1       5.839  -5.710  -0.251  1.00  0.00     0.074 A 
ATOM     14  C   UNL     1       5.249  -5.385   2.130  1.00  0.00     0.049 A 
ATOM     15  N   UNL     1       6.557  -6.802  -0.174  1.00  0.00    -0.248 NA
ATOM     16  C   UNL     1       5.689  -5.187  -1.618  1.00  0.00     0.031 C 
ATOM     17  C   UNL     1       4.624  -4.735   3.287  1.00  0.00     0.029 A 
ATOM     18  N   UNL     1       5.914  -6.453   2.673  1.00  0.00    -0.354 N 
ATOM     19  C   UNL     1       6.929  -7.109  -1.478  1.00  0.00     0.074 A 
ATOM     20  C   UNL     1       6.339  -6.099  -2.331  1.00  0.00     0.031 C 
ATOM     21  C   UNL     1       4.984  -5.381   4.404  1.00  0.00     0.029 A 
ATOM     22  C   UNL     1       5.805  -6.529   4.041  1.00  0.00     0.049 A 
ATOM     23  H   UNL     1       6.421  -7.104   2.135  1.00  0.00     0.167 HD
ATOM     24  C   UNL     1       7.695  -8.136  -1.920  1.00  0.00     0.031 A 
ATOM     25  C   UNL     1       6.296  -7.429   4.913  1.00  0.00     0.031 A 
ATOM     26  C   UNL     1       8.279  -9.136  -1.064  1.00  0.00     0.049 A 
ATOM     27  C   UNL     1       7.120  -8.569   4.391  1.00  0.00     0.074 A 
ATOM     28  C   UNL     1       9.093 -10.201  -1.415  1.00  0.00     0.029 A 
ATOM     29  N   UNL     1       8.111  -9.202   0.311  1.00  0.00    -0.354 N 
ATOM     30  N   UNL     1       7.484  -8.822   3.157  1.00  0.00    -0.248 NA
ATOM     31  C   UNL     1       7.599  -9.544   5.378  1.00  0.00     0.031 C 
ATOM     32  C   UNL     1       9.376 -10.937  -0.260  1.00  0.00     0.029 A 
ATOM     33  C   UNL     1       8.785 -10.301   0.820  1.00  0.00     0.049 A 
ATOM     34  H   UNL     1       7.590  -8.562   0.848  1.00  0.00     0.167 HD
ATOM     35  C   UNL     1       8.243  -9.983   3.220  1.00  0.00     0.074 A 
ATOM     36  C   UNL     1       8.309 -10.365   4.617  1.00  0.00     0.031 C 
ATOM     37  C   UNL     1       8.830 -10.673   2.211  1.00  0.00     0.031 A 
BRANCH  24  38
ATOM     38  C   UNL     1       7.932  -8.247  -3.404  1.00  0.00    -0.014 A 
ATOM     39  C   UNL     1       8.791  -7.357  -4.073  1.00  0.00     0.010 A 
ATOM     40  C   UNL     1       7.335  -9.295  -4.128  1.00  0.00     0.010 A 
ATOM     41  C   UNL     1       9.025  -7.496  -5.444  1.00  0.00     0.020 A 
ATOM     42  C   UNL     1       7.585  -9.451  -5.495  1.00  0.00     0.020 A 
ATOM     43  C   UNL     1       8.418  -8.541  -6.148  1.00  0.00     0.054 A 
BRANCH  43  44
ATOM     44  S   UNL     1       8.764  -8.714  -7.921  1.00  0.00     0.124 S 
ATOM     45  O   UNL     1       7.997  -7.605  -8.485  1.00  0.00    -0.237 OA
ATOM     46  O   UNL     1      10.216  -8.566  -7.981  1.00  0.00    -0.237 OA
ATOM     47  O   UNL     1       8.262 -10.047  -8.244  1.00  0.00    -0.744 OA
ENDBRANCH  43  44
ENDBRANCH  24  38
BRANCH  25  48
ATOM     48  C   UNL     1       5.994  -7.293   6.362  1.00  0.00    -0.014 A 
ATOM     49  C   UNL     1       7.003  -6.950   7.278  1.00  0.00     0.010 A 
ATOM     50  C   UNL     1       4.680  -7.483   6.830  1.00  0.00     0.010 A 
ATOM     51  C   UNL     1       6.707  -6.814   8.637  1.00  0.00     0.020 A 
ATOM     52  C   UNL     1       4.374  -7.319   8.182  1.00  0.00     0.020 A 
ATOM     53  C   UNL     1       5.394  -6.999   9.080  1.00  0.00     0.054 A 
BRANCH  53  54
ATOM     54  S   UNL     1       5.019  -6.768  10.840  1.00  0.00     0.124 S 
ATOM     55  O   UNL     1       5.541  -8.000  11.423  1.00  0.00    -0.237 OA
ATOM     56  O   UNL     1       5.758  -5.551  11.165  1.00  0.00    -0.237 OA
ATOM     57  O   UNL     1       3.565  -6.629  10.863  1.00  0.00    -0.744 OA
ENDBRANCH  53  54
ENDBRANCH  25  48
BRANCH  37  58
ATOM     58  C   UNL     1       9.608 -11.903   2.590  1.00  0.00    -0.014 A 
ATOM     59  C   UNL     1       8.954 -13.079   2.997  1.00  0.00     0.010 A 
ATOM     60  C   UNL     1      11.012 -11.888   2.511  1.00  0.00     0.010 A 
ATOM     61  C   UNL     1       9.693 -14.209   3.355  1.00  0.00     0.020 A 
ATOM     62  C   UNL     1      11.753 -13.025   2.843  1.00  0.00     0.020 A 
ATOM     63  C   UNL     1      11.089 -14.173   3.279  1.00  0.00     0.054 A 
BRANCH  63  64
ATOM     64  S   UNL     1      12.027 -15.661   3.720  1.00  0.00     0.124 S 
ATOM     65  O   UNL     1      11.943 -15.651   5.178  1.00  0.00    -0.237 OA
ATOM     66  O   UNL     1      11.277 -16.724   3.054  1.00  0.00    -0.237 OA
ATOM     67  O   UNL     1      13.356 -15.408   3.170  1.00  0.00    -0.744 OA
ENDBRANCH  63  64
ENDBRANCH  37  58
ENDBRANCH  11  12
ENDBRANCH   4   6
ENDBRANCH   1   2
BRANCH   1  68
ATOM     68  C   UNL     1       4.811   1.883  -1.792  1.00  0.00     0.042 C 
BRANCH  68  69
ATOM     69  C   UNL     1       4.225   3.253  -2.103  1.00  0.00     0.118 C 
BRANCH  69  70
ATOM     70  N   UNL     1       4.741   4.276  -1.206  1.00  0.00    -0.352 N 
ATOM     71  C   UNL     1       5.664   5.255  -1.456  1.00  0.00     0.251 C 
ATOM     72  H   UNL     1       4.375   4.261  -0.292  1.00  0.00     0.163 HD
ATOM     73  O   UNL     1       6.174   5.886  -0.534  1.00  0.00    -0.269 OA
BRANCH  71  74
ATOM     74  C   UNL     1       6.040   5.567  -2.847  1.00  0.00     0.042 A 
ATOM     75  C   UNL     1       5.042   5.901  -3.773  1.00  0.00     0.016 A 
ATOM     76  C   UNL     1       7.404   5.585  -3.181  1.00  0.00     0.042 A 
ATOM     77  C   UNL     1       5.381   6.265  -5.078  1.00  0.00     0.031 A 
ATOM     78  C   UNL     1       7.705   5.941  -4.497  1.00  0.00     0.067 A 
ATOM     79  C   UNL     1       6.737   6.313  -5.424  1.00  0.00     0.089 A 
ATOM     80  N   UNL     1       8.887   6.037  -5.191  1.00  0.00    -0.338 N 
ATOM     81  N   UNL     1       7.314   6.731  -6.588  1.00  0.00    -0.228 NA
ATOM     82  C   UNL     1       8.609   6.573  -6.422  1.00  0.00     0.142 A 
ATOM     83  H   UNL     1       9.775   5.768  -4.862  1.00  0.00     0.168 HD
BRANCH  82  84
ATOM     84  C   UNL     1       9.610   6.986  -7.429  1.00  0.00     0.063 A 
ATOM     85  C   UNL     1      10.862   6.455  -7.615  1.00  0.00     0.117 A 
ATOM     86  C   UNL     1       9.480   8.028  -8.390  1.00  0.00     0.106 A 
ATOM     87  N   UNL     1      11.368   7.109  -8.701  1.00  0.00    -0.284 N 
ATOM     88  N   UNL     1      10.585   8.103  -9.152  1.00  0.00    -0.175 NA
ATOM     89  H   UNL     1      12.229   6.874  -9.117  1.00  0.00     0.189 HD
BRANCH  86  90
ATOM     90  C   UNL     1       8.415   9.020  -8.483  1.00  0.00     0.039 A 
ATOM     91  C   UNL     1       8.100   9.800  -7.355  1.00  0.00     0.016 A 
ATOM     92  C   UNL     1       7.686   9.211  -9.659  1.00  0.00     0.135 A 
ATOM     93  C   UNL     1       7.068  10.738  -7.407  1.00  0.00     0.040 A 
ATOM     94  C   UNL     1       6.658  10.151  -9.718  1.00  0.00     0.079 A 
ATOM     95  F   UNL     1       7.941   8.482 -10.756  1.00  0.00    -0.206 F 
ATOM     96  C   UNL     1       6.358  10.903  -8.589  1.00  0.00     0.126 A 
ATOM     97  F   UNL     1       5.368  11.805  -8.639  1.00  0.00    -0.207 F 
ENDBRANCH  86  90
ENDBRANCH  82  84
ENDBRANCH  71  74
ENDBRANCH  69  70
ENDBRANCH  68  69
ENDBRANCH   1  68
TORSDOF 15
