REMARK SMILES O=C(NCCCNC(=O)c1n[nH]c2cc(Br)cc(Cl)c12)c1ccc(-c2c3nc(c(-c4ccc(S(=O)(=O)[O-])cc4)c4ccc([nH]4)c(-c4ccc(S(=O)(=O)[O-])cc4)c4nc(c(-c5ccc(S(=O)(=O)[O-])cc5)c5ccc2[nH]5)C=C4)C=C3)cc1
REMARK SMILES IDX 1 1 2 2 3 3 21 5 22 6 80 7 23 8 79 9 24 10 25 11 26 12 73 13
REMARK SMILES IDX 27 14 78 15 72 16 74 17 28 18 77 19 71 20 70 21 29 23 59 24
REMARK SMILES IDX 40 25 58 26 41 27 44 28 57 29 75 30 42 31 43 32 56 34 76 35
REMARK SMILES IDX 45 36 30 37 31 38 39 39 32 40 38 41 33 42 34 43 35 44 36 45
REMARK SMILES IDX 37 46 60 47 61 48 69 49 62 50 68 51 63 52 64 53 65 54 66 55
REMARK SMILES IDX 67 56 46 57 47 58 55 59 48 60 54 61 49 62 50 63 51 64 52 65
REMARK SMILES IDX 53 66 4 67 5 68 6 69 7 70 8 71 9 73 10 74 11 75 20 76 12 77
REMARK SMILES IDX 13 78 18 79 14 81 17 82 19 83 15 84 16 85
REMARK H PARENT 3 4 74 22 44 33 7 72 12 80
REMARK Flexibility Score: inf
ROOT
ATOM      1  O   UNL     1       1.241   0.876   0.258  1.00  0.00    -0.269 OA
ATOM      2  C   UNL     1       2.292   0.345  -0.113  1.00  0.00     0.251 C 
ATOM      3  N   UNL     1       3.357   1.187  -0.288  1.00  0.00    -0.352 N 
ATOM      4  H   UNL     1       3.103   2.135  -0.210  1.00  0.00     0.163 HD
ENDROOT
BRANCH   2   5
ATOM      5  C   UNL     1       2.296  -1.117  -0.388  1.00  0.00     0.039 A 
ATOM      6  C   UNL     1       3.429  -1.920  -0.511  1.00  0.00     0.014 A 
ATOM      7  C   UNL     1       1.030  -1.720  -0.526  1.00  0.00     0.014 A 
ATOM      8  C   UNL     1       3.306  -3.272  -0.837  1.00  0.00     0.010 A 
ATOM      9  C   UNL     1       0.901  -3.074  -0.830  1.00  0.00     0.010 A 
ATOM     10  C   UNL     1       2.044  -3.847  -1.012  1.00  0.00    -0.014 A 
BRANCH  10  11
ATOM     11  C   UNL     1       1.967  -5.283  -1.284  1.00  0.00     0.031 A 
ATOM     12  C   UNL     1       2.418  -6.192  -0.188  1.00  0.00     0.074 A 
ATOM     13  C   UNL     1       1.379  -5.817  -2.373  1.00  0.00     0.049 A 
ATOM     14  N   UNL     1       3.371  -7.068  -0.208  1.00  0.00    -0.248 NA
ATOM     15  C   UNL     1       1.741  -6.073   1.112  1.00  0.00     0.031 C 
ATOM     16  C   UNL     1       0.580  -5.135  -3.394  1.00  0.00     0.029 A 
ATOM     17  N   UNL     1       1.283  -7.132  -2.728  1.00  0.00    -0.354 N 
ATOM     18  C   UNL     1       3.329  -7.720   1.025  1.00  0.00     0.074 A 
ATOM     19  C   UNL     1       2.370  -7.005   1.830  1.00  0.00     0.031 C 
ATOM     20  C   UNL     1      -0.101  -6.058  -4.110  1.00  0.00     0.029 A 
ATOM     21  C   UNL     1       0.321  -7.386  -3.694  1.00  0.00     0.049 A 
ATOM     22  H   UNL     1       1.845  -7.836  -2.332  1.00  0.00     0.167 HD
ATOM     23  C   UNL     1       3.972  -8.897   1.268  1.00  0.00     0.031 A 
ATOM     24  C   UNL     1      -0.144  -8.601  -4.074  1.00  0.00     0.031 A 
ATOM     25  C   UNL     1       4.925  -9.229   0.247  1.00  0.00     0.049 A 
ATOM     26  C   UNL     1       0.854  -9.618  -3.669  1.00  0.00     0.074 A 
ATOM     27  C   UNL     1       6.093  -8.668  -0.225  1.00  0.00     0.029 A 
ATOM     28  N   UNL     1       4.550 -10.165  -0.686  1.00  0.00    -0.354 N 
ATOM     29  N   UNL     1       2.042  -9.721  -4.195  1.00  0.00    -0.248 NA
ATOM     30  C   UNL     1       0.670 -10.322  -2.410  1.00  0.00     0.031 C 
ATOM     31  C   UNL     1       6.105  -8.957  -1.621  1.00  0.00     0.029 A 
ATOM     32  C   UNL     1       4.955  -9.696  -1.909  1.00  0.00     0.049 A 
ATOM     33  H   UNL     1       4.080 -11.012  -0.509  1.00  0.00     0.167 HD
ATOM     34  C   UNL     1       2.858 -10.148  -3.159  1.00  0.00     0.074 A 
ATOM     35  C   UNL     1       1.941 -10.617  -2.127  1.00  0.00     0.031 C 
ATOM     36  C   UNL     1       4.186  -9.830  -3.128  1.00  0.00     0.031 A 
BRANCH  23  37
ATOM     37  C   UNL     1       3.530  -9.916   2.287  1.00  0.00    -0.014 A 
ATOM     38  C   UNL     1       4.386 -10.991   2.607  1.00  0.00     0.010 A 
ATOM     39  C   UNL     1       2.198 -10.000   2.739  1.00  0.00     0.010 A 
ATOM     40  C   UNL     1       3.916 -12.118   3.296  1.00  0.00     0.020 A 
ATOM     41  C   UNL     1       1.730 -11.100   3.463  1.00  0.00     0.020 A 
ATOM     42  C   UNL     1       2.583 -12.170   3.706  1.00  0.00     0.054 A 
BRANCH  42  43
ATOM     43  S   UNL     1       1.955 -13.681   4.481  1.00  0.00     0.124 S 
ATOM     44  O   UNL     1       2.042 -14.641   3.385  1.00  0.00    -0.237 OA
ATOM     45  O   UNL     1       2.898 -13.885   5.577  1.00  0.00    -0.237 OA
ATOM     46  O   UNL     1       0.600 -13.319   4.891  1.00  0.00    -0.744 OA
ENDBRANCH  42  43
ENDBRANCH  23  37
BRANCH  24  47
ATOM     47  C   UNL     1      -1.521  -8.961  -4.491  1.00  0.00    -0.014 A 
ATOM     48  C   UNL     1      -1.792 -10.205  -5.090  1.00  0.00     0.010 A 
ATOM     49  C   UNL     1      -2.617  -8.197  -4.039  1.00  0.00     0.010 A 
ATOM     50  C   UNL     1      -3.105 -10.697  -5.169  1.00  0.00     0.020 A 
ATOM     51  C   UNL     1      -3.929  -8.675  -4.124  1.00  0.00     0.020 A 
ATOM     52  C   UNL     1      -4.163  -9.938  -4.663  1.00  0.00     0.054 A 
BRANCH  52  53
ATOM     53  S   UNL     1      -5.827 -10.663  -4.592  1.00  0.00     0.124 S 
ATOM     54  O   UNL     1      -6.192 -10.744  -6.003  1.00  0.00    -0.237 OA
ATOM     55  O   UNL     1      -5.585 -11.940  -3.926  1.00  0.00    -0.237 OA
ATOM     56  O   UNL     1      -6.592  -9.695  -3.807  1.00  0.00    -0.744 OA
ENDBRANCH  52  53
ENDBRANCH  24  47
BRANCH  36  57
ATOM     57  C   UNL     1       4.826  -9.291  -4.387  1.00  0.00    -0.014 A 
ATOM     58  C   UNL     1       4.415  -8.095  -5.008  1.00  0.00     0.010 A 
ATOM     59  C   UNL     1       5.984  -9.930  -4.864  1.00  0.00     0.010 A 
ATOM     60  C   UNL     1       5.133  -7.564  -6.089  1.00  0.00     0.020 A 
ATOM     61  C   UNL     1       6.716  -9.396  -5.929  1.00  0.00     0.020 A 
ATOM     62  C   UNL     1       6.284  -8.217  -6.539  1.00  0.00     0.054 A 
BRANCH  62  63
ATOM     63  S   UNL     1       7.250  -7.479  -7.887  1.00  0.00     0.124 S 
ATOM     64  O   UNL     1       6.362  -7.631  -9.036  1.00  0.00    -0.237 OA
ATOM     65  O   UNL     1       7.451  -6.106  -7.427  1.00  0.00    -0.237 OA
ATOM     66  O   UNL     1       8.465  -8.291  -7.931  1.00  0.00    -0.744 OA
ENDBRANCH  62  63
ENDBRANCH  36  57
ENDBRANCH  10  11
ENDBRANCH   2   5
BRANCH   3  67
ATOM     67  C   UNL     1       4.770   1.012  -0.562  1.00  0.00     0.118 C 
BRANCH  67  68
ATOM     68  C   UNL     1       5.132   0.722  -2.017  1.00  0.00     0.042 C 
BRANCH  68  69
ATOM     69  C   UNL     1       4.620   1.741  -3.031  1.00  0.00     0.118 C 
BRANCH  69  70
ATOM     70  N   UNL     1       5.061   3.102  -2.772  1.00  0.00    -0.351 N 
ATOM     71  C   UNL     1       5.615   4.033  -3.630  1.00  0.00     0.272 C 
ATOM     72  H   UNL     1       4.948   3.407  -1.843  1.00  0.00     0.163 HD
ATOM     73  O   UNL     1       5.888   5.142  -3.184  1.00  0.00    -0.267 OA
BRANCH  71  74
ATOM     74  C   UNL     1       5.894   3.645  -5.019  1.00  0.00     0.159 A 
ATOM     75  N   UNL     1       7.164   3.652  -5.474  1.00  0.00    -0.169 NA
ATOM     76  C   UNL     1       4.984   3.211  -6.037  1.00  0.00     0.051 A 
ATOM     77  N   UNL     1       7.076   3.152  -6.712  1.00  0.00    -0.277 N 
ATOM     78  C   UNL     1       5.806   2.827  -7.097  1.00  0.00     0.068 A 
ATOM     79  C   UNL     1       3.595   3.054  -6.213  1.00  0.00     0.054 A 
ATOM     80  H   UNL     1       7.860   3.028  -7.296  1.00  0.00     0.190 HD
ATOM     81  C   UNL     1       5.323   2.235  -8.271  1.00  0.00     0.044 A 
ATOM     82  C   UNL     1       3.076   2.447  -7.356  1.00  0.00     0.037 A 
ATOM     83  Cl  UNL     1       2.561   3.684  -5.009  1.00  0.00    -0.083 Cl
ATOM     84  C   UNL     1       3.942   2.032  -8.362  1.00  0.00     0.021 A 
ATOM     85  Br  UNL     1       3.236   1.194  -9.906  1.00  0.00    -0.051 Br
ENDBRANCH  71  74
ENDBRANCH  69  70
ENDBRANCH  68  69
ENDBRANCH  67  68
ENDBRANCH   3  67
TORSDOF 13
