REMARK SMILES COc1cccc(-c2ccc(C#N)c(SCC(=O)NCCCNC(=O)c3ccc(-c4c5nc(c(-c6ccc(S(=O)(=O)[O-])cc6)c6ccc([nH]6)c(-c6ccc(S(=O)(=O)[O-])cc6)c6nc(c(-c7ccc(S(=O)(=O)[O-])cc7)c7ccc4[nH]7)C=C6)C=C5)cc3)n2)c1
REMARK SMILES IDX 20 1 19 2 17 3 18 4 16 6 15 7 14 8 8 9 9 10 86 11 10 12
REMARK SMILES IDX 11 13 7 14 3 15 4 16 87 17 5 18 6 19 2 20 1 21 12 22 13 23
REMARK SMILES IDX 21 24 22 25 23 26 24 27 25 29 26 30 27 31 85 32 28 33 84 34
REMARK SMILES IDX 29 35 30 36 31 37 78 38 32 39 83 40 77 41 79 42 33 43 82 44
REMARK SMILES IDX 76 45 75 46 34 48 64 49 45 50 63 51 46 52 49 53 62 54 80 55
REMARK SMILES IDX 47 56 48 57 61 59 81 60 50 61 35 62 36 63 44 64 37 65 43 66
REMARK SMILES IDX 38 67 39 68 40 69 41 70 42 71 65 72 66 73 74 74 67 75 73 76
REMARK SMILES IDX 68 77 69 78 70 79 71 80 72 81 51 82 52 83 60 84 53 85 59 86
REMARK SMILES IDX 54 87 55 88 56 89 57 90 58 91
REMARK H PARENT 19 5 23 28 79 47 49 58
REMARK Flexibility Score: inf
ROOT
ATOM      1  C   UNL     1       7.129  -1.365  -7.258  1.00  0.00     0.117 C 
ENDROOT
BRANCH   1   2
ATOM      2  N   UNL     1       8.102  -1.795  -6.274  1.00  0.00    -0.355 N 
ATOM      3  C   UNL     1       8.272  -3.007  -5.688  1.00  0.00     0.230 C 
ATOM      4  O   UNL     1       9.111  -3.077  -4.788  1.00  0.00    -0.274 OA
ATOM      5  H   UNL     1       8.738  -1.100  -5.986  1.00  0.00     0.163 HD
BRANCH   3   6
ATOM      6  C   UNL     1       7.524  -4.229  -6.176  1.00  0.00     0.176 C 
BRANCH   6   7
ATOM      7  S   UNL     1       5.759  -4.285  -5.746  1.00  0.00    -0.095 SA
BRANCH   7   8
ATOM      8  C   UNL     1       5.589  -4.178  -3.973  1.00  0.00     0.115 A 
ATOM      9  C   UNL     1       3.944  -3.671  -2.354  1.00  0.00     0.072 A 
ATOM     10  C   UNL     1       4.839  -3.912  -1.323  1.00  0.00     0.030 A 
ATOM     11  N   UNL     1       4.317  -3.779  -3.653  1.00  0.00    -0.240 NA
ATOM     12  C   UNL     1       6.123  -4.335  -1.637  1.00  0.00     0.024 A 
ATOM     13  C   UNL     1       6.501  -4.517  -2.975  1.00  0.00     0.084 A 
BRANCH   9  14
ATOM     14  C   UNL     1       2.531  -3.380  -2.061  1.00  0.00     0.004 A 
ATOM     15  C   UNL     1       0.859  -2.166  -0.758  1.00  0.00     0.119 A 
ATOM     16  C   UNL     1      -0.133  -3.035  -1.205  1.00  0.00     0.046 A 
ATOM     17  C   UNL     1       2.180  -2.343  -1.176  1.00  0.00     0.056 A 
ATOM     18  C   UNL     1       0.182  -4.043  -2.115  1.00  0.00     0.005 A 
ATOM     19  C   UNL     1       1.503  -4.208  -2.546  1.00  0.00     0.010 A 
BRANCH  15  20
ATOM     20  O   UNL     1       0.478  -1.234   0.169  1.00  0.00    -0.497 OA
ATOM     21  C   UNL     1       1.005   0.070  -0.073  1.00  0.00     0.278 C 
ENDBRANCH  15  20
ENDBRANCH   9  14
BRANCH  13  22
ATOM     22  C   UNL     1       7.751  -5.169  -3.193  1.00  0.00     0.102 C 
ATOM     23  N   UNL     1       8.743  -5.767  -3.301  1.00  0.00    -0.192 NA
ENDBRANCH  13  22
ENDBRANCH   7   8
ENDBRANCH   6   7
ENDBRANCH   3   6
ENDBRANCH   1   2
BRANCH   1  24
ATOM     24  C   UNL     1       6.073  -0.458  -6.635  1.00  0.00     0.042 C 
BRANCH  24  25
ATOM     25  C   UNL     1       6.638   0.797  -5.973  1.00  0.00     0.118 C 
BRANCH  25  26
ATOM     26  N   UNL     1       7.397   1.631  -6.895  1.00  0.00    -0.352 N 
ATOM     27  C   UNL     1       7.184   2.924  -7.303  1.00  0.00     0.251 C 
ATOM     28  H   UNL     1       8.188   1.198  -7.289  1.00  0.00     0.163 HD
ATOM     29  O   UNL     1       7.831   3.370  -8.247  1.00  0.00    -0.269 OA
BRANCH  27  30
ATOM     30  C   UNL     1       6.176   3.770  -6.630  1.00  0.00     0.039 A 
ATOM     31  C   UNL     1       5.370   4.601  -7.411  1.00  0.00     0.014 A 
ATOM     32  C   UNL     1       6.035   3.768  -5.240  1.00  0.00     0.014 A 
ATOM     33  C   UNL     1       4.382   5.378  -6.803  1.00  0.00     0.010 A 
ATOM     34  C   UNL     1       4.991   4.472  -4.645  1.00  0.00     0.010 A 
ATOM     35  C   UNL     1       4.154   5.288  -5.419  1.00  0.00    -0.014 A 
BRANCH  35  36
ATOM     36  C   UNL     1       3.026   6.021  -4.787  1.00  0.00     0.031 A 
ATOM     37  C   UNL     1       3.276   7.066  -3.734  1.00  0.00     0.074 A 
ATOM     38  C   UNL     1       1.762   5.711  -5.140  1.00  0.00     0.049 A 
ATOM     39  N   UNL     1       2.410   7.809  -3.091  1.00  0.00    -0.248 NA
ATOM     40  C   UNL     1       4.673   7.291  -3.332  1.00  0.00     0.031 C 
ATOM     41  C   UNL     1       1.386   4.678  -6.110  1.00  0.00     0.029 A 
ATOM     42  N   UNL     1       0.560   6.232  -4.730  1.00  0.00    -0.354 N 
ATOM     43  C   UNL     1       3.153   8.577  -2.203  1.00  0.00     0.074 A 
ATOM     44  C   UNL     1       4.534   8.171  -2.350  1.00  0.00     0.031 C 
ATOM     45  C   UNL     1       0.052   4.672  -6.250  1.00  0.00     0.029 A 
ATOM     46  C   UNL     1      -0.528   5.657  -5.344  1.00  0.00     0.049 A 
ATOM     47  H   UNL     1       0.484   6.949  -4.059  1.00  0.00     0.167 HD
ATOM     48  C   UNL     1       2.728   9.543  -1.353  1.00  0.00     0.031 A 
ATOM     49  C   UNL     1      -1.847   5.885  -5.192  1.00  0.00     0.031 A 
ATOM     50  C   UNL     1       1.348   9.934  -1.205  1.00  0.00     0.049 A 
ATOM     51  C   UNL     1      -2.298   6.950  -4.233  1.00  0.00     0.074 A 
ATOM     52  C   UNL     1       0.822  10.944  -0.418  1.00  0.00     0.029 A 
ATOM     53  N   UNL     1       0.276   9.323  -1.839  1.00  0.00    -0.354 N 
ATOM     54  N   UNL     1      -1.571   7.730  -3.468  1.00  0.00    -0.248 NA
ATOM     55  C   UNL     1      -3.745   7.175  -4.126  1.00  0.00     0.031 C 
ATOM     56  C   UNL     1      -0.573  10.887  -0.510  1.00  0.00     0.029 A 
ATOM     57  C   UNL     1      -0.913   9.903  -1.424  1.00  0.00     0.049 A 
ATOM     58  H   UNL     1       0.348   8.586  -2.487  1.00  0.00     0.167 HD
ATOM     59  C   UNL     1      -2.473   8.554  -2.803  1.00  0.00     0.074 A 
ATOM     60  C   UNL     1      -3.794   8.193  -3.277  1.00  0.00     0.031 C 
ATOM     61  C   UNL     1      -2.227   9.522  -1.884  1.00  0.00     0.031 A 
BRANCH  48  62
ATOM     62  C   UNL     1       3.763  10.221  -0.488  1.00  0.00    -0.014 A 
ATOM     63  C   UNL     1       4.769  11.036  -1.042  1.00  0.00     0.010 A 
ATOM     64  C   UNL     1       3.709  10.065   0.909  1.00  0.00     0.010 A 
ATOM     65  C   UNL     1       5.729  11.635  -0.221  1.00  0.00     0.020 A 
ATOM     66  C   UNL     1       4.645  10.692   1.737  1.00  0.00     0.020 A 
ATOM     67  C   UNL     1       5.662  11.457   1.164  1.00  0.00     0.054 A 
BRANCH  67  68
ATOM     68  S   UNL     1       6.918  12.251   2.204  1.00  0.00     0.124 S 
ATOM     69  O   UNL     1       8.117  11.490   1.862  1.00  0.00    -0.237 OA
ATOM     70  O   UNL     1       6.895  13.632   1.731  1.00  0.00    -0.237 OA
ATOM     71  O   UNL     1       6.422  12.051   3.563  1.00  0.00    -0.744 OA
ENDBRANCH  67  68
ENDBRANCH  48  62
BRANCH  49  72
ATOM     72  C   UNL     1      -2.827   5.079  -5.973  1.00  0.00    -0.014 A 
ATOM     73  C   UNL     1      -3.597   5.664  -6.993  1.00  0.00     0.010 A 
ATOM     74  C   UNL     1      -2.963   3.701  -5.721  1.00  0.00     0.010 A 
ATOM     75  C   UNL     1      -4.487   4.888  -7.743  1.00  0.00     0.020 A 
ATOM     76  C   UNL     1      -3.824   2.915  -6.490  1.00  0.00     0.020 A 
ATOM     77  C   UNL     1      -4.586   3.515  -7.493  1.00  0.00     0.054 A 
BRANCH  77  78
ATOM     78  S   UNL     1      -5.686   2.515  -8.533  1.00  0.00     0.124 S 
ATOM     79  O   UNL     1      -7.005   2.977  -8.113  1.00  0.00    -0.237 OA
ATOM     80  O   UNL     1      -5.278   2.902  -9.881  1.00  0.00    -0.237 OA
ATOM     81  O   UNL     1      -5.355   1.142  -8.159  1.00  0.00    -0.744 OA
ENDBRANCH  77  78
ENDBRANCH  49  72
BRANCH  61  82
ATOM     82  C   UNL     1      -3.415  10.278  -1.342  1.00  0.00    -0.014 A 
ATOM     83  C   UNL     1      -4.370   9.655  -0.519  1.00  0.00     0.010 A 
ATOM     84  C   UNL     1      -3.556  11.648  -1.633  1.00  0.00     0.010 A 
ATOM     85  C   UNL     1      -5.467  10.375  -0.037  1.00  0.00     0.020 A 
ATOM     86  C   UNL     1      -4.629  12.381  -1.121  1.00  0.00     0.020 A 
ATOM     87  C   UNL     1      -5.589  11.734  -0.341  1.00  0.00     0.054 A 
BRANCH  87  88
ATOM     88  S   UNL     1      -7.007  12.650   0.320  1.00  0.00     0.124 S 
ATOM     89  O   UNL     1      -8.116  12.089  -0.447  1.00  0.00    -0.237 OA
ATOM     90  O   UNL     1      -6.981  12.298   1.737  1.00  0.00    -0.237 OA
ATOM     91  O   UNL     1      -6.689  14.045   0.023  1.00  0.00    -0.744 OA
ENDBRANCH  87  88
ENDBRANCH  61  82
ENDBRANCH  35  36
ENDBRANCH  27  30
ENDBRANCH  25  26
ENDBRANCH  24  25
ENDBRANCH   1  24
TORSDOF 18
