REMARK SMILES CC(=O)/C=C(/C)NCC(=O)NCCCNC(=O)c1ccc(-c2c3nc(c(-c4ccc(S(=O)(=O)[O-])cc4)c4ccc([nH]4)c(-c4ccc(S(=O)(=O)[O-])cc4)c4nc(c(-c5ccc(S(=O)(=O)[O-])cc5)c5ccc2[nH]5)C=C4)C=C3)cc1
REMARK SMILES IDX 13 1 12 2 11 3 9 4 10 5 8 7 7 8 5 10 4 11 6 12 2 13 1 14
REMARK SMILES IDX 3 15 14 16 15 17 16 18 17 20 18 21 19 22 77 23 20 24 76 25
REMARK SMILES IDX 21 26 22 27 23 28 70 29 24 30 75 31 69 32 71 33 25 34 74 35
REMARK SMILES IDX 68 36 67 37 26 39 56 40 37 41 55 42 38 43 41 44 54 45 72 46
REMARK SMILES IDX 39 47 40 48 53 50 73 51 42 52 27 53 28 54 36 55 29 56 35 57
REMARK SMILES IDX 30 58 31 59 32 60 33 61 34 62 57 63 58 64 66 65 59 66 65 67
REMARK SMILES IDX 60 68 61 69 62 70 63 71 64 72 43 73 44 74 52 75 45 76 51 77
REMARK SMILES IDX 46 78 47 79 48 80 49 81 50 82
REMARK H PARENT 11 6 7 9 15 19 71 38 41 49
REMARK Flexibility Score: inf
ROOT
ATOM      1  C   UNL     1       4.701   1.634   1.384  1.00  0.00     0.042 C 
ENDROOT
BRANCH   1   2
ATOM      2  C   UNL     1       3.776   1.191   0.260  1.00  0.00     0.117 C 
BRANCH   2   3
ATOM      3  N   UNL     1       4.063  -0.153  -0.202  1.00  0.00    -0.355 N 
ATOM      4  C   UNL     1       3.498  -1.346   0.132  1.00  0.00     0.239 C 
ATOM      5  O   UNL     1       3.939  -2.349  -0.442  1.00  0.00    -0.273 OA
ATOM      6  H   UNL     1       4.786  -0.212  -0.868  1.00  0.00     0.163 HD
BRANCH   4   7
ATOM      7  C   UNL     1       2.311  -1.479   1.098  1.00  0.00     0.213 C 
BRANCH   7   8
ATOM      8  N   UNL     1       2.353  -0.610   2.257  1.00  0.00    -0.380 N 
ATOM      9  H   UNL     1       3.146  -0.756   2.822  1.00  0.00     0.160 HD
BRANCH   8  10
ATOM     10  C   UNL     1       1.518   0.382   2.739  1.00  0.00     0.011 C 
ATOM     11  C   UNL     1       0.576   1.164   2.172  1.00  0.00     0.067 C 
ATOM     12  C   UNL     1       1.818   0.695   4.209  1.00  0.00     0.064 C 
BRANCH  11  13
ATOM     13  C   UNL     1      -0.043   1.413   0.834  1.00  0.00     0.154 C 
ATOM     14  C   UNL     1       0.105   0.480  -0.327  1.00  0.00     0.093 C 
ATOM     15  O   UNL     1      -0.725   2.436   0.708  1.00  0.00    -0.295 OA
ENDBRANCH  11  13
ENDBRANCH   8  10
ENDBRANCH   7   8
ENDBRANCH   4   7
ENDBRANCH   2   3
ENDBRANCH   1   2
BRANCH   1  16
ATOM     16  C   UNL     1       6.129   1.882   0.917  1.00  0.00     0.118 C 
BRANCH  16  17
ATOM     17  N   UNL     1       6.229   3.003  -0.007  1.00  0.00    -0.352 N 
ATOM     18  C   UNL     1       7.055   4.101   0.026  1.00  0.00     0.251 C 
ATOM     19  H   UNL     1       5.611   2.970  -0.772  1.00  0.00     0.163 HD
ATOM     20  O   UNL     1       6.869   5.022  -0.759  1.00  0.00    -0.269 OA
BRANCH  18  21
ATOM     21  C   UNL     1       8.146   4.177   1.022  1.00  0.00     0.039 A 
ATOM     22  C   UNL     1       8.374   5.388   1.679  1.00  0.00     0.014 A 
ATOM     23  C   UNL     1       8.942   3.064   1.305  1.00  0.00     0.014 A 
ATOM     24  C   UNL     1       9.357   5.464   2.667  1.00  0.00     0.010 A 
ATOM     25  C   UNL     1       9.861   3.118   2.348  1.00  0.00     0.010 A 
ATOM     26  C   UNL     1      10.083   4.319   3.037  1.00  0.00    -0.014 A 
BRANCH  26  27
ATOM     27  C   UNL     1      11.074   4.358   4.142  1.00  0.00     0.031 A 
ATOM     28  C   UNL     1      12.525   4.067   3.868  1.00  0.00     0.074 A 
ATOM     29  C   UNL     1      10.657   4.593   5.403  1.00  0.00     0.049 A 
ATOM     30  N   UNL     1      13.524   3.992   4.709  1.00  0.00    -0.248 NA
ATOM     31  C   UNL     1      12.899   3.799   2.469  1.00  0.00     0.031 C 
ATOM     32  C   UNL     1       9.271   4.851   5.803  1.00  0.00     0.029 A 
ATOM     33  N   UNL     1      11.356   4.648   6.582  1.00  0.00    -0.354 N 
ATOM     34  C   UNL     1      14.637   3.657   3.948  1.00  0.00     0.074 A 
ATOM     35  C   UNL     1      14.182   3.488   2.585  1.00  0.00     0.031 C 
ATOM     36  C   UNL     1       9.228   5.067   7.128  1.00  0.00     0.029 A 
ATOM     37  C   UNL     1      10.570   4.916   7.679  1.00  0.00     0.049 A 
ATOM     38  H   UNL     1      12.329   4.509   6.638  1.00  0.00     0.167 HD
ATOM     39  C   UNL     1      15.926   3.522   4.342  1.00  0.00     0.031 A 
ATOM     40  C   UNL     1      10.891   5.019   8.983  1.00  0.00     0.031 A 
ATOM     41  C   UNL     1      16.375   3.700   5.697  1.00  0.00     0.049 A 
ATOM     42  C   UNL     1      12.327   4.844   9.399  1.00  0.00     0.074 A 
ATOM     43  C   UNL     1      17.666   3.635   6.190  1.00  0.00     0.029 A 
ATOM     44  N   UNL     1      15.548   3.973   6.777  1.00  0.00    -0.354 N 
ATOM     45  N   UNL     1      13.376   4.590   8.653  1.00  0.00    -0.248 NA
ATOM     46  C   UNL     1      12.624   4.980  10.832  1.00  0.00     0.031 C 
ATOM     47  C   UNL     1      17.614   3.811   7.576  1.00  0.00     0.029 A 
ATOM     48  C   UNL     1      16.299   4.054   7.938  1.00  0.00     0.049 A 
ATOM     49  H   UNL     1      14.572   4.093   6.726  1.00  0.00     0.167 HD
ATOM     50  C   UNL     1      14.461   4.567   9.522  1.00  0.00     0.074 A 
ATOM     51  C   UNL     1      13.943   4.849  10.845  1.00  0.00     0.031 C 
ATOM     52  C   UNL     1      15.769   4.337   9.248  1.00  0.00     0.031 A 
BRANCH  39  53
ATOM     53  C   UNL     1      16.944   3.160   3.292  1.00  0.00    -0.014 A 
ATOM     54  C   UNL     1      17.303   4.071   2.281  1.00  0.00     0.010 A 
ATOM     55  C   UNL     1      17.589   1.911   3.344  1.00  0.00     0.010 A 
ATOM     56  C   UNL     1      18.256   3.725   1.320  1.00  0.00     0.020 A 
ATOM     57  C   UNL     1      18.567   1.573   2.403  1.00  0.00     0.020 A 
ATOM     58  C   UNL     1      18.883   2.477   1.388  1.00  0.00     0.054 A 
BRANCH  58  59
ATOM     59  S   UNL     1      20.139   2.069   0.145  1.00  0.00     0.124 S 
ATOM     60  O   UNL     1      19.327   1.885  -1.055  1.00  0.00    -0.237 OA
ATOM     61  O   UNL     1      20.991   3.256   0.150  1.00  0.00    -0.237 OA
ATOM     62  O   UNL     1      20.763   0.855   0.667  1.00  0.00    -0.744 OA
ENDBRANCH  58  59
ENDBRANCH  39  53
BRANCH  40  63
ATOM     63  C   UNL     1       9.834   5.312   9.991  1.00  0.00    -0.014 A 
ATOM     64  C   UNL     1       9.809   6.546  10.665  1.00  0.00     0.010 A 
ATOM     65  C   UNL     1       8.844   4.355  10.283  1.00  0.00     0.010 A 
ATOM     66  C   UNL     1       8.830   6.808  11.628  1.00  0.00     0.020 A 
ATOM     67  C   UNL     1       7.845   4.626  11.221  1.00  0.00     0.020 A 
ATOM     68  C   UNL     1       7.853   5.846  11.899  1.00  0.00     0.054 A 
BRANCH  68  69
ATOM     69  S   UNL     1       6.568   6.224  13.123  1.00  0.00     0.124 S 
ATOM     70  O   UNL     1       7.314   6.153  14.376  1.00  0.00    -0.237 OA
ATOM     71  O   UNL     1       6.131   7.558  12.720  1.00  0.00    -0.237 OA
ATOM     72  O   UNL     1       5.582   5.165  12.921  1.00  0.00    -0.744 OA
ENDBRANCH  68  69
ENDBRANCH  40  63
BRANCH  52  73
ATOM     73  C   UNL     1      16.743   4.418  10.395  1.00  0.00    -0.014 A 
ATOM     74  C   UNL     1      16.776   3.435  11.399  1.00  0.00     0.010 A 
ATOM     75  C   UNL     1      17.678   5.469  10.433  1.00  0.00     0.010 A 
ATOM     76  C   UNL     1      17.706   3.520  12.439  1.00  0.00     0.020 A 
ATOM     77  C   UNL     1      18.630   5.539  11.453  1.00  0.00     0.020 A 
ATOM     78  C   UNL     1      18.628   4.571  12.459  1.00  0.00     0.054 A 
BRANCH  78  79
ATOM     79  S   UNL     1      19.852   4.633  13.795  1.00  0.00     0.124 S 
ATOM     80  O   UNL     1      19.033   5.022  14.940  1.00  0.00    -0.237 OA
ATOM     81  O   UNL     1      20.363   3.264  13.824  1.00  0.00    -0.237 OA
ATOM     82  O   UNL     1      20.809   5.640  13.343  1.00  0.00    -0.744 OA
ENDBRANCH  78  79
ENDBRANCH  52  73
ENDBRANCH  26  27
ENDBRANCH  18  21
ENDBRANCH  16  17
ENDBRANCH   1  16
TORSDOF 16
