REMARK SMILES CCC(CC)(NC(=O)c1cc(C)ccc1OC)C(=O)NCCCNC(=O)c1ccc(-c2c3nc(c(-c4ccc(S(=O)(=O)[O-])cc4)c4ccc([nH]4)c(-c4ccc(S(=O)(=O)[O-])cc4)c4nc(c(-c5ccc(S(=O)(=O)[O-])cc5)c5ccc2[nH]5)C=C4)C=C3)cc1
REMARK SMILES IDX 22 1 21 2 20 3 18 4 19 5 3 7 2 8 1 9 4 10 5 11 6 12 7 13
REMARK SMILES IDX 8 15 9 16 10 17 15 18 11 19 14 20 12 21 13 22 16 23 17 24
REMARK SMILES IDX 23 25 24 26 25 27 26 29 27 30 28 31 86 32 29 33 85 34 30 35
REMARK SMILES IDX 31 36 32 37 79 38 33 39 84 40 78 41 80 42 34 43 83 44 77 45
REMARK SMILES IDX 76 46 35 48 65 49 46 50 64 51 47 52 50 53 63 54 81 55 48 56
REMARK SMILES IDX 49 57 62 59 82 60 51 61 36 62 37 63 45 64 38 65 44 66 39 67
REMARK SMILES IDX 40 68 41 69 42 70 43 71 66 72 67 73 75 74 68 75 74 76 69 77
REMARK SMILES IDX 70 78 71 79 72 80 73 81 52 82 53 83 61 84 54 85 60 86 55 87
REMARK SMILES IDX 56 88 57 89 58 90 59 91
REMARK H PARENT 20 6 6 14 24 28 80 47 50 58
REMARK Flexibility Score: inf
ROOT
ATOM      1  C   UNL     1       1.941   3.937   5.164  1.00  0.00     0.042 C 
ENDROOT
BRANCH   1   2
ATOM      2  C   UNL     1       2.235   3.743   3.624  1.00  0.00     0.117 C 
BRANCH   2   3
ATOM      3  N   UNL     1       2.771   2.530   2.927  1.00  0.00    -0.354 N 
ATOM      4  C   UNL     1       2.438   1.368   2.265  1.00  0.00     0.245 C 
ATOM      5  O   UNL     1       3.421   0.834   1.716  1.00  0.00    -0.272 OA
ATOM      6  H   UNL     1       3.754   2.584   2.953  1.00  0.00     0.163 HD
BRANCH   4   7
ATOM      7  C   UNL     1       1.029   0.580   2.162  1.00  0.00     0.118 C 
BRANCH   7   8
ATOM      8  C   UNL     1       1.030  -0.265   0.824  1.00  0.00     0.035 C 
ATOM      9  C   UNL     1       1.215   0.448  -0.508  1.00  0.00     0.007 C 
ENDBRANCH   7   8
BRANCH   7  10
ATOM     10  C   UNL     1      -0.065   1.681   2.127  1.00  0.00     0.035 C 
ATOM     11  C   UNL     1      -1.499   1.247   1.853  1.00  0.00     0.007 C 
ENDBRANCH   7  10
BRANCH   7  12
ATOM     12  N   UNL     1       0.596  -0.512   3.173  1.00  0.00    -0.338 N 
ATOM     13  C   UNL     1       1.244  -1.435   3.988  1.00  0.00     0.255 C 
ATOM     14  H   UNL     1      -0.384  -0.566   3.260  1.00  0.00     0.164 HD
ATOM     15  O   UNL     1       0.723  -2.528   4.199  1.00  0.00    -0.269 OA
BRANCH  13  16
ATOM     16  C   UNL     1       2.457  -1.054   4.733  1.00  0.00     0.082 A 
ATOM     17  C   UNL     1       3.361  -1.915   5.361  1.00  0.00     0.021 A 
ATOM     18  C   UNL     1       2.667   0.280   4.933  1.00  0.00     0.131 A 
ATOM     19  C   UNL     1       4.601  -1.396   5.755  1.00  0.00    -0.050 A 
ATOM     20  C   UNL     1       3.984   0.700   4.896  1.00  0.00     0.047 A 
ATOM     21  C   UNL     1       5.479  -1.968   6.823  1.00  0.00     0.044 C 
ATOM     22  C   UNL     1       4.981  -0.196   5.190  1.00  0.00     0.007 A 
BRANCH  18  23
ATOM     23  O   UNL     1       1.662   1.191   5.053  1.00  0.00    -0.496 OA
ATOM     24  C   UNL     1       0.520   0.791   5.821  1.00  0.00     0.278 C 
ENDBRANCH  18  23
ENDBRANCH  13  16
ENDBRANCH   7  12
ENDBRANCH   4   7
ENDBRANCH   2   3
ENDBRANCH   1   2
BRANCH   1  25
ATOM     25  C   UNL     1       2.824   3.546   6.377  1.00  0.00     0.118 C 
BRANCH  25  26
ATOM     26  N   UNL     1       3.942   4.385   6.757  1.00  0.00    -0.352 N 
ATOM     27  C   UNL     1       4.582   4.173   7.996  1.00  0.00     0.251 C 
ATOM     28  H   UNL     1       4.253   5.098   6.154  1.00  0.00     0.163 HD
ATOM     29  O   UNL     1       4.042   4.032   9.056  1.00  0.00    -0.269 OA
BRANCH  27  30
ATOM     30  C   UNL     1       5.974   3.676   7.817  1.00  0.00     0.039 A 
ATOM     31  C   UNL     1       7.164   4.364   8.071  1.00  0.00     0.014 A 
ATOM     32  C   UNL     1       6.008   2.378   7.325  1.00  0.00     0.014 A 
ATOM     33  C   UNL     1       8.384   3.807   7.637  1.00  0.00     0.010 A 
ATOM     34  C   UNL     1       7.194   1.844   6.903  1.00  0.00     0.010 A 
ATOM     35  C   UNL     1       8.368   2.578   6.977  1.00  0.00    -0.014 A 
BRANCH  35  36
ATOM     36  C   UNL     1       9.442   1.930   6.236  1.00  0.00     0.031 A 
ATOM     37  C   UNL     1      10.273   0.889   6.880  1.00  0.00     0.074 A 
ATOM     38  C   UNL     1       9.424   2.052   4.885  1.00  0.00     0.049 A 
ATOM     39  N   UNL     1      11.468   0.589   6.504  1.00  0.00    -0.248 NA
ATOM     40  C   UNL     1       9.803   0.074   8.002  1.00  0.00     0.031 C 
ATOM     41  C   UNL     1      10.134   1.239   3.898  1.00  0.00     0.029 A 
ATOM     42  N   UNL     1       8.791   2.996   4.080  1.00  0.00    -0.354 N 
ATOM     43  C   UNL     1      11.793  -0.613   7.098  1.00  0.00     0.074 A 
ATOM     44  C   UNL     1      10.783  -0.834   8.106  1.00  0.00     0.031 C 
ATOM     45  C   UNL     1      10.174   1.913   2.733  1.00  0.00     0.029 A 
ATOM     46  C   UNL     1       9.633   3.238   2.992  1.00  0.00     0.049 A 
ATOM     47  H   UNL     1       7.915   3.414   4.246  1.00  0.00     0.167 HD
ATOM     48  C   UNL     1      12.776  -1.388   6.558  1.00  0.00     0.031 A 
ATOM     49  C   UNL     1      10.339   4.403   2.838  1.00  0.00     0.031 A 
ATOM     50  C   UNL     1      13.272  -0.803   5.316  1.00  0.00     0.049 A 
ATOM     51  C   UNL     1      11.839   4.182   2.895  1.00  0.00     0.074 A 
ATOM     52  C   UNL     1      12.973  -1.079   3.992  1.00  0.00     0.029 A 
ATOM     53  N   UNL     1      13.925   0.422   5.333  1.00  0.00    -0.354 N 
ATOM     54  N   UNL     1      12.398   3.144   3.454  1.00  0.00    -0.248 NA
ATOM     55  C   UNL     1      12.823   5.103   2.332  1.00  0.00     0.031 C 
ATOM     56  C   UNL     1      13.387   0.030   3.215  1.00  0.00     0.029 A 
ATOM     57  C   UNL     1      13.962   0.962   4.062  1.00  0.00     0.049 A 
ATOM     58  H   UNL     1      14.306   0.845   6.136  1.00  0.00     0.167 HD
ATOM     59  C   UNL     1      13.759   3.223   3.327  1.00  0.00     0.074 A 
ATOM     60  C   UNL     1      13.976   4.469   2.615  1.00  0.00     0.031 C 
ATOM     61  C   UNL     1      14.589   2.253   3.815  1.00  0.00     0.031 A 
BRANCH  48  62
ATOM     62  C   UNL     1      13.090  -2.811   6.963  1.00  0.00    -0.014 A 
ATOM     63  C   UNL     1      13.676  -3.677   6.013  1.00  0.00     0.010 A 
ATOM     64  C   UNL     1      12.864  -3.352   8.243  1.00  0.00     0.010 A 
ATOM     65  C   UNL     1      13.965  -5.018   6.295  1.00  0.00     0.020 A 
ATOM     66  C   UNL     1      13.131  -4.703   8.535  1.00  0.00     0.020 A 
ATOM     67  C   UNL     1      13.679  -5.529   7.556  1.00  0.00     0.054 A 
BRANCH  67  68
ATOM     68  S   UNL     1      14.062  -7.269   7.887  1.00  0.00     0.124 S 
ATOM     69  O   UNL     1      13.267  -7.964   6.878  1.00  0.00    -0.237 OA
ATOM     70  O   UNL     1      15.508  -7.315   7.689  1.00  0.00    -0.237 OA
ATOM     71  O   UNL     1      13.618  -7.465   9.266  1.00  0.00    -0.744 OA
ENDBRANCH  67  68
ENDBRANCH  48  62
BRANCH  49  72
ATOM     72  C   UNL     1       9.643   5.612   3.365  1.00  0.00    -0.014 A 
ATOM     73  C   UNL     1       8.538   6.085   2.630  1.00  0.00     0.010 A 
ATOM     74  C   UNL     1       9.753   5.950   4.728  1.00  0.00     0.010 A 
ATOM     75  C   UNL     1       7.469   6.700   3.283  1.00  0.00     0.020 A 
ATOM     76  C   UNL     1       8.681   6.571   5.384  1.00  0.00     0.020 A 
ATOM     77  C   UNL     1       7.521   6.873   4.667  1.00  0.00     0.054 A 
BRANCH  77  78
ATOM     78  S   UNL     1       5.955   7.215   5.517  1.00  0.00     0.124 S 
ATOM     79  O   UNL     1       5.569   8.511   4.976  1.00  0.00    -0.237 OA
ATOM     80  O   UNL     1       5.142   6.076   5.078  1.00  0.00    -0.237 OA
ATOM     81  O   UNL     1       6.313   7.198   6.931  1.00  0.00    -0.744 OA
ENDBRANCH  77  78
ENDBRANCH  49  72
BRANCH  61  82
ATOM     82  C   UNL     1      16.083   2.374   4.000  1.00  0.00    -0.014 A 
ATOM     83  C   UNL     1      16.782   3.588   3.963  1.00  0.00     0.010 A 
ATOM     84  C   UNL     1      16.833   1.220   4.342  1.00  0.00     0.010 A 
ATOM     85  C   UNL     1      18.168   3.639   4.162  1.00  0.00     0.020 A 
ATOM     86  C   UNL     1      18.204   1.267   4.604  1.00  0.00     0.020 A 
ATOM     87  C   UNL     1      18.871   2.476   4.473  1.00  0.00     0.054 A 
BRANCH  87  88
ATOM     88  S   UNL     1      20.654   2.572   4.745  1.00  0.00     0.124 S 
ATOM     89  O   UNL     1      21.164   2.586   3.376  1.00  0.00    -0.237 OA
ATOM     90  O   UNL     1      20.802   3.826   5.481  1.00  0.00    -0.237 OA
ATOM     91  O   UNL     1      20.953   1.367   5.514  1.00  0.00    -0.744 OA
ENDBRANCH  87  88
ENDBRANCH  61  82
ENDBRANCH  35  36
ENDBRANCH  27  30
ENDBRANCH  25  26
ENDBRANCH   1  25
TORSDOF 18
