REMARK SMILES O=C(NCCCNC(=O)[C@H]1CC2=c3ccccc3=N[C@H]2[C@H](c2ccccc2F)[NH2+]1)c1ccc(-c2c3nc(c(-c4ccc(S(=O)(=O)[O-])cc4)c4ccc([nH]4)c(-c4ccc(S(=O)(=O)[O-])cc4)c4nc(c(-c5ccc(S(=O)(=O)[O-])cc5)c5ccc2[nH]5)C=C4)C=C3)cc1
REMARK SMILES IDX 4 1 3 2 1 3 2 4 30 6 31 7 89 8 32 9 88 10 33 11 34 12 35 13
REMARK SMILES IDX 82 14 36 15 87 16 81 17 83 18 37 19 86 20 80 21 79 22 38 24
REMARK SMILES IDX 68 25 49 26 67 27 50 28 53 29 66 30 84 31 51 32 52 33 65 35
REMARK SMILES IDX 85 36 54 37 39 38 40 39 48 40 41 41 47 42 42 43 43 44 44 45
REMARK SMILES IDX 45 46 46 47 69 48 70 49 78 50 71 51 77 52 72 53 73 54 74 55
REMARK SMILES IDX 75 56 76 57 55 58 56 59 64 60 57 61 63 62 58 63 59 64 60 65
REMARK SMILES IDX 61 66 62 67 5 68 6 69 7 70 8 71 9 73 10 74 11 75 29 76 12 77
REMARK SMILES IDX 21 78 13 81 20 82 14 83 18 84 19 85 15 86 17 87 16 88 22 89
REMARK SMILES IDX 23 90 27 91 24 92 26 93 28 94 25 95
REMARK H PARENT 3 5 83 23 53 34 7 72 29 79 29 80
REMARK Flexibility Score: inf
ROOT
ATOM      1  C   UNL     1       4.409  -1.185  -0.727  1.00  0.00     0.118 C 
ENDROOT
BRANCH   1   2
ATOM      2  N   UNL     1       3.002  -0.832  -0.798  1.00  0.00    -0.352 N 
ATOM      3  O   UNL     1       1.071   0.084  -0.135  1.00  0.00    -0.269 OA
ATOM      4  C   UNL     1       2.305   0.163  -0.168  1.00  0.00     0.251 C 
ATOM      5  H   UNL     1       2.464  -1.399  -1.395  1.00  0.00     0.163 HD
BRANCH   4   6
ATOM      6  C   UNL     1       2.980   1.324   0.459  1.00  0.00     0.039 A 
ATOM      7  C   UNL     1       2.370   1.942   1.557  1.00  0.00     0.014 A 
ATOM      8  C   UNL     1       4.133   1.892  -0.090  1.00  0.00     0.014 A 
ATOM      9  C   UNL     1       2.903   3.120   2.088  1.00  0.00     0.010 A 
ATOM     10  C   UNL     1       4.721   3.008   0.501  1.00  0.00     0.010 A 
ATOM     11  C   UNL     1       4.081   3.667   1.559  1.00  0.00    -0.014 A 
BRANCH  11  12
ATOM     12  C   UNL     1       4.578   5.000   1.989  1.00  0.00     0.031 A 
ATOM     13  C   UNL     1       4.590   6.136   0.993  1.00  0.00     0.074 A 
ATOM     14  C   UNL     1       5.021   5.199   3.245  1.00  0.00     0.049 A 
ATOM     15  N   UNL     1       5.061   7.348   1.130  1.00  0.00    -0.248 NA
ATOM     16  C   UNL     1       4.019   5.866  -0.340  1.00  0.00     0.031 C 
ATOM     17  C   UNL     1       5.056   4.186   4.301  1.00  0.00     0.029 A 
ATOM     18  N   UNL     1       5.516   6.327   3.850  1.00  0.00    -0.354 N 
ATOM     19  C   UNL     1       4.868   7.969  -0.099  1.00  0.00     0.074 A 
ATOM     20  C   UNL     1       4.287   6.990  -0.987  1.00  0.00     0.031 C 
ATOM     21  C   UNL     1       5.505   4.750   5.435  1.00  0.00     0.029 A 
ATOM     22  C   UNL     1       5.831   6.152   5.178  1.00  0.00     0.049 A 
ATOM     23  H   UNL     1       5.636   7.183   3.378  1.00  0.00     0.167 HD
ATOM     24  C   UNL     1       5.121   9.251  -0.450  1.00  0.00     0.031 A 
ATOM     25  C   UNL     1       6.319   7.020   6.086  1.00  0.00     0.031 A 
ATOM     26  C   UNL     1       5.640  10.241   0.453  1.00  0.00     0.049 A 
ATOM     27  C   UNL     1       6.586   8.443   5.676  1.00  0.00     0.074 A 
ATOM     28  C   UNL     1       5.902  11.575   0.199  1.00  0.00     0.029 A 
ATOM     29  N   UNL     1       5.942  10.016   1.786  1.00  0.00    -0.354 N 
ATOM     30  N   UNL     1       6.404   9.008   4.506  1.00  0.00    -0.248 NA
ATOM     31  C   UNL     1       7.114   9.350   6.705  1.00  0.00     0.031 C 
ATOM     32  C   UNL     1       6.396  12.150   1.371  1.00  0.00     0.029 A 
ATOM     33  C   UNL     1       6.388  11.187   2.368  1.00  0.00     0.049 A 
ATOM     34  H   UNL     1       5.851   9.152   2.249  1.00  0.00     0.167 HD
ATOM     35  C   UNL     1       6.767  10.340   4.667  1.00  0.00     0.074 A 
ATOM     36  C   UNL     1       7.173  10.502   6.047  1.00  0.00     0.031 C 
ATOM     37  C   UNL     1       6.765  11.337   3.750  1.00  0.00     0.031 A 
BRANCH  24  38
ATOM     38  C   UNL     1       4.809   9.682  -1.857  1.00  0.00    -0.014 A 
ATOM     39  C   UNL     1       5.854  10.031  -2.732  1.00  0.00     0.010 A 
ATOM     40  C   UNL     1       3.478   9.857  -2.276  1.00  0.00     0.010 A 
ATOM     41  C   UNL     1       5.576  10.578  -3.987  1.00  0.00     0.020 A 
ATOM     42  C   UNL     1       3.195  10.378  -3.541  1.00  0.00     0.020 A 
ATOM     43  C   UNL     1       4.246  10.759  -4.378  1.00  0.00     0.054 A 
BRANCH  43  44
ATOM     44  S   UNL     1       3.901  11.501  -5.997  1.00  0.00     0.124 S 
ATOM     45  O   UNL     1       4.160  12.915  -5.748  1.00  0.00    -0.237 OA
ATOM     46  O   UNL     1       4.859  10.827  -6.870  1.00  0.00    -0.237 OA
ATOM     47  O   UNL     1       2.502  11.153  -6.239  1.00  0.00    -0.744 OA
ENDBRANCH  43  44
ENDBRANCH  24  38
BRANCH  25  48
ATOM     48  C   UNL     1       6.534   6.571   7.489  1.00  0.00    -0.014 A 
ATOM     49  C   UNL     1       7.561   5.664   7.804  1.00  0.00     0.010 A 
ATOM     50  C   UNL     1       5.672   7.010   8.510  1.00  0.00     0.010 A 
ATOM     51  C   UNL     1       7.700   5.173   9.106  1.00  0.00     0.020 A 
ATOM     52  C   UNL     1       5.824   6.541   9.819  1.00  0.00     0.020 A 
ATOM     53  C   UNL     1       6.821   5.606  10.102  1.00  0.00     0.054 A 
BRANCH  53  54
ATOM     54  S   UNL     1       7.000   4.936  11.779  1.00  0.00     0.124 S 
ATOM     55  O   UNL     1       6.355   3.632  11.649  1.00  0.00    -0.237 OA
ATOM     56  O   UNL     1       8.448   4.906  11.962  1.00  0.00    -0.237 OA
ATOM     57  O   UNL     1       6.290   5.907  12.610  1.00  0.00    -0.744 OA
ENDBRANCH  53  54
ENDBRANCH  25  48
BRANCH  37  58
ATOM     58  C   UNL     1       7.182  12.715   4.187  1.00  0.00    -0.014 A 
ATOM     59  C   UNL     1       6.221  13.741   4.250  1.00  0.00     0.010 A 
ATOM     60  C   UNL     1       8.539  13.030   4.373  1.00  0.00     0.010 A 
ATOM     61  C   UNL     1       6.611  15.066   4.451  1.00  0.00     0.020 A 
ATOM     62  C   UNL     1       8.931  14.352   4.599  1.00  0.00     0.020 A 
ATOM     63  C   UNL     1       7.967  15.365   4.608  1.00  0.00     0.054 A 
BRANCH  63  64
ATOM     64  S   UNL     1       8.464  17.096   4.817  1.00  0.00     0.124 S 
ATOM     65  O   UNL     1       8.415  17.597   3.447  1.00  0.00    -0.237 OA
ATOM     66  O   UNL     1       7.440  17.621   5.717  1.00  0.00    -0.237 OA
ATOM     67  O   UNL     1       9.801  16.998   5.400  1.00  0.00    -0.744 OA
ENDBRANCH  63  64
ENDBRANCH  37  58
ENDBRANCH  11  12
ENDBRANCH   4   6
ENDBRANCH   1   2
BRANCH   1  68
ATOM     68  C   UNL     1       4.644  -2.363   0.206  1.00  0.00     0.042 C 
BRANCH  68  69
ATOM     69  C   UNL     1       4.128  -3.689  -0.339  1.00  0.00     0.118 C 
BRANCH  69  70
ATOM     70  N   UNL     1       4.836  -4.079  -1.543  1.00  0.00    -0.351 N 
ATOM     71  C   UNL     1       5.850  -4.965  -1.752  1.00  0.00     0.278 C 
ATOM     72  H   UNL     1       4.528  -3.620  -2.358  1.00  0.00     0.163 HD
ATOM     73  O   UNL     1       6.395  -4.936  -2.861  1.00  0.00    -0.268 OA
BRANCH  71  74
ATOM     74  C   UNL     1       6.310  -5.959  -0.668  1.00  0.00     0.277 C 
ATOM     75  C   UNL     1       7.029  -5.274   0.516  1.00  0.00     0.109 C 
ATOM     76  N   UNL     1       5.183  -6.875  -0.326  1.00  0.00    -0.327 N 
ATOM     77  C   UNL     1       6.424  -5.709   1.805  1.00  0.00    -0.024 C 
ATOM     78  C   UNL     1       5.553  -7.875   0.705  1.00  0.00     0.246 C 
ATOM     79  H   UNL     1       4.894  -7.368  -1.171  1.00  0.00     0.347 HD
ATOM     80  H   UNL     1       4.426  -6.305   0.054  1.00  0.00     0.347 HD
ATOM     81  C   UNL     1       5.945  -5.007   2.825  1.00  0.00     0.002 A 
ATOM     82  C   UNL     1       6.172  -7.182   1.981  1.00  0.00     0.196 C 
ATOM     83  C   UNL     1       5.918  -3.629   3.188  1.00  0.00     0.010 A 
ATOM     84  C   UNL     1       5.213  -6.033   3.590  1.00  0.00     0.066 A 
ATOM     85  N   UNL     1       5.257  -7.260   3.160  1.00  0.00    -0.270 NA
ATOM     86  C   UNL     1       5.198  -3.259   4.260  1.00  0.00     0.001 A 
ATOM     87  C   UNL     1       4.440  -5.545   4.755  1.00  0.00     0.028 A 
ATOM     88  C   UNL     1       4.450  -4.231   5.040  1.00  0.00     0.002 A 
BRANCH  78  89
ATOM     89  C   UNL     1       6.407  -9.030   0.162  1.00  0.00     0.048 A 
ATOM     90  C   UNL     1       7.016  -9.931   1.060  1.00  0.00     0.013 A 
ATOM     91  C   UNL     1       6.580  -9.296  -1.207  1.00  0.00     0.132 A 
ATOM     92  C   UNL     1       7.842 -10.967   0.610  1.00  0.00     0.001 A 
ATOM     93  C   UNL     1       7.407 -10.324  -1.661  1.00  0.00     0.040 A 
ATOM     94  F   UNL     1       5.960  -8.571  -2.149  1.00  0.00    -0.206 F 
ATOM     95  C   UNL     1       8.054 -11.152  -0.752  1.00  0.00     0.003 A 
ENDBRANCH  78  89
ENDBRANCH  71  74
ENDBRANCH  69  70
ENDBRANCH  68  69
ENDBRANCH   1  68
TORSDOF 14
