REMARK SMILES CN(C(=O)N[C@@](C)(C(=O)NCCCNC(=O)c1ccc(-c2c3nc(c(-c4ccc(S(=O)(=O)[O-])cc4)c4ccc([nH]4)c(-c4ccc(S(=O)(=O)[O-])cc4)c4nc(c(-c5ccc(S(=O)(=O)[O-])cc5)c5ccc2[nH]5)C=C4)C=C3)cc1)C(F)(F)F)c1ccc(F)cc1
REMARK SMILES IDX 12 1 11 2 10 3 8 4 9 5 6 7 7 8 5 9 3 10 4 11 2 13 1 14 81 15
REMARK SMILES IDX 82 16 87 17 83 18 86 19 84 20 85 21 77 22 78 23 79 24 80 25
REMARK SMILES IDX 13 26 14 27 15 28 16 30 17 31 18 32 76 33 19 34 75 35 20 36
REMARK SMILES IDX 21 37 22 38 69 39 23 40 74 41 68 42 70 43 24 44 73 45 67 46
REMARK SMILES IDX 66 47 25 49 55 50 36 51 54 52 37 53 40 54 53 55 71 56 38 57
REMARK SMILES IDX 39 58 52 60 72 61 41 62 26 63 27 64 35 65 28 66 34 67 29 68
REMARK SMILES IDX 30 69 31 70 32 71 33 72 56 73 57 74 65 75 58 76 64 77 59 78
REMARK SMILES IDX 60 79 61 80 62 81 63 82 42 83 43 84 51 85 44 86 50 87 45 88
REMARK SMILES IDX 46 89 47 90 48 91 49 92
REMARK H PARENT 10 6 5 12 14 29 70 48 40 59
REMARK Flexibility Score: inf
ROOT
ATOM      1  C   UNL     1      -1.507  -4.306   3.967  1.00  0.00     0.042 C 
ENDROOT
BRANCH   1   2
ATOM      2  C   UNL     1      -1.498  -2.783   3.971  1.00  0.00     0.117 C 
BRANCH   2   3
ATOM      3  N   UNL     1      -0.148  -2.255   4.039  1.00  0.00    -0.354 N 
ATOM      4  C   UNL     1       0.560  -1.341   3.329  1.00  0.00     0.255 C 
ATOM      5  O   UNL     1       1.762  -1.318   3.617  1.00  0.00    -0.272 OA
ATOM      6  H   UNL     1       0.376  -2.652   4.772  1.00  0.00     0.163 HD
BRANCH   4   7
ATOM      7  C   UNL     1      -0.034  -0.459   2.202  1.00  0.00     0.213 C 
ATOM      8  C   UNL     1      -1.369   0.202   2.601  1.00  0.00     0.056 C 
BRANCH   7   9
ATOM      9  N   UNL     1      -0.311  -1.405   1.056  1.00  0.00    -0.316 N 
ATOM     10  C   UNL     1       0.023  -1.776  -0.190  1.00  0.00     0.322 C 
ATOM     11  O   UNL     1      -0.408  -2.903  -0.466  1.00  0.00    -0.248 OA
ATOM     12  H   UNL     1      -1.043  -1.997   1.344  1.00  0.00     0.166 HD
BRANCH  10  13
ATOM     13  N   UNL     1       0.745  -1.027  -1.072  1.00  0.00    -0.298 N 
ATOM     14  C   UNL     1       1.028   0.389  -0.952  1.00  0.00     0.155 C 
BRANCH  13  15
ATOM     15  C   UNL     1       1.063  -1.535  -2.379  1.00  0.00     0.045 A 
ATOM     16  C   UNL     1       0.069  -2.071  -3.210  1.00  0.00     0.029 A 
ATOM     17  C   UNL     1       2.349  -1.318  -2.905  1.00  0.00     0.029 A 
ATOM     18  C   UNL     1       0.342  -2.324  -4.559  1.00  0.00     0.041 A 
ATOM     19  C   UNL     1       2.625  -1.595  -4.244  1.00  0.00     0.041 A 
ATOM     20  C   UNL     1       1.613  -2.074  -5.064  1.00  0.00     0.123 A 
ATOM     21  F   UNL     1       1.860  -2.275  -6.365  1.00  0.00    -0.207 F 
ENDBRANCH  13  15
ENDBRANCH  10  13
ENDBRANCH   7   9
BRANCH   7  22
ATOM     22  C   UNL     1       0.995   0.697   2.129  1.00  0.00     0.420 C 
ATOM     23  F   UNL     1       2.198   0.341   1.643  1.00  0.00    -0.168 F 
ATOM     24  F   UNL     1       0.538   1.727   1.369  1.00  0.00    -0.168 F 
ATOM     25  F   UNL     1       1.197   1.258   3.353  1.00  0.00    -0.168 F 
ENDBRANCH   7  22
ENDBRANCH   4   7
ENDBRANCH   2   3
ENDBRANCH   1   2
BRANCH   1  26
ATOM     26  C   UNL     1      -0.816  -4.957   5.159  1.00  0.00     0.118 C 
BRANCH  26  27
ATOM     27  N   UNL     1      -1.426  -4.613   6.436  1.00  0.00    -0.352 N 
ATOM     28  C   UNL     1      -2.033  -5.426   7.364  1.00  0.00     0.251 C 
ATOM     29  H   UNL     1      -1.401  -3.657   6.669  1.00  0.00     0.163 HD
ATOM     30  O   UNL     1      -2.641  -4.925   8.307  1.00  0.00    -0.269 OA
BRANCH  28  31
ATOM     31  C   UNL     1      -1.982  -6.896   7.207  1.00  0.00     0.039 A 
ATOM     32  C   UNL     1      -3.149  -7.640   7.397  1.00  0.00     0.014 A 
ATOM     33  C   UNL     1      -0.793  -7.536   6.850  1.00  0.00     0.014 A 
ATOM     34  C   UNL     1      -3.139  -9.014   7.147  1.00  0.00     0.010 A 
ATOM     35  C   UNL     1      -0.809  -8.885   6.509  1.00  0.00     0.010 A 
ATOM     36  C   UNL     1      -1.982  -9.640   6.654  1.00  0.00    -0.014 A 
BRANCH  36  37
ATOM     37  C   UNL     1      -1.977 -11.078   6.277  1.00  0.00     0.031 A 
ATOM     38  C   UNL     1      -1.063 -12.042   6.984  1.00  0.00     0.074 A 
ATOM     39  C   UNL     1      -2.743 -11.501   5.251  1.00  0.00     0.049 A 
ATOM     40  N   UNL     1      -0.869 -13.315   6.751  1.00  0.00    -0.248 NA
ATOM     41  C   UNL     1      -0.239 -11.501   8.078  1.00  0.00     0.031 C 
ATOM     42  C   UNL     1      -3.640 -10.657   4.457  1.00  0.00     0.029 A 
ATOM     43  N   UNL     1      -2.884 -12.747   4.693  1.00  0.00    -0.354 N 
ATOM     44  C   UNL     1       0.108 -13.721   7.654  1.00  0.00     0.074 A 
ATOM     45  C   UNL     1       0.506 -12.548   8.400  1.00  0.00     0.031 C 
ATOM     46  C   UNL     1      -4.260 -11.415   3.539  1.00  0.00     0.029 A 
ATOM     47  C   UNL     1      -3.771 -12.786   3.642  1.00  0.00     0.049 A 
ATOM     48  H   UNL     1      -2.396 -13.540   5.015  1.00  0.00     0.167 HD
ATOM     49  C   UNL     1       0.613 -14.960   7.859  1.00  0.00     0.031 A 
ATOM     50  C   UNL     1      -4.142 -13.805   2.843  1.00  0.00     0.031 A 
ATOM     51  C   UNL     1       0.210 -16.126   7.117  1.00  0.00     0.049 A 
ATOM     52  C   UNL     1      -3.550 -15.169   3.075  1.00  0.00     0.074 A 
ATOM     53  C   UNL     1       0.622 -17.436   7.285  1.00  0.00     0.029 A 
ATOM     54  N   UNL     1      -0.691 -16.122   6.062  1.00  0.00    -0.354 N 
ATOM     55  N   UNL     1      -2.679 -15.546   3.981  1.00  0.00    -0.248 NA
ATOM     56  C   UNL     1      -3.998 -16.246   2.182  1.00  0.00     0.031 C 
ATOM     57  C   UNL     1       0.017 -18.214   6.293  1.00  0.00     0.029 A 
ATOM     58  C   UNL     1      -0.825 -17.402   5.550  1.00  0.00     0.049 A 
ATOM     59  H   UNL     1      -1.165 -15.327   5.728  1.00  0.00     0.167 HD
ATOM     60  C   UNL     1      -2.495 -16.910   3.783  1.00  0.00     0.074 A 
ATOM     61  C   UNL     1      -3.358 -17.294   2.685  1.00  0.00     0.031 C 
ATOM     62  C   UNL     1      -1.685 -17.768   4.452  1.00  0.00     0.031 A 
BRANCH  49  63
ATOM     63  C   UNL     1       1.668 -15.116   8.925  1.00  0.00    -0.014 A 
ATOM     64  C   UNL     1       1.356 -14.955  10.288  1.00  0.00     0.010 A 
ATOM     65  C   UNL     1       2.983 -15.461   8.562  1.00  0.00     0.010 A 
ATOM     66  C   UNL     1       2.348 -15.091  11.263  1.00  0.00     0.020 A 
ATOM     67  C   UNL     1       3.971 -15.629   9.537  1.00  0.00     0.020 A 
ATOM     68  C   UNL     1       3.650 -15.425  10.881  1.00  0.00     0.054 A 
BRANCH  68  69
ATOM     69  S   UNL     1       4.912 -15.611  12.170  1.00  0.00     0.124 S 
ATOM     70  O   UNL     1       5.117 -14.228  12.593  1.00  0.00    -0.237 OA
ATOM     71  O   UNL     1       4.247 -16.473  13.145  1.00  0.00    -0.237 OA
ATOM     72  O   UNL     1       6.038 -16.221  11.469  1.00  0.00    -0.744 OA
ENDBRANCH  68  69
ENDBRANCH  49  63
BRANCH  50  73
ATOM     73  C   UNL     1      -5.135 -13.576   1.757  1.00  0.00    -0.014 A 
ATOM     74  C   UNL     1      -6.426 -14.128   1.841  1.00  0.00     0.010 A 
ATOM     75  C   UNL     1      -4.801 -12.789   0.639  1.00  0.00     0.010 A 
ATOM     76  C   UNL     1      -7.357 -13.912   0.821  1.00  0.00     0.020 A 
ATOM     77  C   UNL     1      -5.740 -12.545  -0.368  1.00  0.00     0.020 A 
ATOM     78  C   UNL     1      -7.010 -13.117  -0.275  1.00  0.00     0.054 A 
BRANCH  78  79
ATOM     79  S   UNL     1      -8.255 -12.805  -1.557  1.00  0.00     0.124 S 
ATOM     80  O   UNL     1      -8.342 -14.102  -2.220  1.00  0.00    -0.237 OA
ATOM     81  O   UNL     1      -9.424 -12.416  -0.771  1.00  0.00    -0.237 OA
ATOM     82  O   UNL     1      -7.665 -11.731  -2.353  1.00  0.00    -0.744 OA
ENDBRANCH  78  79
ENDBRANCH  50  73
BRANCH  62  83
ATOM     83  C   UNL     1      -1.713 -19.216   4.036  1.00  0.00    -0.014 A 
ATOM     84  C   UNL     1      -1.163 -19.637   2.813  1.00  0.00     0.010 A 
ATOM     85  C   UNL     1      -2.253 -20.177   4.911  1.00  0.00     0.010 A 
ATOM     86  C   UNL     1      -1.182 -20.988   2.458  1.00  0.00     0.020 A 
ATOM     87  C   UNL     1      -2.244 -21.533   4.574  1.00  0.00     0.020 A 
ATOM     88  C   UNL     1      -1.722 -21.928   3.342  1.00  0.00     0.054 A 
BRANCH  88  89
ATOM     89  S   UNL     1      -1.694 -23.680   2.875  1.00  0.00     0.124 S 
ATOM     90  O   UNL     1      -2.711 -23.733   1.829  1.00  0.00    -0.237 OA
ATOM     91  O   UNL     1      -0.317 -23.870   2.425  1.00  0.00    -0.237 OA
ATOM     92  O   UNL     1      -2.039 -24.375   4.114  1.00  0.00    -0.744 OA
ENDBRANCH  88  89
ENDBRANCH  62  83
ENDBRANCH  36  37
ENDBRANCH  28  31
ENDBRANCH  26  27
ENDBRANCH   1  26
TORSDOF 17
