REMARK SMILES CS(=O)(=O)c1ccc(-c2csc(=O)n2CC(=O)NCCCNC(=O)c2ccc(-c3c4nc(c(-c5ccc(S(=O)(=O)[O-])cc5)c5ccc([nH]5)c(-c5ccc(S(=O)(=O)[O-])cc5)c5nc(c(-c6ccc(S(=O)(=O)[O-])cc6)c6ccc3[nH]6)C=C5)C=C4)cc2)cc1
REMARK SMILES IDX 20 1 19 2 18 3 16 4 17 5 15 7 14 8 9 9 10 10 11 11 12 12
REMARK SMILES IDX 13 13 8 14 5 15 6 16 86 17 7 18 85 19 2 20 1 21 3 22 4 23
REMARK SMILES IDX 21 24 22 25 23 26 24 28 25 29 26 30 84 31 27 32 83 33 28 34
REMARK SMILES IDX 29 35 30 36 77 37 31 38 82 39 76 40 78 41 32 42 81 43 75 44
REMARK SMILES IDX 74 45 33 47 63 48 44 49 62 50 45 51 48 52 61 53 79 54 46 55
REMARK SMILES IDX 47 56 60 58 80 59 49 60 34 61 35 62 43 63 36 64 42 65 37 66
REMARK SMILES IDX 38 67 39 68 40 69 41 70 64 71 65 72 73 73 66 74 72 75 67 76
REMARK SMILES IDX 68 77 69 78 70 79 71 80 50 81 51 82 59 83 52 84 58 85 53 86
REMARK SMILES IDX 54 87 55 88 56 89 57 90
REMARK H PARENT 18 6 22 27 78 46 48 57
REMARK Flexibility Score: inf
ROOT
ATOM      1  C   UNL     1      -0.913   4.183  -5.516  1.00  0.00     0.042 C 
ENDROOT
BRANCH   1   2
ATOM      2  C   UNL     1      -1.240   2.793  -6.060  1.00  0.00     0.117 C 
BRANCH   2   3
ATOM      3  N   UNL     1      -1.265   2.738  -7.506  1.00  0.00    -0.354 N 
ATOM      4  C   UNL     1      -0.324   2.229  -8.355  1.00  0.00     0.240 C 
ATOM      5  O   UNL     1      -0.683   1.953  -9.502  1.00  0.00    -0.273 OA
ATOM      6  H   UNL     1      -2.066   3.117  -7.934  1.00  0.00     0.163 HD
BRANCH   4   7
ATOM      7  C   UNL     1       1.079   1.856  -7.854  1.00  0.00     0.226 C 
BRANCH   7   8
ATOM      8  N   UNL     1       1.858   2.953  -7.300  1.00  0.00    -0.289 N 
ATOM      9  C   UNL     1       2.363   3.075  -6.008  1.00  0.00     0.063 A 
ATOM     10  C   UNL     1       3.093   4.188  -5.828  1.00  0.00     0.097 A 
ATOM     11  S   UNL     1       3.221   5.134  -7.271  1.00  0.00    -0.082 S 
ATOM     12  C   UNL     1       2.254   3.964  -8.180  1.00  0.00     0.308 A 
ATOM     13  O   UNL     1       2.011   4.067  -9.361  1.00  0.00    -0.257 OA
BRANCH   9  14
ATOM     14  C   UNL     1       2.085   2.150  -4.899  1.00  0.00    -0.001 A 
ATOM     15  C   UNL     1       1.200   0.406  -2.892  1.00  0.00     0.067 A 
ATOM     16  C   UNL     1       1.909  -0.096  -3.986  1.00  0.00     0.021 A 
ATOM     17  C   UNL     1       0.983   1.775  -2.756  1.00  0.00     0.021 A 
ATOM     18  C   UNL     1       2.350   0.778  -4.987  1.00  0.00     0.011 A 
ATOM     19  C   UNL     1       1.467   2.640  -3.736  1.00  0.00     0.011 A 
BRANCH  15  20
ATOM     20  S   UNL     1       0.533  -0.701  -1.674  1.00  0.00     0.175 S 
ATOM     21  C   UNL     1       1.107  -0.058  -0.124  1.00  0.00     0.163 C 
ATOM     22  O   UNL     1       1.165  -1.993  -1.866  1.00  0.00    -0.224 OA
ATOM     23  O   UNL     1      -0.908  -0.553  -1.725  1.00  0.00    -0.224 OA
ENDBRANCH  15  20
ENDBRANCH   9  14
ENDBRANCH   7   8
ENDBRANCH   4   7
ENDBRANCH   2   3
ENDBRANCH   1   2
BRANCH   1  24
ATOM     24  C   UNL     1      -2.108   5.111  -5.512  1.00  0.00     0.118 C 
BRANCH  24  25
ATOM     25  N   UNL     1      -3.107   4.712  -4.512  1.00  0.00    -0.352 N 
ATOM     26  C   UNL     1      -4.339   5.286  -4.263  1.00  0.00     0.251 C 
ATOM     27  H   UNL     1      -2.869   3.940  -3.950  1.00  0.00     0.163 HD
ATOM     28  O   UNL     1      -4.918   5.088  -3.202  1.00  0.00    -0.269 OA
BRANCH  26  29
ATOM     29  C   UNL     1      -4.914   6.160  -5.297  1.00  0.00     0.039 A 
ATOM     30  C   UNL     1      -5.499   7.386  -4.979  1.00  0.00     0.014 A 
ATOM     31  C   UNL     1      -4.747   5.771  -6.620  1.00  0.00     0.014 A 
ATOM     32  C   UNL     1      -5.813   8.262  -6.016  1.00  0.00     0.010 A 
ATOM     33  C   UNL     1      -4.854   6.710  -7.609  1.00  0.00     0.010 A 
ATOM     34  C   UNL     1      -5.452   7.934  -7.333  1.00  0.00    -0.014 A 
BRANCH  34  35
ATOM     35  C   UNL     1      -5.624   8.888  -8.424  1.00  0.00     0.031 A 
ATOM     36  C   UNL     1      -5.104  10.260  -8.174  1.00  0.00     0.074 A 
ATOM     37  C   UNL     1      -6.036   8.536  -9.662  1.00  0.00     0.049 A 
ATOM     38  N   UNL     1      -5.790  11.344  -8.018  1.00  0.00    -0.248 NA
ATOM     39  C   UNL     1      -3.659  10.432  -7.961  1.00  0.00     0.031 C 
ATOM     40  C   UNL     1      -6.292   7.194 -10.204  1.00  0.00     0.029 A 
ATOM     41  N   UNL     1      -6.193   9.328 -10.754  1.00  0.00    -0.354 N 
ATOM     42  C   UNL     1      -4.863  12.374  -7.892  1.00  0.00     0.074 A 
ATOM     43  C   UNL     1      -3.583  11.739  -7.696  1.00  0.00     0.031 C 
ATOM     44  C   UNL     1      -6.309   7.246 -11.553  1.00  0.00     0.029 A 
ATOM     45  C   UNL     1      -6.279   8.637 -11.955  1.00  0.00     0.049 A 
ATOM     46  H   UNL     1      -6.243  10.310 -10.698  1.00  0.00     0.167 HD
ATOM     47  C   UNL     1      -5.181  13.670  -8.174  1.00  0.00     0.031 A 
ATOM     48  C   UNL     1      -6.309   9.170 -13.199  1.00  0.00     0.031 A 
ATOM     49  C   UNL     1      -6.603  13.860  -8.298  1.00  0.00     0.049 A 
ATOM     50  C   UNL     1      -6.759  10.575 -13.052  1.00  0.00     0.074 A 
ATOM     51  C   UNL     1      -7.683  13.655  -7.461  1.00  0.00     0.029 A 
ATOM     52  N   UNL     1      -7.125  13.925  -9.570  1.00  0.00    -0.354 N 
ATOM     53  N   UNL     1      -7.948  10.905 -12.629  1.00  0.00    -0.248 NA
ATOM     54  C   UNL     1      -5.749  11.615 -12.936  1.00  0.00     0.031 C 
ATOM     55  C   UNL     1      -8.695  13.101  -8.301  1.00  0.00     0.029 A 
ATOM     56  C   UNL     1      -8.204  13.077  -9.609  1.00  0.00     0.049 A 
ATOM     57  H   UNL     1      -6.787  14.477 -10.313  1.00  0.00     0.167 HD
ATOM     58  C   UNL     1      -7.745  12.006 -11.809  1.00  0.00     0.074 A 
ATOM     59  C   UNL     1      -6.391  12.460 -12.123  1.00  0.00     0.031 C 
ATOM     60  C   UNL     1      -8.580  12.281 -10.762  1.00  0.00     0.031 A 
BRANCH  47  61
ATOM     61  C   UNL     1      -4.188  14.683  -8.684  1.00  0.00    -0.014 A 
ATOM     62  C   UNL     1      -4.572  16.034  -8.802  1.00  0.00     0.010 A 
ATOM     63  C   UNL     1      -2.969  14.310  -9.287  1.00  0.00     0.010 A 
ATOM     64  C   UNL     1      -3.793  16.952  -9.521  1.00  0.00     0.020 A 
ATOM     65  C   UNL     1      -2.163  15.225  -9.967  1.00  0.00     0.020 A 
ATOM     66  C   UNL     1      -2.596  16.537 -10.106  1.00  0.00     0.054 A 
BRANCH  66  67
ATOM     67  S   UNL     1      -1.637  17.704 -11.103  1.00  0.00     0.124 S 
ATOM     68  O   UNL     1      -2.516  17.912 -12.250  1.00  0.00    -0.237 OA
ATOM     69  O   UNL     1      -1.495  18.842 -10.198  1.00  0.00    -0.237 OA
ATOM     70  O   UNL     1      -0.399  16.980 -11.383  1.00  0.00    -0.744 OA
ENDBRANCH  66  67
ENDBRANCH  47  61
BRANCH  48  71
ATOM     71  C   UNL     1      -5.694   8.626 -14.432  1.00  0.00    -0.014 A 
ATOM     72  C   UNL     1      -6.014   9.158 -15.693  1.00  0.00     0.010 A 
ATOM     73  C   UNL     1      -4.578   7.766 -14.345  1.00  0.00     0.010 A 
ATOM     74  C   UNL     1      -5.206   8.897 -16.811  1.00  0.00     0.020 A 
ATOM     75  C   UNL     1      -3.772   7.496 -15.457  1.00  0.00     0.020 A 
ATOM     76  C   UNL     1      -4.075   8.086 -16.680  1.00  0.00     0.054 A 
BRANCH  76  77
ATOM     77  S   UNL     1      -2.931   7.919 -18.083  1.00  0.00     0.124 S 
ATOM     78  O   UNL     1      -3.698   7.096 -19.013  1.00  0.00    -0.237 OA
ATOM     79  O   UNL     1      -2.725   9.306 -18.491  1.00  0.00    -0.237 OA
ATOM     80  O   UNL     1      -1.760   7.269 -17.498  1.00  0.00    -0.744 OA
ENDBRANCH  76  77
ENDBRANCH  48  71
BRANCH  60  81
ATOM     81  C   UNL     1      -9.889  11.522 -10.656  1.00  0.00    -0.014 A 
ATOM     82  C   UNL     1      -9.977  10.120 -10.545  1.00  0.00     0.010 A 
ATOM     83  C   UNL     1     -11.069  12.274 -10.505  1.00  0.00     0.010 A 
ATOM     84  C   UNL     1     -11.212   9.489 -10.317  1.00  0.00     0.020 A 
ATOM     85  C   UNL     1     -12.298  11.655 -10.258  1.00  0.00     0.020 A 
ATOM     86  C   UNL     1     -12.366  10.264 -10.175  1.00  0.00     0.054 A 
BRANCH  86  87
ATOM     87  S   UNL     1     -13.954   9.451  -9.834  1.00  0.00     0.124 S 
ATOM     88  O   UNL     1     -14.235   8.761 -11.089  1.00  0.00    -0.237 OA
ATOM     89  O   UNL     1     -13.641   8.587  -8.697  1.00  0.00    -0.237 OA
ATOM     90  O   UNL     1     -14.855  10.561  -9.524  1.00  0.00    -0.744 OA
ENDBRANCH  86  87
ENDBRANCH  60  81
ENDBRANCH  34  35
ENDBRANCH  26  29
ENDBRANCH  24  25
ENDBRANCH   1  24
TORSDOF 16
