REMARK SMILES CC[NH2+][C@]1(C(=O)NCCCNC(=O)c2ccc(-c3c4nc(c(-c5ccc(S(=O)(=O)[O-])cc5)c5ccc([nH]5)c(-c5ccc(S(=O)(=O)[O-])cc5)c5nc(c(-c6ccc(S(=O)(=O)[O-])cc6)c6ccc3[nH]6)C=C5)C=C4)cc2)CCC[C@H]1CC[N@H+]1CCC[C@@H](CC)C1
REMARK SMILES IDX 8 1 7 2 5 3 6 4 4 6 74 7 77 8 75 9 76 10 3 11 2 14 1 15
REMARK SMILES IDX 78 16 79 17 80 18 81 19 87 20 82 22 84 23 83 24 85 25 86 26
REMARK SMILES IDX 9 27 10 28 11 29 12 30 13 32 14 33 15 34 73 35 16 36 72 37
REMARK SMILES IDX 17 38 18 39 19 40 66 41 20 42 71 43 65 44 67 45 21 46 70 47
REMARK SMILES IDX 64 48 63 49 22 51 52 52 33 53 51 54 34 55 37 56 50 57 68 58
REMARK SMILES IDX 35 59 36 60 49 62 69 63 38 64 23 65 24 66 32 67 25 68 31 69
REMARK SMILES IDX 26 70 27 71 28 72 29 73 30 74 53 75 54 76 62 77 55 78 61 79
REMARK SMILES IDX 56 80 57 81 58 82 59 83 60 84 39 85 40 86 48 87 41 88 47 89
REMARK SMILES IDX 42 90 43 91 44 92 45 93 46 94
REMARK H PARENT 7 5 3 12 3 13 80 21 11 31 67 50 37 61
REMARK Flexibility Score: inf
ROOT
ATOM      1  C   UNL     1       2.391  -3.860   2.311  1.00  0.00     0.118 C 
ENDROOT
BRANCH   1   2
ATOM      2  N   UNL     1       2.546  -2.366   2.994  1.00  0.00    -0.351 N 
ATOM      3  C   UNL     1       1.794  -1.182   3.325  1.00  0.00     0.281 C 
ATOM      4  O   UNL     1       2.252  -0.044   3.169  1.00  0.00    -0.268 OA
ATOM      5  H   UNL     1       3.481  -2.238   3.274  1.00  0.00     0.163 HD
BRANCH   3   6
ATOM      6  C   UNL     1       0.483  -1.375   4.038  1.00  0.00     0.178 C 
ATOM      7  C   UNL     1      -0.843  -0.574   3.914  1.00  0.00     0.079 C 
ATOM      8  C   UNL     1       0.045  -2.538   3.154  1.00  0.00     0.066 C 
ATOM      9  C   UNL     1      -1.924  -1.645   4.206  1.00  0.00     0.008 C 
ATOM     10  C   UNL     1      -1.385  -2.897   3.544  1.00  0.00     0.011 C 
BRANCH   6  11
ATOM     11  N   UNL     1       0.789  -1.361   5.501  1.00  0.00    -0.334 N 
ATOM     12  H   UNL     1       0.314  -0.554   5.905  1.00  0.00     0.347 HD
ATOM     13  H   UNL     1       0.471  -2.269   5.842  1.00  0.00     0.347 HD
BRANCH  11  14
ATOM     14  C   UNL     1       2.210  -1.285   5.901  1.00  0.00     0.257 C 
ATOM     15  C   UNL     1       2.505  -0.320   7.039  1.00  0.00     0.071 C 
ENDBRANCH  11  14
ENDBRANCH   6  11
BRANCH   8  16
ATOM     16  C   UNL     1       0.379  -2.147   1.493  1.00  0.00     0.072 C 
BRANCH  16  17
ATOM     17  C   UNL     1       1.907  -1.432   0.752  1.00  0.00     0.262 C 
BRANCH  17  18
ATOM     18  N   UNL     1       3.562  -1.532   1.043  1.00  0.00    -0.335 N 
ATOM     19  C   UNL     1       4.539  -2.696   1.033  1.00  0.00     0.262 C 
ATOM     20  C   UNL     1       4.333  -0.305   0.726  1.00  0.00     0.265 C 
ATOM     21  H   UNL     1       3.155  -1.805   1.938  1.00  0.00     0.348 HD
ATOM     22  C   UNL     1       5.652  -2.621   2.061  1.00  0.00     0.062 C 
ATOM     23  C   UNL     1       5.784  -0.224   1.356  1.00  0.00     0.044 C 
ATOM     24  C   UNL     1       6.562  -1.544   1.546  1.00  0.00     0.015 C 
BRANCH  23  25
ATOM     25  C   UNL     1       6.766   0.739   0.651  1.00  0.00     0.006 C 
ATOM     26  C   UNL     1       6.191   1.633  -0.426  1.00  0.00     0.004 C 
ENDBRANCH  23  25
ENDBRANCH  17  18
ENDBRANCH  16  17
ENDBRANCH   8  16
ENDBRANCH   3   6
ENDBRANCH   1   2
BRANCH   1  27
ATOM     27  C   UNL     1       2.161  -4.340   0.647  1.00  0.00     0.042 C 
BRANCH  27  28
ATOM     28  C   UNL     1       2.512  -3.877  -0.910  1.00  0.00     0.118 C 
BRANCH  28  29
ATOM     29  N   UNL     1       3.475  -2.821  -1.280  1.00  0.00    -0.352 N 
ATOM     30  C   UNL     1       4.555  -2.721  -2.111  1.00  0.00     0.251 C 
ATOM     31  H   UNL     1       3.293  -1.975  -0.810  1.00  0.00     0.163 HD
ATOM     32  O   UNL     1       5.437  -1.858  -1.996  1.00  0.00    -0.269 OA
BRANCH  30  33
ATOM     33  C   UNL     1       4.584  -3.573  -3.249  1.00  0.00     0.039 A 
ATOM     34  C   UNL     1       5.515  -4.599  -3.385  1.00  0.00     0.014 A 
ATOM     35  C   UNL     1       3.563  -3.297  -4.151  1.00  0.00     0.014 A 
ATOM     36  C   UNL     1       5.351  -5.454  -4.454  1.00  0.00     0.010 A 
ATOM     37  C   UNL     1       3.357  -4.188  -5.156  1.00  0.00     0.010 A 
ATOM     38  C   UNL     1       4.249  -5.262  -5.303  1.00  0.00    -0.014 A 
BRANCH  38  39
ATOM     39  C   UNL     1       3.942  -6.185  -6.387  1.00  0.00     0.031 A 
ATOM     40  C   UNL     1       3.984  -5.655  -7.780  1.00  0.00     0.074 A 
ATOM     41  C   UNL     1       3.434  -7.380  -6.046  1.00  0.00     0.049 A 
ATOM     42  N   UNL     1       3.556  -6.210  -8.876  1.00  0.00    -0.248 NA
ATOM     43  C   UNL     1       4.504  -4.284  -7.952  1.00  0.00     0.031 C 
ATOM     44  C   UNL     1       3.278  -7.877  -4.673  1.00  0.00     0.029 A 
ATOM     45  N   UNL     1       2.924  -8.374  -6.823  1.00  0.00    -0.354 N 
ATOM     46  C   UNL     1       3.719  -5.245  -9.859  1.00  0.00     0.074 A 
ATOM     47  C   UNL     1       4.213  -4.048  -9.220  1.00  0.00     0.031 C 
ATOM     48  C   UNL     1       2.732  -9.101  -4.711  1.00  0.00     0.029 A 
ATOM     49  C   UNL     1       2.462  -9.445  -6.100  1.00  0.00     0.049 A 
ATOM     50  H   UNL     1       2.890  -8.330  -7.806  1.00  0.00     0.167 HD
ATOM     51  C   UNL     1       3.486  -5.373 -11.183  1.00  0.00     0.031 A 
ATOM     52  C   UNL     1       1.875 -10.573  -6.532  1.00  0.00     0.031 A 
ATOM     53  C   UNL     1       2.997  -6.597 -11.755  1.00  0.00     0.049 A 
ATOM     54  C   UNL     1       1.701 -10.726  -8.013  1.00  0.00     0.074 A 
ATOM     55  C   UNL     1       2.804  -6.916 -13.083  1.00  0.00     0.029 A 
ATOM     56  N   UNL     1       2.620  -7.710 -11.009  1.00  0.00    -0.354 N 
ATOM     57  N   UNL     1       1.962  -9.855  -8.963  1.00  0.00    -0.248 NA
ATOM     58  C   UNL     1       1.182 -12.009  -8.487  1.00  0.00     0.031 C 
ATOM     59  C   UNL     1       2.253  -8.201 -13.136  1.00  0.00     0.029 A 
ATOM     60  C   UNL     1       2.167  -8.710 -11.846  1.00  0.00     0.049 A 
ATOM     61  H   UNL     1       2.670  -7.775 -10.028  1.00  0.00     0.167 HD
ATOM     62  C   UNL     1       1.647 -10.487 -10.156  1.00  0.00     0.074 A 
ATOM     63  C   UNL     1       1.205 -11.826  -9.801  1.00  0.00     0.031 C 
ATOM     64  C   UNL     1       1.711 -10.016 -11.428  1.00  0.00     0.031 A 
BRANCH  51  65
ATOM     65  C   UNL     1       3.740  -4.168 -12.050  1.00  0.00    -0.014 A 
ATOM     66  C   UNL     1       5.029  -3.615 -12.184  1.00  0.00     0.010 A 
ATOM     67  C   UNL     1       2.666  -3.553 -12.717  1.00  0.00     0.010 A 
ATOM     68  C   UNL     1       5.227  -2.437 -12.910  1.00  0.00     0.020 A 
ATOM     69  C   UNL     1       2.866  -2.396 -13.476  1.00  0.00     0.020 A 
ATOM     70  C   UNL     1       4.142  -1.832 -13.548  1.00  0.00     0.054 A 
BRANCH  70  71
ATOM     71  S   UNL     1       4.428  -0.307 -14.487  1.00  0.00     0.124 S 
ATOM     72  O   UNL     1       4.656   0.665 -13.421  1.00  0.00    -0.237 OA
ATOM     73  O   UNL     1       5.599  -0.643 -15.292  1.00  0.00    -0.237 OA
ATOM     74  O   UNL     1       3.189  -0.126 -15.240  1.00  0.00    -0.744 OA
ENDBRANCH  70  71
ENDBRANCH  51  65
BRANCH  52  75
ATOM     75  C   UNL     1       1.484 -11.614  -5.548  1.00  0.00    -0.014 A 
ATOM     76  C   UNL     1       2.237 -12.794  -5.421  1.00  0.00     0.010 A 
ATOM     77  C   UNL     1       0.423 -11.381  -4.652  1.00  0.00     0.010 A 
ATOM     78  C   UNL     1       1.940 -13.719  -4.415  1.00  0.00     0.020 A 
ATOM     79  C   UNL     1       0.140 -12.291  -3.629  1.00  0.00     0.020 A 
ATOM     80  C   UNL     1       0.900 -13.457  -3.519  1.00  0.00     0.054 A 
BRANCH  80  81
ATOM     81  S   UNL     1       0.598 -14.625  -2.164  1.00  0.00     0.124 S 
ATOM     82  O   UNL     1       0.033 -15.771  -2.869  1.00  0.00    -0.237 OA
ATOM     83  O   UNL     1       1.937 -14.818  -1.612  1.00  0.00    -0.237 OA
ATOM     84  O   UNL     1      -0.328 -13.906  -1.291  1.00  0.00    -0.744 OA
ENDBRANCH  80  81
ENDBRANCH  52  75
BRANCH  64  85
ATOM     85  C   UNL     1       1.289 -10.967 -12.511  1.00  0.00    -0.014 A 
ATOM     86  C   UNL     1      -0.061 -11.323 -12.674  1.00  0.00     0.010 A 
ATOM     87  C   UNL     1       2.254 -11.473 -13.399  1.00  0.00     0.010 A 
ATOM     88  C   UNL     1      -0.433 -12.209 -13.684  1.00  0.00     0.020 A 
ATOM     89  C   UNL     1       1.880 -12.329 -14.434  1.00  0.00     0.020 A 
ATOM     90  C   UNL     1       0.541 -12.707 -14.556  1.00  0.00     0.054 A 
BRANCH  90  91
ATOM     91  S   UNL     1       0.027 -13.836 -15.876  1.00  0.00     0.124 S 
ATOM     92  O   UNL     1      -0.261 -15.058 -15.131  1.00  0.00    -0.237 OA
ATOM     93  O   UNL     1      -1.135 -13.155 -16.442  1.00  0.00    -0.237 OA
ATOM     94  O   UNL     1       1.194 -13.899 -16.752  1.00  0.00    -0.744 OA
ENDBRANCH  90  91
ENDBRANCH  64  85
ENDBRANCH  38  39
ENDBRANCH  30  33
ENDBRANCH  28  29
ENDBRANCH  27  28
ENDBRANCH   1  27
TORSDOF 19
