REMARK SMILES O=C(C[C@@H]([NH2+]Cc1ccccc1)C(=O)NCCCNC(=O)c1ccc(-c2c3nc(c(-c4ccc(S(=O)(=O)[O-])cc4)c4ccc([nH]4)c(-c4ccc(S(=O)(=O)[O-])cc4)c4nc(c(-c5ccc(S(=O)(=O)[O-])cc5)c5ccc2[nH]5)C=C4)C=C3)cc1)Nc1cccc(Cl)c1Cl
REMARK SMILES IDX 17 1 16 2 15 3 13 4 14 5 4 7 3 8 2 9 1 10 82 11 83 13 84 14
REMARK SMILES IDX 89 15 85 16 87 17 90 18 86 19 88 20 5 21 6 24 7 25 8 26
REMARK SMILES IDX 12 27 9 28 11 29 10 30 18 31 19 32 20 33 21 35 22 36 23 37
REMARK SMILES IDX 81 38 24 39 80 40 25 41 26 42 27 43 74 44 28 45 79 46 73 47
REMARK SMILES IDX 75 48 29 49 78 50 72 51 71 52 30 54 60 55 41 56 59 57 42 58
REMARK SMILES IDX 45 59 58 60 76 61 43 62 44 63 57 65 77 66 46 67 31 68 32 69
REMARK SMILES IDX 40 70 33 71 39 72 34 73 35 74 36 75 37 76 38 77 61 78 62 79
REMARK SMILES IDX 70 80 63 81 69 82 64 83 65 84 66 85 67 86 68 87 47 88 48 89
REMARK SMILES IDX 56 90 49 91 55 92 50 93 51 94 52 95 53 96 54 97
REMARK H PARENT 15 6 82 12 5 22 5 23 19 34 75 53 45 64
REMARK Flexibility Score: inf
ROOT
ATOM      1  C   UNL     1       5.567   3.218   1.030  1.00  0.00     0.042 C 
ENDROOT
BRANCH   1   2
ATOM      2  C   UNL     1       5.990   1.768   1.246  1.00  0.00     0.118 C 
BRANCH   2   3
ATOM      3  N   UNL     1       5.503   1.277   2.521  1.00  0.00    -0.351 N 
ATOM      4  C   UNL     1       4.467   0.440   2.804  1.00  0.00     0.278 C 
ATOM      5  O   UNL     1       4.198   0.248   3.993  1.00  0.00    -0.268 OA
ATOM      6  H   UNL     1       6.001   1.599   3.307  1.00  0.00     0.163 HD
BRANCH   4   7
ATOM      7  C   UNL     1       3.697  -0.299   1.692  1.00  0.00     0.282 C 
BRANCH   7   8
ATOM      8  C   UNL     1       2.891   0.705   0.862  1.00  0.00     0.175 C 
BRANCH   8   9
ATOM      9  C   UNL     1       1.967   0.016  -0.106  1.00  0.00     0.230 C 
ATOM     10  O   UNL     1       0.788  -0.195   0.156  1.00  0.00    -0.274 OA
ATOM     11  N   UNL     1       2.626  -0.412  -1.248  1.00  0.00    -0.325 N 
ATOM     12  H   UNL     1       3.606  -0.323  -1.282  1.00  0.00     0.169 HD
BRANCH  11  13
ATOM     13  C   UNL     1       1.967  -0.969  -2.362  1.00  0.00     0.061 A 
ATOM     14  C   UNL     1       2.502  -2.163  -2.863  1.00  0.00     0.028 A 
ATOM     15  C   UNL     1       0.846  -0.381  -2.986  1.00  0.00     0.083 A 
ATOM     16  C   UNL     1       1.881  -2.823  -3.922  1.00  0.00     0.004 A 
ATOM     17  C   UNL     1       0.240  -1.047  -4.062  1.00  0.00     0.061 A 
ATOM     18  Cl  UNL     1       0.339   1.229  -2.568  1.00  0.00    -0.080 Cl
ATOM     19  C   UNL     1       0.747  -2.271  -4.513  1.00  0.00     0.022 A 
ATOM     20  Cl  UNL     1      -1.126  -0.405  -4.910  1.00  0.00    -0.083 Cl
ENDBRANCH  11  13
ENDBRANCH   8   9
ENDBRANCH   7   8
BRANCH   7  21
ATOM     21  N   UNL     1       4.592  -1.179   0.875  1.00  0.00    -0.332 N 
ATOM     22  H   UNL     1       5.155  -0.586   0.266  1.00  0.00     0.347 HD
ATOM     23  H   UNL     1       3.987  -1.814   0.355  1.00  0.00     0.347 HD
BRANCH  21  24
ATOM     24  C   UNL     1       5.505  -2.018   1.680  1.00  0.00     0.297 C 
BRANCH  24  25
ATOM     25  C   UNL     1       4.850  -3.268   2.223  1.00  0.00     0.006 A 
ATOM     26  C   UNL     1       3.966  -3.209   3.311  1.00  0.00     0.009 A 
ATOM     27  C   UNL     1       5.106  -4.515   1.636  1.00  0.00     0.009 A 
ATOM     28  C   UNL     1       3.307  -4.353   3.760  1.00  0.00     0.001 A 
ATOM     29  C   UNL     1       4.470  -5.666   2.107  1.00  0.00     0.001 A 
ATOM     30  C   UNL     1       3.558  -5.582   3.157  1.00  0.00     0.000 A 
ENDBRANCH  24  25
ENDBRANCH  21  24
ENDBRANCH   7  21
ENDBRANCH   4   7
ENDBRANCH   2   3
ENDBRANCH   1   2
BRANCH   1  31
ATOM     31  C   UNL     1       6.218   4.185   2.013  1.00  0.00     0.118 C 
BRANCH  31  32
ATOM     32  N   UNL     1       7.662   4.253   1.842  1.00  0.00    -0.352 N 
ATOM     33  C   UNL     1       8.454   5.330   1.533  1.00  0.00     0.251 C 
ATOM     34  H   UNL     1       8.141   3.402   1.965  1.00  0.00     0.163 HD
ATOM     35  O   UNL     1       9.625   5.146   1.204  1.00  0.00    -0.269 OA
BRANCH  33  36
ATOM     36  C   UNL     1       7.897   6.697   1.581  1.00  0.00     0.039 A 
ATOM     37  C   UNL     1       8.220   7.597   0.563  1.00  0.00     0.014 A 
ATOM     38  C   UNL     1       7.065   7.093   2.632  1.00  0.00     0.014 A 
ATOM     39  C   UNL     1       7.660   8.876   0.570  1.00  0.00     0.010 A 
ATOM     40  C   UNL     1       6.441   8.335   2.590  1.00  0.00     0.010 A 
ATOM     41  C   UNL     1       6.739   9.244   1.564  1.00  0.00    -0.014 A 
BRANCH  41  42
ATOM     42  C   UNL     1       6.075  10.572   1.548  1.00  0.00     0.031 A 
ATOM     43  C   UNL     1       6.290  11.541   2.678  1.00  0.00     0.074 A 
ATOM     44  C   UNL     1       5.226  10.878   0.546  1.00  0.00     0.049 A 
ATOM     45  N   UNL     1       5.759  12.722   2.864  1.00  0.00    -0.248 NA
ATOM     46  C   UNL     1       7.202  11.118   3.755  1.00  0.00     0.031 C 
ATOM     47  C   UNL     1       4.901  10.005  -0.585  1.00  0.00     0.029 A 
ATOM     48  N   UNL     1       4.477  12.005   0.320  1.00  0.00    -0.354 N 
ATOM     49  C   UNL     1       6.254  13.173   4.082  1.00  0.00     0.074 A 
ATOM     50  C   UNL     1       7.086  12.117   4.616  1.00  0.00     0.031 C 
ATOM     51  C   UNL     1       4.043  10.641  -1.398  1.00  0.00     0.029 A 
ATOM     52  C   UNL     1       3.720  11.944  -0.826  1.00  0.00     0.049 A 
ATOM     53  H   UNL     1       4.482  12.785   0.922  1.00  0.00     0.167 HD
ATOM     54  C   UNL     1       6.051  14.366   4.692  1.00  0.00     0.031 A 
ATOM     55  C   UNL     1       2.855  12.832  -1.354  1.00  0.00     0.031 A 
ATOM     56  C   UNL     1       5.224  15.413   4.154  1.00  0.00     0.049 A 
ATOM     57  C   UNL     1       2.633  14.143  -0.653  1.00  0.00     0.074 A 
ATOM     58  C   UNL     1       4.998  16.679   4.664  1.00  0.00     0.029 A 
ATOM     59  N   UNL     1       4.479  15.313   2.987  1.00  0.00    -0.354 N 
ATOM     60  N   UNL     1       3.169  14.582   0.462  1.00  0.00    -0.248 NA
ATOM     61  C   UNL     1       1.702  15.085  -1.287  1.00  0.00     0.031 C 
ATOM     62  C   UNL     1       4.069  17.322   3.841  1.00  0.00     0.029 A 
ATOM     63  C   UNL     1       3.770  16.485   2.777  1.00  0.00     0.049 A 
ATOM     64  H   UNL     1       4.458  14.527   2.396  1.00  0.00     0.167 HD
ATOM     65  C   UNL     1       2.661  15.863   0.647  1.00  0.00     0.074 A 
ATOM     66  C   UNL     1       1.787  16.132  -0.477  1.00  0.00     0.031 C 
ATOM     67  C   UNL     1       2.900  16.738   1.655  1.00  0.00     0.031 A 
BRANCH  54  68
ATOM     68  C   UNL     1       6.725  14.591   6.022  1.00  0.00    -0.014 A 
ATOM     69  C   UNL     1       8.125  14.703   6.123  1.00  0.00     0.010 A 
ATOM     70  C   UNL     1       5.947  14.720   7.187  1.00  0.00     0.010 A 
ATOM     71  C   UNL     1       8.734  14.886   7.367  1.00  0.00     0.020 A 
ATOM     72  C   UNL     1       6.550  14.936   8.429  1.00  0.00     0.020 A 
ATOM     73  C   UNL     1       7.942  14.997   8.514  1.00  0.00     0.054 A 
BRANCH  73  74
ATOM     74  S   UNL     1       8.760  15.241  10.114  1.00  0.00     0.124 S 
ATOM     75  O   UNL     1       9.360  13.930  10.348  1.00  0.00    -0.237 OA
ATOM     76  O   UNL     1       9.703  16.320   9.829  1.00  0.00    -0.237 OA
ATOM     77  O   UNL     1       7.666  15.595  11.014  1.00  0.00    -0.744 OA
ENDBRANCH  73  74
ENDBRANCH  54  68
BRANCH  55  78
ATOM     78  C   UNL     1       2.151  12.509  -2.627  1.00  0.00    -0.014 A 
ATOM     79  C   UNL     1       2.476  13.187  -3.814  1.00  0.00     0.010 A 
ATOM     80  C   UNL     1       1.174  11.497  -2.663  1.00  0.00     0.010 A 
ATOM     81  C   UNL     1       1.831  12.867  -5.013  1.00  0.00     0.020 A 
ATOM     82  C   UNL     1       0.548  11.153  -3.865  1.00  0.00     0.020 A 
ATOM     83  C   UNL     1       0.875  11.847  -5.031  1.00  0.00     0.054 A 
BRANCH  83  84
ATOM     84  S   UNL     1       0.101  11.405  -6.612  1.00  0.00     0.124 S 
ATOM     85  O   UNL     1      -0.762  12.555  -6.860  1.00  0.00    -0.237 OA
ATOM     86  O   UNL     1       1.254  11.275  -7.500  1.00  0.00    -0.237 OA
ATOM     87  O   UNL     1      -0.591  10.153  -6.316  1.00  0.00    -0.744 OA
ENDBRANCH  83  84
ENDBRANCH  55  78
BRANCH  67  88
ATOM     88  C   UNL     1       2.239  18.090   1.575  1.00  0.00    -0.014 A 
ATOM     89  C   UNL     1       0.855  18.242   1.770  1.00  0.00     0.010 A 
ATOM     90  C   UNL     1       3.030  19.233   1.361  1.00  0.00     0.010 A 
ATOM     91  C   UNL     1       0.271  19.511   1.721  1.00  0.00     0.020 A 
ATOM     92  C   UNL     1       2.455  20.506   1.344  1.00  0.00     0.020 A 
ATOM     93  C   UNL     1       1.076  20.636   1.511  1.00  0.00     0.054 A 
BRANCH  93  94
ATOM     94  S   UNL     1       0.300  22.275   1.501  1.00  0.00     0.124 S 
ATOM     95  O   UNL     1      -0.423  22.262   0.233  1.00  0.00    -0.237 OA
ATOM     96  O   UNL     1      -0.534  22.241   2.700  1.00  0.00    -0.237 OA
ATOM     97  O   UNL     1       1.433  23.196   1.563  1.00  0.00    -0.744 OA
ENDBRANCH  93  94
ENDBRANCH  67  88
ENDBRANCH  41  42
ENDBRANCH  33  36
ENDBRANCH  31  32
ENDBRANCH   1  31
TORSDOF 19
