REMARK SMILES O=C(CCS[C@H]1CC(=O)c2ccccc2C1=O)NCCCNC(=O)c1ccc(-c2c3nc(c(-c4ccc(S(=O)(=O)[O-])cc4)c4ccc([nH]4)c(-c4ccc(S(=O)(=O)[O-])cc4)c4nc(c(-c5ccc(S(=O)(=O)[O-])cc5)c5ccc2[nH]5)C=C4)C=C3)cc1
REMARK SMILES IDX 20 1 19 2 18 3 1 4 2 5 3 7 4 8 5 9 6 10 7 11 16 12 8 13
REMARK SMILES IDX 15 14 17 15 9 16 10 17 14 18 11 19 13 20 12 21 21 22 22 23
REMARK SMILES IDX 23 24 24 26 25 27 26 28 84 29 27 30 83 31 28 32 29 33 30 34
REMARK SMILES IDX 77 35 31 36 82 37 76 38 78 39 32 40 81 41 75 42 74 43 33 45
REMARK SMILES IDX 63 46 44 47 62 48 45 49 48 50 61 51 79 52 46 53 47 54 60 56
REMARK SMILES IDX 80 57 49 58 34 59 35 60 43 61 36 62 42 63 37 64 38 65 39 66
REMARK SMILES IDX 40 67 41 68 64 69 65 70 73 71 66 72 72 73 67 74 68 75 69 76
REMARK SMILES IDX 70 77 71 78 50 79 51 80 59 81 52 82 58 83 53 84 54 85 55 86
REMARK SMILES IDX 56 87 57 88
REMARK H PARENT 18 6 22 25 78 44 48 55
REMARK Flexibility Score: inf
ROOT
ATOM      1  C   UNL     1       0.626  -0.608   5.005  1.00  0.00     0.042 C 
ENDROOT
BRANCH   1   2
ATOM      2  C   UNL     1       0.116  -0.835   3.568  1.00  0.00     0.117 C 
BRANCH   2   3
ATOM      3  N   UNL     1       1.071  -0.618   2.493  1.00  0.00    -0.356 N 
ATOM      4  O   UNL     1      -0.085  -1.906   0.978  1.00  0.00    -0.275 OA
ATOM      5  C   UNL     1       0.867  -1.173   1.241  1.00  0.00     0.220 C 
ATOM      6  H   UNL     1       1.872  -0.070   2.657  1.00  0.00     0.163 HD
BRANCH   5   7
ATOM      7  C   UNL     1       1.930  -0.876   0.195  1.00  0.00     0.111 C 
BRANCH   7   8
ATOM      8  C   UNL     1       2.019   0.576  -0.253  1.00  0.00     0.080 C 
BRANCH   8   9
ATOM      9  S   UNL     1       2.609   1.753   1.007  1.00  0.00    -0.149 SA
BRANCH   9  10
ATOM     10  C   UNL     1       4.445   1.584   0.870  1.00  0.00     0.126 C 
ATOM     11  C   UNL     1       5.110   2.647   1.735  1.00  0.00     0.104 C 
ATOM     12  C   UNL     1       4.915   0.218   1.334  1.00  0.00     0.176 C 
ATOM     13  C   UNL     1       4.778   2.433   3.190  1.00  0.00     0.165 C 
ATOM     14  C   UNL     1       4.841  -0.047   2.786  1.00  0.00     0.030 A 
ATOM     15  O   UNL     1       5.276  -0.657   0.560  1.00  0.00    -0.293 OA
ATOM     16  O   UNL     1       4.604   3.364   3.962  1.00  0.00    -0.294 OA
ATOM     17  C   UNL     1       4.706   1.026   3.659  1.00  0.00     0.028 A 
ATOM     18  C   UNL     1       4.781  -1.365   3.260  1.00  0.00     0.012 A 
ATOM     19  C   UNL     1       4.442   0.777   4.995  1.00  0.00     0.012 A 
ATOM     20  C   UNL     1       4.518  -1.604   4.607  1.00  0.00     0.001 A 
ATOM     21  C   UNL     1       4.325  -0.531   5.466  1.00  0.00     0.001 A 
ENDBRANCH   9  10
ENDBRANCH   8   9
ENDBRANCH   7   8
ENDBRANCH   5   7
ENDBRANCH   2   3
ENDBRANCH   1   2
BRANCH   1  22
ATOM     22  C   UNL     1       0.923   0.849   5.392  1.00  0.00     0.118 C 
BRANCH  22  23
ATOM     23  N   UNL     1       0.659   1.139   6.818  1.00  0.00    -0.352 N 
ATOM     24  C   UNL     1       1.498   1.867   7.652  1.00  0.00     0.251 C 
ATOM     25  H   UNL     1      -0.175   0.788   7.206  1.00  0.00     0.163 HD
ATOM     26  O   UNL     1       1.319   3.066   7.833  1.00  0.00    -0.269 OA
BRANCH  24  27
ATOM     27  C   UNL     1       2.461   1.131   8.516  1.00  0.00     0.039 A 
ATOM     28  C   UNL     1       3.823   1.179   8.265  1.00  0.00     0.014 A 
ATOM     29  C   UNL     1       2.050   0.496   9.683  1.00  0.00     0.014 A 
ATOM     30  C   UNL     1       4.710   0.327   8.945  1.00  0.00     0.010 A 
ATOM     31  C   UNL     1       2.990  -0.180  10.496  1.00  0.00     0.010 A 
ATOM     32  C   UNL     1       4.325  -0.384  10.089  1.00  0.00    -0.014 A 
BRANCH  32  33
ATOM     33  C   UNL     1       5.255  -1.347  10.814  1.00  0.00     0.031 A 
ATOM     34  C   UNL     1       4.723  -2.684  11.329  1.00  0.00     0.074 A 
ATOM     35  C   UNL     1       6.579  -1.111  11.005  1.00  0.00     0.049 A 
ATOM     36  N   UNL     1       5.275  -3.539  12.160  1.00  0.00    -0.248 NA
ATOM     37  C   UNL     1       3.389  -3.106  10.867  1.00  0.00     0.031 C 
ATOM     38  C   UNL     1       7.323   0.060  10.538  1.00  0.00     0.029 A 
ATOM     39  N   UNL     1       7.556  -1.868  11.632  1.00  0.00    -0.354 N 
ATOM     40  C   UNL     1       4.326  -4.538  12.380  1.00  0.00     0.074 A 
ATOM     41  C   UNL     1       3.155  -4.173  11.617  1.00  0.00     0.031 C 
ATOM     42  C   UNL     1       8.628  -0.100  10.799  1.00  0.00     0.029 A 
ATOM     43  C   UNL     1       8.817  -1.306  11.595  1.00  0.00     0.049 A 
ATOM     44  H   UNL     1       7.367  -2.732  12.066  1.00  0.00     0.167 HD
ATOM     45  C   UNL     1       4.414  -5.667  13.126  1.00  0.00     0.031 A 
ATOM     46  C   UNL     1       9.992  -1.659  12.166  1.00  0.00     0.031 A 
ATOM     47  C   UNL     1       5.606  -6.102  13.810  1.00  0.00     0.049 A 
ATOM     48  C   UNL     1      10.061  -2.879  13.045  1.00  0.00     0.074 A 
ATOM     49  C   UNL     1       5.781  -7.246  14.572  1.00  0.00     0.029 A 
ATOM     50  N   UNL     1       6.827  -5.449  13.789  1.00  0.00    -0.354 N 
ATOM     51  N   UNL     1       9.123  -3.756  13.305  1.00  0.00    -0.248 NA
ATOM     52  C   UNL     1      11.338  -3.148  13.725  1.00  0.00     0.031 C 
ATOM     53  C   UNL     1       7.083  -7.247  15.071  1.00  0.00     0.029 A 
ATOM     54  C   UNL     1       7.749  -6.152  14.548  1.00  0.00     0.049 A 
ATOM     55  H   UNL     1       7.012  -4.611  13.307  1.00  0.00     0.167 HD
ATOM     56  C   UNL     1       9.699  -4.685  14.165  1.00  0.00     0.074 A 
ATOM     57  C   UNL     1      11.074  -4.282  14.364  1.00  0.00     0.031 C 
ATOM     58  C   UNL     1       9.126  -5.769  14.742  1.00  0.00     0.031 A 
BRANCH  45  59
ATOM     59  C   UNL     1       3.189  -6.544  13.265  1.00  0.00    -0.014 A 
ATOM     60  C   UNL     1       2.597  -6.705  14.534  1.00  0.00     0.010 A 
ATOM     61  C   UNL     1       2.704  -7.309  12.189  1.00  0.00     0.010 A 
ATOM     62  C   UNL     1       1.575  -7.637  14.734  1.00  0.00     0.020 A 
ATOM     63  C   UNL     1       1.653  -8.215  12.377  1.00  0.00     0.020 A 
ATOM     64  C   UNL     1       1.114  -8.393  13.654  1.00  0.00     0.054 A 
BRANCH  64  65
ATOM     65  S   UNL     1      -0.191  -9.620  13.939  1.00  0.00     0.124 S 
ATOM     66  O   UNL     1       0.525 -10.674  14.650  1.00  0.00    -0.237 OA
ATOM     67  O   UNL     1      -1.165  -8.871  14.731  1.00  0.00    -0.237 OA
ATOM     68  O   UNL     1      -0.635  -9.966  12.590  1.00  0.00    -0.744 OA
ENDBRANCH  64  65
ENDBRANCH  45  59
BRANCH  46  69
ATOM     69  C   UNL     1      11.206  -0.811  11.942  1.00  0.00    -0.014 A 
ATOM     70  C   UNL     1      11.242   0.524  12.390  1.00  0.00     0.010 A 
ATOM     71  C   UNL     1      12.304  -1.306  11.214  1.00  0.00     0.010 A 
ATOM     72  C   UNL     1      12.296   1.371  12.035  1.00  0.00     0.020 A 
ATOM     73  C   UNL     1      13.384  -0.474  10.894  1.00  0.00     0.020 A 
ATOM     74  C   UNL     1      13.351   0.871  11.271  1.00  0.00     0.054 A 
BRANCH  74  75
ATOM     75  S   UNL     1      14.662   2.011  10.746  1.00  0.00     0.124 S 
ATOM     76  O   UNL     1      13.985   2.784   9.707  1.00  0.00    -0.237 OA
ATOM     77  O   UNL     1      14.963   2.739  11.975  1.00  0.00    -0.237 OA
ATOM     78  O   UNL     1      15.721   1.124  10.273  1.00  0.00    -0.744 OA
ENDBRANCH  74  75
ENDBRANCH  46  69
BRANCH  58  79
ATOM     79  C   UNL     1       9.962  -6.640  15.646  1.00  0.00    -0.014 A 
ATOM     80  C   UNL     1      10.228  -7.974  15.278  1.00  0.00     0.010 A 
ATOM     81  C   UNL     1      10.349  -6.197  16.923  1.00  0.00     0.010 A 
ATOM     82  C   UNL     1      10.815  -8.860  16.185  1.00  0.00     0.020 A 
ATOM     83  C   UNL     1      10.968  -7.072  17.822  1.00  0.00     0.020 A 
ATOM     84  C   UNL     1      11.168  -8.406  17.458  1.00  0.00     0.054 A 
BRANCH  84  85
ATOM     85  S   UNL     1      11.870  -9.588  18.642  1.00  0.00     0.124 S 
ATOM     86  O   UNL     1      10.706 -10.390  19.003  1.00  0.00    -0.237 OA
ATOM     87  O   UNL     1      12.886 -10.274  17.845  1.00  0.00    -0.237 OA
ATOM     88  O   UNL     1      12.396  -8.737  19.707  1.00  0.00    -0.744 OA
ENDBRANCH  84  85
ENDBRANCH  58  79
ENDBRANCH  32  33
ENDBRANCH  24  27
ENDBRANCH  22  23
ENDBRANCH   1  22
TORSDOF 16
