REMARK SMILES C=CCN1C(=O)/C(=C/c2ccccn2)S/C1=[NH+]\c1ccc(C(=O)NCCCNC(=O)c2ccc(-c3c4nc(c(-c5ccc(S(=O)(=O)[O-])cc5)c5ccc([nH]5)c(-c5ccc(S(=O)(=O)[O-])cc5)c5nc(c(-c6ccc(S(=O)(=O)[O-])cc6)c6ccc3[nH]6)C=C5)C=C4)cc2)cc1
REMARK SMILES IDX 26 1 25 2 24 3 22 4 23 5 21 7 18 8 19 9 92 10 20 11 91 12
REMARK SMILES IDX 17 13 4 14 5 15 16 16 6 17 7 18 15 19 8 20 3 22 2 23 1 24
REMARK SMILES IDX 9 25 10 26 14 27 11 28 13 29 12 30 27 31 28 32 29 33 30 35
REMARK SMILES IDX 31 36 32 37 90 38 33 39 89 40 34 41 35 42 36 43 83 44 37 45
REMARK SMILES IDX 88 46 82 47 84 48 38 49 87 50 81 51 80 52 39 54 69 55 50 56
REMARK SMILES IDX 68 57 51 58 54 59 67 60 85 61 52 62 53 63 66 65 86 66 55 67
REMARK SMILES IDX 40 68 41 69 49 70 42 71 48 72 43 73 44 74 45 75 46 76 47 77
REMARK SMILES IDX 70 78 71 79 79 80 72 81 78 82 73 83 74 84 75 85 76 86 77 87
REMARK SMILES IDX 56 88 57 89 65 90 58 91 64 92 59 93 60 94 61 95 62 96 63 97
REMARK H PARENT 24 6 17 21 28 34 84 53 54 64
REMARK Flexibility Score: inf
ROOT
ATOM      1  C   UNL     1      -1.004  -6.497  -8.571  1.00  0.00     0.042 C 
ENDROOT
BRANCH   1   2
ATOM      2  C   UNL     1      -2.429  -6.086  -8.205  1.00  0.00     0.118 C 
BRANCH   2   3
ATOM      3  N   UNL     1      -3.058  -7.078  -7.351  1.00  0.00    -0.352 N 
ATOM      4  C   UNL     1      -3.311  -7.099  -6.003  1.00  0.00     0.251 C 
ATOM      5  O   UNL     1      -3.950  -8.049  -5.551  1.00  0.00    -0.269 OA
ATOM      6  H   UNL     1      -3.360  -7.885  -7.828  1.00  0.00     0.163 HD
BRANCH   4   7
ATOM      7  C   UNL     1      -2.898  -6.003  -5.085  1.00  0.00     0.040 A 
ATOM      8  C   UNL     1      -2.292  -3.912  -3.293  1.00  0.00     0.125 A 
ATOM      9  C   UNL     1      -3.398  -4.730  -3.068  1.00  0.00     0.052 A 
ATOM     10  C   UNL     1      -1.448  -4.198  -4.369  1.00  0.00     0.052 A 
ATOM     11  C   UNL     1      -3.702  -5.765  -3.960  1.00  0.00     0.018 A 
ATOM     12  C   UNL     1      -1.741  -5.240  -5.251  1.00  0.00     0.018 A 
BRANCH   8  13
ATOM     13  N   UNL     1      -1.980  -2.876  -2.404  1.00  0.00    -0.234 N 
ATOM     14  N   UNL     1      -1.675  -0.602  -1.977  1.00  0.00    -0.182 N 
ATOM     15  C   UNL     1      -1.750   0.665  -2.515  1.00  0.00     0.349 C 
ATOM     16  C   UNL     1      -2.077  -1.641  -2.776  1.00  0.00     0.324 C 
ATOM     17  O   UNL     1      -1.465   1.716  -1.951  1.00  0.00    -0.240 OA
ATOM     18  C   UNL     1      -2.282   0.597  -3.902  1.00  0.00     0.111 C 
ATOM     19  S   UNL     1      -2.698  -1.025  -4.292  1.00  0.00     0.007 SA
ATOM     20  C   UNL     1      -2.375   1.679  -4.687  1.00  0.00     0.052 C 
ATOM     21  H   UNL     1      -1.684  -3.090  -1.490  1.00  0.00     0.313 HD
BRANCH  14  22
ATOM     22  C   UNL     1      -1.179  -0.809  -0.631  1.00  0.00     0.275 C 
BRANCH  22  23
ATOM     23  C   UNL     1       0.320  -0.899  -0.663  1.00  0.00     0.011 C 
ATOM     24  C   UNL     1       1.136  -0.065  -0.005  1.00  0.00     0.008 C 
ENDBRANCH  22  23
ENDBRANCH  14  22
BRANCH  20  25
ATOM     25  C   UNL     1      -2.925   1.699  -6.041  1.00  0.00     0.064 A 
ATOM     26  C   UNL     1      -4.255   1.372  -6.290  1.00  0.00     0.028 A 
ATOM     27  N   UNL     1      -2.071   2.092  -7.011  1.00  0.00    -0.257 NA
ATOM     28  C   UNL     1      -4.719   1.407  -7.601  1.00  0.00     0.004 A 
ATOM     29  C   UNL     1      -2.547   2.107  -8.277  1.00  0.00     0.111 A 
ATOM     30  C   UNL     1      -3.847   1.773  -8.619  1.00  0.00     0.020 A 
ENDBRANCH  20  25
ENDBRANCH   8  13
ENDBRANCH   4   7
ENDBRANCH   2   3
ENDBRANCH   1   2
BRANCH   1  31
ATOM     31  C   UNL     1      -0.948  -7.620  -9.602  1.00  0.00     0.118 C 
BRANCH  31  32
ATOM     32  N   UNL     1      -1.434  -7.184 -10.904  1.00  0.00    -0.352 N 
ATOM     33  C   UNL     1      -0.799  -7.166 -12.119  1.00  0.00     0.251 C 
ATOM     34  H   UNL     1      -2.361  -6.852 -10.913  1.00  0.00     0.163 HD
ATOM     35  O   UNL     1      -1.295  -6.532 -13.047  1.00  0.00    -0.269 OA
BRANCH  33  36
ATOM     36  C   UNL     1       0.471  -7.899 -12.315  1.00  0.00     0.039 A 
ATOM     37  C   UNL     1       1.468  -7.324 -13.108  1.00  0.00     0.014 A 
ATOM     38  C   UNL     1       0.664  -9.167 -11.759  1.00  0.00     0.014 A 
ATOM     39  C   UNL     1       2.672  -8.002 -13.308  1.00  0.00     0.010 A 
ATOM     40  C   UNL     1       1.894  -9.803 -11.890  1.00  0.00     0.010 A 
ATOM     41  C   UNL     1       2.905  -9.237 -12.680  1.00  0.00    -0.014 A 
BRANCH  41  42
ATOM     42  C   UNL     1       4.189  -9.961 -12.854  1.00  0.00     0.031 A 
ATOM     43  C   UNL     1       4.210 -11.312 -13.519  1.00  0.00     0.074 A 
ATOM     44  C   UNL     1       5.327  -9.429 -12.366  1.00  0.00     0.049 A 
ATOM     45  N   UNL     1       5.222 -12.118 -13.720  1.00  0.00    -0.248 NA
ATOM     46  C   UNL     1       2.921 -11.838 -13.998  1.00  0.00     0.031 C 
ATOM     47  C   UNL     1       5.430  -8.141 -11.675  1.00  0.00     0.029 A 
ATOM     48  N   UNL     1       6.613  -9.905 -12.375  1.00  0.00    -0.354 N 
ATOM     49  C   UNL     1       4.690 -13.248 -14.331  1.00  0.00     0.074 A 
ATOM     50  C   UNL     1       3.260 -13.049 -14.413  1.00  0.00     0.031 C 
ATOM     51  C   UNL     1       6.715  -7.915 -11.360  1.00  0.00     0.029 A 
ATOM     52  C   UNL     1       7.519  -9.058 -11.781  1.00  0.00     0.049 A 
ATOM     53  H   UNL     1       6.864 -10.771 -12.770  1.00  0.00     0.167 HD
ATOM     54  C   UNL     1       5.335 -14.342 -14.802  1.00  0.00     0.031 A 
ATOM     55  C   UNL     1       8.846  -9.188 -11.593  1.00  0.00     0.031 A 
ATOM     56  C   UNL     1       6.758 -14.534 -14.714  1.00  0.00     0.049 A 
ATOM     57  C   UNL     1       9.538 -10.424 -12.098  1.00  0.00     0.074 A 
ATOM     58  C   UNL     1       7.517 -15.587 -15.196  1.00  0.00     0.029 A 
ATOM     59  N   UNL     1       7.639 -13.656 -14.098  1.00  0.00    -0.354 N 
ATOM     60  N   UNL     1       9.027 -11.457 -12.724  1.00  0.00    -0.248 NA
ATOM     61  C   UNL     1      10.989 -10.504 -11.883  1.00  0.00     0.031 C 
ATOM     62  C   UNL     1       8.847 -15.374 -14.818  1.00  0.00     0.029 A 
ATOM     63  C   UNL     1       8.929 -14.153 -14.166  1.00  0.00     0.049 A 
ATOM     64  H   UNL     1       7.383 -12.804 -13.676  1.00  0.00     0.167 HD
ATOM     65  C   UNL     1      10.100 -12.295 -13.010  1.00  0.00     0.074 A 
ATOM     66  C   UNL     1      11.287 -11.641 -12.497  1.00  0.00     0.031 C 
ATOM     67  C   UNL     1      10.102 -13.492 -13.648  1.00  0.00     0.031 A 
BRANCH  54  68
ATOM     68  C   UNL     1       4.494 -15.421 -15.439  1.00  0.00    -0.014 A 
ATOM     69  C   UNL     1       3.814 -15.197 -16.651  1.00  0.00     0.010 A 
ATOM     70  C   UNL     1       4.390 -16.682 -14.824  1.00  0.00     0.010 A 
ATOM     71  C   UNL     1       3.000 -16.190 -17.203  1.00  0.00     0.020 A 
ATOM     72  C   UNL     1       3.604 -17.691 -15.391  1.00  0.00     0.020 A 
ATOM     73  C   UNL     1       2.895 -17.429 -16.565  1.00  0.00     0.054 A 
BRANCH  73  74
ATOM     74  S   UNL     1       1.828 -18.697 -17.302  1.00  0.00     0.124 S 
ATOM     75  O   UNL     1       0.496 -18.163 -17.031  1.00  0.00    -0.237 OA
ATOM     76  O   UNL     1       2.236 -18.684 -18.704  1.00  0.00    -0.237 OA
ATOM     77  O   UNL     1       2.172 -19.912 -16.566  1.00  0.00    -0.744 OA
ENDBRANCH  73  74
ENDBRANCH  54  68
BRANCH  55  78
ATOM     78  C   UNL     1       9.608  -8.098 -10.922  1.00  0.00    -0.014 A 
ATOM     79  C   UNL     1      10.503  -7.300 -11.657  1.00  0.00     0.010 A 
ATOM     80  C   UNL     1       9.420  -7.831  -9.554  1.00  0.00     0.010 A 
ATOM     81  C   UNL     1      11.203  -6.263 -11.034  1.00  0.00     0.020 A 
ATOM     82  C   UNL     1      10.096  -6.776  -8.934  1.00  0.00     0.020 A 
ATOM     83  C   UNL     1      10.990  -6.003  -9.677  1.00  0.00     0.054 A 
BRANCH  83  84
ATOM     84  S   UNL     1      11.862  -4.610  -8.908  1.00  0.00     0.124 S 
ATOM     85  O   UNL     1      13.236  -5.099  -8.861  1.00  0.00    -0.237 OA
ATOM     86  O   UNL     1      11.607  -3.523  -9.850  1.00  0.00    -0.237 OA
ATOM     87  O   UNL     1      11.202  -4.468  -7.611  1.00  0.00    -0.744 OA
ENDBRANCH  83  84
ENDBRANCH  55  78
BRANCH  67  88
ATOM     88  C   UNL     1      11.436 -14.157 -13.871  1.00  0.00    -0.014 A 
ATOM     89  C   UNL     1      12.172 -14.709 -12.807  1.00  0.00     0.010 A 
ATOM     90  C   UNL     1      11.935 -14.274 -15.182  1.00  0.00     0.010 A 
ATOM     91  C   UNL     1      13.399 -15.333 -13.047  1.00  0.00     0.020 A 
ATOM     92  C   UNL     1      13.145 -14.926 -15.429  1.00  0.00     0.020 A 
ATOM     93  C   UNL     1      13.877 -15.438 -14.357  1.00  0.00     0.054 A 
BRANCH  93  94
ATOM     94  S   UNL     1      15.454 -16.288 -14.646  1.00  0.00     0.124 S 
ATOM     95  O   UNL     1      16.418 -15.327 -14.118  1.00  0.00    -0.237 OA
ATOM     96  O   UNL     1      15.301 -17.516 -13.870  1.00  0.00    -0.237 OA
ATOM     97  O   UNL     1      15.488 -16.474 -16.095  1.00  0.00    -0.744 OA
ENDBRANCH  93  94
ENDBRANCH  67  88
ENDBRANCH  41  42
ENDBRANCH  33  36
ENDBRANCH  31  32
ENDBRANCH   1  31
TORSDOF 17
