REMARK SMILES Cc1c(C[NH2+]C[C@@H]2CCCO2)c(C(=O)NCCCNC(=O)c2ccc(-c3c4nc(c(-c5ccc(S(=O)(=O)[O-])cc5)c5ccc([nH]5)c(-c5ccc(S(=O)(=O)[O-])cc5)c5nc(c(-c6ccc(S(=O)(=O)[O-])cc6)c6ccc3[nH]6)C=C5)C=C4)cc2)c(C)n1Cc1ccc(F)cc1
REMARK SMILES IDX 16 1 15 2 13 3 14 4 12 6 1 7 2 8 3 9 84 10 82 11 83 12 4 13
REMARK SMILES IDX 5 14 6 17 7 18 8 19 11 20 9 21 10 22 85 23 86 24 87 25 92 26
REMARK SMILES IDX 88 27 91 28 89 29 90 30 17 31 18 32 19 33 20 34 21 36 22 37
REMARK SMILES IDX 23 38 81 39 24 40 80 41 25 42 26 43 27 44 74 45 28 46 79 47
REMARK SMILES IDX 73 48 75 49 29 50 78 51 72 52 71 53 30 55 60 56 41 57 59 58
REMARK SMILES IDX 42 59 45 60 58 61 76 62 43 63 44 64 57 66 77 67 46 68 31 69
REMARK SMILES IDX 32 70 40 71 33 72 39 73 34 74 35 75 36 76 37 77 38 78 61 79
REMARK SMILES IDX 62 80 70 81 63 82 69 83 64 84 65 85 66 86 67 87 68 88 47 89
REMARK SMILES IDX 48 90 56 91 49 92 55 93 50 94 51 95 52 96 53 97 54 98
REMARK H PARENT 15 5 5 15 5 16 19 35 75 54 45 65
REMARK Flexibility Score: inf
ROOT
ATOM      1  C   UNL     1      -1.816  -6.559   1.849  1.00  0.00     0.118 C 
ENDROOT
BRANCH   1   2
ATOM      2  N   UNL     1      -0.568  -6.465   1.120  1.00  0.00    -0.352 N 
ATOM      3  C   UNL     1       0.267  -5.497   0.626  1.00  0.00     0.253 C 
ATOM      4  O   UNL     1       1.200  -5.985  -0.023  1.00  0.00    -0.269 OA
ATOM      5  H   UNL     1      -0.215  -7.362   0.920  1.00  0.00     0.163 HD
BRANCH   3   6
ATOM      6  C   UNL     1       0.094  -4.028   0.723  1.00  0.00     0.069 A 
ATOM      7  C   UNL     1       1.001  -0.480  -0.214  1.00  0.00     0.065 C 
ATOM      8  C   UNL     1       0.452  -1.795   0.232  1.00  0.00     0.025 A 
ATOM      9  C   UNL     1       0.914  -3.080  -0.039  1.00  0.00     0.040 A 
ATOM     10  N   UNL     1      -0.676  -1.940   1.016  1.00  0.00    -0.343 N 
ATOM     11  C   UNL     1      -0.619  -3.203   1.602  1.00  0.00     0.028 A 
ATOM     12  C   UNL     1      -1.163  -3.444   2.967  1.00  0.00     0.065 C 
BRANCH   9  13
ATOM     13  C   UNL     1       2.107  -3.410  -0.914  1.00  0.00     0.300 C 
BRANCH  13  14
ATOM     14  N   UNL     1       3.217  -3.764  -0.031  1.00  0.00    -0.340 N 
ATOM     15  H   UNL     1       2.955  -4.596   0.498  1.00  0.00     0.346 HD
ATOM     16  H   UNL     1       3.388  -2.958   0.571  1.00  0.00     0.346 HD
BRANCH  14  17
ATOM     17  C   UNL     1       4.467  -4.041  -0.741  1.00  0.00     0.293 C 
BRANCH  17  18
ATOM     18  C   UNL     1       5.252  -2.836  -1.298  1.00  0.00     0.173 C 
ATOM     19  C   UNL     1       5.312  -1.601  -0.411  1.00  0.00     0.040 C 
ATOM     20  O   UNL     1       4.725  -2.399  -2.563  1.00  0.00    -0.372 OA
ATOM     21  C   UNL     1       5.592  -0.508  -1.412  1.00  0.00     0.031 C 
ATOM     22  C   UNL     1       4.833  -0.974  -2.638  1.00  0.00     0.161 C 
ENDBRANCH  17  18
ENDBRANCH  14  17
ENDBRANCH  13  14
ENDBRANCH   9  13
BRANCH  10  23
ATOM     23  C   UNL     1      -1.609  -0.857   1.359  1.00  0.00     0.157 C 
BRANCH  23  24
ATOM     24  C   UNL     1      -3.005  -0.989   0.773  1.00  0.00    -0.028 A 
ATOM     25  C   UNL     1      -3.584   0.100   0.092  1.00  0.00     0.008 A 
ATOM     26  C   UNL     1      -3.805  -2.124   0.987  1.00  0.00     0.008 A 
ATOM     27  C   UNL     1      -4.911   0.051  -0.348  1.00  0.00     0.039 A 
ATOM     28  C   UNL     1      -5.132  -2.172   0.554  1.00  0.00     0.039 A 
ATOM     29  C   UNL     1      -5.676  -1.082  -0.105  1.00  0.00     0.123 A 
ATOM     30  F   UNL     1      -6.954  -1.118  -0.502  1.00  0.00    -0.207 F 
ENDBRANCH  23  24
ENDBRANCH  10  23
ENDBRANCH   3   6
ENDBRANCH   1   2
BRANCH   1  31
ATOM     31  C   UNL     1      -3.069  -6.541   0.964  1.00  0.00     0.042 C 
BRANCH  31  32
ATOM     32  C   UNL     1      -3.280  -7.802   0.089  1.00  0.00     0.118 C 
BRANCH  32  33
ATOM     33  N   UNL     1      -4.262  -8.726   0.636  1.00  0.00    -0.352 N 
ATOM     34  C   UNL     1      -5.146  -9.577  -0.004  1.00  0.00     0.251 C 
ATOM     35  H   UNL     1      -4.304  -8.748   1.619  1.00  0.00     0.163 HD
ATOM     36  O   UNL     1      -5.971 -10.154   0.706  1.00  0.00    -0.269 OA
BRANCH  34  37
ATOM     37  C   UNL     1      -5.227  -9.724  -1.502  1.00  0.00     0.039 A 
ATOM     38  C   UNL     1      -6.335  -9.179  -2.141  1.00  0.00     0.014 A 
ATOM     39  C   UNL     1      -4.433 -10.597  -2.267  1.00  0.00     0.014 A 
ATOM     40  C   UNL     1      -6.604  -9.449  -3.515  1.00  0.00     0.010 A 
ATOM     41  C   UNL     1      -4.755 -10.930  -3.648  1.00  0.00     0.010 A 
ATOM     42  C   UNL     1      -5.862 -10.375  -4.325  1.00  0.00    -0.014 A 
BRANCH  42  43
ATOM     43  C   UNL     1      -6.694 -11.078  -5.490  1.00  0.00     0.031 A 
ATOM     44  C   UNL     1      -7.884 -11.602  -4.761  1.00  0.00     0.074 A 
ATOM     45  C   UNL     1      -6.643 -11.438  -6.830  1.00  0.00     0.049 A 
ATOM     46  N   UNL     1      -7.714 -12.422  -3.764  1.00  0.00    -0.248 NA
ATOM     47  C   UNL     1      -9.200 -10.968  -4.825  1.00  0.00     0.031 C 
ATOM     48  C   UNL     1      -5.524 -11.298  -7.774  1.00  0.00     0.029 A 
ATOM     49  N   UNL     1      -7.615 -12.027  -7.691  1.00  0.00    -0.354 N 
ATOM     50  C   UNL     1      -8.946 -12.597  -3.187  1.00  0.00     0.074 A 
ATOM     51  C   UNL     1      -9.773 -11.540  -3.760  1.00  0.00     0.031 C 
ATOM     52  C   UNL     1      -5.896 -11.625  -9.048  1.00  0.00     0.029 A 
ATOM     53  C   UNL     1      -7.285 -12.081  -9.092  1.00  0.00     0.049 A 
ATOM     54  H   UNL     1      -8.467 -12.379  -7.346  1.00  0.00     0.167 HD
ATOM     55  C   UNL     1      -9.306 -13.885  -2.928  1.00  0.00     0.031 A 
ATOM     56  C   UNL     1      -8.033 -12.524 -10.180  1.00  0.00     0.031 A 
ATOM     57  C   UNL     1     -10.121 -14.417  -3.989  1.00  0.00     0.049 A 
ATOM     58  C   UNL     1      -8.958 -13.523  -9.623  1.00  0.00     0.074 A 
ATOM     59  C   UNL     1     -11.258 -13.950  -4.614  1.00  0.00     0.029 A 
ATOM     60  N   UNL     1      -9.523 -15.316  -4.852  1.00  0.00    -0.354 N 
ATOM     61  N   UNL     1      -8.554 -14.708  -9.283  1.00  0.00    -0.248 NA
ATOM     62  C   UNL     1     -10.397 -13.298  -9.538  1.00  0.00     0.031 C 
ATOM     63  C   UNL     1     -11.055 -14.216  -5.986  1.00  0.00     0.029 A 
ATOM     64  C   UNL     1      -9.996 -15.105  -6.133  1.00  0.00     0.049 A 
ATOM     65  H   UNL     1      -8.862 -15.999  -4.594  1.00  0.00     0.167 HD
ATOM     66  C   UNL     1      -9.561 -15.160  -8.484  1.00  0.00     0.074 A 
ATOM     67  C   UNL     1     -10.737 -14.423  -8.906  1.00  0.00     0.031 C 
ATOM     68  C   UNL     1      -9.226 -15.614  -7.249  1.00  0.00     0.031 A 
BRANCH  55  69
ATOM     69  C   UNL     1      -8.280 -14.689  -2.180  1.00  0.00    -0.014 A 
ATOM     70  C   UNL     1      -8.561 -15.069  -0.860  1.00  0.00     0.010 A 
ATOM     71  C   UNL     1      -7.005 -14.988  -2.711  1.00  0.00     0.010 A 
ATOM     72  C   UNL     1      -7.581 -15.694  -0.080  1.00  0.00     0.020 A 
ATOM     73  C   UNL     1      -6.018 -15.596  -1.932  1.00  0.00     0.020 A 
ATOM     74  C   UNL     1      -6.311 -15.941  -0.616  1.00  0.00     0.054 A 
BRANCH  74  75
ATOM     75  S   UNL     1      -5.047 -16.666   0.462  1.00  0.00     0.124 S 
ATOM     76  O   UNL     1      -5.094 -15.800   1.637  1.00  0.00    -0.237 OA
ATOM     77  O   UNL     1      -5.552 -18.017   0.666  1.00  0.00    -0.237 OA
ATOM     78  O   UNL     1      -3.811 -16.561  -0.320  1.00  0.00    -0.744 OA
ENDBRANCH  74  75
ENDBRANCH  55  69
BRANCH  56  79
ATOM     79  C   UNL     1      -8.147 -12.552 -11.731  1.00  0.00    -0.014 A 
ATOM     80  C   UNL     1      -8.789 -13.674 -12.364  1.00  0.00     0.010 A 
ATOM     81  C   UNL     1      -8.059 -11.407 -12.540  1.00  0.00     0.010 A 
ATOM     82  C   UNL     1      -9.447 -13.612 -13.613  1.00  0.00     0.020 A 
ATOM     83  C   UNL     1      -8.685 -11.347 -13.827  1.00  0.00     0.020 A 
ATOM     84  C   UNL     1      -9.425 -12.426 -14.328  1.00  0.00     0.054 A 
BRANCH  84  85
ATOM     85  S   UNL     1     -10.489 -12.277 -15.814  1.00  0.00     0.124 S 
ATOM     86  O   UNL     1      -9.897 -13.236 -16.742  1.00  0.00    -0.237 OA
ATOM     87  O   UNL     1     -11.809 -12.639 -15.299  1.00  0.00    -0.237 OA
ATOM     88  O   UNL     1     -10.350 -10.874 -16.198  1.00  0.00    -0.744 OA
ENDBRANCH  84  85
ENDBRANCH  56  79
BRANCH  68  89
ATOM     89  C   UNL     1      -7.952 -16.445  -7.128  1.00  0.00    -0.014 A 
ATOM     90  C   UNL     1      -6.712 -16.138  -7.739  1.00  0.00     0.010 A 
ATOM     91  C   UNL     1      -8.026 -17.656  -6.418  1.00  0.00     0.010 A 
ATOM     92  C   UNL     1      -5.632 -17.035  -7.721  1.00  0.00     0.020 A 
ATOM     93  C   UNL     1      -6.937 -18.538  -6.354  1.00  0.00     0.020 A 
ATOM     94  C   UNL     1      -5.759 -18.241  -7.038  1.00  0.00     0.054 A 
BRANCH  94  95
ATOM     95  S   UNL     1      -4.384 -19.426  -7.079  1.00  0.00     0.124 S 
ATOM     96  O   UNL     1      -4.404 -19.877  -8.470  1.00  0.00    -0.237 OA
ATOM     97  O   UNL     1      -3.235 -18.605  -6.709  1.00  0.00    -0.237 OA
ATOM     98  O   UNL     1      -4.772 -20.440  -6.103  1.00  0.00    -0.744 OA
ENDBRANCH  94  95
ENDBRANCH  68  89
ENDBRANCH  42  43
ENDBRANCH  34  37
ENDBRANCH  32  33
ENDBRANCH  31  32
ENDBRANCH   1  31
TORSDOF 19
