REMARK SMILES C[C@H](CNC(=O)[C@H]1CCCCC[C@@H]1[NH3+])C(=O)NCCCNC(=O)c1ccc(-c2c3nc(c(-c4ccc(S(=O)(=O)[O-])cc4)c4ccc([nH]4)c(-c4ccc(S(=O)(=O)[O-])cc4)c4nc(c(-c5ccc(S(=O)(=O)[O-])cc5)c5ccc2[nH]5)C=C4)C=C3)cc1
REMARK SMILES IDX 15 1 16 2 17 3 2 5 1 6 3 7 4 8 5 9 6 11 7 12 8 13 9 14 10 15
REMARK SMILES IDX 11 16 13 18 12 19 14 21 18 25 19 26 20 27 21 28 22 29 23 31
REMARK SMILES IDX 24 32 25 33 83 34 26 35 82 36 27 37 28 38 29 39 76 40 30 41
REMARK SMILES IDX 81 42 75 43 77 44 31 45 80 46 74 47 73 48 32 50 62 51 43 52
REMARK SMILES IDX 61 53 44 54 47 55 60 56 78 57 45 58 46 59 59 61 79 62 48 63
REMARK SMILES IDX 33 64 34 65 42 66 35 67 41 68 36 69 37 70 38 71 39 72 40 73
REMARK SMILES IDX 63 74 64 75 72 76 65 77 71 78 66 79 67 80 68 81 69 82 70 83
REMARK SMILES IDX 49 84 50 85 58 86 51 87 57 88 52 89 53 90 54 91 55 92 56 93
REMARK H PARENT 17 4 4 10 14 22 14 23 14 24 21 30 77 49 47 60
REMARK Flexibility Score: 90.00
ROOT
ATOM      1  C   UNL     1       7.091   0.350   3.425  1.00  0.00     0.224 C 
ATOM      2  O   UNL     1       8.295   0.112   3.546  1.00  0.00    -0.275 OA
ATOM      3  N   UNL     1       6.326   0.330   4.544  1.00  0.00    -0.356 N 
ATOM      4  H   UNL     1       6.824   0.194   5.383  1.00  0.00     0.163 HD
ENDROOT
BRANCH   1   5
ATOM      5  C   UNL     1       6.498   0.664   2.062  1.00  0.00     0.094 C 
ATOM      6  C   UNL     1       5.963   2.093   1.977  1.00  0.00     0.020 C 
BRANCH   5   7
ATOM      7  C   UNL     1       5.593  -0.470   1.557  1.00  0.00     0.129 C 
BRANCH   7   8
ATOM      8  N   UNL     1       4.218  -0.116   1.279  1.00  0.00    -0.355 N 
ATOM      9  C   UNL     1       3.469  -0.048   0.157  1.00  0.00     0.229 C 
ATOM     10  H   UNL     1       3.716   0.130   2.089  1.00  0.00     0.163 HD
ATOM     11  O   UNL     1       2.311   0.349   0.345  1.00  0.00    -0.275 OA
BRANCH   9  12
ATOM     12  C   UNL     1       3.909  -0.436  -1.264  1.00  0.00     0.136 C 
BRANCH  12  13
ATOM     13  C   UNL     1       4.987   0.402  -1.950  1.00  0.00     0.020 C 
BRANCH  13  14
ATOM     14  C   UNL     1       6.450   0.278  -1.575  1.00  0.00     0.001 C 
BRANCH  14  15
ATOM     15  C   UNL     1       7.176  -1.066  -1.527  1.00  0.00     0.000 C 
BRANCH  15  16
ATOM     16  C   UNL     1       6.471  -2.393  -1.785  1.00  0.00     0.006 CG0
ATOM     17  G   UNL     1       5.160  -2.711  -1.069  1.00  0.00     0.000 G0
ENDBRANCH  15  16
ENDBRANCH  14  15
ENDBRANCH  13  14
ENDBRANCH  12  13
BRANCH  12  18
ATOM     18  C   UNL     1       3.919  -1.948  -1.530  1.00  0.00     0.193 C 
BRANCH  18  19
ATOM     19  C   UNL     1       5.160  -2.711  -1.069  1.00  0.00     0.066 CG0
ATOM     20  G   UNL     1       6.471  -2.393  -1.785  1.00  0.00     0.000 G0
ENDBRANCH  18  19
BRANCH  18  21
ATOM     21  N   UNL     1       3.680  -2.213  -2.963  1.00  0.00    -0.354 N 
ATOM     22  H   UNL     1       4.455  -1.841  -3.512  1.00  0.00     0.344 HD
ATOM     23  H   UNL     1       2.812  -1.764  -3.252  1.00  0.00     0.344 HD
ATOM     24  H   UNL     1       3.609  -3.220  -3.116  1.00  0.00     0.344 HD
ENDBRANCH  18  21
ENDBRANCH  12  18
ENDBRANCH   9  12
ENDBRANCH   7   8
ENDBRANCH   5   7
ENDBRANCH   1   5
BRANCH   3  25
ATOM     25  C   UNL     1       4.893   0.475   4.704  1.00  0.00     0.117 C 
BRANCH  25  26
ATOM     26  C   UNL     1       4.196  -0.872   4.837  1.00  0.00     0.042 C 
BRANCH  26  27
ATOM     27  C   UNL     1       4.642  -1.641   6.069  1.00  0.00     0.118 C 
BRANCH  27  28
ATOM     28  N   UNL     1       4.219  -0.970   7.290  1.00  0.00    -0.352 N 
ATOM     29  C   UNL     1       3.281  -1.382   8.199  1.00  0.00     0.251 C 
ATOM     30  H   UNL     1       4.661  -0.112   7.486  1.00  0.00     0.163 HD
ATOM     31  O   UNL     1       2.797  -0.576   8.997  1.00  0.00    -0.269 OA
BRANCH  29  32
ATOM     32  C   UNL     1       2.866  -2.796   8.210  1.00  0.00     0.039 A 
ATOM     33  C   UNL     1       1.516  -3.125   8.340  1.00  0.00     0.014 A 
ATOM     34  C   UNL     1       3.833  -3.798   8.084  1.00  0.00     0.014 A 
ATOM     35  C   UNL     1       1.131  -4.466   8.303  1.00  0.00     0.010 A 
ATOM     36  C   UNL     1       3.440  -5.120   7.951  1.00  0.00     0.010 A 
ATOM     37  C   UNL     1       2.088  -5.470   8.087  1.00  0.00    -0.014 A 
BRANCH  37  38
ATOM     38  C   UNL     1       1.731  -6.908   8.058  1.00  0.00     0.031 A 
ATOM     39  C   UNL     1       2.326  -7.830   9.090  1.00  0.00     0.074 A 
ATOM     40  C   UNL     1       0.965  -7.395   7.064  1.00  0.00     0.049 A 
ATOM     41  N   UNL     1       2.279  -9.134   9.159  1.00  0.00    -0.248 NA
ATOM     42  C   UNL     1       3.112  -7.200  10.166  1.00  0.00     0.031 C 
ATOM     43  C   UNL     1       0.359  -6.603   5.990  1.00  0.00     0.029 A 
ATOM     44  N   UNL     1       0.578  -8.681   6.786  1.00  0.00    -0.354 N 
ATOM     45  C   UNL     1       3.056  -9.480  10.259  1.00  0.00     0.074 A 
ATOM     46  C   UNL     1       3.605  -8.255  10.795  1.00  0.00     0.031 C 
ATOM     47  C   UNL     1      -0.338  -7.419   5.182  1.00  0.00     0.029 A 
ATOM     48  C   UNL     1      -0.190  -8.793   5.651  1.00  0.00     0.049 A 
ATOM     49  H   UNL     1       0.827  -9.452   7.346  1.00  0.00     0.167 HD
ATOM     50  C   UNL     1       3.276 -10.706  10.787  1.00  0.00     0.031 A 
ATOM     51  C   UNL     1      -0.703  -9.884   5.049  1.00  0.00     0.031 A 
ATOM     52  C   UNL     1       2.699 -11.914  10.263  1.00  0.00     0.049 A 
ATOM     53  C   UNL     1      -0.452 -11.237   5.658  1.00  0.00     0.074 A 
ATOM     54  C   UNL     1       2.808 -13.203  10.753  1.00  0.00     0.029 A 
ATOM     55  N   UNL     1       1.897 -11.979   9.134  1.00  0.00    -0.354 N 
ATOM     56  N   UNL     1       0.249 -11.543   6.725  1.00  0.00    -0.248 NA
ATOM     57  C   UNL     1      -1.069 -12.391   4.990  1.00  0.00     0.031 C 
ATOM     58  C   UNL     1       2.109 -14.054   9.893  1.00  0.00     0.029 A 
ATOM     59  C   UNL     1       1.514 -13.287   8.903  1.00  0.00     0.049 A 
ATOM     60  H   UNL     1       1.638 -11.208   8.579  1.00  0.00     0.167 HD
ATOM     61  C   UNL     1       0.125 -12.919   6.877  1.00  0.00     0.074 A 
ATOM     62  C   UNL     1      -0.720 -13.385   5.797  1.00  0.00     0.031 C 
ATOM     63  C   UNL     1       0.658 -13.725   7.829  1.00  0.00     0.031 A 
BRANCH  50  64
ATOM     64  C   UNL     1       4.179 -10.796  11.990  1.00  0.00    -0.014 A 
ATOM     65  C   UNL     1       3.788 -10.273  13.236  1.00  0.00     0.010 A 
ATOM     66  C   UNL     1       5.426 -11.437  11.880  1.00  0.00     0.010 A 
ATOM     67  C   UNL     1       4.645 -10.346  14.336  1.00  0.00     0.020 A 
ATOM     68  C   UNL     1       6.274 -11.542  12.986  1.00  0.00     0.020 A 
ATOM     69  C   UNL     1       5.885 -10.978  14.203  1.00  0.00     0.054 A 
BRANCH  69  70
ATOM     70  S   UNL     1       6.969 -11.077  15.654  1.00  0.00     0.124 S 
ATOM     71  O   UNL     1       7.437  -9.698  15.774  1.00  0.00    -0.237 OA
ATOM     72  O   UNL     1       6.059 -11.524  16.705  1.00  0.00    -0.237 OA
ATOM     73  O   UNL     1       7.987 -12.048  15.261  1.00  0.00    -0.744 OA
ENDBRANCH  69  70
ENDBRANCH  50  64
BRANCH  51  74
ATOM     74  C   UNL     1      -1.521  -9.736   3.814  1.00  0.00    -0.014 A 
ATOM     75  C   UNL     1      -2.908  -9.963   3.848  1.00  0.00     0.010 A 
ATOM     76  C   UNL     1      -0.922  -9.351   2.601  1.00  0.00     0.010 A 
ATOM     77  C   UNL     1      -3.677  -9.829   2.689  1.00  0.00     0.020 A 
ATOM     78  C   UNL     1      -1.692  -9.187   1.446  1.00  0.00     0.020 A 
ATOM     79  C   UNL     1      -3.064  -9.440   1.495  1.00  0.00     0.054 A 
BRANCH  79  80
ATOM     80  S   UNL     1      -4.090  -9.229   0.013  1.00  0.00     0.124 S 
ATOM     81  O   UNL     1      -4.397 -10.611  -0.342  1.00  0.00    -0.237 OA
ATOM     82  O   UNL     1      -5.212  -8.441   0.517  1.00  0.00    -0.237 OA
ATOM     83  O   UNL     1      -3.209  -8.525  -0.915  1.00  0.00    -0.744 OA
ENDBRANCH  79  80
ENDBRANCH  51  74
BRANCH  63  84
ATOM     84  C   UNL     1       0.300 -15.185   7.785  1.00  0.00    -0.014 A 
ATOM     85  C   UNL     1       0.846 -16.045   6.816  1.00  0.00     0.010 A 
ATOM     86  C   UNL     1      -0.535 -15.716   8.785  1.00  0.00     0.010 A 
ATOM     87  C   UNL     1       0.544 -17.409   6.837  1.00  0.00     0.020 A 
ATOM     88  C   UNL     1      -0.815 -17.083   8.826  1.00  0.00     0.020 A 
ATOM     89  C   UNL     1      -0.282 -17.920   7.844  1.00  0.00     0.054 A 
BRANCH  89  90
ATOM     90  S   UNL     1      -0.605 -19.704   7.886  1.00  0.00     0.124 S 
ATOM     91  O   UNL     1      -1.525 -19.872   6.765  1.00  0.00    -0.237 OA
ATOM     92  O   UNL     1       0.726 -20.275   7.699  1.00  0.00    -0.237 OA
ATOM     93  O   UNL     1      -1.188 -19.919   9.209  1.00  0.00    -0.744 OA
ENDBRANCH  89  90
ENDBRANCH  63  84
ENDBRANCH  37  38
ENDBRANCH  29  32
ENDBRANCH  27  28
ENDBRANCH  26  27
ENDBRANCH  25  26
ENDBRANCH   3  25
TORSDOF 17
