REMARK SMILES Cc1ncccc1NC(=O)Nc1ccc(C(=O)NCCCNC(=O)c2ccc(-c3c4nc(c(-c5ccc(S(=O)(=O)[O-])cc5)c5ccc([nH]5)c(-c5ccc(S(=O)(=O)[O-])cc5)c5nc(c(-c6ccc(S(=O)(=O)[O-])cc6)c6ccc3[nH]6)C=C5)C=C4)cc2)c(O)c1
REMARK SMILES IDX 20 1 19 2 18 3 16 4 17 5 15 7 12 8 13 9 87 10 14 11 85 12
REMARK SMILES IDX 11 13 8 14 9 15 10 17 7 19 1 20 2 21 3 22 4 23 6 24 5 25
REMARK SMILES IDX 86 26 21 28 22 29 23 30 24 32 25 33 26 34 84 35 27 36 83 37
REMARK SMILES IDX 28 38 29 39 30 40 77 41 31 42 82 43 76 44 78 45 32 46 81 47
REMARK SMILES IDX 75 48 74 49 33 51 63 52 44 53 62 54 45 55 48 56 61 57 79 58
REMARK SMILES IDX 46 59 47 60 60 62 80 63 49 64 34 65 35 66 43 67 36 68 42 69
REMARK SMILES IDX 37 70 38 71 39 72 40 73 41 74 64 75 65 76 73 77 66 78 72 79
REMARK SMILES IDX 67 80 68 81 69 82 70 83 71 84 50 85 51 86 59 87 52 88 58 89
REMARK SMILES IDX 53 90 54 91 55 92 56 93 57 94
REMARK H PARENT 18 6 8 16 11 18 86 27 22 31 78 50 48 61
REMARK Flexibility Score: inf
ROOT
ATOM      1  C   UNL     1      -5.348   1.412   3.170  1.00  0.00     0.042 C 
ENDROOT
BRANCH   1   2
ATOM      2  C   UNL     1      -5.415   0.532   1.929  1.00  0.00     0.118 C 
BRANCH   2   3
ATOM      3  N   UNL     1      -5.199   1.216   0.661  1.00  0.00    -0.352 N 
ATOM      4  C   UNL     1      -4.670   0.774  -0.533  1.00  0.00     0.255 C 
ATOM      5  O   UNL     1      -4.669   1.548  -1.488  1.00  0.00    -0.269 OA
ATOM      6  H   UNL     1      -5.481   2.159   0.655  1.00  0.00     0.163 HD
BRANCH   4   7
ATOM      7  C   UNL     1      -4.007  -0.551  -0.677  1.00  0.00     0.081 A 
ATOM      8  C   UNL     1      -2.233  -2.704  -0.492  1.00  0.00     0.046 A 
ATOM      9  C   UNL     1      -1.951  -1.655  -1.363  1.00  0.00     0.027 A 
ATOM     10  C   UNL     1      -3.514  -2.805   0.057  1.00  0.00     0.073 A 
ATOM     11  C   UNL     1      -2.825  -0.567  -1.435  1.00  0.00     0.020 A 
ATOM     12  C   UNL     1      -4.406  -1.737  -0.060  1.00  0.00     0.130 A 
BRANCH   8  13
ATOM     13  N   UNL     1      -1.268  -3.628  -0.065  1.00  0.00    -0.308 N 
ATOM     14  N   UNL     1       0.798  -2.419   0.104  1.00  0.00    -0.306 N 
ATOM     15  C   UNL     1       0.081  -3.566   0.016  1.00  0.00     0.323 C 
ATOM     16  H   UNL     1       1.742  -2.539  -0.149  1.00  0.00     0.171 HD
ATOM     17  O   UNL     1       0.710  -4.630   0.018  1.00  0.00    -0.248 OA
ATOM     18  H   UNL     1      -1.645  -4.487   0.233  1.00  0.00     0.171 HD
BRANCH  14  19
ATOM     19  C   UNL     1       0.495  -1.089   0.476  1.00  0.00     0.064 A 
ATOM     20  C   UNL     1       2.728  -0.188  -0.415  1.00  0.00     0.069 C 
ATOM     21  C   UNL     1       1.324  -0.023   0.089  1.00  0.00     0.061 A 
ATOM     22  N   UNL     1       0.942   1.280   0.199  1.00  0.00    -0.259 NA
ATOM     23  C   UNL     1      -0.247   1.544   0.776  1.00  0.00     0.111 A 
ATOM     24  C   UNL     1      -0.640  -0.758   1.218  1.00  0.00     0.030 A 
ATOM     25  C   UNL     1      -1.040   0.571   1.345  1.00  0.00     0.022 A 
ENDBRANCH  14  19
ENDBRANCH   8  13
BRANCH  12  26
ATOM     26  O   UNL     1      -5.646  -1.937   0.477  1.00  0.00    -0.507 OA
ATOM     27  H   UNL     1      -6.291  -1.259   0.432  1.00  0.00     0.293 HD
ENDBRANCH  12  26
ENDBRANCH   4   7
ENDBRANCH   2   3
ENDBRANCH   1   2
BRANCH   1  28
ATOM     28  C   UNL     1      -6.292   2.607   3.210  1.00  0.00     0.118 C 
BRANCH  28  29
ATOM     29  N   UNL     1      -7.701   2.265   3.090  1.00  0.00    -0.352 N 
ATOM     30  C   UNL     1      -8.754   2.365   3.974  1.00  0.00     0.251 C 
ATOM     31  H   UNL     1      -7.949   1.893   2.213  1.00  0.00     0.163 HD
ATOM     32  O   UNL     1      -9.842   1.910   3.639  1.00  0.00    -0.269 OA
BRANCH  30  33
ATOM     33  C   UNL     1      -8.594   2.972   5.320  1.00  0.00     0.039 A 
ATOM     34  C   UNL     1      -9.323   2.436   6.388  1.00  0.00     0.014 A 
ATOM     35  C   UNL     1      -7.775   4.076   5.547  1.00  0.00     0.014 A 
ATOM     36  C   UNL     1      -9.169   2.957   7.678  1.00  0.00     0.010 A 
ATOM     37  C   UNL     1      -7.527   4.513   6.847  1.00  0.00     0.010 A 
ATOM     38  C   UNL     1      -8.235   3.974   7.930  1.00  0.00    -0.014 A 
BRANCH  38  39
ATOM     39  C   UNL     1      -8.017   4.511   9.303  1.00  0.00     0.031 A 
ATOM     40  C   UNL     1      -8.253   5.974   9.594  1.00  0.00     0.074 A 
ATOM     41  C   UNL     1      -7.571   3.697  10.283  1.00  0.00     0.049 A 
ATOM     42  N   UNL     1      -8.086   6.631  10.714  1.00  0.00    -0.248 NA
ATOM     43  C   UNL     1      -8.709   6.816   8.474  1.00  0.00     0.031 C 
ATOM     44  C   UNL     1      -7.254   2.274  10.128  1.00  0.00     0.029 A 
ATOM     45  N   UNL     1      -7.309   3.948  11.607  1.00  0.00    -0.354 N 
ATOM     46  C   UNL     1      -8.407   7.954  10.430  1.00  0.00     0.074 A 
ATOM     47  C   UNL     1      -8.701   8.024   9.017  1.00  0.00     0.031 C 
ATOM     48  C   UNL     1      -6.885   1.772  11.318  1.00  0.00     0.029 A 
ATOM     49  C   UNL     1      -6.895   2.840  12.311  1.00  0.00     0.049 A 
ATOM     50  H   UNL     1      -7.408   4.838  12.016  1.00  0.00     0.167 HD
ATOM     51  C   UNL     1      -8.492   9.014  11.271  1.00  0.00     0.031 A 
ATOM     52  C   UNL     1      -6.564   2.698  13.610  1.00  0.00     0.031 A 
ATOM     53  C   UNL     1      -8.216   8.946  12.681  1.00  0.00     0.049 A 
ATOM     54  C   UNL     1      -6.646   3.895  14.520  1.00  0.00     0.074 A 
ATOM     55  C   UNL     1      -8.306   9.953  13.626  1.00  0.00     0.029 A 
ATOM     56  N   UNL     1      -7.805   7.804  13.352  1.00  0.00    -0.354 N 
ATOM     57  N   UNL     1      -7.011   5.123  14.239  1.00  0.00    -0.248 NA
ATOM     58  C   UNL     1      -6.286   3.680  15.929  1.00  0.00     0.031 C 
ATOM     59  C   UNL     1      -7.903   9.432  14.860  1.00  0.00     0.029 A 
ATOM     60  C   UNL     1      -7.622   8.085  14.695  1.00  0.00     0.049 A 
ATOM     61  H   UNL     1      -7.664   6.924  12.934  1.00  0.00     0.167 HD
ATOM     62  C   UNL     1      -6.956   5.818  15.444  1.00  0.00     0.074 A 
ATOM     63  C   UNL     1      -6.546   4.867  16.456  1.00  0.00     0.031 C 
ATOM     64  C   UNL     1      -7.217   7.126  15.690  1.00  0.00     0.031 A 
BRANCH  51  65
ATOM     65  C   UNL     1      -8.922  10.335  10.685  1.00  0.00    -0.014 A 
ATOM     66  C   UNL     1     -10.237  10.521  10.217  1.00  0.00     0.010 A 
ATOM     67  C   UNL     1      -8.023  11.415  10.636  1.00  0.00     0.010 A 
ATOM     68  C   UNL     1     -10.631  11.745   9.674  1.00  0.00     0.020 A 
ATOM     69  C   UNL     1      -8.423  12.653  10.123  1.00  0.00     0.020 A 
ATOM     70  C   UNL     1      -9.721  12.805   9.630  1.00  0.00     0.054 A 
BRANCH  70  71
ATOM     71  S   UNL     1     -10.273  14.392   8.948  1.00  0.00     0.124 S 
ATOM     72  O   UNL     1     -10.380  14.085   7.523  1.00  0.00    -0.237 OA
ATOM     73  O   UNL     1     -11.540  14.613   9.640  1.00  0.00    -0.237 OA
ATOM     74  O   UNL     1      -9.200  15.316   9.306  1.00  0.00    -0.744 OA
ENDBRANCH  70  71
ENDBRANCH  51  65
BRANCH  52  75
ATOM     75  C   UNL     1      -6.137   1.371  14.141  1.00  0.00    -0.014 A 
ATOM     76  C   UNL     1      -6.936   0.680  15.069  1.00  0.00     0.010 A 
ATOM     77  C   UNL     1      -4.912   0.805  13.743  1.00  0.00     0.010 A 
ATOM     78  C   UNL     1      -6.500  -0.528  15.622  1.00  0.00     0.020 A 
ATOM     79  C   UNL     1      -4.488  -0.419  14.268  1.00  0.00     0.020 A 
ATOM     80  C   UNL     1      -5.276  -1.069  15.220  1.00  0.00     0.054 A 
BRANCH  80  81
ATOM     81  S   UNL     1      -4.734  -2.643  15.940  1.00  0.00     0.124 S 
ATOM     82  O   UNL     1      -4.361  -2.245  17.294  1.00  0.00    -0.237 OA
ATOM     83  O   UNL     1      -5.933  -3.470  15.830  1.00  0.00    -0.237 OA
ATOM     84  O   UNL     1      -3.625  -3.049  15.078  1.00  0.00    -0.744 OA
ENDBRANCH  80  81
ENDBRANCH  52  75
BRANCH  64  85
ATOM     85  C   UNL     1      -7.108   7.594  17.118  1.00  0.00    -0.014 A 
ATOM     86  C   UNL     1      -5.863   7.691  17.764  1.00  0.00     0.010 A 
ATOM     87  C   UNL     1      -8.272   7.971  17.814  1.00  0.00     0.010 A 
ATOM     88  C   UNL     1      -5.788   8.108  19.095  1.00  0.00     0.020 A 
ATOM     89  C   UNL     1      -8.198   8.421  19.134  1.00  0.00     0.020 A 
ATOM     90  C   UNL     1      -6.957   8.468  19.773  1.00  0.00     0.054 A 
BRANCH  90  91
ATOM     91  S   UNL     1      -6.831   9.025  21.494  1.00  0.00     0.124 S 
ATOM     92  O   UNL     1      -6.548   7.777  22.197  1.00  0.00    -0.237 OA
ATOM     93  O   UNL     1      -5.728   9.981  21.441  1.00  0.00    -0.237 OA
ATOM     94  O   UNL     1      -8.142   9.611  21.766  1.00  0.00    -0.744 OA
ENDBRANCH  90  91
ENDBRANCH  64  85
ENDBRANCH  38  39
ENDBRANCH  30  33
ENDBRANCH  28  29
ENDBRANCH   1  28
TORSDOF 16
