REMARK SMILES C[C@H]([NH3+])c1ccc(F)cc1OCC(C)(C)C(=O)NCCCNC(=O)c1ccc(-c2c3nc(c(-c4ccc(S(=O)(=O)[O-])cc4)c4ccc([nH]4)c(-c4ccc(S(=O)(=O)[O-])cc4)c4nc(c(-c5ccc(S(=O)(=O)[O-])cc5)c5ccc2[nH]5)C=C4)C=C3)cc1
REMARK SMILES IDX 19 1 18 2 16 3 17 4 13 6 14 7 15 8 12 9 11 10 10 11 4 12
REMARK SMILES IDX 5 13 6 14 9 15 7 16 8 17 2 18 1 19 3 20 20 24 21 25 22 26
REMARK SMILES IDX 23 27 24 29 25 30 26 31 84 32 27 33 83 34 28 35 29 36 30 37
REMARK SMILES IDX 77 38 31 39 82 40 76 41 78 42 32 43 81 44 75 45 74 46 33 48
REMARK SMILES IDX 63 49 44 50 62 51 45 52 48 53 61 54 79 55 46 56 47 57 60 59
REMARK SMILES IDX 80 60 49 61 34 62 35 63 43 64 36 65 42 66 37 67 38 68 39 69
REMARK SMILES IDX 40 70 41 71 64 72 65 73 73 74 66 75 72 76 67 77 68 78 69 79
REMARK SMILES IDX 70 80 71 81 50 82 51 83 59 84 52 85 58 86 53 87 54 88 55 89
REMARK SMILES IDX 56 90 57 91
REMARK H PARENT 18 5 3 21 3 22 3 23 22 28 78 47 48 58
REMARK Flexibility Score: inf
ROOT
ATOM      1  C   UNL     1       1.756  -2.521   3.268  1.00  0.00     0.117 C 
ENDROOT
BRANCH   1   2
ATOM      2  N   UNL     1       1.138  -1.708   4.312  1.00  0.00    -0.355 N 
ATOM      3  C   UNL     1       0.601  -0.445   4.236  1.00  0.00     0.229 C 
ATOM      4  O   UNL     1       0.005  -0.019   5.226  1.00  0.00    -0.274 OA
ATOM      5  H   UNL     1       1.100  -2.127   5.202  1.00  0.00     0.163 HD
BRANCH   3   6
ATOM      6  C   UNL     1       0.797   0.386   2.955  1.00  0.00     0.077 C 
ATOM      7  C   UNL     1       0.279  -0.460   1.772  1.00  0.00     0.025 C 
ATOM      8  C   UNL     1       2.318   0.692   2.874  1.00  0.00     0.025 C 
BRANCH   6   9
ATOM      9  C   UNL     1       0.125   1.796   3.070  1.00  0.00     0.245 C 
BRANCH   9  10
ATOM     10  O   UNL     1      -1.257   1.887   2.762  1.00  0.00    -0.492 OA
BRANCH  10  11
ATOM     11  C   UNL     1      -1.827   1.924   1.522  1.00  0.00     0.131 A 
ATOM     12  C   UNL     1      -1.274   1.988   0.217  1.00  0.00     0.051 A 
ATOM     13  C   UNL     1      -2.166   1.816  -0.876  1.00  0.00     0.017 A 
ATOM     14  C   UNL     1      -3.529   1.583  -0.697  1.00  0.00     0.040 A 
ATOM     15  C   UNL     1      -3.217   1.753   1.675  1.00  0.00     0.086 A 
ATOM     16  C   UNL     1      -4.046   1.570   0.582  1.00  0.00     0.126 A 
ATOM     17  F   UNL     1      -5.354   1.351   0.769  1.00  0.00    -0.207 F 
BRANCH  12  18
ATOM     18  C   UNL     1       0.199   2.178  -0.125  1.00  0.00     0.212 C 
ATOM     19  C   UNL     1       0.517   3.603  -0.568  1.00  0.00     0.081 C 
BRANCH  18  20
ATOM     20  N   UNL     1       0.697   1.234  -1.138  1.00  0.00    -0.351 N 
ATOM     21  H   UNL     1       0.226   1.406  -2.026  1.00  0.00     0.345 HD
ATOM     22  H   UNL     1       0.510   0.278  -0.833  1.00  0.00     0.345 HD
ATOM     23  H   UNL     1       1.702   1.361  -1.257  1.00  0.00     0.345 HD
ENDBRANCH  18  20
ENDBRANCH  12  18
ENDBRANCH  10  11
ENDBRANCH   9  10
ENDBRANCH   6   9
ENDBRANCH   3   6
ENDBRANCH   1   2
BRANCH   1  24
ATOM     24  C   UNL     1       3.006  -3.233   3.720  1.00  0.00     0.042 C 
BRANCH  24  25
ATOM     25  C   UNL     1       2.689  -4.407   4.618  1.00  0.00     0.118 C 
BRANCH  25  26
ATOM     26  N   UNL     1       1.930  -5.451   3.931  1.00  0.00    -0.352 N 
ATOM     27  C   UNL     1       2.279  -6.755   3.662  1.00  0.00     0.251 C 
ATOM     28  H   UNL     1       1.037  -5.182   3.615  1.00  0.00     0.163 HD
ATOM     29  O   UNL     1       1.602  -7.436   2.908  1.00  0.00    -0.269 OA
BRANCH  27  30
ATOM     30  C   UNL     1       3.502  -7.298   4.283  1.00  0.00     0.039 A 
ATOM     31  C   UNL     1       4.401  -8.036   3.512  1.00  0.00     0.014 A 
ATOM     32  C   UNL     1       3.785  -7.001   5.617  1.00  0.00     0.014 A 
ATOM     33  C   UNL     1       5.628  -8.401   4.065  1.00  0.00     0.010 A 
ATOM     34  C   UNL     1       5.055  -7.237   6.111  1.00  0.00     0.010 A 
ATOM     35  C   UNL     1       5.982  -7.962   5.351  1.00  0.00    -0.014 A 
BRANCH  35  36
ATOM     36  C   UNL     1       7.301  -8.270   5.952  1.00  0.00     0.031 A 
ATOM     37  C   UNL     1       7.363  -9.024   7.254  1.00  0.00     0.074 A 
ATOM     38  C   UNL     1       8.425  -7.786   5.388  1.00  0.00     0.049 A 
ATOM     39  N   UNL     1       8.402  -9.306   7.995  1.00  0.00    -0.248 NA
ATOM     40  C   UNL     1       6.081  -9.474   7.825  1.00  0.00     0.031 C 
ATOM     41  C   UNL     1       8.485  -6.970   4.172  1.00  0.00     0.029 A 
ATOM     42  N   UNL     1       9.736  -7.902   5.773  1.00  0.00    -0.354 N 
ATOM     43  C   UNL     1       7.893  -9.921   9.133  1.00  0.00     0.074 A 
ATOM     44  C   UNL     1       6.454  -9.912   9.016  1.00  0.00     0.031 C 
ATOM     45  C   UNL     1       9.768  -6.691   3.892  1.00  0.00     0.029 A 
ATOM     46  C   UNL     1      10.617  -7.273   4.926  1.00  0.00     0.049 A 
ATOM     47  H   UNL     1      10.019  -8.389   6.580  1.00  0.00     0.167 HD
ATOM     48  C   UNL     1       8.565 -10.473  10.171  1.00  0.00     0.031 A 
ATOM     49  C   UNL     1      11.959  -7.178   4.977  1.00  0.00     0.031 A 
ATOM     50  C   UNL     1       9.997 -10.518  10.256  1.00  0.00     0.049 A 
ATOM     51  C   UNL     1      12.692  -7.855   6.099  1.00  0.00     0.074 A 
ATOM     52  C   UNL     1      10.785 -11.137  11.208  1.00  0.00     0.029 A 
ATOM     53  N   UNL     1      10.858  -9.923   9.344  1.00  0.00    -0.354 N 
ATOM     54  N   UNL     1      12.200  -8.514   7.123  1.00  0.00    -0.248 NA
ATOM     55  C   UNL     1      14.159  -7.793   6.067  1.00  0.00     0.031 C 
ATOM     56  C   UNL     1      12.125 -10.880  10.895  1.00  0.00     0.029 A 
ATOM     57  C   UNL     1      12.170 -10.143   9.721  1.00  0.00     0.049 A 
ATOM     58  H   UNL     1      10.575  -9.419   8.547  1.00  0.00     0.167 HD
ATOM     59  C   UNL     1      13.298  -8.960   7.849  1.00  0.00     0.074 A 
ATOM     60  C   UNL     1      14.478  -8.510   7.137  1.00  0.00     0.031 C 
ATOM     61  C   UNL     1      13.328  -9.677   9.000  1.00  0.00     0.031 A 
BRANCH  48  62
ATOM     62  C   UNL     1       7.743 -11.062  11.287  1.00  0.00    -0.014 A 
ATOM     63  C   UNL     1       6.958 -12.214  11.087  1.00  0.00     0.010 A 
ATOM     64  C   UNL     1       7.740 -10.446  12.551  1.00  0.00     0.010 A 
ATOM     65  C   UNL     1       6.135 -12.697  12.107  1.00  0.00     0.020 A 
ATOM     66  C   UNL     1       6.943 -10.946  13.585  1.00  0.00     0.020 A 
ATOM     67  C   UNL     1       6.125 -12.053  13.347  1.00  0.00     0.054 A 
BRANCH  67  68
ATOM     68  S   UNL     1       5.038 -12.691  14.652  1.00  0.00     0.124 S 
ATOM     69  O   UNL     1       3.730 -12.213  14.212  1.00  0.00    -0.237 OA
ATOM     70  O   UNL     1       5.241 -14.135  14.562  1.00  0.00    -0.237 OA
ATOM     71  O   UNL     1       5.555 -12.068  15.867  1.00  0.00    -0.744 OA
ENDBRANCH  67  68
ENDBRANCH  48  62
BRANCH  49  72
ATOM     72  C   UNL     1      12.682  -6.447   3.902  1.00  0.00    -0.014 A 
ATOM     73  C   UNL     1      13.382  -7.155   2.909  1.00  0.00     0.010 A 
ATOM     74  C   UNL     1      12.620  -5.044   3.827  1.00  0.00     0.010 A 
ATOM     75  C   UNL     1      14.005  -6.473   1.859  1.00  0.00     0.020 A 
ATOM     76  C   UNL     1      13.222  -4.360   2.767  1.00  0.00     0.020 A 
ATOM     77  C   UNL     1      13.914  -5.080   1.790  1.00  0.00     0.054 A 
BRANCH  77  78
ATOM     78  S   UNL     1      14.649  -4.223   0.368  1.00  0.00     0.124 S 
ATOM     79  O   UNL     1      16.073  -4.287   0.678  1.00  0.00    -0.237 OA
ATOM     80  O   UNL     1      14.207  -5.044  -0.757  1.00  0.00    -0.237 OA
ATOM     81  O   UNL     1      14.052  -2.891   0.427  1.00  0.00    -0.744 OA
ENDBRANCH  77  78
ENDBRANCH  49  72
BRANCH  61  82
ATOM     82  C   UNL     1      14.679 -10.035   9.552  1.00  0.00    -0.014 A 
ATOM     83  C   UNL     1      15.487  -9.067  10.174  1.00  0.00     0.010 A 
ATOM     84  C   UNL     1      15.117 -11.370   9.501  1.00  0.00     0.010 A 
ATOM     85  C   UNL     1      16.726  -9.425  10.710  1.00  0.00     0.020 A 
ATOM     86  C   UNL     1      16.344 -11.736  10.059  1.00  0.00     0.020 A 
ATOM     87  C   UNL     1      17.147 -10.758  10.648  1.00  0.00     0.054 A 
BRANCH  87  88
ATOM     88  S   UNL     1      18.740 -11.206  11.389  1.00  0.00     0.124 S 
ATOM     89  O   UNL     1      19.688 -10.690  10.406  1.00  0.00    -0.237 OA
ATOM     90  O   UNL     1      18.711 -10.498  12.667  1.00  0.00    -0.237 OA
ATOM     91  O   UNL     1      18.676 -12.662  11.491  1.00  0.00    -0.744 OA
ENDBRANCH  87  88
ENDBRANCH  61  82
ENDBRANCH  35  36
ENDBRANCH  27  30
ENDBRANCH  25  26
ENDBRANCH  24  25
ENDBRANCH   1  24
TORSDOF 18
