REMARK SMILES CCS(=O)(=O)Nc1ccc(N2CC[NH+](C)CC2)cc1C(=O)NCCCNC(=O)c1ccc(-c2c3nc(c(-c4ccc(S(=O)(=O)[O-])cc4)c4ccc([nH]4)c(-c4ccc(S(=O)(=O)[O-])cc4)c4nc(c(-c5ccc(S(=O)(=O)[O-])cc5)c5ccc2[nH]5)C=C4)C=C3)cc1
REMARK SMILES IDX 24 1 23 2 22 3 20 4 21 5 19 7 7 8 8 9 9 10 18 11 10 12 6 13
REMARK SMILES IDX 3 15 4 16 5 17 2 18 1 19 11 20 12 21 17 22 13 23 16 24 14 25
REMARK SMILES IDX 15 26 25 28 26 29 27 30 28 32 29 33 30 34 88 35 31 36 87 37
REMARK SMILES IDX 32 38 33 39 34 40 81 41 35 42 86 43 80 44 82 45 36 46 85 47
REMARK SMILES IDX 79 48 78 49 37 51 67 52 48 53 66 54 49 55 52 56 65 57 83 58
REMARK SMILES IDX 50 59 51 60 64 62 84 63 53 64 38 65 39 66 47 67 40 68 46 69
REMARK SMILES IDX 41 70 42 71 43 72 44 73 45 74 68 75 69 76 77 77 70 78 76 79
REMARK SMILES IDX 71 80 72 81 73 82 74 83 75 84 54 85 55 86 63 87 56 88 62 89
REMARK SMILES IDX 57 90 58 91 59 92 60 93 61 94
REMARK H PARENT 22 6 6 14 14 27 26 31 82 50 52 61
REMARK Flexibility Score: inf
ROOT
ATOM      1  C   UNL     1       1.832   1.842  -4.159  1.00  0.00     0.042 C 
ENDROOT
BRANCH   1   2
ATOM      2  C   UNL     1       2.470   1.704  -2.788  1.00  0.00     0.118 C 
BRANCH   2   3
ATOM      3  N   UNL     1       2.143   0.447  -2.140  1.00  0.00    -0.352 N 
ATOM      4  C   UNL     1       2.518  -0.071  -0.935  1.00  0.00     0.253 C 
ATOM      5  O   UNL     1       2.122  -1.201  -0.645  1.00  0.00    -0.269 OA
ATOM      6  H   UNL     1       1.546  -0.136  -2.662  1.00  0.00     0.163 HD
BRANCH   4   7
ATOM      7  C   UNL     1       3.438   0.622  -0.000  1.00  0.00     0.066 A 
ATOM      8  C   UNL     1       3.414   1.974   0.349  1.00  0.00     0.061 A 
ATOM      9  C   UNL     1       4.447   2.473   1.147  1.00  0.00     0.030 A 
ATOM     10  C   UNL     1       5.390   1.621   1.719  1.00  0.00     0.028 A 
ATOM     11  C   UNL     1       4.375  -0.232   0.639  1.00  0.00     0.042 A 
ATOM     12  C   UNL     1       5.324   0.235   1.558  1.00  0.00     0.038 A 
BRANCH   8  13
ATOM     13  N   UNL     1       2.424   2.940   0.008  1.00  0.00    -0.283 N 
ATOM     14  H   UNL     1       2.704   3.703  -0.548  1.00  0.00     0.180 HD
BRANCH  13  15
ATOM     15  S   UNL     1       0.825   2.872   0.480  1.00  0.00     0.232 S 
ATOM     16  O   UNL     1       0.051   2.337  -0.618  1.00  0.00    -0.207 OA
ATOM     17  O   UNL     1       0.573   4.223   0.946  1.00  0.00    -0.207 OA
BRANCH  15  18
ATOM     18  C   UNL     1       0.674   1.806   1.917  1.00  0.00     0.156 C 
ATOM     19  C   UNL     1       0.413   0.346   1.611  1.00  0.00     0.023 C 
ENDBRANCH  15  18
ENDBRANCH  13  15
ENDBRANCH   8  13
BRANCH  12  20
ATOM     20  N   UNL     1       6.104  -0.608   2.319  1.00  0.00    -0.360 N 
ATOM     21  C   UNL     1       6.624  -1.905   1.858  1.00  0.00     0.178 C 
ATOM     22  C   UNL     1       6.591  -0.194   3.646  1.00  0.00     0.178 C 
ATOM     23  C   UNL     1       6.446  -2.993   2.950  1.00  0.00     0.283 C 
ATOM     24  C   UNL     1       6.365  -1.318   4.678  1.00  0.00     0.283 C 
ATOM     25  N   UNL     1       6.987  -2.595   4.273  1.00  0.00    -0.334 N 
ATOM     26  C   UNL     1       6.722  -3.624   5.275  1.00  0.00     0.332 C 
ATOM     27  H   UNL     1       7.998  -2.481   4.201  1.00  0.00     0.347 HD
ENDBRANCH  12  20
ENDBRANCH   4   7
ENDBRANCH   2   3
ENDBRANCH   1   2
BRANCH   1  28
ATOM     28  C   UNL     1       0.316   1.657  -4.166  1.00  0.00     0.118 C 
BRANCH  28  29
ATOM     29  N   UNL     1      -0.449   2.689  -3.472  1.00  0.00    -0.352 N 
ATOM     30  C   UNL     1      -1.336   3.629  -3.958  1.00  0.00     0.251 C 
ATOM     31  H   UNL     1      -0.309   2.721  -2.498  1.00  0.00     0.163 HD
ATOM     32  O   UNL     1      -1.875   4.439  -3.211  1.00  0.00    -0.269 OA
BRANCH  30  33
ATOM     33  C   UNL     1      -1.587   3.706  -5.415  1.00  0.00     0.039 A 
ATOM     34  C   UNL     1      -1.486   4.942  -6.057  1.00  0.00     0.014 A 
ATOM     35  C   UNL     1      -1.816   2.552  -6.159  1.00  0.00     0.014 A 
ATOM     36  C   UNL     1      -1.451   4.992  -7.453  1.00  0.00     0.010 A 
ATOM     37  C   UNL     1      -1.634   2.586  -7.536  1.00  0.00     0.010 A 
ATOM     38  C   UNL     1      -1.428   3.804  -8.202  1.00  0.00    -0.014 A 
BRANCH  38  39
ATOM     39  C   UNL     1      -1.147   3.796  -9.665  1.00  0.00     0.031 A 
ATOM     40  C   UNL     1      -2.100   3.114 -10.614  1.00  0.00     0.074 A 
ATOM     41  C   UNL     1       0.019   4.294 -10.130  1.00  0.00     0.049 A 
ATOM     42  N   UNL     1      -1.958   2.867 -11.891  1.00  0.00    -0.248 NA
ATOM     43  C   UNL     1      -3.355   2.598 -10.042  1.00  0.00     0.031 C 
ATOM     44  C   UNL     1       1.069   4.916  -9.315  1.00  0.00     0.029 A 
ATOM     45  N   UNL     1       0.525   4.349 -11.406  1.00  0.00    -0.354 N 
ATOM     46  C   UNL     1      -3.077   2.130 -12.259  1.00  0.00     0.074 A 
ATOM     47  C   UNL     1      -3.859   1.921 -11.062  1.00  0.00     0.031 C 
ATOM     48  C   UNL     1       2.067   5.326 -10.114  1.00  0.00     0.029 A 
ATOM     49  C   UNL     1       1.759   4.953 -11.489  1.00  0.00     0.049 A 
ATOM     50  H   UNL     1       0.050   3.988 -12.189  1.00  0.00     0.167 HD
ATOM     51  C   UNL     1      -3.439   1.688 -13.487  1.00  0.00     0.031 A 
ATOM     52  C   UNL     1       2.559   5.179 -12.550  1.00  0.00     0.031 A 
ATOM     53  C   UNL     1      -2.690   1.943 -14.687  1.00  0.00     0.049 A 
ATOM     54  C   UNL     1       2.112   4.727 -13.912  1.00  0.00     0.074 A 
ATOM     55  C   UNL     1      -3.013   1.611 -15.990  1.00  0.00     0.029 A 
ATOM     56  N   UNL     1      -1.474   2.608 -14.731  1.00  0.00    -0.354 N 
ATOM     57  N   UNL     1       1.019   4.083 -14.247  1.00  0.00    -0.248 NA
ATOM     58  C   UNL     1       3.000   5.038 -15.041  1.00  0.00     0.031 C 
ATOM     59  C   UNL     1      -1.974   2.046 -16.821  1.00  0.00     0.029 A 
ATOM     60  C   UNL     1      -1.028   2.689 -16.039  1.00  0.00     0.049 A 
ATOM     61  H   UNL     1      -0.998   2.969 -13.948  1.00  0.00     0.167 HD
ATOM     62  C   UNL     1       1.076   3.936 -15.628  1.00  0.00     0.074 A 
ATOM     63  C   UNL     1       2.303   4.569 -16.067  1.00  0.00     0.031 C 
ATOM     64  C   UNL     1       0.192   3.330 -16.458  1.00  0.00     0.031 A 
BRANCH  51  65
ATOM     65  C   UNL     1      -4.715   0.893 -13.589  1.00  0.00    -0.014 A 
ATOM     66  C   UNL     1      -5.967   1.500 -13.383  1.00  0.00     0.010 A 
ATOM     67  C   UNL     1      -4.664  -0.475 -13.912  1.00  0.00     0.010 A 
ATOM     68  C   UNL     1      -7.140   0.745 -13.444  1.00  0.00     0.020 A 
ATOM     69  C   UNL     1      -5.838  -1.229 -14.005  1.00  0.00     0.020 A 
ATOM     70  C   UNL     1      -7.068  -0.618 -13.748  1.00  0.00     0.054 A 
BRANCH  70  71
ATOM     71  S   UNL     1      -8.607  -1.573 -13.832  1.00  0.00     0.124 S 
ATOM     72  O   UNL     1      -8.942  -1.727 -12.419  1.00  0.00    -0.237 OA
ATOM     73  O   UNL     1      -9.491  -0.693 -14.594  1.00  0.00    -0.237 OA
ATOM     74  O   UNL     1      -8.215  -2.801 -14.518  1.00  0.00    -0.744 OA
ENDBRANCH  70  71
ENDBRANCH  51  65
BRANCH  52  75
ATOM     75  C   UNL     1       3.853   5.894 -12.371  1.00  0.00    -0.014 A 
ATOM     76  C   UNL     1       4.001   7.216 -12.829  1.00  0.00     0.010 A 
ATOM     77  C   UNL     1       4.939   5.268 -11.733  1.00  0.00     0.010 A 
ATOM     78  C   UNL     1       5.215   7.891 -12.671  1.00  0.00     0.020 A 
ATOM     79  C   UNL     1       6.146   5.949 -11.549  1.00  0.00     0.020 A 
ATOM     80  C   UNL     1       6.281   7.253 -12.030  1.00  0.00     0.054 A 
BRANCH  80  81
ATOM     81  S   UNL     1       7.831   8.166 -11.788  1.00  0.00     0.124 S 
ATOM     82  O   UNL     1       8.408   8.145 -13.128  1.00  0.00    -0.237 OA
ATOM     83  O   UNL     1       7.362   9.469 -11.320  1.00  0.00    -0.237 OA
ATOM     84  O   UNL     1       8.540   7.373 -10.786  1.00  0.00    -0.744 OA
ENDBRANCH  80  81
ENDBRANCH  52  75
BRANCH  64  85
ATOM     85  C   UNL     1       0.496   3.353 -17.930  1.00  0.00    -0.014 A 
ATOM     86  C   UNL     1       1.498   2.535 -18.479  1.00  0.00     0.010 A 
ATOM     87  C   UNL     1      -0.278   4.160 -18.784  1.00  0.00     0.010 A 
ATOM     88  C   UNL     1       1.737   2.541 -19.855  1.00  0.00     0.020 A 
ATOM     89  C   UNL     1      -0.059   4.150 -20.163  1.00  0.00     0.020 A 
ATOM     90  C   UNL     1       0.957   3.349 -20.689  1.00  0.00     0.054 A 
BRANCH  90  91
ATOM     91  S   UNL     1       1.250   3.300 -22.478  1.00  0.00     0.124 S 
ATOM     92  O   UNL     1       2.481   4.075 -22.605  1.00  0.00    -0.237 OA
ATOM     93  O   UNL     1       1.378   1.869 -22.744  1.00  0.00    -0.237 OA
ATOM     94  O   UNL     1       0.057   3.927 -23.042  1.00  0.00    -0.744 OA
ENDBRANCH  90  91
ENDBRANCH  64  85
ENDBRANCH  38  39
ENDBRANCH  30  33
ENDBRANCH  28  29
ENDBRANCH   1  28
TORSDOF 17
