REMARK SMILES C[C@H]([NH3+])CC(=O)N1CC(C(=O)NCCCNC(=O)c2ccc(-c3c4nc(c(-c5ccc(S(=O)(=O)[O-])cc5)c5ccc([nH]5)c(-c5ccc(S(=O)(=O)[O-])cc5)c5nc(c(-c6ccc(S(=O)(=O)[O-])cc6)c6ccc3[nH]6)C=C5)C=C4)cc2)C1
REMARK SMILES IDX 14 1 13 2 12 3 10 4 11 5 9 7 5 8 6 9 7 10 8 11 79 12 4 13
REMARK SMILES IDX 2 14 1 15 3 16 15 20 16 21 17 22 18 24 19 25 20 26 78 27
REMARK SMILES IDX 21 28 77 29 22 30 23 31 24 32 71 33 25 34 76 35 70 36 72 37
REMARK SMILES IDX 26 38 75 39 69 40 68 41 27 43 57 44 38 45 56 46 39 47 42 48
REMARK SMILES IDX 55 49 73 50 40 51 41 52 54 54 74 55 43 56 28 57 29 58 37 59
REMARK SMILES IDX 30 60 36 61 31 62 32 63 33 64 34 65 35 66 58 67 59 68 67 69
REMARK SMILES IDX 60 70 66 71 61 72 62 73 63 74 64 75 65 76 44 77 45 78 53 79
REMARK SMILES IDX 46 80 52 81 47 82 48 83 49 84 50 85 51 86
REMARK H PARENT 12 6 3 17 3 18 3 19 16 23 72 42 42 53
REMARK Flexibility Score: inf
ROOT
ATOM      1  C   UNL     1      -0.223  -2.567  -3.906  1.00  0.00     0.042 C 
ENDROOT
BRANCH   1   2
ATOM      2  C   UNL     1      -1.254  -3.155  -2.949  1.00  0.00     0.117 C 
BRANCH   2   3
ATOM      3  N   UNL     1      -0.769  -4.348  -2.277  1.00  0.00    -0.356 N 
ATOM      4  C   UNL     1      -0.495  -4.599  -0.955  1.00  0.00     0.226 C 
ATOM      5  O   UNL     1      -0.111  -5.752  -0.702  1.00  0.00    -0.275 OA
ATOM      6  H   UNL     1      -0.606  -5.112  -2.876  1.00  0.00     0.163 HD
BRANCH   4   7
ATOM      7  C   UNL     1      -0.653  -3.548   0.144  1.00  0.00     0.117 C 
ATOM      8  C   UNL     1      -1.583  -0.507   1.204  1.00  0.00     0.228 C 
ATOM      9  O   UNL     1      -2.499  -0.541   2.033  1.00  0.00    -0.275 OA
ATOM     10  N   UNL     1      -1.277  -1.611   0.466  1.00  0.00    -0.341 N 
ATOM     11  C   UNL     1      -2.000  -2.872   0.391  1.00  0.00     0.134 C 
ATOM     12  C   UNL     1      -0.016  -2.163   0.006  1.00  0.00     0.134 C 
BRANCH   8  13
ATOM     13  C   UNL     1      -0.954   0.832   0.841  1.00  0.00     0.164 C 
BRANCH  13  14
ATOM     14  C   UNL     1       0.568   0.992   0.755  1.00  0.00     0.187 C 
ATOM     15  C   UNL     1       0.940   2.478   0.894  1.00  0.00     0.075 C 
BRANCH  14  16
ATOM     16  N   UNL     1       1.095   0.517  -0.529  1.00  0.00    -0.355 N 
ATOM     17  H   UNL     1       0.694   1.070  -1.286  1.00  0.00     0.344 HD
ATOM     18  H   UNL     1       0.848  -0.464  -0.656  1.00  0.00     0.344 HD
ATOM     19  H   UNL     1       2.111   0.616  -0.536  1.00  0.00     0.344 HD
ENDBRANCH  14  16
ENDBRANCH  13  14
ENDBRANCH   8  13
ENDBRANCH   4   7
ENDBRANCH   2   3
ENDBRANCH   1   2
BRANCH   1  20
ATOM     20  C   UNL     1       0.140  -3.475  -5.077  1.00  0.00     0.118 C 
BRANCH  20  21
ATOM     21  N   UNL     1      -0.992  -3.750  -5.954  1.00  0.00    -0.352 N 
ATOM     22  C   UNL     1      -1.166  -3.474  -7.288  1.00  0.00     0.251 C 
ATOM     23  H   UNL     1      -1.750  -4.206  -5.522  1.00  0.00     0.163 HD
ATOM     24  O   UNL     1      -2.276  -3.633  -7.796  1.00  0.00    -0.269 OA
BRANCH  22  25
ATOM     25  C   UNL     1      -0.044  -2.968  -8.107  1.00  0.00     0.039 A 
ATOM     26  C   UNL     1      -0.282  -1.935  -9.019  1.00  0.00     0.014 A 
ATOM     27  C   UNL     1       1.237  -3.513  -7.991  1.00  0.00     0.014 A 
ATOM     28  C   UNL     1       0.779  -1.401  -9.756  1.00  0.00     0.010 A 
ATOM     29  C   UNL     1       2.305  -2.924  -8.663  1.00  0.00     0.010 A 
ATOM     30  C   UNL     1       2.089  -1.862  -9.553  1.00  0.00    -0.014 A 
BRANCH  30  31
ATOM     31  C   UNL     1       3.248  -1.253 -10.259  1.00  0.00     0.031 A 
ATOM     32  C   UNL     1       4.090  -2.090 -11.186  1.00  0.00     0.074 A 
ATOM     33  C   UNL     1       3.586   0.030 -10.015  1.00  0.00     0.049 A 
ATOM     34  N   UNL     1       5.198  -1.773 -11.806  1.00  0.00    -0.248 NA
ATOM     35  C   UNL     1       3.639  -3.471 -11.431  1.00  0.00     0.031 C 
ATOM     36  C   UNL     1       2.872   0.939  -9.115  1.00  0.00     0.029 A 
ATOM     37  N   UNL     1       4.625   0.789 -10.492  1.00  0.00    -0.354 N 
ATOM     38  C   UNL     1       5.579  -2.912 -12.506  1.00  0.00     0.074 A 
ATOM     39  C   UNL     1       4.619  -3.946 -12.187  1.00  0.00     0.031 C 
ATOM     40  C   UNL     1       3.485   2.134  -9.118  1.00  0.00     0.029 A 
ATOM     41  C   UNL     1       4.661   2.065  -9.979  1.00  0.00     0.049 A 
ATOM     42  H   UNL     1       5.284   0.452 -11.142  1.00  0.00     0.167 HD
ATOM     43  C   UNL     1       6.617  -3.077 -13.360  1.00  0.00     0.031 A 
ATOM     44  C   UNL     1       5.550   3.062 -10.162  1.00  0.00     0.031 A 
ATOM     45  C   UNL     1       7.570  -2.048 -13.679  1.00  0.00     0.049 A 
ATOM     46  C   UNL     1       6.721   2.839 -11.082  1.00  0.00     0.074 A 
ATOM     47  C   UNL     1       8.645  -2.111 -14.550  1.00  0.00     0.029 A 
ATOM     48  N   UNL     1       7.562  -0.768 -13.147  1.00  0.00    -0.354 N 
ATOM     49  N   UNL     1       7.037   1.767 -11.769  1.00  0.00    -0.248 NA
ATOM     50  C   UNL     1       7.649   3.965 -11.262  1.00  0.00     0.031 C 
ATOM     51  C   UNL     1       9.315  -0.885 -14.506  1.00  0.00     0.029 A 
ATOM     52  C   UNL     1       8.620  -0.037 -13.659  1.00  0.00     0.049 A 
ATOM     53  H   UNL     1       6.901  -0.429 -12.501  1.00  0.00     0.167 HD
ATOM     54  C   UNL     1       8.179   2.103 -12.489  1.00  0.00     0.074 A 
ATOM     55  C   UNL     1       8.489   3.480 -12.167  1.00  0.00     0.031 C 
ATOM     56  C   UNL     1       8.906   1.339 -13.342  1.00  0.00     0.031 A 
BRANCH  43  57
ATOM     57  C   UNL     1       6.769  -4.421 -14.024  1.00  0.00    -0.014 A 
ATOM     58  C   UNL     1       5.845  -4.853 -14.994  1.00  0.00     0.010 A 
ATOM     59  C   UNL     1       7.874  -5.238 -13.722  1.00  0.00     0.010 A 
ATOM     60  C   UNL     1       6.005  -6.089 -15.624  1.00  0.00     0.020 A 
ATOM     61  C   UNL     1       8.054  -6.462 -14.373  1.00  0.00     0.020 A 
ATOM     62  C   UNL     1       7.109  -6.886 -15.310  1.00  0.00     0.054 A 
BRANCH  62  63
ATOM     63  S   UNL     1       7.309  -8.467 -16.175  1.00  0.00     0.124 S 
ATOM     64  O   UNL     1       6.229  -9.264 -15.597  1.00  0.00    -0.237 OA
ATOM     65  O   UNL     1       7.130  -8.090 -17.575  1.00  0.00    -0.237 OA
ATOM     66  O   UNL     1       8.658  -8.894 -15.815  1.00  0.00    -0.744 OA
ENDBRANCH  62  63
ENDBRANCH  43  57
BRANCH  44  67
ATOM     67  C   UNL     1       5.382   4.360  -9.448  1.00  0.00    -0.014 A 
ATOM     68  C   UNL     1       5.095   5.540 -10.156  1.00  0.00     0.010 A 
ATOM     69  C   UNL     1       5.537   4.425  -8.050  1.00  0.00     0.010 A 
ATOM     70  C   UNL     1       5.007   6.765  -9.487  1.00  0.00     0.020 A 
ATOM     71  C   UNL     1       5.415   5.641  -7.374  1.00  0.00     0.020 A 
ATOM     72  C   UNL     1       5.170   6.808  -8.100  1.00  0.00     0.054 A 
BRANCH  72  73
ATOM     73  S   UNL     1       5.038   8.405  -7.249  1.00  0.00     0.124 S 
ATOM     74  O   UNL     1       6.285   9.058  -7.636  1.00  0.00    -0.237 OA
ATOM     75  O   UNL     1       3.820   8.969  -7.825  1.00  0.00    -0.237 OA
ATOM     76  O   UNL     1       4.937   8.032  -5.839  1.00  0.00    -0.744 OA
ENDBRANCH  72  73
ENDBRANCH  44  67
BRANCH  56  77
ATOM     77  C   UNL     1      10.077   1.986 -14.034  1.00  0.00    -0.014 A 
ATOM     78  C   UNL     1      11.254   2.310 -13.338  1.00  0.00     0.010 A 
ATOM     79  C   UNL     1      10.017   2.211 -15.423  1.00  0.00     0.010 A 
ATOM     80  C   UNL     1      12.341   2.872 -14.014  1.00  0.00     0.020 A 
ATOM     81  C   UNL     1      11.113   2.743 -16.107  1.00  0.00     0.020 A 
ATOM     82  C   UNL     1      12.264   3.081 -15.395  1.00  0.00     0.054 A 
BRANCH  82  83
ATOM     83  S   UNL     1      13.710   3.757 -16.256  1.00  0.00     0.124 S 
ATOM     84  O   UNL     1      13.711   5.146 -15.805  1.00  0.00    -0.237 OA
ATOM     85  O   UNL     1      14.801   2.930 -15.746  1.00  0.00    -0.237 OA
ATOM     86  O   UNL     1      13.396   3.562 -17.669  1.00  0.00    -0.744 OA
ENDBRANCH  82  83
ENDBRANCH  56  77
ENDBRANCH  30  31
ENDBRANCH  22  25
ENDBRANCH  20  21
ENDBRANCH   1  20
TORSDOF 16
