REMARK SMILES COC(=O)c1c(NS(=O)(=O)CCC(=O)NCCCNC(=O)c2ccc(-c3c4nc(c(-c5ccc(S(=O)(=O)[O-])cc5)c5ccc([nH]5)c(-c5ccc(S(=O)(=O)[O-])cc5)c5nc(c(-c6ccc(S(=O)(=O)[O-])cc6)c6ccc3[nH]6)C=C5)C=C4)cc2)sc2c1CCC2
REMARK SMILES IDX 13 1 14 2 15 3 12 5 11 6 8 7 9 8 10 9 7 10 6 12 5 13 84 14
REMARK SMILES IDX 82 15 83 16 85 17 87 18 86 19 3 20 4 21 2 22 1 23 16 24
REMARK SMILES IDX 17 25 18 26 19 27 20 28 21 30 22 31 23 32 81 33 24 34 80 35
REMARK SMILES IDX 25 36 26 37 27 38 74 39 28 40 79 41 73 42 75 43 29 44 78 45
REMARK SMILES IDX 72 46 71 47 30 49 60 50 41 51 59 52 42 53 45 54 58 55 76 56
REMARK SMILES IDX 43 57 44 58 57 60 77 61 46 62 31 63 32 64 40 65 33 66 39 67
REMARK SMILES IDX 34 68 35 69 36 70 37 71 38 72 61 73 62 74 70 75 63 76 69 77
REMARK SMILES IDX 64 78 65 79 66 80 67 81 68 82 47 83 48 84 56 85 49 86 55 87
REMARK SMILES IDX 50 88 51 89 52 90 53 91 54 92
REMARK H PARENT 15 4 7 11 19 29 75 48 45 59
REMARK Flexibility Score: inf
ROOT
ATOM      1  C   UNL     1       1.954   1.991  -5.715  1.00  0.00     0.221 C 
ATOM      2  O   UNL     1       0.771   1.663  -5.794  1.00  0.00    -0.275 OA
ATOM      3  N   UNL     1       2.684   1.555  -4.647  1.00  0.00    -0.356 N 
ATOM      4  H   UNL     1       2.169   1.365  -3.830  1.00  0.00     0.163 HD
ENDROOT
BRANCH   1   5
ATOM      5  C   UNL     1       2.561   2.912  -6.741  1.00  0.00     0.118 C 
BRANCH   5   6
ATOM      6  C   UNL     1       2.030   4.331  -6.635  1.00  0.00     0.170 C 
BRANCH   6   7
ATOM      7  S   UNL     1       2.382   5.171  -5.088  1.00  0.00     0.233 S 
ATOM      8  O   UNL     1       1.877   6.524  -5.177  1.00  0.00    -0.207 OA
ATOM      9  O   UNL     1       3.793   4.960  -4.829  1.00  0.00    -0.207 OA
BRANCH   7  10
ATOM     10  N   UNL     1       1.574   4.361  -3.874  1.00  0.00    -0.274 N 
ATOM     11  H   UNL     1       2.079   4.073  -3.080  1.00  0.00     0.180 HD
BRANCH  10  12
ATOM     12  C   UNL     1       0.175   4.069  -3.945  1.00  0.00     0.117 A 
ATOM     13  C   UNL     1      -0.475   3.139  -3.136  1.00  0.00     0.098 A 
ATOM     14  C   UNL     1      -1.760   2.866  -3.654  1.00  0.00    -0.017 A 
ATOM     15  S   UNL     1      -0.936   4.792  -5.064  1.00  0.00    -0.121 S 
ATOM     16  C   UNL     1      -2.061   3.610  -4.749  1.00  0.00     0.011 A 
ATOM     17  C   UNL     1      -2.841   1.915  -3.313  1.00  0.00     0.038 C 
ATOM     18  C   UNL     1      -3.337   3.236  -5.389  1.00  0.00     0.047 C 
ATOM     19  C   UNL     1      -3.680   1.916  -4.622  1.00  0.00     0.010 C 
BRANCH  13  20
ATOM     20  C   UNL     1      -0.028   2.469  -1.943  1.00  0.00     0.341 C 
ATOM     21  O   UNL     1      -0.440   2.805  -0.849  1.00  0.00    -0.246 OA
BRANCH  20  22
ATOM     22  O   UNL     1       0.690   1.335  -2.207  1.00  0.00    -0.465 OA
ATOM     23  C   UNL     1       0.737   0.385  -1.131  1.00  0.00     0.282 C 
ENDBRANCH  20  22
ENDBRANCH  13  20
ENDBRANCH  10  12
ENDBRANCH   7  10
ENDBRANCH   6   7
ENDBRANCH   5   6
ENDBRANCH   1   5
BRANCH   3  24
ATOM     24  C   UNL     1       4.121   1.333  -4.549  1.00  0.00     0.117 C 
BRANCH  24  25
ATOM     25  C   UNL     1       4.853   2.127  -3.468  1.00  0.00     0.042 C 
BRANCH  25  26
ATOM     26  C   UNL     1       4.251   2.104  -2.069  1.00  0.00     0.118 C 
BRANCH  26  27
ATOM     27  N   UNL     1       4.863   1.172  -1.141  1.00  0.00    -0.352 N 
ATOM     28  C   UNL     1       4.680   0.994   0.219  1.00  0.00     0.251 C 
ATOM     29  H   UNL     1       5.520   0.562  -1.549  1.00  0.00     0.163 HD
ATOM     30  O   UNL     1       5.442   0.211   0.787  1.00  0.00    -0.269 OA
BRANCH  28  31
ATOM     31  C   UNL     1       3.560   1.615   0.992  1.00  0.00     0.039 A 
ATOM     32  C   UNL     1       3.217   1.067   2.244  1.00  0.00     0.014 A 
ATOM     33  C   UNL     1       2.779   2.654   0.510  1.00  0.00     0.014 A 
ATOM     34  C   UNL     1       2.024   1.428   2.893  1.00  0.00     0.010 A 
ATOM     35  C   UNL     1       1.591   2.986   1.135  1.00  0.00     0.010 A 
ATOM     36  C   UNL     1       1.159   2.332   2.284  1.00  0.00    -0.014 A 
BRANCH  36  37
ATOM     37  C   UNL     1      -0.102   2.784   2.879  1.00  0.00     0.031 A 
ATOM     38  C   UNL     1      -0.002   4.114   3.537  1.00  0.00     0.074 A 
ATOM     39  C   UNL     1      -1.338   2.289   2.652  1.00  0.00     0.049 A 
ATOM     40  N   UNL     1       0.187   4.352   4.793  1.00  0.00    -0.248 NA
ATOM     41  C   UNL     1       0.080   5.310   2.681  1.00  0.00     0.031 C 
ATOM     42  C   UNL     1      -1.766   1.237   1.732  1.00  0.00     0.029 A 
ATOM     43  N   UNL     1      -2.525   2.739   3.158  1.00  0.00    -0.354 N 
ATOM     44  C   UNL     1       0.207   5.737   4.900  1.00  0.00     0.074 A 
ATOM     45  C   UNL     1       0.447   6.231   3.570  1.00  0.00     0.031 C 
ATOM     46  C   UNL     1      -3.113   1.284   1.579  1.00  0.00     0.029 A 
ATOM     47  C   UNL     1      -3.658   2.253   2.516  1.00  0.00     0.049 A 
ATOM     48  H   UNL     1      -2.573   3.360   3.921  1.00  0.00     0.167 HD
ATOM     49  C   UNL     1      -0.275   6.396   5.992  1.00  0.00     0.031 A 
ATOM     50  C   UNL     1      -4.941   2.642   2.736  1.00  0.00     0.031 A 
ATOM     51  C   UNL     1      -0.604   5.483   7.059  1.00  0.00     0.049 A 
ATOM     52  C   UNL     1      -4.977   3.281   4.074  1.00  0.00     0.074 A 
ATOM     53  C   UNL     1       0.081   4.520   7.773  1.00  0.00     0.029 A 
ATOM     54  N   UNL     1      -1.941   5.213   7.248  1.00  0.00    -0.354 N 
ATOM     55  N   UNL     1      -4.779   2.636   5.189  1.00  0.00    -0.248 NA
ATOM     56  C   UNL     1      -4.857   4.727   4.162  1.00  0.00     0.031 C 
ATOM     57  C   UNL     1      -0.857   3.462   7.967  1.00  0.00     0.029 A 
ATOM     58  C   UNL     1      -2.076   3.859   7.413  1.00  0.00     0.049 A 
ATOM     59  H   UNL     1      -2.670   5.875   7.262  1.00  0.00     0.167 HD
ATOM     60  C   UNL     1      -4.095   3.530   5.999  1.00  0.00     0.074 A 
ATOM     61  C   UNL     1      -4.283   4.831   5.364  1.00  0.00     0.031 C 
ATOM     62  C   UNL     1      -3.212   3.089   6.943  1.00  0.00     0.031 A 
BRANCH  49  63
ATOM     63  C   UNL     1      -0.829   7.805   5.955  1.00  0.00    -0.014 A 
ATOM     64  C   UNL     1      -1.224   8.407   7.167  1.00  0.00     0.010 A 
ATOM     65  C   UNL     1      -1.193   8.479   4.771  1.00  0.00     0.010 A 
ATOM     66  C   UNL     1      -1.997   9.576   7.185  1.00  0.00     0.020 A 
ATOM     67  C   UNL     1      -1.915   9.673   4.776  1.00  0.00     0.020 A 
ATOM     68  C   UNL     1      -2.346  10.194   5.985  1.00  0.00     0.054 A 
BRANCH  68  69
ATOM     69  S   UNL     1      -3.427  11.643   6.008  1.00  0.00     0.124 S 
ATOM     70  O   UNL     1      -4.691  11.064   6.453  1.00  0.00    -0.237 OA
ATOM     71  O   UNL     1      -2.756  12.516   6.966  1.00  0.00    -0.237 OA
ATOM     72  O   UNL     1      -3.402  12.110   4.623  1.00  0.00    -0.744 OA
ENDBRANCH  68  69
ENDBRANCH  49  63
BRANCH  50  73
ATOM     73  C   UNL     1      -6.108   2.706   1.820  1.00  0.00    -0.014 A 
ATOM     74  C   UNL     1      -7.406   2.914   2.332  1.00  0.00     0.010 A 
ATOM     75  C   UNL     1      -5.916   2.881   0.436  1.00  0.00     0.010 A 
ATOM     76  C   UNL     1      -8.449   3.371   1.509  1.00  0.00     0.020 A 
ATOM     77  C   UNL     1      -6.956   3.328  -0.394  1.00  0.00     0.020 A 
ATOM     78  C   UNL     1      -8.208   3.603   0.154  1.00  0.00     0.054 A 
BRANCH  78  79
ATOM     79  S   UNL     1      -9.494   4.405  -0.853  1.00  0.00     0.124 S 
ATOM     80  O   UNL     1     -10.498   3.352  -0.975  1.00  0.00    -0.237 OA
ATOM     81  O   UNL     1      -9.876   5.549  -0.030  1.00  0.00    -0.237 OA
ATOM     82  O   UNL     1      -8.797   4.743  -2.093  1.00  0.00    -0.744 OA
ENDBRANCH  78  79
ENDBRANCH  50  73
BRANCH  62  83
ATOM     83  C   UNL     1      -3.252   1.631   7.344  1.00  0.00    -0.014 A 
ATOM     84  C   UNL     1      -3.052   0.562   6.448  1.00  0.00     0.010 A 
ATOM     85  C   UNL     1      -3.359   1.339   8.716  1.00  0.00     0.010 A 
ATOM     86  C   UNL     1      -2.985  -0.761   6.912  1.00  0.00     0.020 A 
ATOM     87  C   UNL     1      -3.273   0.026   9.187  1.00  0.00     0.020 A 
ATOM     88  C   UNL     1      -3.093  -1.020   8.281  1.00  0.00     0.054 A 
BRANCH  88  89
ATOM     89  S   UNL     1      -2.942  -2.726   8.882  1.00  0.00     0.124 S 
ATOM     90  O   UNL     1      -4.179  -3.341   8.409  1.00  0.00    -0.237 OA
ATOM     91  O   UNL     1      -1.719  -3.193   8.232  1.00  0.00    -0.237 OA
ATOM     92  O   UNL     1      -2.841  -2.576  10.334  1.00  0.00    -0.744 OA
ENDBRANCH  88  89
ENDBRANCH  62  83
ENDBRANCH  36  37
ENDBRANCH  28  31
ENDBRANCH  26  27
ENDBRANCH  25  26
ENDBRANCH  24  25
ENDBRANCH   3  24
TORSDOF 19
