REMARK SMILES Cc1ccccc1-c1c(Cl)ccc2c1C=C(C(=O)NCCCNC(=O)c1ccc(-c3c4nc(c(-c5ccc(S(=O)(=O)[O-])cc5)c5ccc([nH]5)c(-c5ccc(S(=O)(=O)[O-])cc5)c5nc(c(-c6ccc(S(=O)(=O)[O-])cc6)c6ccc3[nH]6)C=C5)C=C4)cc1)[C@@H](C(F)(F)F)O2
REMARK SMILES IDX 22 1 21 2 20 3 19 4 17 5 18 6 16 8 8 9 9 10 14 11 10 12
REMARK SMILES IDX 11 13 13 14 15 15 12 16 91 17 86 18 7 19 1 20 2 21 3 22 4 23
REMARK SMILES IDX 6 24 5 25 87 26 88 27 89 28 90 29 23 30 24 31 25 33 26 34
REMARK SMILES IDX 27 35 85 36 28 37 84 38 29 39 30 40 31 41 78 42 32 43 83 44
REMARK SMILES IDX 77 45 79 46 33 47 82 48 76 49 75 50 34 52 64 53 45 54 63 55
REMARK SMILES IDX 46 56 49 57 62 58 80 59 47 60 48 61 61 63 81 64 50 65 35 66
REMARK SMILES IDX 36 67 44 68 37 69 43 70 38 71 39 72 40 73 41 74 42 75 65 76
REMARK SMILES IDX 66 77 74 78 67 79 73 80 68 81 69 82 70 83 71 84 72 85 51 86
REMARK SMILES IDX 52 87 60 88 53 89 59 90 54 91 55 92 56 93 57 94 58 95
REMARK H PARENT 19 7 23 32 79 51 49 62
REMARK Flexibility Score: inf
ROOT
ATOM      1  C   UNL     1       6.883  -2.138  -2.166  1.00  0.00     0.118 C 
ENDROOT
BRANCH   1   2
ATOM      2  C   UNL     1       5.716  -1.373  -2.772  1.00  0.00     0.042 C 
BRANCH   2   3
ATOM      3  C   UNL     1       4.981  -0.536  -1.744  1.00  0.00     0.118 C 
BRANCH   3   4
ATOM      4  N   UNL     1       5.550   0.796  -1.652  1.00  0.00    -0.352 N 
ATOM      5  C   UNL     1       5.125   2.006  -2.078  1.00  0.00     0.251 C 
ATOM      6  O   UNL     1       5.934   2.936  -2.029  1.00  0.00    -0.270 OA
ATOM      7  H   UNL     1       6.417   0.824  -1.187  1.00  0.00     0.163 HD
BRANCH   5   8
ATOM      8  C   UNL     1       3.728   2.301  -2.538  1.00  0.00     0.067 C 
ATOM      9  C   UNL     1       1.174   2.422   0.117  1.00  0.00     0.012 A 
ATOM     10  C   UNL     1       0.878   3.396   1.104  1.00  0.00     0.049 A 
ATOM     11  C   UNL     1       2.041   2.810  -0.942  1.00  0.00     0.027 A 
ATOM     12  Cl  UNL     1      -0.116   3.040   2.481  1.00  0.00    -0.084 Cl
ATOM     13  C   UNL     1       1.369   4.704   1.020  1.00  0.00     0.025 A 
ATOM     14  C   UNL     1       2.470   4.154  -1.040  1.00  0.00     0.128 A 
ATOM     15  C   UNL     1       2.690   1.814  -1.834  1.00  0.00     0.026 C 
ATOM     16  C   UNL     1       2.144   5.089  -0.065  1.00  0.00     0.049 A 
ATOM     17  O   UNL     1       3.263   4.641  -2.052  1.00  0.00    -0.475 OA
ATOM     18  C   UNL     1       3.574   3.696  -3.099  1.00  0.00     0.314 C 
BRANCH   9  19
ATOM     19  C   UNL     1       0.467   1.114   0.120  1.00  0.00    -0.013 A 
ATOM     20  C   UNL     1       2.473  -0.342   0.856  1.00  0.00     0.045 C 
ATOM     21  C   UNL     1       1.040  -0.137   0.442  1.00  0.00    -0.043 A 
ATOM     22  C   UNL     1       0.249  -1.302   0.356  1.00  0.00     0.004 A 
ATOM     23  C   UNL     1      -1.098  -1.242   0.007  1.00  0.00     0.000 A 
ATOM     24  C   UNL     1      -0.902   1.141  -0.232  1.00  0.00     0.009 A 
ATOM     25  C   UNL     1      -1.680  -0.015  -0.275  1.00  0.00     0.001 A 
ENDBRANCH   9  19
BRANCH  18  26
ATOM     26  C   UNL     1       2.547   3.765  -4.242  1.00  0.00     0.429 C 
ATOM     27  F   UNL     1       2.520   5.001  -4.803  1.00  0.00    -0.167 F 
ATOM     28  F   UNL     1       2.854   2.897  -5.239  1.00  0.00    -0.167 F 
ATOM     29  F   UNL     1       1.282   3.487  -3.849  1.00  0.00    -0.167 F 
ENDBRANCH  18  26
ENDBRANCH   5   8
ENDBRANCH   3   4
ENDBRANCH   2   3
ENDBRANCH   1   2
BRANCH   1  30
ATOM     30  N   UNL     1       6.571  -3.557  -1.970  1.00  0.00    -0.352 N 
ATOM     31  C   UNL     1       7.435  -4.632  -1.929  1.00  0.00     0.251 C 
ATOM     32  H   UNL     1       5.617  -3.771  -1.853  1.00  0.00     0.163 HD
ATOM     33  O   UNL     1       7.067  -5.801  -1.861  1.00  0.00    -0.269 OA
BRANCH  31  34
ATOM     34  C   UNL     1       8.868  -4.312  -1.834  1.00  0.00     0.039 A 
ATOM     35  C   UNL     1       9.431  -4.386  -0.556  1.00  0.00     0.014 A 
ATOM     36  C   UNL     1       9.454  -3.573  -2.856  1.00  0.00     0.014 A 
ATOM     37  C   UNL     1      10.457  -3.512  -0.231  1.00  0.00     0.010 A 
ATOM     38  C   UNL     1      10.398  -2.631  -2.501  1.00  0.00     0.010 A 
ATOM     39  C   UNL     1      10.838  -2.556  -1.173  1.00  0.00    -0.014 A 
BRANCH  39  40
ATOM     40  C   UNL     1      11.641  -1.397  -0.807  1.00  0.00     0.031 A 
ATOM     41  C   UNL     1      13.080  -1.414  -1.136  1.00  0.00     0.074 A 
ATOM     42  C   UNL     1      11.088  -0.359  -0.137  1.00  0.00     0.049 A 
ATOM     43  N   UNL     1      14.004  -0.828  -0.453  1.00  0.00    -0.248 NA
ATOM     44  C   UNL     1      13.596  -2.196  -2.255  1.00  0.00     0.031 C 
ATOM     45  C   UNL     1      11.743   0.897   0.219  1.00  0.00     0.029 A 
ATOM     46  N   UNL     1       9.887  -0.328   0.583  1.00  0.00    -0.354 N 
ATOM     47  C   UNL     1      15.165  -0.902  -1.191  1.00  0.00     0.074 A 
ATOM     48  C   UNL     1      14.883  -1.847  -2.245  1.00  0.00     0.031 C 
ATOM     49  C   UNL     1      11.134   1.395   1.307  1.00  0.00     0.029 A 
ATOM     50  C   UNL     1      10.152   0.414   1.744  1.00  0.00     0.049 A 
ATOM     51  H   UNL     1       9.032  -0.742   0.327  1.00  0.00     0.167 HD
ATOM     52  C   UNL     1      16.190  -0.041  -0.930  1.00  0.00     0.031 A 
ATOM     53  C   UNL     1      10.073  -0.110   3.001  1.00  0.00     0.031 A 
ATOM     54  C   UNL     1      15.930   0.739   0.280  1.00  0.00     0.049 A 
ATOM     55  C   UNL     1      11.404  -0.069   3.735  1.00  0.00     0.074 A 
ATOM     56  C   UNL     1      15.454   2.022   0.495  1.00  0.00     0.029 A 
ATOM     57  N   UNL     1      15.824   0.075   1.501  1.00  0.00    -0.354 N 
ATOM     58  N   UNL     1      12.555   0.151   3.154  1.00  0.00    -0.248 NA
ATOM     59  C   UNL     1      11.548  -0.291   5.172  1.00  0.00     0.031 C 
ATOM     60  C   UNL     1      14.937   2.080   1.820  1.00  0.00     0.029 A 
ATOM     61  C   UNL     1      15.144   0.851   2.423  1.00  0.00     0.049 A 
ATOM     62  H   UNL     1      16.183  -0.824   1.683  1.00  0.00     0.167 HD
ATOM     63  C   UNL     1      13.561   0.128   4.086  1.00  0.00     0.074 A 
ATOM     64  C   UNL     1      12.876  -0.147   5.338  1.00  0.00     0.031 C 
ATOM     65  C   UNL     1      14.874   0.338   3.763  1.00  0.00     0.031 A 
BRANCH  52  66
ATOM     66  C   UNL     1      17.223   0.305  -1.988  1.00  0.00    -0.014 A 
ATOM     67  C   UNL     1      17.765   1.605  -2.048  1.00  0.00     0.010 A 
ATOM     68  C   UNL     1      17.619  -0.571  -3.018  1.00  0.00     0.010 A 
ATOM     69  C   UNL     1      18.543   2.039  -3.138  1.00  0.00     0.020 A 
ATOM     70  C   UNL     1      18.348  -0.141  -4.137  1.00  0.00     0.020 A 
ATOM     71  C   UNL     1      18.796   1.171  -4.198  1.00  0.00     0.054 A 
BRANCH  71  72
ATOM     72  S   UNL     1      19.693   1.770  -5.656  1.00  0.00     0.124 S 
ATOM     73  O   UNL     1      18.931   2.958  -6.034  1.00  0.00    -0.237 OA
ATOM     74  O   UNL     1      21.027   2.020  -5.120  1.00  0.00    -0.237 OA
ATOM     75  O   UNL     1      19.602   0.658  -6.600  1.00  0.00    -0.744 OA
ENDBRANCH  71  72
ENDBRANCH  52  66
BRANCH  53  76
ATOM     76  C   UNL     1       8.975  -1.097   3.206  1.00  0.00    -0.014 A 
ATOM     77  C   UNL     1       7.653  -0.600   3.209  1.00  0.00     0.010 A 
ATOM     78  C   UNL     1       9.166  -2.477   3.029  1.00  0.00     0.010 A 
ATOM     79  C   UNL     1       6.567  -1.426   2.898  1.00  0.00     0.020 A 
ATOM     80  C   UNL     1       8.077  -3.311   2.713  1.00  0.00     0.020 A 
ATOM     81  C   UNL     1       6.795  -2.764   2.587  1.00  0.00     0.054 A 
BRANCH  81  82
ATOM     82  S   UNL     1       5.408  -3.748   1.934  1.00  0.00     0.124 S 
ATOM     83  O   UNL     1       4.317  -3.408   2.843  1.00  0.00    -0.237 OA
ATOM     84  O   UNL     1       5.266  -3.218   0.577  1.00  0.00    -0.237 OA
ATOM     85  O   UNL     1       5.897  -5.118   2.025  1.00  0.00    -0.744 OA
ENDBRANCH  81  82
ENDBRANCH  53  76
BRANCH  65  86
ATOM     86  C   UNL     1      16.050   0.157   4.697  1.00  0.00    -0.014 A 
ATOM     87  C   UNL     1      16.057  -0.714   5.798  1.00  0.00     0.010 A 
ATOM     88  C   UNL     1      17.275   0.795   4.380  1.00  0.00     0.010 A 
ATOM     89  C   UNL     1      17.210  -0.896   6.577  1.00  0.00     0.020 A 
ATOM     90  C   UNL     1      18.442   0.585   5.120  1.00  0.00     0.020 A 
ATOM     91  C   UNL     1      18.396  -0.245   6.233  1.00  0.00     0.054 A 
BRANCH  91  92
ATOM     92  S   UNL     1      19.905  -0.547   7.189  1.00  0.00     0.124 S 
ATOM     93  O   UNL     1      19.831   0.498   8.206  1.00  0.00    -0.237 OA
ATOM     94  O   UNL     1      19.718  -1.911   7.679  1.00  0.00    -0.237 OA
ATOM     95  O   UNL     1      20.969  -0.390   6.201  1.00  0.00    -0.744 OA
ENDBRANCH  91  92
ENDBRANCH  65  86
ENDBRANCH  39  40
ENDBRANCH  31  34
ENDBRANCH   1  30
TORSDOF 15
