REMARK SMILES CC(C)Oc1ccc(-c2ccc(/C(=C\c3ccc(S(C)(=O)=O)cc3)C(=O)NCCCNC(=O)c3ccc(-c4c5nc(c(-c6ccc(S(=O)(=O)[O-])cc6)c6ccc([nH]6)c(-c6ccc(S(=O)(=O)[O-])cc6)c6nc(c(-c7ccc(S(=O)(=O)[O-])cc7)c7ccc4[nH]7)C=C6)C=C5)cc3)cc2)cc1
REMARK SMILES IDX 28 1 27 2 25 3 26 4 13 6 14 7 12 8 9 9 10 10 95 11 11 12
REMARK SMILES IDX 94 13 8 14 5 15 6 16 97 17 7 18 96 19 4 20 2 21 1 22 3 23
REMARK SMILES IDX 15 24 16 25 24 26 17 27 23 28 18 29 19 30 20 31 21 32 22 33
REMARK SMILES IDX 29 34 30 35 31 36 32 37 33 39 34 40 35 41 93 42 36 43 92 44
REMARK SMILES IDX 37 45 38 46 39 47 86 48 40 49 91 50 85 51 87 52 41 53 90 54
REMARK SMILES IDX 84 55 83 56 42 58 72 59 53 60 71 61 54 62 57 63 70 64 88 65
REMARK SMILES IDX 55 66 56 67 69 69 89 70 58 71 43 72 44 73 52 74 45 75 51 76
REMARK SMILES IDX 46 77 47 78 48 79 49 80 50 81 73 82 74 83 82 84 75 85 81 86
REMARK SMILES IDX 76 87 77 88 78 89 79 90 80 91 59 92 60 93 68 94 61 95 67 96
REMARK SMILES IDX 62 97 63 98 64 99 65 100 66 101
REMARK H PARENT 27 5 31 38 87 57 57 68
REMARK Flexibility Score: inf
ROOT
ATOM      1  C   UNL     1      -8.889  -7.241   6.141  1.00  0.00     0.118 C 
ENDROOT
BRANCH   1   2
ATOM      2  N   UNL     1      -8.140  -6.010   6.300  1.00  0.00    -0.352 N 
ATOM      3  C   UNL     1      -7.187  -5.357   5.585  1.00  0.00     0.251 C 
ATOM      4  O   UNL     1      -6.849  -4.280   6.082  1.00  0.00    -0.269 OA
ATOM      5  H   UNL     1      -8.380  -5.531   7.125  1.00  0.00     0.163 HD
BRANCH   3   6
ATOM      6  C   UNL     1      -6.606  -5.841   4.258  1.00  0.00     0.047 C 
ATOM      7  C   UNL     1      -6.601  -7.170   3.992  1.00  0.00     0.022 C 
BRANCH   6   8
ATOM      8  C   UNL     1      -5.891  -4.858   3.361  1.00  0.00    -0.013 A 
ATOM      9  C   UNL     1      -4.199  -3.198   1.717  1.00  0.00    -0.018 A 
ATOM     10  C   UNL     1      -5.022  -4.186   1.165  1.00  0.00     0.009 A 
ATOM     11  C   UNL     1      -4.311  -3.000   3.099  1.00  0.00     0.009 A 
ATOM     12  C   UNL     1      -5.889  -4.955   1.962  1.00  0.00     0.009 A 
ATOM     13  C   UNL     1      -5.105  -3.831   3.901  1.00  0.00     0.009 A 
BRANCH   9  14
ATOM     14  C   UNL     1      -3.255  -2.398   0.900  1.00  0.00    -0.018 A 
ATOM     15  C   UNL     1      -1.478  -0.773  -0.609  1.00  0.00     0.119 A 
ATOM     16  C   UNL     1      -2.631  -1.293  -1.192  1.00  0.00     0.047 A 
ATOM     17  C   UNL     1      -1.207  -1.057   0.722  1.00  0.00     0.047 A 
ATOM     18  C   UNL     1      -3.506  -2.097  -0.449  1.00  0.00     0.012 A 
ATOM     19  C   UNL     1      -2.071  -1.879   1.455  1.00  0.00     0.012 A 
BRANCH  15  20
ATOM     20  O   UNL     1      -0.760   0.107  -1.363  1.00  0.00    -0.491 OA
BRANCH  20  21
ATOM     21  C   UNL     1       0.653  -0.090  -1.526  1.00  0.00     0.167 C 
ATOM     22  C   UNL     1       1.482   0.326  -0.314  1.00  0.00     0.052 C 
ATOM     23  C   UNL     1       1.021  -1.473  -2.055  1.00  0.00     0.052 C 
ENDBRANCH  20  21
ENDBRANCH  15  20
ENDBRANCH   9  14
ENDBRANCH   6   8
BRANCH   7  24
ATOM     24  C   UNL     1      -6.197  -7.872   2.765  1.00  0.00    -0.025 A 
ATOM     25  C   UNL     1      -7.204  -8.360   1.914  1.00  0.00     0.009 A 
ATOM     26  C   UNL     1      -4.855  -7.998   2.394  1.00  0.00     0.009 A 
ATOM     27  C   UNL     1      -6.875  -8.917   0.678  1.00  0.00     0.021 A 
ATOM     28  C   UNL     1      -4.520  -8.553   1.157  1.00  0.00     0.021 A 
ATOM     29  C   UNL     1      -5.532  -9.004   0.304  1.00  0.00     0.067 A 
BRANCH  29  30
ATOM     30  S   UNL     1      -5.126  -9.608  -1.317  1.00  0.00     0.175 S 
ATOM     31  C   UNL     1      -5.290 -11.366  -1.162  1.00  0.00     0.163 C 
ATOM     32  O   UNL     1      -6.153  -9.131  -2.223  1.00  0.00    -0.224 OA
ATOM     33  O   UNL     1      -3.727  -9.308  -1.564  1.00  0.00    -0.224 OA
ENDBRANCH  29  30
ENDBRANCH   7  24
ENDBRANCH   3   6
ENDBRANCH   1   2
BRANCH   1  34
ATOM     34  C   UNL     1      -8.303  -8.360   7.005  1.00  0.00     0.042 C 
BRANCH  34  35
ATOM     35  C   UNL     1      -8.489  -8.141   8.507  1.00  0.00     0.118 C 
BRANCH  35  36
ATOM     36  N   UNL     1      -9.895  -8.078   8.875  1.00  0.00    -0.352 N 
ATOM     37  C   UNL     1     -10.661  -8.934   9.622  1.00  0.00     0.251 C 
ATOM     38  H   UNL     1     -10.375  -7.292   8.530  1.00  0.00     0.163 HD
ATOM     39  O   UNL     1     -11.884  -8.858   9.536  1.00  0.00    -0.269 OA
BRANCH  37  40
ATOM     40  C   UNL     1     -10.043  -9.927  10.529  1.00  0.00     0.039 A 
ATOM     41  C   UNL     1     -10.690 -11.152  10.714  1.00  0.00     0.014 A 
ATOM     42  C   UNL     1      -8.887  -9.636  11.259  1.00  0.00     0.014 A 
ATOM     43  C   UNL     1     -10.161 -12.090  11.601  1.00  0.00     0.010 A 
ATOM     44  C   UNL     1      -8.313 -10.606  12.081  1.00  0.00     0.010 A 
ATOM     45  C   UNL     1      -8.952 -11.837  12.273  1.00  0.00    -0.014 A 
BRANCH  45  46
ATOM     46  C   UNL     1      -8.355 -12.873  13.155  1.00  0.00     0.031 A 
ATOM     47  C   UNL     1      -8.197 -12.639  14.633  1.00  0.00     0.074 A 
ATOM     48  C   UNL     1      -7.942 -14.033  12.606  1.00  0.00     0.049 A 
ATOM     49  N   UNL     1      -7.779 -13.468  15.557  1.00  0.00    -0.248 NA
ATOM     50  C   UNL     1      -8.527 -11.297  15.140  1.00  0.00     0.031 C 
ATOM     51  C   UNL     1      -7.992 -14.355  11.177  1.00  0.00     0.029 A 
ATOM     52  N   UNL     1      -7.420 -15.163  13.182  1.00  0.00    -0.354 N 
ATOM     53  C   UNL     1      -7.784 -12.748  16.747  1.00  0.00     0.074 A 
ATOM     54  C   UNL     1      -8.195 -11.400  16.419  1.00  0.00     0.031 C 
ATOM     55  C   UNL     1      -7.585 -15.620  10.997  1.00  0.00     0.029 A 
ATOM     56  C   UNL     1      -7.204 -16.185  12.287  1.00  0.00     0.049 A 
ATOM     57  H   UNL     1      -7.220 -15.236  14.143  1.00  0.00     0.167 HD
ATOM     58  C   UNL     1      -7.489 -13.173  18.000  1.00  0.00     0.031 A 
ATOM     59  C   UNL     1      -6.766 -17.443  12.483  1.00  0.00     0.031 A 
ATOM     60  C   UNL     1      -7.075 -14.517  18.315  1.00  0.00     0.049 A 
ATOM     61  C   UNL     1      -6.453 -17.894  13.882  1.00  0.00     0.074 A 
ATOM     62  C   UNL     1      -6.816 -15.070  19.557  1.00  0.00     0.029 A 
ATOM     63  N   UNL     1      -6.846 -15.516  17.380  1.00  0.00    -0.354 N 
ATOM     64  N   UNL     1      -6.549 -17.224  15.006  1.00  0.00    -0.248 NA
ATOM     65  C   UNL     1      -5.991 -19.278  14.037  1.00  0.00     0.031 C 
ATOM     66  C   UNL     1      -6.365 -16.382  19.367  1.00  0.00     0.029 A 
ATOM     67  C   UNL     1      -6.415 -16.671  18.013  1.00  0.00     0.049 A 
ATOM     68  H   UNL     1      -6.972 -15.419  16.408  1.00  0.00     0.167 HD
ATOM     69  C   UNL     1      -6.184 -18.116  16.008  1.00  0.00     0.074 A 
ATOM     70  C   UNL     1      -5.891 -19.377  15.355  1.00  0.00     0.031 C 
ATOM     71  C   UNL     1      -6.100 -17.912  17.348  1.00  0.00     0.031 A 
BRANCH  58  72
ATOM     72  C   UNL     1      -7.578 -12.164  19.119  1.00  0.00    -0.014 A 
ATOM     73  C   UNL     1      -8.811 -11.617  19.521  1.00  0.00     0.010 A 
ATOM     74  C   UNL     1      -6.409 -11.773  19.799  1.00  0.00     0.010 A 
ATOM     75  C   UNL     1      -8.867 -10.661  20.540  1.00  0.00     0.020 A 
ATOM     76  C   UNL     1      -6.464 -10.842  20.841  1.00  0.00     0.020 A 
ATOM     77  C   UNL     1      -7.691 -10.275  21.190  1.00  0.00     0.054 A 
BRANCH  77  78
ATOM     78  S   UNL     1      -7.792  -9.035  22.510  1.00  0.00     0.124 S 
ATOM     79  O   UNL     1      -8.073  -7.816  21.756  1.00  0.00    -0.237 OA
ATOM     80  O   UNL     1      -8.892  -9.533  23.332  1.00  0.00    -0.237 OA
ATOM     81  O   UNL     1      -6.474  -9.088  23.139  1.00  0.00    -0.744 OA
ENDBRANCH  77  78
ENDBRANCH  58  72
BRANCH  59  82
ATOM     82  C   UNL     1      -6.647 -18.374  11.328  1.00  0.00    -0.014 A 
ATOM     83  C   UNL     1      -7.528 -19.461  11.194  1.00  0.00     0.010 A 
ATOM     84  C   UNL     1      -5.671 -18.161  10.337  1.00  0.00     0.010 A 
ATOM     85  C   UNL     1      -7.429 -20.325  10.100  1.00  0.00     0.020 A 
ATOM     86  C   UNL     1      -5.588 -19.003   9.225  1.00  0.00     0.020 A 
ATOM     87  C   UNL     1      -6.463 -20.086   9.119  1.00  0.00     0.054 A 
BRANCH  87  88
ATOM     88  S   UNL     1      -6.397 -21.180   7.673  1.00  0.00     0.124 S 
ATOM     89  O   UNL     1      -5.856 -22.409   8.245  1.00  0.00    -0.237 OA
ATOM     90  O   UNL     1      -7.796 -21.236   7.257  1.00  0.00    -0.237 OA
ATOM     91  O   UNL     1      -5.510 -20.474   6.751  1.00  0.00    -0.744 OA
ENDBRANCH  87  88
ENDBRANCH  59  82
BRANCH  71  92
ATOM     92  C   UNL     1      -5.698 -19.094  18.192  1.00  0.00    -0.014 A 
ATOM     93  C   UNL     1      -4.402 -19.639  18.123  1.00  0.00     0.010 A 
ATOM     94  C   UNL     1      -6.637 -19.673  19.065  1.00  0.00     0.010 A 
ATOM     95  C   UNL     1      -4.077 -20.782  18.857  1.00  0.00     0.020 A 
ATOM     96  C   UNL     1      -6.303 -20.794  19.829  1.00  0.00     0.020 A 
ATOM     97  C   UNL     1      -5.033 -21.358  19.698  1.00  0.00     0.054 A 
BRANCH  97  98
ATOM     98  S   UNL     1      -4.593 -22.851  20.628  1.00  0.00     0.124 S 
ATOM     99  O   UNL     1      -4.595 -23.870  19.582  1.00  0.00    -0.237 OA
ATOM    100  O   UNL     1      -3.281 -22.514  21.175  1.00  0.00    -0.237 OA
ATOM    101  O   UNL     1      -5.662 -22.971  21.617  1.00  0.00    -0.744 OA
ENDBRANCH  97  98
ENDBRANCH  71  92
ENDBRANCH  45  46
ENDBRANCH  37  40
ENDBRANCH  35  36
ENDBRANCH  34  35
ENDBRANCH   1  34
TORSDOF 19
