REMARK SMILES O=C(NCCCNC(=O)c1cc(Cl)ccc1NC(=O)c1ccc2c(c1)C(=O)N(Cc1ccco1)C2=O)c1ccc(-c2c3nc(c(-c4ccc(S(=O)(=O)[O-])cc4)c4ccc([nH]4)c(-c4ccc(S(=O)(=O)[O-])cc4)c4nc(c(-c5ccc(S(=O)(=O)[O-])cc5)c5ccc2[nH]5)C=C4)C=C3)cc1
REMARK SMILES IDX 5 1 4 2 3 3 1 4 2 5 37 7 38 8 96 9 39 10 95 11 40 12 41 13
REMARK SMILES IDX 42 14 89 15 43 16 94 17 88 18 90 19 44 20 93 21 87 22 86 23
REMARK SMILES IDX 45 25 75 26 56 27 74 28 57 29 60 30 73 31 91 32 58 33 59 34
REMARK SMILES IDX 72 36 92 37 61 38 46 39 47 40 55 41 48 42 54 43 49 44 50 45
REMARK SMILES IDX 51 46 52 47 53 48 76 49 77 50 85 51 78 52 84 53 79 54 80 55
REMARK SMILES IDX 81 56 82 57 83 58 62 59 63 60 71 61 64 62 70 63 65 64 66 65
REMARK SMILES IDX 67 66 68 67 69 68 6 69 7 70 8 71 9 73 10 74 11 75 16 76
REMARK SMILES IDX 12 77 15 78 13 79 14 80 17 81 18 82 19 84 20 85 21 86 25 87
REMARK SMILES IDX 22 88 24 89 23 90 26 91 35 92 27 93 28 94 36 95 29 96 30 97
REMARK SMILES IDX 31 98 34 99 32 100 33 101
REMARK H PARENT 3 6 90 24 60 35 7 72 17 83
REMARK Flexibility Score: inf
ROOT
ATOM      1  C   UNL     1       4.920   2.235  -0.887  1.00  0.00     0.042 C 
ENDROOT
BRANCH   1   2
ATOM      2  C   UNL     1       4.528   1.338   0.274  1.00  0.00     0.118 C 
BRANCH   2   3
ATOM      3  N   UNL     1       3.091   1.104   0.348  1.00  0.00    -0.352 N 
ATOM      4  O   UNL     1       1.142   0.013   0.083  1.00  0.00    -0.269 OA
ATOM      5  C   UNL     1       2.367  -0.047   0.148  1.00  0.00     0.251 C 
ATOM      6  H   UNL     1       2.554   1.897   0.577  1.00  0.00     0.163 HD
BRANCH   5   7
ATOM      7  C   UNL     1       3.058  -1.346  -0.011  1.00  0.00     0.039 A 
ATOM      8  C   UNL     1       4.155  -1.669   0.786  1.00  0.00     0.014 A 
ATOM      9  C   UNL     1       2.592  -2.261  -0.960  1.00  0.00     0.014 A 
ATOM     10  C   UNL     1       4.892  -2.815   0.518  1.00  0.00     0.010 A 
ATOM     11  C   UNL     1       3.268  -3.472  -1.148  1.00  0.00     0.010 A 
ATOM     12  C   UNL     1       4.443  -3.745  -0.431  1.00  0.00    -0.014 A 
BRANCH  12  13
ATOM     13  C   UNL     1       5.175  -5.029  -0.585  1.00  0.00     0.031 A 
ATOM     14  C   UNL     1       5.832  -5.409  -1.883  1.00  0.00     0.074 A 
ATOM     15  C   UNL     1       5.266  -5.845   0.486  1.00  0.00     0.049 A 
ATOM     16  N   UNL     1       6.522  -6.484  -2.168  1.00  0.00    -0.248 NA
ATOM     17  C   UNL     1       5.696  -4.471  -3.010  1.00  0.00     0.031 C 
ATOM     18  C   UNL     1       4.665  -5.583   1.799  1.00  0.00     0.029 A 
ATOM     19  N   UNL     1       5.909  -7.043   0.654  1.00  0.00    -0.354 N 
ATOM     20  C   UNL     1       6.886  -6.365  -3.504  1.00  0.00     0.074 A 
ATOM     21  C   UNL     1       6.321  -5.122  -3.983  1.00  0.00     0.031 C 
ATOM     22  C   UNL     1       5.011  -6.561   2.647  1.00  0.00     0.029 A 
ATOM     23  C   UNL     1       5.787  -7.559   1.923  1.00  0.00     0.049 A 
ATOM     24  H   UNL     1       6.410  -7.492  -0.065  1.00  0.00     0.167 HD
ATOM     25  C   UNL     1       7.626  -7.214  -4.258  1.00  0.00     0.031 A 
ATOM     26  C   UNL     1       6.225  -8.718   2.447  1.00  0.00     0.031 A 
ATOM     27  C   UNL     1       8.182  -8.451  -3.770  1.00  0.00     0.049 A 
ATOM     28  C   UNL     1       7.003  -9.659   1.573  1.00  0.00     0.074 A 
ATOM     29  C   UNL     1       8.973  -9.363  -4.449  1.00  0.00     0.029 A 
ATOM     30  N   UNL     1       8.003  -8.956  -2.491  1.00  0.00    -0.354 N 
ATOM     31  N   UNL     1       7.370  -9.506   0.323  1.00  0.00    -0.248 NA
ATOM     32  C   UNL     1       7.429 -10.926   2.180  1.00  0.00     0.031 C 
ATOM     33  C   UNL     1       9.216 -10.448  -3.602  1.00  0.00     0.029 A 
ATOM     34  C   UNL     1       8.641 -10.180  -2.371  1.00  0.00     0.049 A 
ATOM     35  H   UNL     1       7.497  -8.510  -1.773  1.00  0.00     0.167 HD
ATOM     36  C   UNL     1       8.091 -10.649   0.001  1.00  0.00     0.074 A 
ATOM     37  C   UNL     1       8.128 -11.471   1.194  1.00  0.00     0.031 C 
ATOM     38  C   UNL     1       8.671 -10.987  -1.177  1.00  0.00     0.031 A 
BRANCH  25  39
ATOM     39  C   UNL     1       7.862  -6.858  -5.704  1.00  0.00    -0.014 A 
ATOM     40  C   UNL     1       8.721  -5.806  -6.068  1.00  0.00     0.010 A 
ATOM     41  C   UNL     1       7.280  -7.644  -6.717  1.00  0.00     0.010 A 
ATOM     42  C   UNL     1       8.973  -5.532  -7.416  1.00  0.00     0.020 A 
ATOM     43  C   UNL     1       7.552  -7.391  -8.065  1.00  0.00     0.020 A 
ATOM     44  C   UNL     1       8.389  -6.328  -8.406  1.00  0.00     0.054 A 
BRANCH  44  45
ATOM     45  S   UNL     1       8.772  -5.975 -10.144  1.00  0.00     0.124 S 
ATOM     46  O   UNL     1       8.068  -4.712 -10.357  1.00  0.00    -0.237 OA
ATOM     47  O   UNL     1      10.230  -5.886 -10.138  1.00  0.00    -0.237 OA
ATOM     48  O   UNL     1       8.223  -7.122 -10.863  1.00  0.00    -0.744 OA
ENDBRANCH  44  45
ENDBRANCH  25  39
BRANCH  26  49
ATOM     49  C   UNL     1       5.905  -9.064   3.859  1.00  0.00    -0.014 A 
ATOM     50  C   UNL     1       6.920  -9.159   4.826  1.00  0.00     0.010 A 
ATOM     51  C   UNL     1       4.571  -9.300   4.242  1.00  0.00     0.010 A 
ATOM     52  C   UNL     1       6.610  -9.512   6.143  1.00  0.00     0.020 A 
ATOM     53  C   UNL     1       4.253  -9.617   5.564  1.00  0.00     0.020 A 
ATOM     54  C   UNL     1       5.279  -9.740   6.503  1.00  0.00     0.054 A 
BRANCH  54  55
ATOM     55  S   UNL     1       4.898 -10.174   8.222  1.00  0.00     0.124 S 
ATOM     56  O   UNL     1       5.393 -11.544   8.304  1.00  0.00    -0.237 OA
ATOM     57  O   UNL     1       5.657  -9.178   8.973  1.00  0.00    -0.237 OA
ATOM     58  O   UNL     1       3.446 -10.027   8.297  1.00  0.00    -0.744 OA
ENDBRANCH  54  55
ENDBRANCH  26  49
BRANCH  38  59
ATOM     59  C   UNL     1       9.432 -12.286  -1.222  1.00  0.00    -0.014 A 
ATOM     60  C   UNL     1       8.771 -13.526  -1.175  1.00  0.00     0.010 A 
ATOM     61  C   UNL     1      10.832 -12.260  -1.358  1.00  0.00     0.010 A 
ATOM     62  C   UNL     1       9.500 -14.717  -1.225  1.00  0.00     0.020 A 
ATOM     63  C   UNL     1      11.561 -13.448  -1.443  1.00  0.00     0.020 A 
ATOM     64  C   UNL     1      10.891 -14.670  -1.361  1.00  0.00     0.054 A 
BRANCH  64  65
ATOM     65  S   UNL     1      11.809 -16.230  -1.468  1.00  0.00     0.124 S 
ATOM     66  O   UNL     1      11.723 -16.728  -0.098  1.00  0.00    -0.237 OA
ATOM     67  O   UNL     1      11.045 -16.982  -2.460  1.00  0.00    -0.237 OA
ATOM     68  O   UNL     1      13.143 -15.818  -1.898  1.00  0.00    -0.744 OA
ENDBRANCH  64  65
ENDBRANCH  38  59
ENDBRANCH  12  13
ENDBRANCH   5   7
ENDBRANCH   2   3
ENDBRANCH   1   2
BRANCH   1  69
ATOM     69  C   UNL     1       4.371   3.649  -0.782  1.00  0.00     0.118 C 
BRANCH  69  70
ATOM     70  N   UNL     1       4.894   4.375   0.373  1.00  0.00    -0.352 N 
ATOM     71  C   UNL     1       5.725   5.468   0.420  1.00  0.00     0.253 C 
ATOM     72  H   UNL     1       4.609   4.028   1.249  1.00  0.00     0.163 HD
ATOM     73  O   UNL     1       6.224   5.829   1.481  1.00  0.00    -0.269 OA
BRANCH  71  74
ATOM     74  C   UNL     1       6.064   6.174  -0.833  1.00  0.00     0.064 A 
ATOM     75  C   UNL     1       5.016   6.556  -1.686  1.00  0.00     0.036 A 
ATOM     76  C   UNL     1       7.404   6.422  -1.178  1.00  0.00     0.054 A 
ATOM     77  C   UNL     1       5.301   7.016  -2.962  1.00  0.00     0.041 A 
ATOM     78  C   UNL     1       7.657   6.758  -2.512  1.00  0.00     0.028 A 
ATOM     79  Cl  UNL     1       4.022   7.436  -4.028  1.00  0.00    -0.084 Cl
ATOM     80  C   UNL     1       6.617   7.072  -3.397  1.00  0.00     0.023 A 
BRANCH  76  81
ATOM     81  N   UNL     1       8.416   6.341  -0.183  1.00  0.00    -0.321 N 
ATOM     82  C   UNL     1       9.696   6.858  -0.112  1.00  0.00     0.255 C 
ATOM     83  H   UNL     1       8.155   5.816   0.608  1.00  0.00     0.170 HD
ATOM     84  O   UNL     1      10.448   6.591   0.821  1.00  0.00    -0.269 OA
BRANCH  82  85
ATOM     85  C   UNL     1      10.191   7.778  -1.153  1.00  0.00     0.041 A 
ATOM     86  C   UNL     1      11.271   7.333  -1.950  1.00  0.00     0.015 A 
ATOM     87  C   UNL     1       9.485   8.954  -1.450  1.00  0.00     0.028 A 
ATOM     88  C   UNL     1      11.563   7.977  -3.153  1.00  0.00     0.015 A 
ATOM     89  C   UNL     1       9.782   9.552  -2.658  1.00  0.00     0.054 A 
ATOM     90  C   UNL     1      10.764   9.052  -3.497  1.00  0.00     0.053 A 
ATOM     91  C   UNL     1       9.056  10.586  -3.397  1.00  0.00     0.261 C 
ATOM     92  C   UNL     1      10.631   9.731  -4.780  1.00  0.00     0.261 C 
ATOM     93  O   UNL     1       8.078  11.165  -2.964  1.00  0.00    -0.269 OA
ATOM     94  N   UNL     1       9.636  10.657  -4.632  1.00  0.00    -0.267 N 
ATOM     95  O   UNL     1      11.256   9.415  -5.774  1.00  0.00    -0.269 OA
BRANCH  94  96
ATOM     96  C   UNL     1       9.143  11.484  -5.713  1.00  0.00     0.204 C 
BRANCH  96  97
ATOM     97  C   UNL     1      10.163  12.510  -6.055  1.00  0.00     0.123 A 
ATOM     98  C   UNL     1      11.389  12.446  -6.687  1.00  0.00     0.047 A 
ATOM     99  O   UNL     1       9.894  13.797  -5.694  1.00  0.00    -0.467 OA
ATOM    100  C   UNL     1      11.909  13.760  -6.689  1.00  0.00     0.042 A 
ATOM    101  C   UNL     1      10.958  14.546  -6.082  1.00  0.00     0.195 A 
ENDBRANCH  96  97
ENDBRANCH  94  96
ENDBRANCH  82  85
ENDBRANCH  76  81
ENDBRANCH  71  74
ENDBRANCH  69  70
ENDBRANCH   1  69
TORSDOF 17
