REMARK SMILES O=C(NCCCNC(=O)[C@H]1CCCN(c2ccc(O)nn2)C1)c1ccc(-c2c3nc(c(-c4ccc(S(=O)(=O)[O-])cc4)c4ccc([nH]4)c(-c4ccc(S(=O)(=O)[O-])cc4)c4nc(c(-c5ccc(S(=O)(=O)[O-])cc5)c5ccc2[nH]5)C=C4)C=C3)cc1
REMARK SMILES IDX 4 1 3 2 1 3 2 4 23 6 24 7 82 8 25 9 81 10 26 11 27 12 28 13
REMARK SMILES IDX 75 14 29 15 80 16 74 17 76 18 30 19 79 20 73 21 72 22 31 24
REMARK SMILES IDX 61 25 42 26 60 27 43 28 46 29 59 30 77 31 44 32 45 33 58 35
REMARK SMILES IDX 78 36 47 37 32 38 33 39 41 40 34 41 40 42 35 43 36 44 37 45
REMARK SMILES IDX 38 46 39 47 62 48 63 49 71 50 64 51 70 52 65 53 66 54 67 55
REMARK SMILES IDX 68 56 69 57 48 58 49 59 57 60 50 61 56 62 51 63 52 64 53 65
REMARK SMILES IDX 54 66 55 67 5 68 6 69 7 70 8 71 9 73 10 74 11 75 22 76 12 77
REMARK SMILES IDX 14 78 13 79 15 80 16 81 21 82 17 83 20 84 18 85 19 86
REMARK H PARENT 3 5 76 23 46 34 7 72 19 87
REMARK Flexibility Score: inf
ROOT
ATOM      1  C   UNL     1       1.887   2.327   8.794  1.00  0.00     0.118 C 
ENDROOT
BRANCH   1   2
ATOM      2  N   UNL     1       1.679   3.677   9.313  1.00  0.00    -0.352 N 
ATOM      3  O   UNL     1       0.573   5.609   9.619  1.00  0.00    -0.269 OA
ATOM      4  C   UNL     1       0.519   4.387   9.468  1.00  0.00     0.251 C 
ATOM      5  H   UNL     1       2.497   4.147   9.594  1.00  0.00     0.163 HD
BRANCH   4   6
ATOM      6  C   UNL     1      -0.783   3.697   9.469  1.00  0.00     0.039 A 
ATOM      7  C   UNL     1      -0.947   2.506  10.182  1.00  0.00     0.014 A 
ATOM      8  C   UNL     1      -1.870   4.279   8.809  1.00  0.00     0.014 A 
ATOM      9  C   UNL     1      -2.169   1.844  10.153  1.00  0.00     0.010 A 
ATOM     10  C   UNL     1      -3.112   3.641   8.824  1.00  0.00     0.010 A 
ATOM     11  C   UNL     1      -3.262   2.410   9.480  1.00  0.00    -0.014 A 
BRANCH  11  12
ATOM     12  C   UNL     1      -4.568   1.714   9.510  1.00  0.00     0.031 A 
ATOM     13  C   UNL     1      -5.095   1.028   8.284  1.00  0.00     0.074 A 
ATOM     14  C   UNL     1      -5.246   1.658  10.673  1.00  0.00     0.049 A 
ATOM     15  N   UNL     1      -6.193   0.333   8.144  1.00  0.00    -0.248 NA
ATOM     16  C   UNL     1      -4.284   1.126   7.059  1.00  0.00     0.031 C 
ATOM     17  C   UNL     1      -4.808   2.265  11.933  1.00  0.00     0.029 A 
ATOM     18  N   UNL     1      -6.426   1.039  10.993  1.00  0.00    -0.354 N 
ATOM     19  C   UNL     1      -6.207  -0.093   6.822  1.00  0.00     0.074 A 
ATOM     20  C   UNL     1      -5.021   0.444   6.191  1.00  0.00     0.031 C 
ATOM     21  C   UNL     1      -5.684   1.948  12.899  1.00  0.00     0.029 A 
ATOM     22  C   UNL     1      -6.765   1.157  12.320  1.00  0.00     0.049 A 
ATOM     23  H   UNL     1      -6.978   0.557  10.336  1.00  0.00     0.167 HD
ATOM     24  C   UNL     1      -7.121  -0.871   6.199  1.00  0.00     0.031 A 
ATOM     25  C   UNL     1      -7.828   0.683  12.996  1.00  0.00     0.031 A 
ATOM     26  C   UNL     1      -8.300  -1.397   6.832  1.00  0.00     0.049 A 
ATOM     27  C   UNL     1      -8.862  -0.118  12.262  1.00  0.00     0.074 A 
ATOM     28  C   UNL     1      -9.290  -2.189   6.278  1.00  0.00     0.029 A 
ATOM     29  N   UNL     1      -8.648  -1.187   8.157  1.00  0.00    -0.354 N 
ATOM     30  N   UNL     1      -8.866  -0.495  11.006  1.00  0.00    -0.248 NA
ATOM     31  C   UNL     1     -10.037  -0.552  13.030  1.00  0.00     0.031 C 
ATOM     32  C   UNL     1     -10.256  -2.430   7.259  1.00  0.00     0.029 A 
ATOM     33  C   UNL     1      -9.845  -1.823   8.435  1.00  0.00     0.049 A 
ATOM     34  H   UNL     1      -8.122  -0.664   8.804  1.00  0.00     0.167 HD
ATOM     35  C   UNL     1     -10.036  -1.223  10.835  1.00  0.00     0.074 A 
ATOM     36  C   UNL     1     -10.711  -1.241  12.117  1.00  0.00     0.031 C 
ATOM     37  C   UNL     1     -10.505  -1.825   9.716  1.00  0.00     0.031 A 
BRANCH  24  38
ATOM     38  C   UNL     1      -6.892  -1.206   4.752  1.00  0.00    -0.014 A 
ATOM     39  C   UNL     1      -5.967  -2.198   4.385  1.00  0.00     0.010 A 
ATOM     40  C   UNL     1      -7.676  -0.593   3.758  1.00  0.00     0.010 A 
ATOM     41  C   UNL     1      -5.825  -2.568   3.046  1.00  0.00     0.020 A 
ATOM     42  C   UNL     1      -7.548  -0.972   2.419  1.00  0.00     0.020 A 
ATOM     43  C   UNL     1      -6.622  -1.958   2.072  1.00  0.00     0.054 A 
BRANCH  43  44
ATOM     44  S   UNL     1      -6.441  -2.494   0.348  1.00  0.00     0.124 S 
ATOM     45  O   UNL     1      -5.046  -2.161   0.071  1.00  0.00    -0.237 OA
ATOM     46  O   UNL     1      -6.743  -3.921   0.430  1.00  0.00    -0.237 OA
ATOM     47  O   UNL     1      -7.424  -1.689  -0.373  1.00  0.00    -0.744 OA
ENDBRANCH  43  44
ENDBRANCH  24  38
BRANCH  25  48
ATOM     48  C   UNL     1      -7.950   0.955  14.451  1.00  0.00    -0.014 A 
ATOM     49  C   UNL     1      -7.701  -0.064  15.386  1.00  0.00     0.010 A 
ATOM     50  C   UNL     1      -8.261   2.248  14.910  1.00  0.00     0.010 A 
ATOM     51  C   UNL     1      -7.756   0.207  16.756  1.00  0.00     0.020 A 
ATOM     52  C   UNL     1      -8.298   2.527  16.278  1.00  0.00     0.020 A 
ATOM     53  C   UNL     1      -8.044   1.504  17.193  1.00  0.00     0.054 A 
BRANCH  53  54
ATOM     54  S   UNL     1      -8.047   1.838  18.976  1.00  0.00     0.124 S 
ATOM     55  O   UNL     1      -9.124   0.973  19.448  1.00  0.00    -0.237 OA
ATOM     56  O   UNL     1      -6.697   1.438  19.366  1.00  0.00    -0.237 OA
ATOM     57  O   UNL     1      -8.316   3.271  19.058  1.00  0.00    -0.744 OA
ENDBRANCH  53  54
ENDBRANCH  25  48
BRANCH  37  58
ATOM     58  C   UNL     1     -11.805  -2.568   9.817  1.00  0.00    -0.014 A 
ATOM     59  C   UNL     1     -13.029  -1.879   9.808  1.00  0.00     0.010 A 
ATOM     60  C   UNL     1     -11.803  -3.975   9.815  1.00  0.00     0.010 A 
ATOM     61  C   UNL     1     -14.233  -2.586   9.797  1.00  0.00     0.020 A 
ATOM     62  C   UNL     1     -13.005  -4.685   9.787  1.00  0.00     0.020 A 
ATOM     63  C   UNL     1     -14.213  -3.985   9.777  1.00  0.00     0.054 A 
BRANCH  63  64
ATOM     64  S   UNL     1     -15.793  -4.872   9.698  1.00  0.00     0.124 S 
ATOM     65  O   UNL     1     -16.430  -4.476  10.952  1.00  0.00    -0.237 OA
ATOM     66  O   UNL     1     -16.398  -4.327   8.486  1.00  0.00    -0.237 OA
ATOM     67  O   UNL     1     -15.401  -6.277   9.619  1.00  0.00    -0.744 OA
ENDBRANCH  63  64
ENDBRANCH  37  58
ENDBRANCH  11  12
ENDBRANCH   4   6
ENDBRANCH   1   2
BRANCH   1  68
ATOM     68  C   UNL     1       2.589   2.357   7.438  1.00  0.00     0.042 C 
BRANCH  68  69
ATOM     69  C   UNL     1       4.008   2.905   7.534  1.00  0.00     0.117 C 
BRANCH  69  70
ATOM     70  N   UNL     1       4.980   1.872   7.842  1.00  0.00    -0.356 N 
ATOM     71  C   UNL     1       5.855   1.142   7.112  1.00  0.00     0.224 C 
ATOM     72  H   UNL     1       5.009   1.651   8.801  1.00  0.00     0.163 HD
ATOM     73  O   UNL     1       6.561   0.368   7.772  1.00  0.00    -0.275 OA
BRANCH  71  74
ATOM     74  C   UNL     1       5.977   1.157   5.581  1.00  0.00     0.098 C 
ATOM     75  C   UNL     1       5.445   2.387   4.837  1.00  0.00     0.017 C 
ATOM     76  C   UNL     1       7.475   0.923   5.272  1.00  0.00     0.131 C 
ATOM     77  C   UNL     1       5.869   2.465   3.371  1.00  0.00     0.022 C 
ATOM     78  N   UNL     1       7.782   1.129   3.861  1.00  0.00    -0.354 N 
ATOM     79  C   UNL     1       7.386   2.392   3.266  1.00  0.00     0.118 C 
BRANCH  78  80
ATOM     80  C   UNL     1       8.233   0.143   3.014  1.00  0.00     0.151 A 
ATOM     81  C   UNL     1       7.781  -1.170   3.106  1.00  0.00     0.054 A 
ATOM     82  N   UNL     1       9.098   0.478   2.023  1.00  0.00    -0.129 NA
ATOM     83  C   UNL     1       8.211  -2.118   2.182  1.00  0.00     0.074 A 
ATOM     84  N   UNL     1       9.552  -0.450   1.126  1.00  0.00    -0.110 NA
ATOM     85  C   UNL     1       9.098  -1.706   1.222  1.00  0.00     0.231 A 
BRANCH  85  86
ATOM     86  O   UNL     1       9.573  -2.570   0.289  1.00  0.00    -0.492 OA
ATOM     87  H   UNL     1       9.297  -3.466   0.297  1.00  0.00     0.295 HD
ENDBRANCH  85  86
ENDBRANCH  78  80
ENDBRANCH  71  74
ENDBRANCH  69  70
ENDBRANCH  68  69
ENDBRANCH   1  68
TORSDOF 15
