REMARK SMILES O=C(NCCCNC(=O)[C@H]1C[N@H+](Cc2ccc(Cl)c(Cl)c2)CC12CCCCC2)c1ccc(-c2c3nc(c(-c4ccc(S(=O)(=O)[O-])cc4)c4ccc([nH]4)c(-c4ccc(S(=O)(=O)[O-])cc4)c4nc(c(-c5ccc(S(=O)(=O)[O-])cc5)c5ccc2[nH]5)C=C4)C=C3)cc1
REMARK SMILES IDX 4 1 3 2 1 3 2 4 29 6 30 7 88 8 31 9 87 10 32 11 33 12 34 13
REMARK SMILES IDX 81 14 35 15 86 16 80 17 82 18 36 19 85 20 79 21 78 22 37 24
REMARK SMILES IDX 67 25 48 26 66 27 49 28 52 29 65 30 83 31 50 32 51 33 64 35
REMARK SMILES IDX 84 36 53 37 38 38 39 39 47 40 40 41 46 42 41 43 42 44 43 45
REMARK SMILES IDX 44 46 45 47 68 48 69 49 77 50 70 51 76 52 71 53 72 54 73 55
REMARK SMILES IDX 74 56 75 57 54 58 55 59 63 60 56 61 62 62 57 63 58 64 59 65
REMARK SMILES IDX 60 66 61 67 5 68 6 69 7 70 8 71 9 73 10 74 11 75 23 76 12 77
REMARK SMILES IDX 22 78 24 79 28 80 25 82 27 83 26 84 13 85 14 86 15 87 21 88
REMARK SMILES IDX 16 89 19 90 17 91 20 92 18 93
REMARK H PARENT 3 5 82 23 52 34 7 72 12 81
REMARK Flexibility Score: inf
ROOT
ATOM      1  C   UNL     1       4.511  -0.403  -1.452  1.00  0.00     0.118 C 
ENDROOT
BRANCH   1   2
ATOM      2  N   UNL     1       3.091  -0.175  -1.215  1.00  0.00    -0.352 N 
ATOM      3  O   UNL     1       1.172  -0.008  -0.061  1.00  0.00    -0.269 OA
ATOM      4  C   UNL     1       2.401  -0.002  -0.041  1.00  0.00     0.251 C 
ATOM      5  H   UNL     1       2.537  -0.139  -2.029  1.00  0.00     0.163 HD
BRANCH   4   6
ATOM      6  C   UNL     1       3.123   0.175   1.237  1.00  0.00     0.039 A 
ATOM      7  C   UNL     1       4.265   0.975   1.309  1.00  0.00     0.014 A 
ATOM      8  C   UNL     1       2.627  -0.439   2.391  1.00  0.00     0.014 A 
ATOM      9  C   UNL     1       4.992   1.039   2.492  1.00  0.00     0.010 A 
ATOM     10  C   UNL     1       3.309  -0.297   3.604  1.00  0.00     0.010 A 
ATOM     11  C   UNL     1       4.513   0.419   3.657  1.00  0.00    -0.014 A 
BRANCH  11  12
ATOM     12  C   UNL     1       5.258   0.599   4.929  1.00  0.00     0.031 A 
ATOM     13  C   UNL     1       5.898  -0.567   5.631  1.00  0.00     0.074 A 
ATOM     14  C   UNL     1       5.378   1.843   5.434  1.00  0.00     0.049 A 
ATOM     15  N   UNL     1       6.612  -0.572   6.728  1.00  0.00    -0.248 NA
ATOM     16  C   UNL     1       5.710  -1.898   5.032  1.00  0.00     0.031 C 
ATOM     17  C   UNL     1       4.790   3.051   4.847  1.00  0.00     0.029 A 
ATOM     18  N   UNL     1       6.048   2.305   6.537  1.00  0.00    -0.354 N 
ATOM     19  C   UNL     1       6.943  -1.901   6.963  1.00  0.00     0.074 A 
ATOM     20  C   UNL     1       6.331  -2.679   5.907  1.00  0.00     0.031 C 
ATOM     21  C   UNL     1       5.166   4.119   5.565  1.00  0.00     0.029 A 
ATOM     22  C   UNL     1       5.966   3.668   6.697  1.00  0.00     0.049 A 
ATOM     23  H   UNL     1       6.541   1.718   7.155  1.00  0.00     0.167 HD
ATOM     24  C   UNL     1       7.690  -2.423   7.966  1.00  0.00     0.031 A 
ATOM     25  C   UNL     1       6.463   4.471   7.657  1.00  0.00     0.031 A 
ATOM     26  C   UNL     1       8.295  -1.641   9.014  1.00  0.00     0.049 A 
ATOM     27  C   UNL     1       7.270   3.865   8.766  1.00  0.00     0.074 A 
ATOM     28  C   UNL     1       9.097  -2.074  10.056  1.00  0.00     0.029 A 
ATOM     29  N   UNL     1       8.163  -0.268   9.158  1.00  0.00    -0.354 N 
ATOM     30  N   UNL     1       7.600   2.608   8.950  1.00  0.00    -0.248 NA
ATOM     31  C   UNL     1       7.775   4.782   9.795  1.00  0.00     0.031 C 
ATOM     32  C   UNL     1       9.405  -0.972  10.860  1.00  0.00     0.029 A 
ATOM     33  C   UNL     1       8.846   0.159  10.286  1.00  0.00     0.049 A 
ATOM     34  H   UNL     1       7.658   0.318   8.549  1.00  0.00     0.167 HD
ATOM     35  C   UNL     1       8.364   2.586  10.109  1.00  0.00     0.074 A 
ATOM     36  C   UNL     1       8.466   3.957  10.570  1.00  0.00     0.031 C 
ATOM     37  C   UNL     1       8.929   1.525  10.737  1.00  0.00     0.031 A 
BRANCH  24  38
ATOM     38  C   UNL     1       7.876  -3.919   7.999  1.00  0.00    -0.014 A 
ATOM     39  C   UNL     1       8.699  -4.574   7.066  1.00  0.00     0.010 A 
ATOM     40  C   UNL     1       7.260  -4.673   9.015  1.00  0.00     0.010 A 
ATOM     41  C   UNL     1       8.876  -5.960   7.128  1.00  0.00     0.020 A 
ATOM     42  C   UNL     1       7.455  -6.055   9.096  1.00  0.00     0.020 A 
ATOM     43  C   UNL     1       8.249  -6.693   8.142  1.00  0.00     0.054 A 
BRANCH  43  44
ATOM     44  S   UNL     1       8.515  -8.486   8.213  1.00  0.00     0.124 S 
ATOM     45  O   UNL     1       7.719  -8.953   7.081  1.00  0.00    -0.237 OA
ATOM     46  O   UNL     1       9.962  -8.603   8.054  1.00  0.00    -0.237 OA
ATOM     47  O   UNL     1       8.004  -8.861   9.530  1.00  0.00    -0.744 OA
ENDBRANCH  43  44
ENDBRANCH  24  38
BRANCH  25  48
ATOM     48  C   UNL     1       6.189   5.932   7.607  1.00  0.00    -0.014 A 
ATOM     49  C   UNL     1       7.215   6.847   7.316  1.00  0.00     0.010 A 
ATOM     50  C   UNL     1       4.881   6.412   7.814  1.00  0.00     0.010 A 
ATOM     51  C   UNL     1       6.941   8.216   7.246  1.00  0.00     0.020 A 
ATOM     52  C   UNL     1       4.598   7.775   7.714  1.00  0.00     0.020 A 
ATOM     53  C   UNL     1       5.633   8.671   7.442  1.00  0.00     0.054 A 
BRANCH  53  54
ATOM     54  S   UNL     1       5.288  10.445   7.285  1.00  0.00     0.124 S 
ATOM     55  O   UNL     1       5.840  10.972   8.528  1.00  0.00    -0.237 OA
ATOM     56  O   UNL     1       6.013  10.802   6.067  1.00  0.00    -0.237 OA
ATOM     57  O   UNL     1       3.832  10.500   7.171  1.00  0.00    -0.744 OA
ENDBRANCH  53  54
ENDBRANCH  25  48
BRANCH  37  58
ATOM     58  C   UNL     1       9.730   1.810  11.979  1.00  0.00    -0.014 A 
ATOM     59  C   UNL     1       9.101   2.175  13.182  1.00  0.00     0.010 A 
ATOM     60  C   UNL     1      11.129   1.675  11.948  1.00  0.00     0.010 A 
ATOM     61  C   UNL     1       9.862   2.435  14.325  1.00  0.00     0.020 A 
ATOM     62  C   UNL     1      11.891   1.907  13.096  1.00  0.00     0.020 A 
ATOM     63  C   UNL     1      11.253   2.301  14.274  1.00  0.00     0.054 A 
BRANCH  63  64
ATOM     64  S   UNL     1      12.216   2.610  15.779  1.00  0.00     0.124 S 
ATOM     65  O   UNL     1      12.178   4.067  15.870  1.00  0.00    -0.237 OA
ATOM     66  O   UNL     1      11.455   1.895  16.800  1.00  0.00    -0.237 OA
ATOM     67  O   UNL     1      13.527   2.039  15.474  1.00  0.00    -0.744 OA
ENDBRANCH  63  64
ENDBRANCH  37  58
ENDBRANCH  11  12
ENDBRANCH   4   6
ENDBRANCH   1   2
BRANCH   1  68
ATOM     68  C   UNL     1       4.786  -1.728  -2.152  1.00  0.00     0.042 C 
BRANCH  68  69
ATOM     69  C   UNL     1       4.126  -1.845  -3.519  1.00  0.00     0.117 C 
BRANCH  69  70
ATOM     70  N   UNL     1       4.607  -0.846  -4.455  1.00  0.00    -0.356 N 
ATOM     71  C   UNL     1       5.595  -0.928  -5.397  1.00  0.00     0.229 C 
ATOM     72  H   UNL     1       4.151   0.025  -4.405  1.00  0.00     0.163 HD
ATOM     73  O   UNL     1       5.791   0.066  -6.093  1.00  0.00    -0.275 OA
BRANCH  71  74
ATOM     74  C   UNL     1       6.308  -2.261  -5.588  1.00  0.00     0.145 C 
ATOM     75  C   UNL     1       5.433  -3.116  -6.509  1.00  0.00     0.276 C 
ATOM     76  C   UNL     1       7.742  -2.317  -6.212  1.00  0.00     0.037 C 
ATOM     77  N   UNL     1       6.314  -4.075  -7.151  1.00  0.00    -0.330 N 
ATOM     78  C   UNL     1       7.603  -3.407  -7.317  1.00  0.00     0.270 C 
ATOM     79  C   UNL     1       8.273  -0.990  -6.805  1.00  0.00     0.014 C 
ATOM     80  C   UNL     1       8.754  -2.726  -5.107  1.00  0.00     0.014 C 
ATOM     81  H   UNL     1       5.949  -4.320  -8.072  1.00  0.00     0.348 HD
ATOM     82  C   UNL     1       9.721  -1.072  -7.303  1.00  0.00     0.001 C 
ATOM     83  C   UNL     1      10.189  -2.874  -5.608  1.00  0.00     0.001 C 
ATOM     84  C   UNL     1      10.678  -1.575  -6.227  1.00  0.00     0.000 C 
BRANCH  77  85
ATOM     85  C   UNL     1       6.300  -5.452  -6.653  1.00  0.00     0.299 C 
BRANCH  85  86
ATOM     86  C   UNL     1       6.887  -5.713  -5.283  1.00  0.00     0.008 A 
ATOM     87  C   UNL     1       6.171  -5.411  -4.116  1.00  0.00     0.011 A 
ATOM     88  C   UNL     1       8.188  -6.229  -5.157  1.00  0.00     0.031 A 
ATOM     89  C   UNL     1       6.781  -5.502  -2.862  1.00  0.00     0.022 A 
ATOM     90  C   UNL     1       8.797  -6.340  -3.900  1.00  0.00     0.060 A 
ATOM     91  C   UNL     1       8.102  -5.944  -2.753  1.00  0.00     0.059 A 
ATOM     92  Cl  UNL     1      10.427  -6.909  -3.850  1.00  0.00    -0.083 Cl
ATOM     93  Cl  UNL     1       8.826  -5.934  -1.187  1.00  0.00    -0.083 Cl
ENDBRANCH  85  86
ENDBRANCH  77  85
ENDBRANCH  71  74
ENDBRANCH  69  70
ENDBRANCH  68  69
ENDBRANCH   1  68
TORSDOF 15
