REMARK SMILES C[C@H](Sc1ccccn1)C(=O)N[C@H](C(=O)NCCCNC(=O)c1ccc(-c2c3nc(c(-c4ccc(S(=O)(=O)[O-])cc4)c4ccc([nH]4)c(-c4ccc(S(=O)(=O)[O-])cc4)c4nc(c(-c5ccc(S(=O)(=O)[O-])cc5)c5ccc2[nH]5)C=C4)C=C3)cc1)c1ccc(F)cc1
REMARK SMILES IDX 17 1 16 2 14 3 15 4 13 6 12 7 10 8 11 9 2 11 1 12 3 13 4 14
REMARK SMILES IDX 5 15 9 16 6 17 8 18 7 19 83 20 84 21 89 22 85 23 88 24 86 25
REMARK SMILES IDX 87 26 18 27 19 28 20 29 21 30 22 32 23 33 24 34 82 35 25 36
REMARK SMILES IDX 81 37 26 38 27 39 28 40 75 41 29 42 80 43 74 44 76 45 30 46
REMARK SMILES IDX 79 47 73 48 72 49 31 51 61 52 42 53 60 54 43 55 46 56 59 57
REMARK SMILES IDX 77 58 44 59 45 60 58 62 78 63 47 64 32 65 33 66 41 67 34 68
REMARK SMILES IDX 40 69 35 70 36 71 37 72 38 73 39 74 62 75 63 76 71 77 64 78
REMARK SMILES IDX 70 79 65 80 66 81 67 82 68 83 69 84 48 85 49 86 57 87 50 88
REMARK SMILES IDX 56 89 51 90 52 91 53 92 54 93 55 94
REMARK H PARENT 16 5 12 10 20 31 76 50 46 61
REMARK Flexibility Score: inf
ROOT
ATOM      1  C   UNL     1      -3.751  -3.095  -0.630  1.00  0.00     0.117 C 
ENDROOT
BRANCH   1   2
ATOM      2  N   UNL     1      -3.636  -1.745  -1.159  1.00  0.00    -0.354 N 
ATOM      3  C   UNL     1      -2.534  -1.075  -1.617  1.00  0.00     0.247 C 
ATOM      4  O   UNL     1      -2.724  -0.012  -2.218  1.00  0.00    -0.272 OA
ATOM      5  H   UNL     1      -4.478  -1.236  -1.192  1.00  0.00     0.163 HD
BRANCH   3   6
ATOM      6  C   UNL     1      -1.119  -1.713  -1.542  1.00  0.00     0.202 C 
BRANCH   6   7
ATOM      7  N   UNL     1      -0.857  -2.202  -0.184  1.00  0.00    -0.340 N 
ATOM      8  C   UNL     1      -0.681  -1.607   1.016  1.00  0.00     0.234 C 
ATOM      9  O   UNL     1      -0.265  -2.372   1.899  1.00  0.00    -0.274 OA
ATOM     10  H   UNL     1      -0.796  -3.184  -0.136  1.00  0.00     0.164 HD
BRANCH   8  11
ATOM     11  C   UNL     1      -0.993  -0.158   1.391  1.00  0.00     0.139 C 
ATOM     12  C   UNL     1      -2.371   0.407   1.097  1.00  0.00     0.030 C 
BRANCH  11  13
ATOM     13  S   UNL     1       0.295   0.975   0.784  1.00  0.00    -0.093 SA
BRANCH  13  14
ATOM     14  C   UNL     1       1.035   1.549   2.304  1.00  0.00     0.097 A 
ATOM     15  C   UNL     1       0.336   1.732   3.496  1.00  0.00     0.035 A 
ATOM     16  N   UNL     1       2.356   1.820   2.205  1.00  0.00    -0.250 NA
ATOM     17  C   UNL     1       1.027   2.133   4.638  1.00  0.00     0.004 A 
ATOM     18  C   UNL     1       2.997   2.234   3.320  1.00  0.00     0.112 A 
ATOM     19  C   UNL     1       2.387   2.389   4.551  1.00  0.00     0.020 A 
ENDBRANCH  13  14
ENDBRANCH  11  13
ENDBRANCH   8  11
ENDBRANCH   6   7
BRANCH   6  20
ATOM     20  C   UNL     1      -1.050  -2.819  -2.628  1.00  0.00    -0.016 A 
ATOM     21  C   UNL     1      -1.592  -2.541  -3.905  1.00  0.00     0.009 A 
ATOM     22  C   UNL     1      -0.589  -4.130  -2.395  1.00  0.00     0.009 A 
ATOM     23  C   UNL     1      -1.794  -3.552  -4.848  1.00  0.00     0.039 A 
ATOM     24  C   UNL     1      -0.792  -5.142  -3.342  1.00  0.00     0.039 A 
ATOM     25  C   UNL     1      -1.415  -4.850  -4.547  1.00  0.00     0.123 A 
ATOM     26  F   UNL     1      -1.656  -5.831  -5.425  1.00  0.00    -0.207 F 
ENDBRANCH   6  20
ENDBRANCH   3   6
ENDBRANCH   1   2
BRANCH   1  27
ATOM     27  C   UNL     1      -3.979  -3.126   0.874  1.00  0.00     0.042 C 
BRANCH  27  28
ATOM     28  C   UNL     1      -5.244  -2.400   1.308  1.00  0.00     0.118 C 
BRANCH  28  29
ATOM     29  N   UNL     1      -6.441  -3.088   0.856  1.00  0.00    -0.352 N 
ATOM     30  C   UNL     1      -7.426  -3.684   1.596  1.00  0.00     0.251 C 
ATOM     31  H   UNL     1      -6.560  -3.133  -0.121  1.00  0.00     0.163 HD
ATOM     32  O   UNL     1      -8.226  -4.439   1.038  1.00  0.00    -0.269 OA
BRANCH  30  33
ATOM     33  C   UNL     1      -7.530  -3.433   3.048  1.00  0.00     0.039 A 
ATOM     34  C   UNL     1      -7.849  -4.497   3.893  1.00  0.00     0.014 A 
ATOM     35  C   UNL     1      -7.353  -2.149   3.574  1.00  0.00     0.014 A 
ATOM     36  C   UNL     1      -7.962  -4.279   5.267  1.00  0.00     0.010 A 
ATOM     37  C   UNL     1      -7.381  -1.950   4.952  1.00  0.00     0.010 A 
ATOM     38  C   UNL     1      -7.713  -3.008   5.809  1.00  0.00    -0.014 A 
BRANCH  38  39
ATOM     39  C   UNL     1      -7.825  -2.774   7.270  1.00  0.00     0.031 A 
ATOM     40  C   UNL     1      -8.879  -1.848   7.814  1.00  0.00     0.074 A 
ATOM     41  C   UNL     1      -6.953  -3.368   8.107  1.00  0.00     0.049 A 
ATOM     42  N   UNL     1      -9.146  -1.544   9.059  1.00  0.00    -0.248 NA
ATOM     43  C   UNL     1      -9.724  -1.150   6.832  1.00  0.00     0.031 C 
ATOM     44  C   UNL     1      -5.844  -4.232   7.696  1.00  0.00     0.029 A 
ATOM     45  N   UNL     1      -6.862  -3.335   9.475  1.00  0.00    -0.354 N 
ATOM     46  C   UNL     1     -10.175  -0.610   9.007  1.00  0.00     0.074 A 
ATOM     47  C   UNL     1     -10.442  -0.354   7.609  1.00  0.00     0.031 C 
ATOM     48  C   UNL     1      -5.202  -4.670   8.790  1.00  0.00     0.029 A 
ATOM     49  C   UNL     1      -5.835  -4.098   9.975  1.00  0.00     0.049 A 
ATOM     50  H   UNL     1      -7.473  -2.813  10.043  1.00  0.00     0.167 HD
ATOM     51  C   UNL     1     -10.851  -0.031  10.030  1.00  0.00     0.031 A 
ATOM     52  C   UNL     1      -5.446  -4.319  11.246  1.00  0.00     0.031 A 
ATOM     53  C   UNL     1     -10.583  -0.293  11.419  1.00  0.00     0.049 A 
ATOM     54  C   UNL     1      -6.228  -3.699  12.368  1.00  0.00     0.074 A 
ATOM     55  C   UNL     1     -11.256   0.181  12.531  1.00  0.00     0.029 A 
ATOM     56  N   UNL     1      -9.551  -1.093  11.887  1.00  0.00    -0.354 N 
ATOM     57  N   UNL     1      -7.262  -2.893  12.303  1.00  0.00    -0.248 NA
ATOM     58  C   UNL     1      -5.804  -4.032  13.734  1.00  0.00     0.031 C 
ATOM     59  C   UNL     1     -10.598  -0.291  13.673  1.00  0.00     0.029 A 
ATOM     60  C   UNL     1      -9.548  -1.104  13.271  1.00  0.00     0.049 A 
ATOM     61  H   UNL     1      -8.914  -1.583  11.317  1.00  0.00     0.167 HD
ATOM     62  C   UNL     1      -7.619  -2.628  13.620  1.00  0.00     0.074 A 
ATOM     63  C   UNL     1      -6.705  -3.380  14.458  1.00  0.00     0.031 C 
ATOM     64  C   UNL     1      -8.614  -1.835  14.091  1.00  0.00     0.031 A 
BRANCH  51  65
ATOM     65  C   UNL     1     -11.930   0.957   9.666  1.00  0.00    -0.014 A 
ATOM     66  C   UNL     1     -13.114   0.543   9.025  1.00  0.00     0.010 A 
ATOM     67  C   UNL     1     -11.751   2.322   9.951  1.00  0.00     0.010 A 
ATOM     68  C   UNL     1     -14.061   1.482   8.611  1.00  0.00     0.020 A 
ATOM     69  C   UNL     1     -12.712   3.262   9.566  1.00  0.00     0.020 A 
ATOM     70  C   UNL     1     -13.847   2.839   8.872  1.00  0.00     0.054 A 
BRANCH  70  71
ATOM     71  S   UNL     1     -15.075   4.043   8.295  1.00  0.00     0.124 S 
ATOM     72  O   UNL     1     -14.789   4.098   6.863  1.00  0.00    -0.237 OA
ATOM     73  O   UNL     1     -16.341   3.412   8.657  1.00  0.00    -0.237 OA
ATOM     74  O   UNL     1     -14.750   5.254   9.043  1.00  0.00    -0.744 OA
ENDBRANCH  70  71
ENDBRANCH  51  65
BRANCH  52  75
ATOM     75  C   UNL     1      -4.272  -5.195  11.501  1.00  0.00    -0.014 A 
ATOM     76  C   UNL     1      -4.446  -6.507  11.972  1.00  0.00     0.010 A 
ATOM     77  C   UNL     1      -2.976  -4.744  11.189  1.00  0.00     0.010 A 
ATOM     78  C   UNL     1      -3.346  -7.357  12.117  1.00  0.00     0.020 A 
ATOM     79  C   UNL     1      -1.877  -5.598  11.311  1.00  0.00     0.020 A 
ATOM     80  C   UNL     1      -2.069  -6.901  11.775  1.00  0.00     0.054 A 
BRANCH  80  81
ATOM     81  S   UNL     1      -0.673  -8.057  11.864  1.00  0.00     0.124 S 
ATOM     82  O   UNL     1      -0.444  -8.147  13.303  1.00  0.00    -0.237 OA
ATOM     83  O   UNL     1      -1.216  -9.257  11.233  1.00  0.00    -0.237 OA
ATOM     84  O   UNL     1       0.377  -7.383  11.103  1.00  0.00    -0.744 OA
ENDBRANCH  80  81
ENDBRANCH  52  75
BRANCH  64  85
ATOM     85  C   UNL     1      -8.761  -1.736  15.586  1.00  0.00    -0.014 A 
ATOM     86  C   UNL     1      -7.830  -1.021  16.360  1.00  0.00     0.010 A 
ATOM     87  C   UNL     1      -9.867  -2.332  16.219  1.00  0.00     0.010 A 
ATOM     88  C   UNL     1      -7.983  -0.934  17.746  1.00  0.00     0.020 A 
ATOM     89  C   UNL     1     -10.038  -2.224  17.602  1.00  0.00     0.020 A 
ATOM     90  C   UNL     1      -9.085  -1.539  18.359  1.00  0.00     0.054 A 
BRANCH  90  91
ATOM     91  S   UNL     1      -9.278  -1.388  20.156  1.00  0.00     0.124 S 
ATOM     92  O   UNL     1      -8.272  -2.325  20.648  1.00  0.00    -0.237 OA
ATOM     93  O   UNL     1      -8.991   0.025  20.392  1.00  0.00    -0.237 OA
ATOM     94  O   UNL     1     -10.665  -1.782  20.389  1.00  0.00    -0.744 OA
ENDBRANCH  90  91
ENDBRANCH  64  85
ENDBRANCH  38  39
ENDBRANCH  30  33
ENDBRANCH  28  29
ENDBRANCH  27  28
ENDBRANCH   1  27
TORSDOF 18
