REMARK SMILES Cc1cccc(-c2ncc(C[NH+]3CCC4(CC3)NC(=O)C[C@H]4C(=O)NCCCNC(=O)c3ccc(-c4c5nc(c(-c6ccc(S(=O)(=O)[O-])cc6)c6ccc([nH]6)c(-c6ccc(S(=O)(=O)[O-])cc6)c6nc(c(-c7ccc(S(=O)(=O)[O-])cc7)c7ccc4[nH]7)C=C6)C=C5)cc3)cn2)c1
REMARK SMILES IDX 27 1 26 2 25 3 23 4 24 5 22 7 12 8 13 9 17 10 14 12 16 13
REMARK SMILES IDX 15 14 18 15 19 16 21 18 20 19 11 20 10 21 7 22 8 23 93 24
REMARK SMILES IDX 9 25 92 26 6 27 1 28 2 29 3 30 94 31 4 32 5 33 28 34 29 35
REMARK SMILES IDX 30 36 31 38 32 39 33 40 91 41 34 42 90 43 35 44 36 45 37 46
REMARK SMILES IDX 84 47 38 48 89 49 83 50 85 51 39 52 88 53 82 54 81 55 40 57
REMARK SMILES IDX 70 58 51 59 69 60 52 61 55 62 68 63 86 64 53 65 54 66 67 68
REMARK SMILES IDX 87 69 56 70 41 71 42 72 50 73 43 74 49 75 44 76 45 77 46 78
REMARK SMILES IDX 47 79 48 80 71 81 72 82 80 83 73 84 79 85 74 86 75 87 76 88
REMARK SMILES IDX 77 89 78 90 57 91 58 92 66 93 59 94 65 95 60 96 61 97 62 98
REMARK SMILES IDX 63 99 64 100
REMARK H PARENT 25 6 12 11 18 17 29 37 85 56 55 67
REMARK Flexibility Score: inf
ROOT
ATOM      1  C   UNL     1      -0.017   3.020  -2.772  1.00  0.00     0.042 C 
ENDROOT
BRANCH   1   2
ATOM      2  C   UNL     1       1.230   3.895  -2.872  1.00  0.00     0.117 C 
BRANCH   2   3
ATOM      3  N   UNL     1       1.003   5.313  -3.179  1.00  0.00    -0.356 N 
ATOM      4  C   UNL     1       0.943   6.462  -2.446  1.00  0.00     0.226 C 
ATOM      5  O   UNL     1       0.850   7.520  -3.084  1.00  0.00    -0.275 OA
ATOM      6  H   UNL     1       0.859   5.472  -4.140  1.00  0.00     0.163 HD
BRANCH   4   7
ATOM      7  C   UNL     1       0.898   6.551  -0.909  1.00  0.00     0.114 C 
ATOM      8  N   UNL     1      -3.120   6.932   0.136  1.00  0.00    -0.331 N 
ATOM      9  C   UNL     1      -2.093   7.354   1.078  1.00  0.00     0.264 C 
ATOM     10  C   UNL     1      -2.549   6.749  -1.185  1.00  0.00     0.264 C 
ATOM     11  H   UNL     1      -3.761   7.725   0.115  1.00  0.00     0.348 HD
ATOM     12  C   UNL     1      -0.800   6.530   1.113  1.00  0.00     0.091 C 
ATOM     13  C   UNL     1      -1.482   5.674  -1.193  1.00  0.00     0.091 C 
ATOM     14  C   UNL     1      -0.314   5.882  -0.223  1.00  0.00     0.063 C 
ATOM     15  N   UNL     1       0.288   4.628   0.207  1.00  0.00    -0.349 N 
ATOM     16  C   UNL     1       1.659   4.677   0.352  1.00  0.00     0.221 C 
ATOM     17  H   UNL     1      -0.238   3.814   0.380  1.00  0.00     0.164 HD
ATOM     18  C   UNL     1       2.154   5.952  -0.272  1.00  0.00     0.116 C 
ATOM     19  O   UNL     1       2.338   3.843   0.906  1.00  0.00    -0.275 OA
BRANCH   8  20
ATOM     20  C   UNL     1      -4.145   5.950   0.545  1.00  0.00     0.302 C 
BRANCH  20  21
ATOM     21  C   UNL     1      -3.761   4.495   0.575  1.00  0.00     0.043 A 
ATOM     22  C   UNL     1      -2.549   2.055   0.427  1.00  0.00     0.159 A 
ATOM     23  N   UNL     1      -2.412   2.765   1.566  1.00  0.00    -0.236 NA
ATOM     24  N   UNL     1      -3.340   2.423  -0.600  1.00  0.00    -0.236 NA
ATOM     25  C   UNL     1      -3.062   3.945   1.626  1.00  0.00     0.124 A 
ATOM     26  C   UNL     1      -3.931   3.638  -0.502  1.00  0.00     0.124 A 
BRANCH  22  27
ATOM     27  C   UNL     1      -1.686   0.876   0.266  1.00  0.00     0.019 A 
ATOM     28  C   UNL     1       2.058   0.053   0.030  1.00  0.00     0.044 C 
ATOM     29  C   UNL     1       0.567  -0.116   0.099  1.00  0.00    -0.050 A 
ATOM     30  C   UNL     1      -0.006  -1.378  -0.040  1.00  0.00     0.003 A 
ATOM     31  C   UNL     1      -0.279   0.989   0.278  1.00  0.00     0.015 A 
ATOM     32  C   UNL     1      -1.394  -1.522  -0.045  1.00  0.00     0.001 A 
ATOM     33  C   UNL     1      -2.226  -0.403   0.088  1.00  0.00     0.012 A 
ENDBRANCH  22  27
ENDBRANCH  20  21
ENDBRANCH   8  20
ENDBRANCH   4   7
ENDBRANCH   2   3
ENDBRANCH   1   2
BRANCH   1  34
ATOM     34  C   UNL     1      -0.578   2.506  -4.091  1.00  0.00     0.118 C 
BRANCH  34  35
ATOM     35  N   UNL     1      -0.283   1.079  -4.233  1.00  0.00    -0.352 N 
ATOM     36  C   UNL     1      -1.052   0.054  -4.746  1.00  0.00     0.251 C 
ATOM     37  H   UNL     1       0.607   0.807  -3.912  1.00  0.00     0.163 HD
ATOM     38  O   UNL     1      -0.916  -1.127  -4.457  1.00  0.00    -0.269 OA
BRANCH  36  39
ATOM     39  C   UNL     1      -1.950   0.434  -5.843  1.00  0.00     0.039 A 
ATOM     40  C   UNL     1      -1.415   0.258  -7.130  1.00  0.00     0.014 A 
ATOM     41  C   UNL     1      -2.939   1.365  -5.562  1.00  0.00     0.014 A 
ATOM     42  C   UNL     1      -1.683   1.207  -8.095  1.00  0.00     0.010 A 
ATOM     43  C   UNL     1      -3.097   2.375  -6.472  1.00  0.00     0.010 A 
ATOM     44  C   UNL     1      -2.426   2.311  -7.704  1.00  0.00    -0.014 A 
BRANCH  44  45
ATOM     45  C   UNL     1      -2.664   3.454  -8.547  1.00  0.00     0.031 A 
ATOM     46  C   UNL     1      -3.943   3.443  -9.269  1.00  0.00     0.074 A 
ATOM     47  C   UNL     1      -1.818   4.501  -8.463  1.00  0.00     0.049 A 
ATOM     48  N   UNL     1      -4.216   4.187 -10.274  1.00  0.00    -0.248 NA
ATOM     49  C   UNL     1      -5.029   2.517  -8.932  1.00  0.00     0.031 C 
ATOM     50  C   UNL     1      -2.015   5.876  -8.900  1.00  0.00     0.029 A 
ATOM     51  N   UNL     1      -0.470   4.448  -8.119  1.00  0.00    -0.354 N 
ATOM     52  C   UNL     1      -5.579   4.109 -10.464  1.00  0.00     0.074 A 
ATOM     53  C   UNL     1      -6.018   2.971  -9.703  1.00  0.00     0.031 C 
ATOM     54  C   UNL     1      -0.811   6.463  -9.049  1.00  0.00     0.029 A 
ATOM     55  C   UNL     1       0.199   5.429  -8.865  1.00  0.00     0.049 A 
ATOM     56  H   UNL     1      -0.060   3.832  -7.469  1.00  0.00     0.167 HD
ATOM     57  C   UNL     1      -6.192   5.146 -11.091  1.00  0.00     0.031 A 
ATOM     58  C   UNL     1       1.078   5.036  -9.839  1.00  0.00     0.031 A 
ATOM     59  C   UNL     1      -5.191   6.095 -11.572  1.00  0.00     0.049 A 
ATOM     60  C   UNL     1       0.558   5.351 -11.229  1.00  0.00     0.074 A 
ATOM     61  C   UNL     1      -4.694   7.273 -11.040  1.00  0.00     0.029 A 
ATOM     62  N   UNL     1      -4.264   5.660 -12.510  1.00  0.00    -0.354 N 
ATOM     63  N   UNL     1      -0.708   5.481 -11.531  1.00  0.00    -0.248 NA
ATOM     64  C   UNL     1       1.431   5.623 -12.366  1.00  0.00     0.031 C 
ATOM     65  C   UNL     1      -3.409   7.494 -11.608  1.00  0.00     0.029 A 
ATOM     66  C   UNL     1      -3.142   6.466 -12.498  1.00  0.00     0.049 A 
ATOM     67  H   UNL     1      -4.389   4.884 -13.103  1.00  0.00     0.167 HD
ATOM     68  C   UNL     1      -0.832   5.898 -12.833  1.00  0.00     0.074 A 
ATOM     69  C   UNL     1       0.538   5.959 -13.314  1.00  0.00     0.031 C 
ATOM     70  C   UNL     1      -2.038   6.191 -13.409  1.00  0.00     0.031 A 
BRANCH  57  71
ATOM     71  C   UNL     1      -7.664   5.452 -10.989  1.00  0.00    -0.014 A 
ATOM     72  C   UNL     1      -8.081   6.784 -11.186  1.00  0.00     0.010 A 
ATOM     73  C   UNL     1      -8.673   4.524 -10.665  1.00  0.00     0.010 A 
ATOM     74  C   UNL     1      -9.413   7.180 -11.028  1.00  0.00     0.020 A 
ATOM     75  C   UNL     1     -10.012   4.910 -10.485  1.00  0.00     0.020 A 
ATOM     76  C   UNL     1     -10.373   6.240 -10.670  1.00  0.00     0.054 A 
BRANCH  76  77
ATOM     77  S   UNL     1     -12.089   6.782 -10.483  1.00  0.00     0.124 S 
ATOM     78  O   UNL     1     -11.987   7.789  -9.430  1.00  0.00    -0.237 OA
ATOM     79  O   UNL     1     -12.401   7.293 -11.815  1.00  0.00    -0.237 OA
ATOM     80  O   UNL     1     -12.800   5.562 -10.104  1.00  0.00    -0.744 OA
ENDBRANCH  76  77
ENDBRANCH  57  71
BRANCH  58  81
ATOM     81  C   UNL     1       1.881   3.835  -9.435  1.00  0.00    -0.014 A 
ATOM     82  C   UNL     1       2.793   4.007  -8.366  1.00  0.00     0.010 A 
ATOM     83  C   UNL     1       1.445   2.533  -9.736  1.00  0.00     0.010 A 
ATOM     84  C   UNL     1       3.113   2.944  -7.514  1.00  0.00     0.020 A 
ATOM     85  C   UNL     1       1.779   1.460  -8.889  1.00  0.00     0.020 A 
ATOM     86  C   UNL     1       2.562   1.687  -7.752  1.00  0.00     0.054 A 
BRANCH  86  87
ATOM     87  S   UNL     1       2.732   0.419  -6.456  1.00  0.00     0.124 S 
ATOM     88  O   UNL     1       4.151   0.088  -6.531  1.00  0.00    -0.237 OA
ATOM     89  O   UNL     1       2.321   1.141  -5.249  1.00  0.00    -0.237 OA
ATOM     90  O   UNL     1       1.816  -0.631  -6.887  1.00  0.00    -0.744 OA
ENDBRANCH  86  87
ENDBRANCH  58  81
BRANCH  70  91
ATOM     91  C   UNL     1      -2.310   6.337 -14.894  1.00  0.00    -0.014 A 
ATOM     92  C   UNL     1      -1.408   5.980 -15.903  1.00  0.00     0.010 A 
ATOM     93  C   UNL     1      -3.604   6.740 -15.319  1.00  0.00     0.010 A 
ATOM     94  C   UNL     1      -1.747   6.091 -17.258  1.00  0.00     0.020 A 
ATOM     95  C   UNL     1      -3.978   6.785 -16.662  1.00  0.00     0.020 A 
ATOM     96  C   UNL     1      -3.030   6.493 -17.628  1.00  0.00     0.054 A 
BRANCH  96  97
ATOM     97  S   UNL     1      -3.451   6.593 -19.381  1.00  0.00     0.124 S 
ATOM     98  O   UNL     1      -2.800   7.841 -19.772  1.00  0.00    -0.237 OA
ATOM     99  O   UNL     1      -2.852   5.376 -19.924  1.00  0.00    -0.237 OA
ATOM    100  O   UNL     1      -4.911   6.619 -19.388  1.00  0.00    -0.744 OA
ENDBRANCH  96  97
ENDBRANCH  70  91
ENDBRANCH  44  45
ENDBRANCH  36  39
ENDBRANCH  34  35
ENDBRANCH   1  34
TORSDOF 16
