REMARK SMILES CCN(C(=O)NCC(=O)NCCCNC(=O)c1ccc(-c2c3nc(c(-c4ccc(S(=O)(=O)[O-])cc4)c4ccc([nH]4)c(-c4ccc(S(=O)(=O)[O-])cc4)c4nc(c(-c5ccc(S(=O)(=O)[O-])cc5)c5ccc2[nH]5)C=C4)C=C3)cc1)C1CCCCC1
REMARK SMILES IDX 12 1 11 2 10 3 8 4 9 5 7 7 6 8 4 9 5 10 3 12 2 13 1 14 77 15
REMARK SMILES IDX 78 16 82 17 79 18 81 19 80 20 13 21 14 22 15 23 16 25 17 26
REMARK SMILES IDX 18 27 76 28 19 29 75 30 20 31 21 32 22 33 69 34 23 35 74 36
REMARK SMILES IDX 68 37 70 38 24 39 73 40 67 41 66 42 25 44 55 45 36 46 54 47
REMARK SMILES IDX 37 48 40 49 53 50 71 51 38 52 39 53 52 55 72 56 41 57 26 58
REMARK SMILES IDX 27 59 35 60 28 61 34 62 29 63 30 64 31 65 32 66 33 67 56 68
REMARK SMILES IDX 57 69 65 70 58 71 64 72 59 73 60 74 61 75 62 76 63 77 42 78
REMARK SMILES IDX 43 79 51 80 44 81 50 82 45 83 46 84 47 85 48 86 49 87
REMARK H PARENT 10 6 6 11 14 24 70 43 40 54
REMARK Flexibility Score: inf
ROOT
ATOM      1  C   UNL     1      -0.779   5.512  -1.207  1.00  0.00     0.042 C 
ENDROOT
BRANCH   1   2
ATOM      2  C   UNL     1      -0.952   4.394  -0.194  1.00  0.00     0.117 C 
BRANCH   2   3
ATOM      3  N   UNL     1      -2.318   3.927  -0.081  1.00  0.00    -0.355 N 
ATOM      4  C   UNL     1      -2.920   2.786  -0.508  1.00  0.00     0.239 C 
ATOM      5  O   UNL     1      -4.073   2.591  -0.104  1.00  0.00    -0.273 OA
ATOM      6  H   UNL     1      -2.919   4.548   0.391  1.00  0.00     0.163 HD
BRANCH   4   7
ATOM      7  C   UNL     1      -2.201   1.679  -1.297  1.00  0.00     0.217 C 
BRANCH   7   8
ATOM      8  N   UNL     1      -1.203   2.067  -2.275  1.00  0.00    -0.329 N 
ATOM      9  C   UNL     1       0.130   2.042  -2.416  1.00  0.00     0.318 C 
ATOM     10  O   UNL     1       0.520   2.468  -3.508  1.00  0.00    -0.249 OA
ATOM     11  H   UNL     1      -1.630   2.466  -3.068  1.00  0.00     0.165 HD
BRANCH   9  12
ATOM     12  N   UNL     1       1.004   1.637  -1.435  1.00  0.00    -0.322 N 
BRANCH  12  13
ATOM     13  C   UNL     1       0.670   1.184  -0.078  1.00  0.00     0.118 C 
ATOM     14  C   UNL     1       0.496  -0.322   0.025  1.00  0.00     0.027 C 
ENDBRANCH  12  13
BRANCH  12  15
ATOM     15  C   UNL     1       2.448   1.861  -1.733  1.00  0.00     0.087 C 
ATOM     16  C   UNL     1       2.896   3.241  -1.206  1.00  0.00     0.025 C 
ATOM     17  C   UNL     1       3.372   0.733  -1.244  1.00  0.00     0.025 C 
ATOM     18  C   UNL     1       4.383   3.504  -1.431  1.00  0.00     0.002 C 
ATOM     19  C   UNL     1       4.840   1.035  -1.525  1.00  0.00     0.002 C 
ATOM     20  C   UNL     1       5.247   2.365  -0.902  1.00  0.00     0.000 C 
ENDBRANCH  12  15
ENDBRANCH   9  12
ENDBRANCH   7   8
ENDBRANCH   4   7
ENDBRANCH   2   3
ENDBRANCH   1   2
BRANCH   1  21
ATOM     21  C   UNL     1      -1.383   6.832  -0.749  1.00  0.00     0.118 C 
BRANCH  21  22
ATOM     22  N   UNL     1      -0.754   7.346   0.463  1.00  0.00    -0.352 N 
ATOM     23  C   UNL     1      -0.087   8.526   0.687  1.00  0.00     0.251 C 
ATOM     24  H   UNL     1      -0.817   6.753   1.246  1.00  0.00     0.163 HD
ATOM     25  O   UNL     1       0.540   8.675   1.730  1.00  0.00    -0.269 OA
BRANCH  23  26
ATOM     26  C   UNL     1      -0.112   9.600  -0.329  1.00  0.00     0.039 A 
ATOM     27  C   UNL     1       1.060  10.316  -0.586  1.00  0.00     0.014 A 
ATOM     28  C   UNL     1      -1.286   9.908  -1.019  1.00  0.00     0.014 A 
ATOM     29  C   UNL     1       1.070  11.289  -1.588  1.00  0.00     0.010 A 
ATOM     30  C   UNL     1      -1.252  10.810  -2.076  1.00  0.00     0.010 A 
ATOM     31  C   UNL     1      -0.075  11.513  -2.370  1.00  0.00    -0.014 A 
BRANCH  31  32
ATOM     32  C   UNL     1      -0.061  12.470  -3.505  1.00  0.00     0.031 A 
ATOM     33  C   UNL     1      -0.960  13.676  -3.491  1.00  0.00     0.074 A 
ATOM     34  C   UNL     1       0.714  12.216  -4.578  1.00  0.00     0.049 A 
ATOM     35  N   UNL     1      -1.126  14.591  -4.412  1.00  0.00    -0.248 NA
ATOM     36  C   UNL     1      -1.799  13.867  -2.297  1.00  0.00     0.031 C 
ATOM     37  C   UNL     1       1.604  11.061  -4.726  1.00  0.00     0.029 A 
ATOM     38  N   UNL     1       0.877  12.911  -5.749  1.00  0.00    -0.354 N 
ATOM     39  C   UNL     1      -2.093  15.457  -3.914  1.00  0.00     0.074 A 
ATOM     40  C   UNL     1      -2.520  14.925  -2.639  1.00  0.00     0.031 C 
ATOM     41  C   UNL     1       2.247  11.150  -5.901  1.00  0.00     0.029 A 
ATOM     42  C   UNL     1       1.780  12.335  -6.612  1.00  0.00     0.049 A 
ATOM     43  H   UNL     1       0.393  13.744  -5.953  1.00  0.00     0.167 HD
ATOM     44  C   UNL     1      -2.567  16.605  -4.457  1.00  0.00     0.031 A 
ATOM     45  C   UNL     1       2.182  12.714  -7.840  1.00  0.00     0.031 A 
ATOM     46  C   UNL     1      -2.144  17.126  -5.730  1.00  0.00     0.049 A 
ATOM     47  C   UNL     1       1.609  13.967  -8.443  1.00  0.00     0.074 A 
ATOM     48  C   UNL     1      -2.534  18.299  -6.353  1.00  0.00     0.029 A 
ATOM     49  N   UNL     1      -1.242  16.503  -6.581  1.00  0.00    -0.354 N 
ATOM     50  N   UNL     1       0.740  14.806  -7.931  1.00  0.00    -0.248 NA
ATOM     51  C   UNL     1       2.078  14.328  -9.788  1.00  0.00     0.031 C 
ATOM     52  C   UNL     1      -1.914  18.355  -7.606  1.00  0.00     0.029 A 
ATOM     53  C   UNL     1      -1.084  17.252  -7.735  1.00  0.00     0.049 A 
ATOM     54  H   UNL     1      -0.781  15.654  -6.392  1.00  0.00     0.167 HD
ATOM     55  C   UNL     1       0.581  15.811  -8.879  1.00  0.00     0.074 A 
ATOM     56  C   UNL     1       1.455  15.482  -9.987  1.00  0.00     0.031 C 
ATOM     57  C   UNL     1      -0.215  16.909  -8.834  1.00  0.00     0.031 A 
BRANCH  44  58
ATOM     58  C   UNL     1      -3.608  17.363  -3.673  1.00  0.00    -0.014 A 
ATOM     59  C   UNL     1      -3.289  17.983  -2.450  1.00  0.00     0.010 A 
ATOM     60  C   UNL     1      -4.919  17.472  -4.170  1.00  0.00     0.010 A 
ATOM     61  C   UNL     1      -4.274  18.646  -1.712  1.00  0.00     0.020 A 
ATOM     62  C   UNL     1      -5.899  18.164  -3.452  1.00  0.00     0.020 A 
ATOM     63  C   UNL     1      -5.575  18.728  -2.216  1.00  0.00     0.054 A 
BRANCH  63  64
ATOM     64  S   UNL     1      -6.832  19.593  -1.236  1.00  0.00     0.124 S 
ATOM     65  O   UNL     1      -7.047  18.660  -0.132  1.00  0.00    -0.237 OA
ATOM     66  O   UNL     1      -6.158  20.840  -0.881  1.00  0.00    -0.237 OA
ATOM     67  O   UNL     1      -7.955  19.735  -2.159  1.00  0.00    -0.744 OA
ENDBRANCH  63  64
ENDBRANCH  44  58
BRANCH  45  68
ATOM     68  C   UNL     1       3.201  11.909  -8.569  1.00  0.00    -0.014 A 
ATOM     69  C   UNL     1       4.496  12.418  -8.772  1.00  0.00     0.010 A 
ATOM     70  C   UNL     1       2.892  10.621  -9.045  1.00  0.00     0.010 A 
ATOM     71  C   UNL     1       5.457  11.663  -9.450  1.00  0.00     0.020 A 
ATOM     72  C   UNL     1       3.860   9.850  -9.696  1.00  0.00     0.020 A 
ATOM     73  C   UNL     1       5.134  10.381  -9.902  1.00  0.00     0.054 A 
BRANCH  73  74
ATOM     74  S   UNL     1       6.418   9.399 -10.727  1.00  0.00     0.124 S 
ATOM     75  O   UNL     1       6.558  10.092 -12.004  1.00  0.00    -0.237 OA
ATOM     76  O   UNL     1       7.548   9.526  -9.810  1.00  0.00    -0.237 OA
ATOM     77  O   UNL     1       5.832   8.062 -10.802  1.00  0.00    -0.744 OA
ENDBRANCH  73  74
ENDBRANCH  45  68
BRANCH  57  78
ATOM     78  C   UNL     1      -0.155  17.856 -10.005  1.00  0.00    -0.014 A 
ATOM     79  C   UNL     1      -0.689  17.506 -11.258  1.00  0.00     0.010 A 
ATOM     80  C   UNL     1       0.400  19.137  -9.831  1.00  0.00     0.010 A 
ATOM     81  C   UNL     1      -0.639  18.409 -12.324  1.00  0.00     0.020 A 
ATOM     82  C   UNL     1       0.423  20.054 -10.885  1.00  0.00     0.020 A 
ATOM     83  C   UNL     1      -0.085  19.678 -12.130  1.00  0.00     0.054 A 
BRANCH  83  84
ATOM     84  S   UNL     1      -0.074  20.846 -13.517  1.00  0.00     0.124 S 
ATOM     85  O   UNL     1       0.946  20.272 -14.390  1.00  0.00    -0.237 OA
ATOM     86  O   UNL     1      -1.445  20.765 -14.014  1.00  0.00    -0.237 OA
ATOM     87  O   UNL     1       0.283  22.120 -12.896  1.00  0.00    -0.744 OA
ENDBRANCH  83  84
ENDBRANCH  57  78
ENDBRANCH  31  32
ENDBRANCH  23  26
ENDBRANCH  21  22
ENDBRANCH   1  21
TORSDOF 17
