REMARK SMILES CC[C@@](O)(C(=O)NCCCNC(=O)c1ccc(-c2c3nc(c(-c4ccc(S(=O)(=O)[O-])cc4)c4ccc([nH]4)c(-c4ccc(S(=O)(=O)[O-])cc4)c4nc(c(-c5ccc(S(=O)(=O)[O-])cc5)c5ccc2[nH]5)C=C4)C=C3)cc1)[C@H]1CCOc2ccccc21
REMARK SMILES IDX 10 1 9 2 8 3 7 4 5 5 6 6 3 8 2 9 1 10 4 11 74 13 75 14 83 15
REMARK SMILES IDX 76 16 78 17 82 18 77 19 79 20 81 21 80 22 11 23 12 24 13 26
REMARK SMILES IDX 14 27 15 28 73 29 16 30 72 31 17 32 18 33 19 34 66 35 20 36
REMARK SMILES IDX 71 37 65 38 67 39 21 40 70 41 64 42 63 43 22 45 52 46 33 47
REMARK SMILES IDX 51 48 34 49 37 50 50 51 68 52 35 53 36 54 49 56 69 57 38 58
REMARK SMILES IDX 23 59 24 60 32 61 25 62 31 63 26 64 27 65 28 66 29 67 30 68
REMARK SMILES IDX 53 69 54 70 62 71 55 72 61 73 56 74 57 75 58 76 59 77 60 78
REMARK SMILES IDX 39 79 40 80 48 81 41 82 47 83 42 84 43 85 44 86 45 87 46 88
REMARK H PARENT 7 7 4 12 11 25 67 44 37 55
REMARK Flexibility Score: inf
ROOT
ATOM      1  C   UNL     1       5.384   1.753  -7.591  1.00  0.00     0.118 C 
ENDROOT
BRANCH   1   2
ATOM      2  C   UNL     1       4.979   2.883  -6.647  1.00  0.00     0.042 C 
BRANCH   2   3
ATOM      3  C   UNL     1       3.533   2.817  -6.155  1.00  0.00     0.117 C 
BRANCH   3   4
ATOM      4  N   UNL     1       3.261   1.558  -5.493  1.00  0.00    -0.354 N 
ATOM      5  C   UNL     1       3.038   1.233  -4.191  1.00  0.00     0.252 C 
ATOM      6  O   UNL     1       2.976   0.018  -3.990  1.00  0.00    -0.272 OA
ATOM      7  H   UNL     1       3.231   0.787  -6.105  1.00  0.00     0.163 HD
BRANCH   5   8
ATOM      8  C   UNL     1       2.912   2.318  -3.059  1.00  0.00     0.149 C 
BRANCH   8   9
ATOM      9  C   UNL     1       4.320   2.942  -2.834  1.00  0.00     0.043 C 
ATOM     10  C   UNL     1       4.361   4.209  -1.983  1.00  0.00     0.007 C 
ENDBRANCH   8   9
BRANCH   8  11
ATOM     11  O   UNL     1       2.048   3.359  -3.562  1.00  0.00    -0.379 OA
ATOM     12  H   UNL     1       2.412   3.709  -4.391  1.00  0.00     0.212 HD
ENDBRANCH   8  11
BRANCH   8  13
ATOM     13  C   UNL     1       2.282   1.771  -1.704  1.00  0.00     0.068 C 
ATOM     14  C   UNL     1       0.742   1.734  -1.692  1.00  0.00     0.053 C 
ATOM     15  C   UNL     1       2.771   0.419  -1.224  1.00  0.00     0.001 A 
ATOM     16  C   UNL     1       0.233   0.513  -2.429  1.00  0.00     0.230 C 
ATOM     17  C   UNL     1       1.964  -0.722  -1.373  1.00  0.00     0.122 A 
ATOM     18  C   UNL     1       4.047   0.269  -0.658  1.00  0.00     0.008 A 
ATOM     19  O   UNL     1       0.673  -0.706  -1.832  1.00  0.00    -0.493 OA
ATOM     20  C   UNL     1       2.454  -1.985  -1.035  1.00  0.00     0.047 A 
ATOM     21  C   UNL     1       4.533  -0.997  -0.324  1.00  0.00     0.001 A 
ATOM     22  C   UNL     1       3.744  -2.126  -0.529  1.00  0.00     0.004 A 
ENDBRANCH   8  13
ENDBRANCH   5   8
ENDBRANCH   3   4
ENDBRANCH   2   3
ENDBRANCH   1   2
BRANCH   1  23
ATOM     23  N   UNL     1       4.605   1.737  -8.818  1.00  0.00    -0.352 N 
ATOM     24  C   UNL     1       5.014   1.835 -10.123  1.00  0.00     0.251 C 
ATOM     25  H   UNL     1       3.633   1.642  -8.693  1.00  0.00     0.163 HD
ATOM     26  O   UNL     1       4.170   1.990 -11.007  1.00  0.00    -0.269 OA
BRANCH  24  27
ATOM     27  C   UNL     1       6.449   1.778 -10.477  1.00  0.00     0.039 A 
ATOM     28  C   UNL     1       6.932   2.654 -11.452  1.00  0.00     0.014 A 
ATOM     29  C   UNL     1       7.312   0.849  -9.888  1.00  0.00     0.014 A 
ATOM     30  C   UNL     1       8.286   2.636 -11.796  1.00  0.00     0.010 A 
ATOM     31  C   UNL     1       8.676   0.881 -10.178  1.00  0.00     0.010 A 
ATOM     32  C   UNL     1       9.177   1.771 -11.140  1.00  0.00    -0.014 A 
BRANCH  32  33
ATOM     33  C   UNL     1      10.630   1.795 -11.453  1.00  0.00     0.031 A 
ATOM     34  C   UNL     1      11.301   0.596 -12.069  1.00  0.00     0.074 A 
ATOM     35  C   UNL     1      11.357   2.889 -11.147  1.00  0.00     0.049 A 
ATOM     36  N   UNL     1      12.558   0.434 -12.398  1.00  0.00    -0.248 NA
ATOM     37  C   UNL     1      10.457  -0.581 -12.330  1.00  0.00     0.031 C 
ATOM     38  C   UNL     1      10.837   4.098 -10.504  1.00  0.00     0.029 A 
ATOM     39  N   UNL     1      12.689   3.161 -11.335  1.00  0.00    -0.354 N 
ATOM     40  C   UNL     1      12.657  -0.859 -12.898  1.00  0.00     0.074 A 
ATOM     41  C   UNL     1      11.345  -1.458 -12.777  1.00  0.00     0.031 C 
ATOM     42  C   UNL     1      11.831   4.991 -10.376  1.00  0.00     0.029 A 
ATOM     43  C   UNL     1      13.065   4.408 -10.895  1.00  0.00     0.049 A 
ATOM     44  H   UNL     1      13.316   2.523 -11.746  1.00  0.00     0.167 HD
ATOM     45  C   UNL     1      13.734  -1.486 -13.431  1.00  0.00     0.031 A 
ATOM     46  C   UNL     1      14.267   5.017 -10.903  1.00  0.00     0.031 A 
ATOM     47  C   UNL     1      15.038  -0.890 -13.552  1.00  0.00     0.049 A 
ATOM     48  C   UNL     1      15.447   4.302 -11.500  1.00  0.00     0.074 A 
ATOM     49  C   UNL     1      16.183  -1.430 -14.114  1.00  0.00     0.029 A 
ATOM     50  N   UNL     1      15.373   0.380 -13.107  1.00  0.00    -0.354 N 
ATOM     51  N   UNL     1      15.505   3.100 -12.022  1.00  0.00    -0.248 NA
ATOM     52  C   UNL     1      16.722   5.033 -11.523  1.00  0.00     0.031 C 
ATOM     53  C   UNL     1      17.221  -0.503 -13.967  1.00  0.00     0.029 A 
ATOM     54  C   UNL     1      16.710   0.635 -13.366  1.00  0.00     0.049 A 
ATOM     55  H   UNL     1      14.753   1.008 -12.672  1.00  0.00     0.167 HD
ATOM     56  C   UNL     1      16.815   2.940 -12.457  1.00  0.00     0.074 A 
ATOM     57  C   UNL     1      17.511   4.175 -12.155  1.00  0.00     0.031 C 
ATOM     58  C   UNL     1      17.392   1.866 -13.053  1.00  0.00     0.031 A 
BRANCH  45  59
ATOM     59  C   UNL     1      13.541  -2.896 -13.926  1.00  0.00    -0.014 A 
ATOM     60  C   UNL     1      12.775  -3.160 -15.077  1.00  0.00     0.010 A 
ATOM     61  C   UNL     1      14.162  -3.968 -13.259  1.00  0.00     0.010 A 
ATOM     62  C   UNL     1      12.597  -4.471 -15.525  1.00  0.00     0.020 A 
ATOM     63  C   UNL     1      14.009  -5.279 -13.722  1.00  0.00     0.020 A 
ATOM     64  C   UNL     1      13.212  -5.524 -14.842  1.00  0.00     0.054 A 
BRANCH  64  65
ATOM     65  S   UNL     1      12.980  -7.213 -15.459  1.00  0.00     0.124 S 
ATOM     66  O   UNL     1      11.598  -7.487 -15.072  1.00  0.00    -0.237 OA
ATOM     67  O   UNL     1      13.212  -7.066 -16.893  1.00  0.00    -0.237 OA
ATOM     68  O   UNL     1      13.991  -7.987 -14.743  1.00  0.00    -0.744 OA
ENDBRANCH  64  65
ENDBRANCH  45  59
BRANCH  46  69
ATOM     69  C   UNL     1      14.407   6.387 -10.339  1.00  0.00    -0.014 A 
ATOM     70  C   UNL     1      14.624   7.492 -11.181  1.00  0.00     0.010 A 
ATOM     71  C   UNL     1      14.308   6.595  -8.951  1.00  0.00     0.010 A 
ATOM     72  C   UNL     1      14.761   8.776 -10.645  1.00  0.00     0.020 A 
ATOM     73  C   UNL     1      14.415   7.881  -8.414  1.00  0.00     0.020 A 
ATOM     74  C   UNL     1      14.653   8.962  -9.264  1.00  0.00     0.054 A 
BRANCH  74  75
ATOM     75  S   UNL     1      14.780  10.643  -8.593  1.00  0.00     0.124 S 
ATOM     76  O   UNL     1      16.212  10.902  -8.690  1.00  0.00    -0.237 OA
ATOM     77  O   UNL     1      13.933  11.412  -9.503  1.00  0.00    -0.237 OA
ATOM     78  O   UNL     1      14.257  10.508  -7.235  1.00  0.00    -0.744 OA
ENDBRANCH  74  75
ENDBRANCH  46  69
BRANCH  58  79
ATOM     79  C   UNL     1      18.840   1.990 -13.444  1.00  0.00    -0.014 A 
ATOM     80  C   UNL     1      19.859   1.998 -12.475  1.00  0.00     0.010 A 
ATOM     81  C   UNL     1      19.189   2.067 -14.805  1.00  0.00     0.010 A 
ATOM     82  C   UNL     1      21.198   2.121 -12.858  1.00  0.00     0.020 A 
ATOM     83  C   UNL     1      20.527   2.161 -15.193  1.00  0.00     0.020 A 
ATOM     84  C   UNL     1      21.523   2.206 -14.215  1.00  0.00     0.054 A 
BRANCH  84  85
ATOM     85  S   UNL     1      23.268   2.340 -14.689  1.00  0.00     0.124 S 
ATOM     86  O   UNL     1      23.570   3.726 -14.346  1.00  0.00    -0.237 OA
ATOM     87  O   UNL     1      23.908   1.331 -13.848  1.00  0.00    -0.237 OA
ATOM     88  O   UNL     1      23.263   2.038 -16.119  1.00  0.00    -0.744 OA
ENDBRANCH  84  85
ENDBRANCH  58  79
ENDBRANCH  32  33
ENDBRANCH  24  27
ENDBRANCH   1  23
TORSDOF 16
