REMARK SMILES CC(=O)c1c[nH]c(C(=O)N[C@H]2C=C[C@H](C(=O)NCCCNC(=O)c3ccc(-c4c5nc(c(-c6ccc(S(=O)(=O)[O-])cc6)c6ccc([nH]6)c(-c6ccc(S(=O)(=O)[O-])cc6)c6nc(c(-c7ccc(S(=O)(=O)[O-])cc7)c7ccc4[nH]7)C=C6)C=C5)cc3)C2)c1
REMARK SMILES IDX 19 1 18 2 17 3 15 4 16 5 14 7 11 8 12 9 84 10 13 11 10 12
REMARK SMILES IDX 8 13 9 14 7 16 4 17 5 18 85 19 6 20 2 22 1 23 3 24 20 25
REMARK SMILES IDX 21 26 22 27 23 29 24 30 25 31 83 32 26 33 82 34 27 35 28 36
REMARK SMILES IDX 29 37 76 38 30 39 81 40 75 41 77 42 31 43 80 44 74 45 73 46
REMARK SMILES IDX 32 48 62 49 43 50 61 51 44 52 47 53 60 54 78 55 45 56 46 57
REMARK SMILES IDX 59 59 79 60 48 61 33 62 34 63 42 64 35 65 41 66 36 67 37 68
REMARK SMILES IDX 38 69 39 70 40 71 63 72 64 73 72 74 65 75 71 76 66 77 67 78
REMARK SMILES IDX 68 79 69 80 70 81 49 82 50 83 58 84 51 85 57 86 52 87 53 88
REMARK SMILES IDX 54 89 55 90 56 91
REMARK H PARENT 17 6 10 15 6 21 21 28 77 47 47 58
REMARK Flexibility Score: inf
ROOT
ATOM      1  C   UNL     1      -8.436   2.390   4.242  1.00  0.00     0.042 C 
ENDROOT
BRANCH   1   2
ATOM      2  C   UNL     1      -7.095   1.666   4.211  1.00  0.00     0.117 C 
BRANCH   2   3
ATOM      3  N   UNL     1      -6.037   2.427   3.580  1.00  0.00    -0.356 N 
ATOM      4  C   UNL     1      -4.786   2.704   4.047  1.00  0.00     0.227 C 
ATOM      5  O   UNL     1      -3.978   3.203   3.263  1.00  0.00    -0.274 OA
ATOM      6  H   UNL     1      -6.250   2.794   2.692  1.00  0.00     0.163 HD
BRANCH   4   7
ATOM      7  C   UNL     1      -4.435   2.430   5.517  1.00  0.00     0.103 C 
ATOM      8  C   UNL     1      -2.149   1.627   5.481  1.00  0.00     0.106 C 
ATOM      9  C   UNL     1      -3.084   0.521   5.845  1.00  0.00    -0.006 C 
ATOM     10  C   UNL     1      -2.989   2.864   5.820  1.00  0.00     0.047 C 
ATOM     11  C   UNL     1      -4.348   0.959   5.846  1.00  0.00    -0.016 C 
BRANCH   8  12
ATOM     12  N   UNL     1      -0.957   1.528   6.279  1.00  0.00    -0.345 N 
ATOM     13  C   UNL     1       0.340   1.270   5.930  1.00  0.00     0.268 C 
ATOM     14  O   UNL     1       1.132   1.073   6.855  1.00  0.00    -0.268 OA
ATOM     15  H   UNL     1      -1.099   1.671   7.242  1.00  0.00     0.164 HD
BRANCH  13  16
ATOM     16  C   UNL     1       0.774   1.159   4.552  1.00  0.00     0.105 A 
ATOM     17  C   UNL     1       1.073   0.997   2.288  1.00  0.00     0.035 A 
ATOM     18  C   UNL     1       2.167   0.437   2.916  1.00  0.00     0.094 A 
ATOM     19  C   UNL     1       0.262   1.546   3.324  1.00  0.00     0.045 A 
ATOM     20  N   UNL     1       2.001   0.589   4.266  1.00  0.00    -0.356 N 
ATOM     21  H   UNL     1       2.666   0.327   4.943  1.00  0.00     0.166 HD
BRANCH  17  22
ATOM     22  C   UNL     1       0.780   1.030   0.856  1.00  0.00     0.161 C 
ATOM     23  C   UNL     1       1.407  -0.020  -0.025  1.00  0.00     0.093 C 
ATOM     24  O   UNL     1      -0.017   1.840   0.388  1.00  0.00    -0.294 OA
ENDBRANCH  17  22
ENDBRANCH  13  16
ENDBRANCH   8  12
ENDBRANCH   4   7
ENDBRANCH   2   3
ENDBRANCH   1   2
BRANCH   1  25
ATOM     25  C   UNL     1      -9.058   2.577   2.866  1.00  0.00     0.118 C 
BRANCH  25  26
ATOM     26  N   UNL     1      -9.427   1.308   2.255  1.00  0.00    -0.352 N 
ATOM     27  C   UNL     1     -10.153   1.084   1.109  1.00  0.00     0.251 C 
ATOM     28  H   UNL     1      -9.115   0.502   2.726  1.00  0.00     0.163 HD
ATOM     29  O   UNL     1     -10.622  -0.024   0.898  1.00  0.00    -0.269 OA
BRANCH  27  30
ATOM     30  C   UNL     1     -10.392   2.188   0.155  1.00  0.00     0.039 A 
ATOM     31  C   UNL     1     -11.661   2.304  -0.423  1.00  0.00     0.014 A 
ATOM     32  C   UNL     1      -9.367   3.073  -0.199  1.00  0.00     0.014 A 
ATOM     33  C   UNL     1     -11.921   3.353  -1.300  1.00  0.00     0.010 A 
ATOM     34  C   UNL     1      -9.632   4.143  -1.039  1.00  0.00     0.010 A 
ATOM     35  C   UNL     1     -10.912   4.286  -1.581  1.00  0.00    -0.014 A 
BRANCH  35  36
ATOM     36  C   UNL     1     -11.247   5.503  -2.348  1.00  0.00     0.031 A 
ATOM     37  C   UNL     1     -12.008   6.527  -1.478  1.00  0.00     0.074 A 
ATOM     38  C   UNL     1     -10.866   5.509  -3.663  1.00  0.00     0.049 A 
ATOM     39  N   UNL     1     -12.891   7.416  -1.814  1.00  0.00    -0.248 NA
ATOM     40  C   UNL     1     -11.823   6.503   0.002  1.00  0.00     0.031 C 
ATOM     41  C   UNL     1     -10.080   4.436  -4.323  1.00  0.00     0.029 A 
ATOM     42  N   UNL     1     -11.042   6.387  -4.710  1.00  0.00    -0.354 N 
ATOM     43  C   UNL     1     -13.248   8.145  -0.652  1.00  0.00     0.074 A 
ATOM     44  C   UNL     1     -12.627   7.474   0.449  1.00  0.00     0.031 C 
ATOM     45  C   UNL     1      -9.923   4.685  -5.642  1.00  0.00     0.029 A 
ATOM     46  C   UNL     1     -10.583   5.930  -5.976  1.00  0.00     0.049 A 
ATOM     47  H   UNL     1     -11.457   7.271  -4.590  1.00  0.00     0.167 HD
ATOM     48  C   UNL     1     -13.945   9.322  -0.684  1.00  0.00     0.031 A 
ATOM     49  C   UNL     1     -10.779   6.484  -7.213  1.00  0.00     0.031 A 
ATOM     50  C   UNL     1     -14.297   9.634  -2.027  1.00  0.00     0.049 A 
ATOM     51  C   UNL     1     -11.497   7.742  -6.959  1.00  0.00     0.074 A 
ATOM     52  C   UNL     1     -15.210   9.101  -2.900  1.00  0.00     0.029 A 
ATOM     53  N   UNL     1     -13.383  10.381  -2.729  1.00  0.00    -0.354 N 
ATOM     54  N   UNL     1     -10.975   8.817  -6.454  1.00  0.00    -0.248 NA
ATOM     55  C   UNL     1     -12.945   7.777  -7.203  1.00  0.00     0.031 C 
ATOM     56  C   UNL     1     -14.514   9.107  -4.128  1.00  0.00     0.029 A 
ATOM     57  C   UNL     1     -13.329   9.838  -3.988  1.00  0.00     0.049 A 
ATOM     58  H   UNL     1     -12.870  11.152  -2.396  1.00  0.00     0.167 HD
ATOM     59  C   UNL     1     -12.078   9.485  -5.986  1.00  0.00     0.074 A 
ATOM     60  C   UNL     1     -13.213   8.991  -6.735  1.00  0.00     0.031 C 
ATOM     61  C   UNL     1     -12.092   9.966  -4.718  1.00  0.00     0.031 A 
BRANCH  48  62
ATOM     62  C   UNL     1     -14.177  10.403   0.343  1.00  0.00    -0.014 A 
ATOM     63  C   UNL     1     -15.150  11.391   0.029  1.00  0.00     0.010 A 
ATOM     64  C   UNL     1     -13.300  10.682   1.399  1.00  0.00     0.010 A 
ATOM     65  C   UNL     1     -15.158  12.647   0.639  1.00  0.00     0.020 A 
ATOM     66  C   UNL     1     -13.327  11.933   2.047  1.00  0.00     0.020 A 
ATOM     67  C   UNL     1     -14.221  12.923   1.626  1.00  0.00     0.054 A 
BRANCH  67  68
ATOM     68  S   UNL     1     -14.152  14.610   2.290  1.00  0.00     0.124 S 
ATOM     69  O   UNL     1     -13.645  15.371   1.152  1.00  0.00    -0.237 OA
ATOM     70  O   UNL     1     -15.547  14.868   2.641  1.00  0.00    -0.237 OA
ATOM     71  O   UNL     1     -13.244  14.495   3.428  1.00  0.00    -0.744 OA
ENDBRANCH  67  68
ENDBRANCH  48  62
BRANCH  49  72
ATOM     72  C   UNL     1     -10.624   6.101  -8.670  1.00  0.00    -0.014 A 
ATOM     73  C   UNL     1      -9.983   4.965  -9.179  1.00  0.00     0.010 A 
ATOM     74  C   UNL     1     -11.291   6.910  -9.638  1.00  0.00     0.010 A 
ATOM     75  C   UNL     1     -10.143   4.584 -10.537  1.00  0.00     0.020 A 
ATOM     76  C   UNL     1     -11.502   6.521 -10.961  1.00  0.00     0.020 A 
ATOM     77  C   UNL     1     -10.949   5.334 -11.402  1.00  0.00     0.054 A 
BRANCH  77  78
ATOM     78  S   UNL     1     -11.406   4.714 -13.048  1.00  0.00     0.124 S 
ATOM     79  O   UNL     1     -10.270   5.126 -13.867  1.00  0.00    -0.237 OA
ATOM     80  O   UNL     1     -11.538   3.276 -12.827  1.00  0.00    -0.237 OA
ATOM     81  O   UNL     1     -12.664   5.403 -13.334  1.00  0.00    -0.744 OA
ENDBRANCH  77  78
ENDBRANCH  49  72
BRANCH  61  82
ATOM     82  C   UNL     1     -10.730  10.232  -4.095  1.00  0.00    -0.014 A 
ATOM     83  C   UNL     1      -9.896  11.210  -4.665  1.00  0.00     0.010 A 
ATOM     84  C   UNL     1     -10.220   9.508  -2.997  1.00  0.00     0.010 A 
ATOM     85  C   UNL     1      -8.616  11.469  -4.155  1.00  0.00     0.020 A 
ATOM     86  C   UNL     1      -8.936   9.759  -2.477  1.00  0.00     0.020 A 
ATOM     87  C   UNL     1      -8.143  10.749  -3.058  1.00  0.00     0.054 A 
BRANCH  87  88
ATOM     88  S   UNL     1      -6.490  11.138  -2.410  1.00  0.00     0.124 S 
ATOM     89  O   UNL     1      -5.628  10.909  -3.567  1.00  0.00    -0.237 OA
ATOM     90  O   UNL     1      -6.632  12.534  -2.006  1.00  0.00    -0.237 OA
ATOM     91  O   UNL     1      -6.311  10.191  -1.311  1.00  0.00    -0.744 OA
ENDBRANCH  87  88
ENDBRANCH  61  82
ENDBRANCH  35  36
ENDBRANCH  27  30
ENDBRANCH  25  26
ENDBRANCH   1  25
TORSDOF 16
