REMARK SMILES COc1cccc([C@H]2[NH2+][C@@](CC(C)C)(C(=O)NCCCNC(=O)c3ccc(-c4c5nc(c(-c6ccc(S(=O)(=O)[O-])cc6)c6ccc([nH]6)c(-c6ccc(S(=O)(=O)[O-])cc6)c6nc(c(-c7ccc(S(=O)(=O)[O-])cc7)c7ccc4[nH]7)C=C6)C=C5)cc3)[C@H]3C(=O)N(C(C)C)C(=O)[C@H]23)c1O
REMARK SMILES IDX 19 1 18 2 17 3 15 4 16 5 10 7 8 8 9 9 93 10 84 13 91 14
REMARK SMILES IDX 85 15 87 16 92 17 86 18 7 19 3 20 4 21 94 22 5 23 6 24 2 25
REMARK SMILES IDX 1 26 95 27 11 29 12 30 13 31 14 32 88 33 89 34 90 35 20 36
REMARK SMILES IDX 21 37 22 38 23 40 24 41 25 42 83 43 26 44 82 45 27 46 28 47
REMARK SMILES IDX 29 48 76 49 30 50 81 51 75 52 77 53 31 54 80 55 74 56 73 57
REMARK SMILES IDX 32 59 62 60 43 61 61 62 44 63 47 64 60 65 78 66 45 67 46 68
REMARK SMILES IDX 59 70 79 71 48 72 33 73 34 74 42 75 35 76 41 77 36 78 37 79
REMARK SMILES IDX 38 80 39 81 40 82 63 83 64 84 72 85 65 86 71 87 66 88 67 89
REMARK SMILES IDX 68 90 69 91 70 92 49 93 50 94 58 95 51 96 57 97 52 98 53 99
REMARK SMILES IDX 54 100 55 101 56 102
REMARK H PARENT 17 6 9 11 9 12 95 28 21 39 77 58 47 69
REMARK Flexibility Score: inf
ROOT
ATOM      1  C   UNL     1      -0.804  -8.231   4.555  1.00  0.00     0.042 C 
ENDROOT
BRANCH   1   2
ATOM      2  C   UNL     1       0.020  -7.016   4.193  1.00  0.00     0.118 C 
BRANCH   2   3
ATOM      3  N   UNL     1       1.328  -7.248   3.635  1.00  0.00    -0.351 N 
ATOM      4  C   UNL     1       2.191  -6.317   3.116  1.00  0.00     0.282 C 
ATOM      5  O   UNL     1       3.375  -6.665   3.028  1.00  0.00    -0.268 OA
ATOM      6  H   UNL     1       1.638  -8.182   3.625  1.00  0.00     0.163 HD
BRANCH   4   7
ATOM      7  C   UNL     1       1.688  -4.923   2.557  1.00  0.00     0.189 C 
ATOM      8  C   UNL     1       1.651  -5.238   0.059  1.00  0.00     0.232 C 
ATOM      9  N   UNL     1       0.806  -5.294   1.332  1.00  0.00    -0.326 N 
ATOM     10  C   UNL     1       3.012  -4.974   0.599  1.00  0.00     0.161 C 
ATOM     11  H   UNL     1       0.436  -6.237   1.453  1.00  0.00     0.347 HD
ATOM     12  H   UNL     1       0.033  -4.633   1.257  1.00  0.00     0.347 HD
ATOM     13  C   UNL     1       2.764  -4.141   1.812  1.00  0.00     0.169 C 
ATOM     14  C   UNL     1       4.065  -4.158  -0.057  1.00  0.00     0.240 C 
ATOM     15  C   UNL     1       4.192  -3.886   2.208  1.00  0.00     0.240 C 
ATOM     16  N   UNL     1       4.879  -3.793   1.002  1.00  0.00    -0.279 N 
ATOM     17  O   UNL     1       4.183  -3.902  -1.242  1.00  0.00    -0.274 OA
ATOM     18  O   UNL     1       4.598  -3.648   3.331  1.00  0.00    -0.274 OA
BRANCH   8  19
ATOM     19  C   UNL     1       1.548  -6.451  -0.877  1.00  0.00     0.056 A 
ATOM     20  C   UNL     1       2.511  -8.224  -2.329  1.00  0.00     0.161 A 
ATOM     21  C   UNL     1       1.242  -8.467  -2.850  1.00  0.00     0.050 A 
ATOM     22  C   UNL     1       2.648  -7.224  -1.351  1.00  0.00     0.166 A 
ATOM     23  C   UNL     1       0.138  -7.745  -2.399  1.00  0.00     0.005 A 
ATOM     24  C   UNL     1       0.288  -6.750  -1.426  1.00  0.00     0.014 A 
BRANCH  20  25
ATOM     25  O   UNL     1       3.479  -9.025  -2.878  1.00  0.00    -0.493 OA
ATOM     26  C   UNL     1       4.826  -8.913  -2.438  1.00  0.00     0.278 C 
ENDBRANCH  20  25
BRANCH  22  27
ATOM     27  O   UNL     1       3.897  -7.010  -0.839  1.00  0.00    -0.504 OA
ATOM     28  H   UNL     1       4.622  -7.516  -1.147  1.00  0.00     0.293 HD
ENDBRANCH  22  27
ENDBRANCH   8  19
BRANCH   7  29
ATOM     29  C   UNL     1       1.053  -3.867   3.555  1.00  0.00     0.083 C 
BRANCH  29  30
ATOM     30  C   UNL     1       0.818  -4.118   5.061  1.00  0.00    -0.011 C 
ATOM     31  C   UNL     1       2.025  -4.654   5.837  1.00  0.00     0.007 C 
ATOM     32  C   UNL     1       0.291  -2.875   5.792  1.00  0.00     0.007 C 
ENDBRANCH  29  30
ENDBRANCH   7  29
BRANCH  16  33
ATOM     33  C   UNL     1       6.277  -3.415   0.861  1.00  0.00     0.087 C 
ATOM     34  C   UNL     1       7.086  -4.599   0.324  1.00  0.00     0.031 C 
ATOM     35  C   UNL     1       6.458  -2.187  -0.029  1.00  0.00     0.031 C 
ENDBRANCH  16  33
ENDBRANCH   4   7
ENDBRANCH   2   3
ENDBRANCH   1   2
BRANCH   1  36
ATOM     36  C   UNL     1      -0.204  -9.040   5.702  1.00  0.00     0.118 C 
BRANCH  36  37
ATOM     37  N   UNL     1      -0.093  -8.332   6.984  1.00  0.00    -0.352 N 
ATOM     38  C   UNL     1      -0.627  -8.617   8.226  1.00  0.00     0.251 C 
ATOM     39  H   UNL     1       0.454  -7.515   6.954  1.00  0.00     0.163 HD
ATOM     40  O   UNL     1      -0.433  -7.855   9.169  1.00  0.00    -0.269 OA
BRANCH  38  41
ATOM     41  C   UNL     1      -1.479  -9.811   8.400  1.00  0.00     0.039 A 
ATOM     42  C   UNL     1      -2.689  -9.703   9.089  1.00  0.00     0.014 A 
ATOM     43  C   UNL     1      -1.128 -11.011   7.789  1.00  0.00     0.014 A 
ATOM     44  C   UNL     1      -3.607 -10.755   9.031  1.00  0.00     0.010 A 
ATOM     45  C   UNL     1      -2.099 -11.981   7.597  1.00  0.00     0.010 A 
ATOM     46  C   UNL     1      -3.352 -11.869   8.216  1.00  0.00    -0.014 A 
BRANCH  46  47
ATOM     47  C   UNL     1      -4.362 -12.935   7.983  1.00  0.00     0.031 A 
ATOM     48  C   UNL     1      -4.013 -14.372   8.279  1.00  0.00     0.074 A 
ATOM     49  C   UNL     1      -5.548 -12.633   7.414  1.00  0.00     0.049 A 
ATOM     50  N   UNL     1      -4.704 -15.456   8.040  1.00  0.00    -0.248 NA
ATOM     51  C   UNL     1      -2.692 -14.626   8.880  1.00  0.00     0.031 C 
ATOM     52  C   UNL     1      -5.992 -11.291   7.027  1.00  0.00     0.029 A 
ATOM     53  N   UNL     1      -6.600 -13.440   7.057  1.00  0.00    -0.354 N 
ATOM     54  C   UNL     1      -3.892 -16.513   8.434  1.00  0.00     0.074 A 
ATOM     55  C   UNL     1      -2.628 -15.946   8.846  1.00  0.00     0.031 C 
ATOM     56  C   UNL     1      -7.240 -11.362   6.539  1.00  0.00     0.029 A 
ATOM     57  C   UNL     1      -7.667 -12.757   6.522  1.00  0.00     0.049 A 
ATOM     58  H   UNL     1      -6.591 -14.418   7.174  1.00  0.00     0.167 HD
ATOM     59  C   UNL     1      -4.178 -17.835   8.486  1.00  0.00     0.031 A 
ATOM     60  C   UNL     1      -8.855 -13.201   6.067  1.00  0.00     0.031 A 
ATOM     61  C   UNL     1      -5.442 -18.395   8.093  1.00  0.00     0.049 A 
ATOM     62  C   UNL     1      -9.149 -14.676   6.115  1.00  0.00     0.074 A 
ATOM     63  C   UNL     1      -5.858 -19.712   8.156  1.00  0.00     0.029 A 
ATOM     64  N   UNL     1      -6.497 -17.665   7.562  1.00  0.00    -0.354 N 
ATOM     65  N   UNL     1      -8.392 -15.654   6.552  1.00  0.00    -0.248 NA
ATOM     66  C   UNL     1     -10.463 -15.105   5.618  1.00  0.00     0.031 C 
ATOM     67  C   UNL     1      -7.143 -19.789   7.609  1.00  0.00     0.029 A 
ATOM     68  C   UNL     1      -7.554 -18.509   7.270  1.00  0.00     0.049 A 
ATOM     69  H   UNL     1      -6.493 -16.692   7.415  1.00  0.00     0.167 HD
ATOM     70  C   UNL     1      -9.150 -16.811   6.414  1.00  0.00     0.074 A 
ATOM     71  C   UNL     1     -10.429 -16.408   5.863  1.00  0.00     0.031 C 
ATOM     72  C   UNL     1      -8.820 -18.091   6.720  1.00  0.00     0.031 A 
BRANCH  59  73
ATOM     73  C   UNL     1      -3.093 -18.756   8.986  1.00  0.00    -0.014 A 
ATOM     74  C   UNL     1      -2.637 -18.690  10.317  1.00  0.00     0.010 A 
ATOM     75  C   UNL     1      -2.512 -19.693   8.113  1.00  0.00     0.010 A 
ATOM     76  C   UNL     1      -1.577 -19.492  10.745  1.00  0.00     0.020 A 
ATOM     77  C   UNL     1      -1.477 -20.526   8.548  1.00  0.00     0.020 A 
ATOM     78  C   UNL     1      -0.999 -20.401   9.854  1.00  0.00     0.054 A 
BRANCH  78  79
ATOM     79  S   UNL     1       0.383 -21.422  10.434  1.00  0.00     0.124 S 
ATOM     80  O   UNL     1       1.464 -20.443  10.520  1.00  0.00    -0.237 OA
ATOM     81  O   UNL     1      -0.109 -21.928  11.713  1.00  0.00    -0.237 OA
ATOM     82  O   UNL     1       0.535 -22.428   9.386  1.00  0.00    -0.744 OA
ENDBRANCH  78  79
ENDBRANCH  59  73
BRANCH  60  83
ATOM     83  C   UNL     1      -9.871 -12.232   5.567  1.00  0.00    -0.014 A 
ATOM     84  C   UNL     1     -11.039 -11.984   6.311  1.00  0.00     0.010 A 
ATOM     85  C   UNL     1      -9.668 -11.531   4.365  1.00  0.00     0.010 A 
ATOM     86  C   UNL     1     -11.988 -11.062   5.859  1.00  0.00     0.020 A 
ATOM     87  C   UNL     1     -10.601 -10.586   3.924  1.00  0.00     0.020 A 
ATOM     88  C   UNL     1     -11.758 -10.363   4.671  1.00  0.00     0.054 A 
BRANCH  88  89
ATOM     89  S   UNL     1     -12.971  -9.120   4.143  1.00  0.00     0.124 S 
ATOM     90  O   UNL     1     -14.103  -9.950   3.743  1.00  0.00    -0.237 OA
ATOM     91  O   UNL     1     -13.161  -8.332   5.358  1.00  0.00    -0.237 OA
ATOM     92  O   UNL     1     -12.292  -8.420   3.055  1.00  0.00    -0.744 OA
ENDBRANCH  88  89
ENDBRANCH  60  83
BRANCH  72  93
ATOM     93  C   UNL     1      -9.870 -19.150   6.507  1.00  0.00    -0.014 A 
ATOM     94  C   UNL     1     -10.252 -19.555   5.216  1.00  0.00     0.010 A 
ATOM     95  C   UNL     1     -10.436 -19.794   7.624  1.00  0.00     0.010 A 
ATOM     96  C   UNL     1     -11.204 -20.565   5.047  1.00  0.00     0.020 A 
ATOM     97  C   UNL     1     -11.362 -20.825   7.458  1.00  0.00     0.020 A 
ATOM     98  C   UNL     1     -11.751 -21.195   6.170  1.00  0.00     0.054 A 
BRANCH  98  99
ATOM     99  S   UNL     1     -12.946 -22.536   5.921  1.00  0.00     0.124 S 
ATOM    100  O   UNL     1     -14.123 -21.810   5.453  1.00  0.00    -0.237 OA
ATOM    101  O   UNL     1     -12.284 -23.372   4.922  1.00  0.00    -0.237 OA
ATOM    102  O   UNL     1     -13.072 -23.139   7.245  1.00  0.00    -0.744 OA
ENDBRANCH  98  99
ENDBRANCH  72  93
ENDBRANCH  46  47
ENDBRANCH  38  41
ENDBRANCH  36  37
ENDBRANCH   1  36
TORSDOF 19
