REMARK SMILES COc1ccc(C(=O)/C=C/c2c(F)cccc2F)cc1CC(=O)NCCCNC(=O)c1ccc(-c2c3nc(c(-c4ccc(S(=O)(=O)[O-])cc4)c4ccc([nH]4)c(-c4ccc(S(=O)(=O)[O-])cc4)c4nc(c(-c5ccc(S(=O)(=O)[O-])cc5)c5ccc2[nH]5)C=C4)C=C3)cc1
REMARK SMILES IDX 25 1 24 2 22 3 23 4 21 6 20 7 3 8 4 9 5 10 19 11 6 12 2 13
REMARK SMILES IDX 1 14 7 15 8 16 9 17 10 18 11 19 12 20 17 21 13 22 14 23
REMARK SMILES IDX 16 24 18 25 15 26 26 27 27 28 28 29 29 30 30 32 31 33 32 34
REMARK SMILES IDX 90 35 33 36 89 37 34 38 35 39 36 40 83 41 37 42 88 43 82 44
REMARK SMILES IDX 84 45 38 46 87 47 81 48 80 49 39 51 69 52 50 53 68 54 51 55
REMARK SMILES IDX 54 56 67 57 85 58 52 59 53 60 66 62 86 63 55 64 40 65 41 66
REMARK SMILES IDX 49 67 42 68 48 69 43 70 44 71 45 72 46 73 47 74 70 75 71 76
REMARK SMILES IDX 79 77 72 78 78 79 73 80 74 81 75 82 76 83 77 84 56 85 57 86
REMARK SMILES IDX 65 87 58 88 64 89 59 90 60 91 61 92 62 93 63 94
REMARK H PARENT 24 5 28 31 84 50 54 61
REMARK Flexibility Score: inf
ROOT
ATOM      1  C   UNL     1       2.949   0.584   3.068  1.00  0.00     0.117 C 
ENDROOT
BRANCH   1   2
ATOM      2  N   UNL     1       4.186  -0.043   2.642  1.00  0.00    -0.356 N 
ATOM      3  C   UNL     1       4.381  -0.889   1.590  1.00  0.00     0.224 C 
ATOM      4  O   UNL     1       5.505  -1.349   1.386  1.00  0.00    -0.275 OA
ATOM      5  H   UNL     1       4.984   0.168   3.178  1.00  0.00     0.163 HD
BRANCH   3   6
ATOM      6  C   UNL     1       3.219  -1.206   0.670  1.00  0.00     0.139 C 
BRANCH   6   7
ATOM      7  C   UNL     1       2.172  -2.120   1.264  1.00  0.00     0.004 A 
ATOM      8  C   UNL     1       0.802  -1.827   1.327  1.00  0.00     0.122 A 
ATOM      9  C   UNL     1      -0.083  -2.750   1.898  1.00  0.00     0.047 A 
ATOM     10  C   UNL     1       0.373  -3.982   2.379  1.00  0.00     0.016 A 
ATOM     11  C   UNL     1       2.617  -3.351   1.798  1.00  0.00     0.020 A 
ATOM     12  C   UNL     1       1.734  -4.298   2.334  1.00  0.00     0.022 A 
BRANCH   8  13
ATOM     13  O   UNL     1       0.243  -0.612   1.040  1.00  0.00    -0.496 OA
ATOM     14  C   UNL     1       0.406  -0.143  -0.293  1.00  0.00     0.278 C 
ENDBRANCH   8  13
BRANCH  12  15
ATOM     15  C   UNL     1       2.180  -5.598   2.926  1.00  0.00     0.185 C 
ATOM     16  O   UNL     1       1.395  -6.277   3.584  1.00  0.00    -0.289 OA
BRANCH  15  17
ATOM     17  C   UNL     1       3.585  -6.072   2.795  1.00  0.00     0.053 C 
ATOM     18  C   UNL     1       4.302  -5.989   1.665  1.00  0.00     0.018 C 
BRANCH  18  19
ATOM     19  C   UNL     1       5.706  -6.394   1.591  1.00  0.00     0.046 A 
ATOM     20  C   UNL     1       6.726  -5.511   1.958  1.00  0.00     0.133 A 
ATOM     21  C   UNL     1       6.069  -7.649   1.102  1.00  0.00     0.133 A 
ATOM     22  F   UNL     1       6.423  -4.294   2.436  1.00  0.00    -0.206 F 
ATOM     23  C   UNL     1       8.070  -5.856   1.822  1.00  0.00     0.040 A 
ATOM     24  C   UNL     1       7.409  -8.012   0.967  1.00  0.00     0.040 A 
ATOM     25  F   UNL     1       5.126  -8.528   0.732  1.00  0.00    -0.206 F 
ATOM     26  C   UNL     1       8.414  -7.111   1.320  1.00  0.00     0.006 A 
ENDBRANCH  18  19
ENDBRANCH  15  17
ENDBRANCH  12  15
ENDBRANCH   6   7
ENDBRANCH   3   6
ENDBRANCH   1   2
BRANCH   1  27
ATOM     27  C   UNL     1       2.326  -0.121   4.269  1.00  0.00     0.042 C 
BRANCH  27  28
ATOM     28  C   UNL     1       3.142   0.011   5.550  1.00  0.00     0.118 C 
BRANCH  28  29
ATOM     29  N   UNL     1       3.307   1.399   5.954  1.00  0.00    -0.352 N 
ATOM     30  C   UNL     1       3.041   2.018   7.147  1.00  0.00     0.251 C 
ATOM     31  H   UNL     1       3.670   1.990   5.256  1.00  0.00     0.163 HD
ATOM     32  O   UNL     1       3.059   3.245   7.190  1.00  0.00    -0.269 OA
BRANCH  30  33
ATOM     33  C   UNL     1       2.740   1.238   8.368  1.00  0.00     0.039 A 
ATOM     34  C   UNL     1       1.821   1.767   9.280  1.00  0.00     0.014 A 
ATOM     35  C   UNL     1       3.406   0.045   8.665  1.00  0.00     0.014 A 
ATOM     36  C   UNL     1       1.557   1.093  10.473  1.00  0.00     0.010 A 
ATOM     37  C   UNL     1       3.089  -0.663   9.823  1.00  0.00     0.010 A 
ATOM     38  C   UNL     1       2.180  -0.134  10.750  1.00  0.00    -0.014 A 
BRANCH  38  39
ATOM     39  C   UNL     1       1.913  -0.847  12.024  1.00  0.00     0.031 A 
ATOM     40  C   UNL     1       3.006  -1.012  13.046  1.00  0.00     0.074 A 
ATOM     41  C   UNL     1       0.691  -1.367  12.251  1.00  0.00     0.049 A 
ATOM     42  N   UNL     1       2.959  -1.594  14.217  1.00  0.00    -0.248 NA
ATOM     43  C   UNL     1       4.331  -0.471  12.700  1.00  0.00     0.031 C 
ATOM     44  C   UNL     1      -0.438  -1.312  11.319  1.00  0.00     0.029 A 
ATOM     45  N   UNL     1       0.194  -2.039  13.337  1.00  0.00    -0.354 N 
ATOM     46  C   UNL     1       4.245  -1.505  14.738  1.00  0.00     0.074 A 
ATOM     47  C   UNL     1       5.062  -0.856  13.736  1.00  0.00     0.031 C 
ATOM     48  C   UNL     1      -1.505  -1.897  11.888  1.00  0.00     0.029 A 
ATOM     49  C   UNL     1      -1.129  -2.391  13.209  1.00  0.00     0.049 A 
ATOM     50  H   UNL     1       0.732  -2.250  14.134  1.00  0.00     0.167 HD
ATOM     51  C   UNL     1       4.702  -1.909  15.948  1.00  0.00     0.031 A 
ATOM     52  C   UNL     1      -1.950  -3.032  14.062  1.00  0.00     0.031 A 
ATOM     53  C   UNL     1       3.885  -2.541  16.949  1.00  0.00     0.049 A 
ATOM     54  C   UNL     1      -1.427  -3.447  15.409  1.00  0.00     0.074 A 
ATOM     55  C   UNL     1       4.240  -2.941  18.226  1.00  0.00     0.029 A 
ATOM     56  N   UNL     1       2.545  -2.862  16.788  1.00  0.00    -0.354 N 
ATOM     57  N   UNL     1      -0.222  -3.299  15.907  1.00  0.00    -0.248 NA
ATOM     58  C   UNL     1      -2.381  -4.097  16.317  1.00  0.00     0.031 C 
ATOM     59  C   UNL     1       3.124  -3.539  18.823  1.00  0.00     0.029 A 
ATOM     60  C   UNL     1       2.062  -3.466  17.936  1.00  0.00     0.049 A 
ATOM     61  H   UNL     1       2.016  -2.687  15.976  1.00  0.00     0.167 HD
ATOM     62  C   UNL     1      -0.280  -3.816  17.196  1.00  0.00     0.074 A 
ATOM     63  C   UNL     1      -1.643  -4.263  17.406  1.00  0.00     0.031 C 
ATOM     64  C   UNL     1       0.704  -3.911  18.124  1.00  0.00     0.031 A 
BRANCH  51  65
ATOM     65  C   UNL     1       6.160  -1.678  16.250  1.00  0.00    -0.014 A 
ATOM     66  C   UNL     1       6.659  -0.380  16.470  1.00  0.00     0.010 A 
ATOM     67  C   UNL     1       7.040  -2.772  16.338  1.00  0.00     0.010 A 
ATOM     68  C   UNL     1       8.017  -0.177  16.726  1.00  0.00     0.020 A 
ATOM     69  C   UNL     1       8.395  -2.575  16.621  1.00  0.00     0.020 A 
ATOM     70  C   UNL     1       8.879  -1.276  16.794  1.00  0.00     0.054 A 
BRANCH  70  71
ATOM     71  S   UNL     1      10.636  -0.986  17.139  1.00  0.00     0.124 S 
ATOM     72  O   UNL     1      11.113  -0.471  15.858  1.00  0.00    -0.237 OA
ATOM     73  O   UNL     1      10.595  -0.015  18.230  1.00  0.00    -0.237 OA
ATOM     74  O   UNL     1      11.139  -2.308  17.506  1.00  0.00    -0.744 OA
ENDBRANCH  70  71
ENDBRANCH  51  65
BRANCH  52  75
ATOM     75  C   UNL     1      -3.364  -3.287  13.679  1.00  0.00    -0.014 A 
ATOM     76  C   UNL     1      -4.406  -2.555  14.276  1.00  0.00     0.010 A 
ATOM     77  C   UNL     1      -3.675  -4.249  12.701  1.00  0.00     0.010 A 
ATOM     78  C   UNL     1      -5.735  -2.793  13.916  1.00  0.00     0.020 A 
ATOM     79  C   UNL     1      -5.001  -4.472  12.321  1.00  0.00     0.020 A 
ATOM     80  C   UNL     1      -6.024  -3.751  12.940  1.00  0.00     0.054 A 
BRANCH  80  81
ATOM     81  S   UNL     1      -7.752  -4.006  12.448  1.00  0.00     0.124 S 
ATOM     82  O   UNL     1      -8.276  -4.777  13.571  1.00  0.00    -0.237 OA
ATOM     83  O   UNL     1      -8.254  -2.639  12.330  1.00  0.00    -0.237 OA
ATOM     84  O   UNL     1      -7.644  -4.731  11.184  1.00  0.00    -0.744 OA
ENDBRANCH  80  81
ENDBRANCH  52  75
BRANCH  64  85
ATOM     85  C   UNL     1       0.330  -4.495  19.460  1.00  0.00    -0.014 A 
ATOM     86  C   UNL     1       0.069  -5.869  19.608  1.00  0.00     0.010 A 
ATOM     87  C   UNL     1       0.259  -3.657  20.587  1.00  0.00     0.010 A 
ATOM     88  C   UNL     1      -0.305  -6.386  20.851  1.00  0.00     0.020 A 
ATOM     89  C   UNL     1      -0.089  -4.175  21.837  1.00  0.00     0.020 A 
ATOM     90  C   UNL     1      -0.389  -5.534  21.956  1.00  0.00     0.054 A 
BRANCH  90  91
ATOM     91  S   UNL     1      -0.864  -6.226  23.564  1.00  0.00     0.124 S 
ATOM     92  O   UNL     1      -2.308  -6.379  23.413  1.00  0.00    -0.237 OA
ATOM     93  O   UNL     1      -0.103  -7.472  23.617  1.00  0.00    -0.237 OA
ATOM     94  O   UNL     1      -0.441  -5.205  24.519  1.00  0.00    -0.744 OA
ENDBRANCH  90  91
ENDBRANCH  64  85
ENDBRANCH  38  39
ENDBRANCH  30  33
ENDBRANCH  28  29
ENDBRANCH  27  28
ENDBRANCH   1  27
TORSDOF 18
