REMARK SMILES Cc1ccccc1O[C@@H](C)C(=O)Oc1ccccc1C(=O)NCCCNC(=O)c1ccc(-c2c3nc(c(-c4ccc(S(=O)(=O)[O-])cc4)c4ccc([nH]4)c(-c4ccc(S(=O)(=O)[O-])cc4)c4nc(c(-c5ccc(S(=O)(=O)[O-])cc5)c5ccc2[nH]5)C=C4)C=C3)cc1
REMARK SMILES IDX 23 1 22 2 20 3 21 4 19 6 14 7 15 8 16 9 18 10 17 11 13 12
REMARK SMILES IDX 11 13 12 14 9 15 10 16 8 17 7 18 1 19 2 20 3 21 4 22 6 23
REMARK SMILES IDX 5 24 24 25 25 26 26 27 27 28 28 30 29 31 30 32 88 33 31 34
REMARK SMILES IDX 87 35 32 36 33 37 34 38 81 39 35 40 86 41 80 42 82 43 36 44
REMARK SMILES IDX 85 45 79 46 78 47 37 49 67 50 48 51 66 52 49 53 52 54 65 55
REMARK SMILES IDX 83 56 50 57 51 58 64 60 84 61 53 62 38 63 39 64 47 65 40 66
REMARK SMILES IDX 46 67 41 68 42 69 43 70 44 71 45 72 68 73 69 74 77 75 70 76
REMARK SMILES IDX 76 77 71 78 72 79 73 80 74 81 75 82 54 83 55 84 63 85 56 86
REMARK SMILES IDX 62 87 57 88 58 89 59 90 60 91 61 92
REMARK H PARENT 22 5 26 29 82 48 52 59
REMARK Flexibility Score: inf
ROOT
ATOM      1  C   UNL     1       7.689  -0.373  -3.355  1.00  0.00     0.118 C 
ENDROOT
BRANCH   1   2
ATOM      2  N   UNL     1       6.800   0.144  -2.317  1.00  0.00    -0.352 N 
ATOM      3  C   UNL     1       5.457   0.048  -2.042  1.00  0.00     0.255 C 
ATOM      4  O   UNL     1       5.102   0.447  -0.930  1.00  0.00    -0.269 OA
ATOM      5  H   UNL     1       7.279   0.694  -1.656  1.00  0.00     0.163 HD
BRANCH   3   6
ATOM      6  C   UNL     1       4.419  -0.490  -2.979  1.00  0.00     0.082 A 
ATOM      7  C   UNL     1       3.055  -0.176  -2.793  1.00  0.00     0.143 A 
ATOM      8  C   UNL     1       2.045  -0.728  -3.595  1.00  0.00     0.048 A 
ATOM      9  C   UNL     1       2.376  -1.609  -4.616  1.00  0.00     0.004 A 
ATOM     10  C   UNL     1       4.713  -1.395  -4.007  1.00  0.00     0.018 A 
ATOM     11  C   UNL     1       3.709  -1.944  -4.819  1.00  0.00     0.001 A 
BRANCH   7  12
ATOM     12  O   UNL     1       2.562   0.517  -1.667  1.00  0.00    -0.423 OA
BRANCH  12  13
ATOM     13  C   UNL     1       2.731   1.883  -1.538  1.00  0.00     0.352 C 
ATOM     14  O   UNL     1       3.235   2.610  -2.389  1.00  0.00    -0.247 OA
BRANCH  13  15
ATOM     15  C   UNL     1       2.184   2.388  -0.166  1.00  0.00     0.280 C 
ATOM     16  C   UNL     1       3.319   2.566   0.851  1.00  0.00     0.066 C 
BRANCH  15  17
ATOM     17  O   UNL     1       1.063   1.936   0.588  1.00  0.00    -0.479 OA
BRANCH  17  18
ATOM     18  C   UNL     1       0.370   0.814   0.253  1.00  0.00     0.123 A 
ATOM     19  C   UNL     1       2.233  -0.869   0.833  1.00  0.00     0.048 C 
ATOM     20  C   UNL     1       0.846  -0.498   0.390  1.00  0.00    -0.009 A 
ATOM     21  C   UNL     1      -0.051  -1.567   0.191  1.00  0.00     0.007 A 
ATOM     22  C   UNL     1      -1.397  -1.342  -0.095  1.00  0.00     0.001 A 
ATOM     23  C   UNL     1      -0.989   1.030  -0.020  1.00  0.00     0.047 A 
ATOM     24  C   UNL     1      -1.869  -0.040  -0.193  1.00  0.00     0.004 A 
ENDBRANCH  17  18
ENDBRANCH  15  17
ENDBRANCH  13  15
ENDBRANCH  12  13
ENDBRANCH   7  12
ENDBRANCH   3   6
ENDBRANCH   1   2
BRANCH   1  25
ATOM     25  C   UNL     1       7.520   0.306  -4.711  1.00  0.00     0.042 C 
BRANCH  25  26
ATOM     26  C   UNL     1       8.627   1.314  -4.995  1.00  0.00     0.118 C 
BRANCH  26  27
ATOM     27  N   UNL     1       9.704   0.784  -5.828  1.00  0.00    -0.352 N 
ATOM     28  C   UNL     1      10.772   1.487  -6.359  1.00  0.00     0.251 C 
ATOM     29  H   UNL     1       9.666  -0.178  -6.033  1.00  0.00     0.163 HD
ATOM     30  O   UNL     1      11.494   1.036  -7.233  1.00  0.00    -0.269 OA
BRANCH  28  31
ATOM     31  C   UNL     1      11.085   2.777  -5.716  1.00  0.00     0.039 A 
ATOM     32  C   UNL     1      12.182   2.793  -4.847  1.00  0.00     0.014 A 
ATOM     33  C   UNL     1      10.139   3.798  -5.714  1.00  0.00     0.014 A 
ATOM     34  C   UNL     1      12.236   3.749  -3.838  1.00  0.00     0.010 A 
ATOM     35  C   UNL     1      10.152   4.694  -4.662  1.00  0.00     0.010 A 
ATOM     36  C   UNL     1      11.166   4.630  -3.693  1.00  0.00    -0.014 A 
BRANCH  36  37
ATOM     37  C   UNL     1      10.971   5.466  -2.513  1.00  0.00     0.031 A 
ATOM     38  C   UNL     1      11.213   6.925  -2.599  1.00  0.00     0.074 A 
ATOM     39  C   UNL     1      10.494   4.928  -1.367  1.00  0.00     0.049 A 
ATOM     40  N   UNL     1      11.366   7.703  -1.579  1.00  0.00    -0.248 NA
ATOM     41  C   UNL     1      11.399   7.614  -3.875  1.00  0.00     0.031 C 
ATOM     42  C   UNL     1       9.924   5.654  -0.234  1.00  0.00     0.029 A 
ATOM     43  N   UNL     1      10.643   3.623  -0.888  1.00  0.00    -0.354 N 
ATOM     44  C   UNL     1      11.314   8.996  -2.046  1.00  0.00     0.074 A 
ATOM     45  C   UNL     1      11.498   8.883  -3.471  1.00  0.00     0.031 C 
ATOM     46  C   UNL     1      10.058   4.900   0.868  1.00  0.00     0.029 A 
ATOM     47  C   UNL     1      10.852   3.742   0.497  1.00  0.00     0.049 A 
ATOM     48  H   UNL     1      10.608   2.791  -1.413  1.00  0.00     0.167 HD
ATOM     49  C   UNL     1      10.944   9.998  -1.198  1.00  0.00     0.031 A 
ATOM     50  C   UNL     1      11.983   3.330   1.142  1.00  0.00     0.031 A 
ATOM     51  C   UNL     1      10.995   9.563   0.199  1.00  0.00     0.049 A 
ATOM     52  C   UNL     1      12.670   4.441   1.912  1.00  0.00     0.074 A 
ATOM     53  C   UNL     1      10.032   9.265   1.147  1.00  0.00     0.029 A 
ATOM     54  N   UNL     1      12.207   9.119   0.719  1.00  0.00    -0.354 N 
ATOM     55  N   UNL     1      12.393   5.707   1.766  1.00  0.00    -0.248 NA
ATOM     56  C   UNL     1      13.751   4.222   2.870  1.00  0.00     0.031 C 
ATOM     57  C   UNL     1      10.662   8.528   2.190  1.00  0.00     0.029 A 
ATOM     58  C   UNL     1      12.011   8.425   1.896  1.00  0.00     0.049 A 
ATOM     59  H   UNL     1      13.086   9.279   0.304  1.00  0.00     0.167 HD
ATOM     60  C   UNL     1      13.212   6.460   2.563  1.00  0.00     0.074 A 
ATOM     61  C   UNL     1      14.038   5.481   3.248  1.00  0.00     0.031 C 
ATOM     62  C   UNL     1      13.148   7.824   2.585  1.00  0.00     0.031 A 
BRANCH  49  63
ATOM     63  C   UNL     1      10.290  11.291  -1.658  1.00  0.00    -0.014 A 
ATOM     64  C   UNL     1       9.726  12.172  -0.710  1.00  0.00     0.010 A 
ATOM     65  C   UNL     1      10.075  11.638  -3.008  1.00  0.00     0.010 A 
ATOM     66  C   UNL     1       8.961  13.293  -1.089  1.00  0.00     0.020 A 
ATOM     67  C   UNL     1       9.335  12.761  -3.403  1.00  0.00     0.020 A 
ATOM     68  C   UNL     1       8.760  13.573  -2.440  1.00  0.00     0.054 A 
BRANCH  68  69
ATOM     69  S   UNL     1       7.726  14.975  -2.935  1.00  0.00     0.124 S 
ATOM     70  O   UNL     1       6.409  14.582  -2.440  1.00  0.00    -0.237 OA
ATOM     71  O   UNL     1       8.354  16.096  -2.243  1.00  0.00    -0.237 OA
ATOM     72  O   UNL     1       7.852  15.002  -4.392  1.00  0.00    -0.744 OA
ENDBRANCH  68  69
ENDBRANCH  49  63
BRANCH  50  73
ATOM     73  C   UNL     1      12.664   2.167   0.509  1.00  0.00    -0.014 A 
ATOM     74  C   UNL     1      12.012   0.918   0.592  1.00  0.00     0.010 A 
ATOM     75  C   UNL     1      13.630   2.366  -0.493  1.00  0.00     0.010 A 
ATOM     76  C   UNL     1      12.177  -0.036  -0.414  1.00  0.00     0.020 A 
ATOM     77  C   UNL     1      13.800   1.405  -1.501  1.00  0.00     0.020 A 
ATOM     78  C   UNL     1      13.015   0.247  -1.491  1.00  0.00     0.054 A 
BRANCH  78  79
ATOM     79  S   UNL     1      12.898  -0.816  -2.963  1.00  0.00     0.124 S 
ATOM     80  O   UNL     1      13.214  -2.135  -2.425  1.00  0.00    -0.237 OA
ATOM     81  O   UNL     1      11.505  -0.620  -3.366  1.00  0.00    -0.237 OA
ATOM     82  O   UNL     1      13.892  -0.248  -3.867  1.00  0.00    -0.744 OA
ENDBRANCH  78  79
ENDBRANCH  50  73
BRANCH  62  83
ATOM     83  C   UNL     1      14.113   8.744   3.298  1.00  0.00    -0.014 A 
ATOM     84  C   UNL     1      15.447   8.418   3.591  1.00  0.00     0.010 A 
ATOM     85  C   UNL     1      13.702  10.070   3.578  1.00  0.00     0.010 A 
ATOM     86  C   UNL     1      16.311   9.350   4.187  1.00  0.00     0.020 A 
ATOM     87  C   UNL     1      14.566  11.018   4.133  1.00  0.00     0.020 A 
ATOM     88  C   UNL     1      15.864  10.644   4.457  1.00  0.00     0.054 A 
BRANCH  88  89
ATOM     89  S   UNL     1      17.001  11.867   5.159  1.00  0.00     0.124 S 
ATOM     90  O   UNL     1      16.790  11.688   6.593  1.00  0.00    -0.237 OA
ATOM     91  O   UNL     1      18.304  11.432   4.660  1.00  0.00    -0.237 OA
ATOM     92  O   UNL     1      16.523  13.132   4.606  1.00  0.00    -0.744 OA
ENDBRANCH  88  89
ENDBRANCH  62  83
ENDBRANCH  36  37
ENDBRANCH  28  31
ENDBRANCH  26  27
ENDBRANCH  25  26
ENDBRANCH   1  25
TORSDOF 18
