REMARK SMILES CSc1ccc(C=C2C(C)=C(CC(=O)NCCCNC(=O)c3ccc(-c4c5nc(c(-c6ccc(S(=O)(=O)[O-])cc6)c6ccc([nH]6)c(-c6ccc(S(=O)(=O)[O-])cc6)c6nc(c(-c7ccc(S(=O)(=O)[O-])cc7)c7ccc4[nH]7)C=C6)C=C5)cc3)c3cc(F)ccc32)cc1
REMARK SMILES IDX 17 1 16 2 15 3 13 4 14 5 12 7 11 8 7 9 8 10 9 11 88 12 10 13
REMARK SMILES IDX 82 14 87 15 83 16 86 17 84 18 85 19 6 20 3 21 4 22 90 23
REMARK SMILES IDX 5 24 89 25 2 26 1 27 18 28 19 29 20 30 21 32 22 33 23 34
REMARK SMILES IDX 81 35 24 36 80 37 25 38 26 39 27 40 74 41 28 42 79 43 73 44
REMARK SMILES IDX 75 45 29 46 78 47 72 48 71 49 30 51 60 52 41 53 59 54 42 55
REMARK SMILES IDX 45 56 58 57 76 58 43 59 44 60 57 62 77 63 46 64 31 65 32 66
REMARK SMILES IDX 40 67 33 68 39 69 34 70 35 71 36 72 37 73 38 74 61 75 62 76
REMARK SMILES IDX 70 77 63 78 69 79 64 80 65 81 66 82 67 83 68 84 47 85 48 86
REMARK SMILES IDX 56 87 49 88 55 89 50 90 51 91 52 92 53 93 54 94
REMARK H PARENT 15 6 19 31 75 50 45 61
REMARK Flexibility Score: inf
ROOT
ATOM      1  C   UNL     1       6.532   3.900  -4.857  1.00  0.00     0.042 C 
ENDROOT
BRANCH   1   2
ATOM      2  C   UNL     1       6.082   4.999  -5.809  1.00  0.00     0.117 C 
BRANCH   2   3
ATOM      3  N   UNL     1       6.770   4.926  -7.083  1.00  0.00    -0.356 N 
ATOM      4  C   UNL     1       6.213   4.451  -8.235  1.00  0.00     0.224 C 
ATOM      5  O   UNL     1       6.868   4.411  -9.274  1.00  0.00    -0.275 OA
ATOM      6  H   UNL     1       7.702   5.241  -7.120  1.00  0.00     0.163 HD
BRANCH   4   7
ATOM      7  C   UNL     1       4.793   3.928  -8.117  1.00  0.00     0.136 C 
BRANCH   7   8
ATOM      8  C   UNL     1       4.876   2.700  -7.188  1.00  0.00    -0.027 C 
ATOM      9  C   UNL     1       1.967   2.646  -6.248  1.00  0.00     0.017 C 
ATOM     10  C   UNL     1       2.778   1.914  -7.148  1.00  0.00    -0.014 C 
ATOM     11  C   UNL     1       4.013   2.085  -6.320  1.00  0.00    -0.039 C 
ATOM     12  C   UNL     1       3.796   1.013  -8.163  1.00  0.00    -0.010 A 
ATOM     13  C   UNL     1       4.047   0.668  -5.560  1.00  0.00     0.045 C 
ATOM     14  C   UNL     1       5.080   1.612  -8.075  1.00  0.00    -0.011 A 
ATOM     15  C   UNL     1       3.944  -0.363  -8.413  1.00  0.00     0.012 A 
ATOM     16  C   UNL     1       6.373   1.137  -8.310  1.00  0.00     0.048 A 
ATOM     17  C   UNL     1       5.271  -0.951  -8.581  1.00  0.00     0.040 A 
ATOM     18  C   UNL     1       6.455  -0.195  -8.561  1.00  0.00     0.123 A 
ATOM     19  F   UNL     1       7.665  -0.771  -8.617  1.00  0.00    -0.207 F 
BRANCH   9  20
ATOM     20  C   UNL     1       1.839   2.792  -4.636  1.00  0.00    -0.025 A 
ATOM     21  C   UNL     1       0.868   1.237  -2.511  1.00  0.00     0.007 A 
ATOM     22  C   UNL     1       2.193   1.180  -2.888  1.00  0.00     0.015 A 
ATOM     23  C   UNL     1       0.160   2.363  -2.917  1.00  0.00     0.015 A 
ATOM     24  C   UNL     1       2.702   2.168  -3.740  1.00  0.00     0.009 A 
ATOM     25  C   UNL     1       0.631   3.129  -4.015  1.00  0.00     0.009 A 
BRANCH  21  26
ATOM     26  S   UNL     1       0.083  -0.114  -1.668  1.00  0.00    -0.130 SA
ATOM     27  C   UNL     1       0.900  -0.012  -0.058  1.00  0.00     0.091 C 
ENDBRANCH  21  26
ENDBRANCH   9  20
ENDBRANCH   7   8
ENDBRANCH   4   7
ENDBRANCH   2   3
ENDBRANCH   1   2
BRANCH   1  28
ATOM     28  C   UNL     1       7.977   4.068  -4.461  1.00  0.00     0.118 C 
BRANCH  28  29
ATOM     29  N   UNL     1       8.202   5.391  -3.913  1.00  0.00    -0.352 N 
ATOM     30  C   UNL     1       8.544   5.758  -2.647  1.00  0.00     0.251 C 
ATOM     31  H   UNL     1       8.091   6.134  -4.549  1.00  0.00     0.163 HD
ATOM     32  O   UNL     1       8.347   6.913  -2.284  1.00  0.00    -0.269 OA
BRANCH  30  33
ATOM     33  C   UNL     1       9.157   4.773  -1.743  1.00  0.00     0.039 A 
ATOM     34  C   UNL     1       8.913   4.902  -0.380  1.00  0.00     0.014 A 
ATOM     35  C   UNL     1      10.010   3.770  -2.220  1.00  0.00     0.014 A 
ATOM     36  C   UNL     1       9.536   4.030   0.500  1.00  0.00     0.010 A 
ATOM     37  C   UNL     1      10.514   2.813  -1.352  1.00  0.00     0.010 A 
ATOM     38  C   UNL     1      10.305   2.952   0.022  1.00  0.00    -0.014 A 
BRANCH  38  39
ATOM     39  C   UNL     1      10.847   1.962   0.980  1.00  0.00     0.031 A 
ATOM     40  C   UNL     1      12.323   1.726   1.109  1.00  0.00     0.074 A 
ATOM     41  C   UNL     1       9.976   1.298   1.765  1.00  0.00     0.049 A 
ATOM     42  N   UNL     1      12.949   0.984   1.986  1.00  0.00    -0.248 NA
ATOM     43  C   UNL     1      13.212   2.386   0.139  1.00  0.00     0.031 C 
ATOM     44  C   UNL     1       8.517   1.420   1.691  1.00  0.00     0.029 A 
ATOM     45  N   UNL     1      10.182   0.423   2.799  1.00  0.00    -0.354 N 
ATOM     46  C   UNL     1      14.299   1.092   1.681  1.00  0.00     0.074 A 
ATOM     47  C   UNL     1      14.400   1.922   0.500  1.00  0.00     0.031 C 
ATOM     48  C   UNL     1       7.966   0.722   2.691  1.00  0.00     0.029 A 
ATOM     49  C   UNL     1       9.020   0.032   3.422  1.00  0.00     0.049 A 
ATOM     50  H   UNL     1      11.074   0.106   3.069  1.00  0.00     0.167 HD
ATOM     51  C   UNL     1      15.356   0.559   2.338  1.00  0.00     0.031 A 
ATOM     52  C   UNL     1       8.816  -0.799   4.459  1.00  0.00     0.031 A 
ATOM     53  C   UNL     1      15.238  -0.294   3.494  1.00  0.00     0.049 A 
ATOM     54  C   UNL     1      10.006  -1.427   5.120  1.00  0.00     0.074 A 
ATOM     55  C   UNL     1      16.253  -0.857   4.247  1.00  0.00     0.029 A 
ATOM     56  N   UNL     1      14.043  -0.726   4.052  1.00  0.00    -0.354 N 
ATOM     57  N   UNL     1      11.280  -1.254   4.860  1.00  0.00    -0.248 NA
ATOM     58  C   UNL     1       9.728  -2.353   6.222  1.00  0.00     0.031 C 
ATOM     59  C   UNL     1      15.676  -1.707   5.193  1.00  0.00     0.029 A 
ATOM     60  C   UNL     1      14.299  -1.588   5.109  1.00  0.00     0.049 A 
ATOM     61  H   UNL     1      13.146  -0.461   3.744  1.00  0.00     0.167 HD
ATOM     62  C   UNL     1      11.959  -2.025   5.795  1.00  0.00     0.074 A 
ATOM     63  C   UNL     1      10.952  -2.633   6.641  1.00  0.00     0.031 C 
ATOM     64  C   UNL     1      13.295  -2.210   5.938  1.00  0.00     0.031 A 
BRANCH  51  65
ATOM     65  C   UNL     1      16.735   0.849   1.801  1.00  0.00    -0.014 A 
ATOM     66  C   UNL     1      17.266   2.152   1.794  1.00  0.00     0.010 A 
ATOM     67  C   UNL     1      17.537  -0.215   1.348  1.00  0.00     0.010 A 
ATOM     68  C   UNL     1      18.553   2.390   1.305  1.00  0.00     0.020 A 
ATOM     69  C   UNL     1      18.842   0.011   0.906  1.00  0.00     0.020 A 
ATOM     70  C   UNL     1      19.336   1.315   0.874  1.00  0.00     0.054 A 
BRANCH  70  71
ATOM     71  S   UNL     1      21.024   1.648   0.307  1.00  0.00     0.124 S 
ATOM     72  O   UNL     1      20.790   2.452  -0.890  1.00  0.00    -0.237 OA
ATOM     73  O   UNL     1      21.600   2.364   1.442  1.00  0.00    -0.237 OA
ATOM     74  O   UNL     1      21.579   0.319   0.062  1.00  0.00    -0.744 OA
ENDBRANCH  70  71
ENDBRANCH  51  65
BRANCH  52  75
ATOM     75  C   UNL     1       7.433  -1.112   4.911  1.00  0.00    -0.014 A 
ATOM     76  C   UNL     1       6.999  -0.793   6.210  1.00  0.00     0.010 A 
ATOM     77  C   UNL     1       6.545  -1.763   4.035  1.00  0.00     0.010 A 
ATOM     78  C   UNL     1       5.714  -1.147   6.631  1.00  0.00     0.020 A 
ATOM     79  C   UNL     1       5.244  -2.067   4.433  1.00  0.00     0.020 A 
ATOM     80  C   UNL     1       4.840  -1.767   5.734  1.00  0.00     0.054 A 
BRANCH  80  81
ATOM     81  S   UNL     1       3.150  -2.133   6.271  1.00  0.00     0.124 S 
ATOM     82  O   UNL     1       3.367  -3.133   7.312  1.00  0.00    -0.237 OA
ATOM     83  O   UNL     1       2.685  -0.827   6.731  1.00  0.00    -0.237 OA
ATOM     84  O   UNL     1       2.503  -2.624   5.056  1.00  0.00    -0.744 OA
ENDBRANCH  80  81
ENDBRANCH  52  75
BRANCH  64  85
ATOM     85  C   UNL     1      13.744  -3.069   7.095  1.00  0.00    -0.014 A 
ATOM     86  C   UNL     1      13.371  -4.422   7.204  1.00  0.00     0.010 A 
ATOM     87  C   UNL     1      14.537  -2.501   8.109  1.00  0.00     0.010 A 
ATOM     88  C   UNL     1      13.692  -5.154   8.348  1.00  0.00     0.020 A 
ATOM     89  C   UNL     1      14.921  -3.250   9.222  1.00  0.00     0.020 A 
ATOM     90  C   UNL     1      14.468  -4.563   9.348  1.00  0.00     0.054 A 
BRANCH  90  91
ATOM     91  S   UNL     1      14.888  -5.546  10.810  1.00  0.00     0.124 S 
ATOM     92  O   UNL     1      13.582  -5.741  11.434  1.00  0.00    -0.237 OA
ATOM     93  O   UNL     1      15.488  -6.741  10.220  1.00  0.00    -0.237 OA
ATOM     94  O   UNL     1      15.811  -4.691  11.552  1.00  0.00    -0.744 OA
ENDBRANCH  90  91
ENDBRANCH  64  85
ENDBRANCH  38  39
ENDBRANCH  30  33
ENDBRANCH  28  29
ENDBRANCH   1  28
TORSDOF 16
