REMARK SMILES Cc1cc(C(=O)NCCCNC(=O)c2ccc(-c3c4nc(c(-c5ccc(S(=O)(=O)[O-])cc5)c5ccc([nH]5)c(-c5ccc(S(=O)(=O)[O-])cc5)c5nc(c(-c6ccc(S(=O)(=O)[O-])cc6)c6ccc3[nH]6)C=C5)C=C4)cc2)c(C#Cc2ccccc2)s1
REMARK SMILES IDX 9 1 8 2 7 3 5 4 6 5 4 7 1 8 2 9 3 10 83 11 74 12 75 13 76 14
REMARK SMILES IDX 77 15 78 16 82 17 79 18 81 19 80 20 10 21 11 22 12 23 13 25
REMARK SMILES IDX 14 26 15 27 73 28 16 29 72 30 17 31 18 32 19 33 66 34 20 35
REMARK SMILES IDX 71 36 65 37 67 38 21 39 70 40 64 41 63 42 22 44 52 45 33 46
REMARK SMILES IDX 51 47 34 48 37 49 50 50 68 51 35 52 36 53 49 55 69 56 38 57
REMARK SMILES IDX 23 58 24 59 32 60 25 61 31 62 26 63 27 64 28 65 29 66 30 67
REMARK SMILES IDX 53 68 54 69 62 70 55 71 61 72 56 73 57 74 58 75 59 76 60 77
REMARK SMILES IDX 39 78 40 79 48 80 41 81 47 82 42 83 43 84 44 85 45 86 46 87
REMARK H PARENT 7 6 11 24 67 43 37 54
REMARK Flexibility Score: inf
ROOT
ATOM      1  C   UNL     1      -4.280   1.625   1.387  1.00  0.00     0.042 C 
ENDROOT
BRANCH   1   2
ATOM      2  C   UNL     1      -3.666   2.109   0.067  1.00  0.00     0.118 C 
BRANCH   2   3
ATOM      3  N   UNL     1      -3.090   3.439   0.189  1.00  0.00    -0.352 N 
ATOM      4  C   UNL     1      -1.821   3.963   0.222  1.00  0.00     0.253 C 
ATOM      5  O   UNL     1      -1.789   5.195   0.289  1.00  0.00    -0.269 OA
ATOM      6  H   UNL     1      -3.780   4.136   0.267  1.00  0.00     0.163 HD
BRANCH   4   7
ATOM      7  C   UNL     1      -0.593   3.152   0.160  1.00  0.00     0.066 A 
ATOM      8  C   UNL     1       1.327  -0.142   0.013  1.00  0.00     0.056 C 
ATOM      9  C   UNL     1       0.851   1.271   0.062  1.00  0.00     0.004 A 
ATOM     10  C   UNL     1      -0.439   1.721   0.258  1.00  0.00     0.030 A 
ATOM     11  S   UNL     1       1.930   2.564  -0.124  1.00  0.00    -0.131 S 
ATOM     12  C   UNL     1       0.675   3.725   0.023  1.00  0.00     0.090 A 
BRANCH  12  13
ATOM     13  C   UNL     1       1.017   5.112  -0.012  1.00  0.00    -0.050 C 
ATOM     14  C   UNL     1       1.378   6.267  -0.039  1.00  0.00    -0.061 C 
BRANCH  14  15
ATOM     15  C   UNL     1       1.840   7.616  -0.094  1.00  0.00     0.025 A 
ATOM     16  C   UNL     1       1.001   8.665   0.287  1.00  0.00     0.017 A 
ATOM     17  C   UNL     1       3.132   7.893  -0.549  1.00  0.00     0.017 A 
ATOM     18  C   UNL     1       1.447   9.986   0.198  1.00  0.00     0.001 A 
ATOM     19  C   UNL     1       3.578   9.214  -0.639  1.00  0.00     0.001 A 
ATOM     20  C   UNL     1       2.733  10.260  -0.269  1.00  0.00     0.000 A 
ENDBRANCH  14  15
ENDBRANCH  12  13
ENDBRANCH   4   7
ENDBRANCH   2   3
ENDBRANCH   1   2
BRANCH   1  21
ATOM     21  C   UNL     1      -5.566   2.365   1.767  1.00  0.00     0.118 C 
BRANCH  21  22
ATOM     22  N   UNL     1      -6.594   2.315   0.745  1.00  0.00    -0.352 N 
ATOM     23  C   UNL     1      -7.653   1.508   0.448  1.00  0.00     0.251 C 
ATOM     24  H   UNL     1      -6.505   3.053   0.100  1.00  0.00     0.163 HD
ATOM     25  O   UNL     1      -8.351   1.892  -0.496  1.00  0.00    -0.269 OA
BRANCH  23  26
ATOM     26  C   UNL     1      -7.977   0.206   1.090  1.00  0.00     0.039 A 
ATOM     27  C   UNL     1      -7.335  -0.363   2.190  1.00  0.00     0.014 A 
ATOM     28  C   UNL     1      -8.997  -0.528   0.452  1.00  0.00     0.014 A 
ATOM     29  C   UNL     1      -7.598  -1.691   2.537  1.00  0.00     0.010 A 
ATOM     30  C   UNL     1      -9.278  -1.837   0.809  1.00  0.00     0.010 A 
ATOM     31  C   UNL     1      -8.518  -2.446   1.796  1.00  0.00    -0.014 A 
BRANCH  31  32
ATOM     32  C   UNL     1      -8.788  -3.836   2.159  1.00  0.00     0.031 A 
ATOM     33  C   UNL     1      -9.323  -3.988   3.542  1.00  0.00     0.074 A 
ATOM     34  C   UNL     1      -8.697  -4.869   1.288  1.00  0.00     0.049 A 
ATOM     35  N   UNL     1      -8.765  -4.600   4.532  1.00  0.00    -0.248 NA
ATOM     36  C   UNL     1     -10.532  -3.231   3.918  1.00  0.00     0.031 C 
ATOM     37  C   UNL     1      -8.401  -4.831  -0.148  1.00  0.00     0.029 A 
ATOM     38  N   UNL     1      -8.935  -6.197   1.489  1.00  0.00    -0.354 N 
ATOM     39  C   UNL     1      -9.649  -4.492   5.602  1.00  0.00     0.074 A 
ATOM     40  C   UNL     1     -10.629  -3.508   5.220  1.00  0.00     0.031 C 
ATOM     41  C   UNL     1      -8.732  -6.016  -0.718  1.00  0.00     0.029 A 
ATOM     42  C   UNL     1      -9.116  -6.950   0.326  1.00  0.00     0.049 A 
ATOM     43  H   UNL     1      -8.976  -6.596   2.388  1.00  0.00     0.167 HD
ATOM     44  C   UNL     1      -9.628  -5.383   6.630  1.00  0.00     0.031 A 
ATOM     45  C   UNL     1      -9.556  -8.238   0.226  1.00  0.00     0.031 A 
ATOM     46  C   UNL     1      -8.393  -6.120   6.661  1.00  0.00     0.049 A 
ATOM     47  C   UNL     1      -9.330  -8.864   1.552  1.00  0.00     0.074 A 
ATOM     48  C   UNL     1      -7.071  -5.770   6.839  1.00  0.00     0.029 A 
ATOM     49  N   UNL     1      -8.386  -7.359   6.064  1.00  0.00    -0.354 N 
ATOM     50  N   UNL     1      -8.141  -9.072   2.044  1.00  0.00    -0.248 NA
ATOM     51  C   UNL     1     -10.412  -8.774   2.520  1.00  0.00     0.031 C 
ATOM     52  C   UNL     1      -6.357  -6.565   5.899  1.00  0.00     0.029 A 
ATOM     53  C   UNL     1      -7.260  -7.435   5.283  1.00  0.00     0.049 A 
ATOM     54  H   UNL     1      -9.064  -8.063   6.177  1.00  0.00     0.167 HD
ATOM     55  C   UNL     1      -8.245  -8.684   3.370  1.00  0.00     0.074 A 
ATOM     56  C   UNL     1      -9.684  -8.559   3.619  1.00  0.00     0.031 C 
ATOM     57  C   UNL     1      -7.167  -8.211   4.062  1.00  0.00     0.031 A 
BRANCH  44  58
ATOM     58  C   UNL     1     -10.858  -5.830   7.377  1.00  0.00    -0.014 A 
ATOM     59  C   UNL     1     -12.168  -5.585   6.917  1.00  0.00     0.010 A 
ATOM     60  C   UNL     1     -10.716  -6.739   8.445  1.00  0.00     0.010 A 
ATOM     61  C   UNL     1     -13.283  -6.191   7.499  1.00  0.00     0.020 A 
ATOM     62  C   UNL     1     -11.825  -7.384   9.011  1.00  0.00     0.020 A 
ATOM     63  C   UNL     1     -13.104  -7.094   8.541  1.00  0.00     0.054 A 
BRANCH  63  64
ATOM     64  S   UNL     1     -14.567  -7.900   9.233  1.00  0.00     0.124 S 
ATOM     65  O   UNL     1     -15.263  -6.773   9.851  1.00  0.00    -0.237 OA
ATOM     66  O   UNL     1     -15.206  -8.463   8.048  1.00  0.00    -0.237 OA
ATOM     67  O   UNL     1     -14.012  -8.877  10.166  1.00  0.00    -0.744 OA
ENDBRANCH  63  64
ENDBRANCH  44  58
BRANCH  45  68
ATOM     68  C   UNL     1     -10.586  -8.785  -0.713  1.00  0.00    -0.014 A 
ATOM     69  C   UNL     1     -11.541  -7.917  -1.278  1.00  0.00     0.010 A 
ATOM     70  C   UNL     1     -10.854 -10.172  -0.783  1.00  0.00     0.010 A 
ATOM     71  C   UNL     1     -12.752  -8.395  -1.798  1.00  0.00     0.020 A 
ATOM     72  C   UNL     1     -12.068 -10.662  -1.312  1.00  0.00     0.020 A 
ATOM     73  C   UNL     1     -13.028  -9.761  -1.774  1.00  0.00     0.054 A 
BRANCH  73  74
ATOM     74  S   UNL     1     -14.696 -10.307  -2.258  1.00  0.00     0.124 S 
ATOM     75  O   UNL     1     -15.520  -9.753  -1.187  1.00  0.00    -0.237 OA
ATOM     76  O   UNL     1     -14.868  -9.679  -3.566  1.00  0.00    -0.237 OA
ATOM     77  O   UNL     1     -14.596 -11.764  -2.280  1.00  0.00    -0.744 OA
ENDBRANCH  73  74
ENDBRANCH  45  68
BRANCH  57  78
ATOM     78  C   UNL     1      -5.786  -8.297   3.439  1.00  0.00    -0.014 A 
ATOM     79  C   UNL     1      -4.770  -8.861   4.231  1.00  0.00     0.010 A 
ATOM     80  C   UNL     1      -5.416  -7.660   2.235  1.00  0.00     0.010 A 
ATOM     81  C   UNL     1      -3.427  -8.752   3.870  1.00  0.00     0.020 A 
ATOM     82  C   UNL     1      -4.065  -7.572   1.851  1.00  0.00     0.020 A 
ATOM     83  C   UNL     1      -3.078  -8.097   2.689  1.00  0.00     0.054 A 
BRANCH  83  84
ATOM     84  S   UNL     1      -1.312  -7.931   2.304  1.00  0.00     0.124 S 
ATOM     85  O   UNL     1      -0.859  -6.988   3.325  1.00  0.00    -0.237 OA
ATOM     86  O   UNL     1      -0.820  -9.299   2.458  1.00  0.00    -0.237 OA
ATOM     87  O   UNL     1      -1.292  -7.417   0.936  1.00  0.00    -0.744 OA
ENDBRANCH  83  84
ENDBRANCH  57  78
ENDBRANCH  31  32
ENDBRANCH  23  26
ENDBRANCH  21  22
ENDBRANCH   1  21
TORSDOF 15
