REMARK SMILES CS(=O)(=O)c1ccc(/C=C(/C(=O)NCCCNC(=O)c2ccc(-c3c4nc(c(-c5ccc(S(=O)(=O)[O-])cc5)c5ccc([nH]5)c(-c5ccc(S(=O)(=O)[O-])cc5)c5nc(c(-c6ccc(S(=O)(=O)[O-])cc6)c6ccc3[nH]6)C=C5)C=C4)cc2)c2ccc(-c3ccc(F)cc3F)cc2)cc1
REMARK SMILES IDX 15 1 14 2 13 3 11 4 12 5 10 7 9 8 8 9 5 10 6 11 95 12 7 13
REMARK SMILES IDX 94 14 2 15 1 16 3 17 4 18 80 19 81 20 93 21 82 22 92 23
REMARK SMILES IDX 83 24 84 25 85 26 90 27 86 28 89 29 91 30 87 31 88 32 16 33
REMARK SMILES IDX 17 34 18 35 19 37 20 38 21 39 79 40 22 41 78 42 23 43 24 44
REMARK SMILES IDX 25 45 72 46 26 47 77 48 71 49 73 50 27 51 76 52 70 53 69 54
REMARK SMILES IDX 28 56 58 57 39 58 57 59 40 60 43 61 56 62 74 63 41 64 42 65
REMARK SMILES IDX 55 67 75 68 44 69 29 70 30 71 38 72 31 73 37 74 32 75 33 76
REMARK SMILES IDX 34 77 35 78 36 79 59 80 60 81 68 82 61 83 67 84 62 85 63 86
REMARK SMILES IDX 64 87 65 88 66 89 45 90 46 91 54 92 47 93 53 94 48 95 49 96
REMARK SMILES IDX 50 97 51 98 52 99
REMARK H PARENT 13 6 17 36 73 55 43 66
REMARK Flexibility Score: inf
ROOT
ATOM      1  C   UNL     1       0.882  10.079   0.048  1.00  0.00     0.042 C 
ENDROOT
BRANCH   1   2
ATOM      2  C   UNL     1       2.277   9.452   0.064  1.00  0.00     0.118 C 
BRANCH   2   3
ATOM      3  N   UNL     1       2.771   9.336   1.423  1.00  0.00    -0.352 N 
ATOM      4  C   UNL     1       2.877   8.315   2.310  1.00  0.00     0.251 C 
ATOM      5  O   UNL     1       3.328   8.618   3.418  1.00  0.00    -0.269 OA
ATOM      6  H   UNL     1       3.104  10.190   1.782  1.00  0.00     0.163 HD
BRANCH   4   7
ATOM      7  C   UNL     1       2.563   6.872   1.977  1.00  0.00     0.047 C 
ATOM      8  C   UNL     1       1.557   6.532   1.138  1.00  0.00     0.022 C 
BRANCH   8   9
ATOM      9  C   UNL     1       1.159   5.203   0.623  1.00  0.00    -0.025 A 
ATOM     10  C   UNL     1       0.524   2.719  -0.537  1.00  0.00     0.067 A 
ATOM     11  C   UNL     1       0.788   2.800   0.829  1.00  0.00     0.021 A 
ATOM     12  C   UNL     1       0.527   3.874  -1.322  1.00  0.00     0.021 A 
ATOM     13  C   UNL     1       1.077   4.044   1.405  1.00  0.00     0.009 A 
ATOM     14  C   UNL     1       0.840   5.106  -0.741  1.00  0.00     0.009 A 
BRANCH  10  15
ATOM     15  S   UNL     1       0.215   1.169  -1.348  1.00  0.00     0.175 S 
ATOM     16  C   UNL     1       0.845  -0.107  -0.295  1.00  0.00     0.163 C 
ATOM     17  O   UNL     1       1.030   1.158  -2.547  1.00  0.00    -0.224 OA
ATOM     18  O   UNL     1      -1.226   1.013  -1.415  1.00  0.00    -0.224 OA
ENDBRANCH  10  15
ENDBRANCH   8   9
BRANCH   7  19
ATOM     19  C   UNL     1       3.280   5.841   2.769  1.00  0.00    -0.013 A 
ATOM     20  C   UNL     1       3.051   5.793   4.150  1.00  0.00     0.009 A 
ATOM     21  C   UNL     1       4.114   4.875   2.199  1.00  0.00     0.009 A 
ATOM     22  C   UNL     1       3.615   4.791   4.938  1.00  0.00     0.009 A 
ATOM     23  C   UNL     1       4.654   3.848   2.991  1.00  0.00     0.009 A 
ATOM     24  C   UNL     1       4.404   3.776   4.375  1.00  0.00    -0.015 A 
BRANCH  24  25
ATOM     25  C   UNL     1       4.918   2.681   5.226  1.00  0.00     0.018 A 
ATOM     26  C   UNL     1       4.118   2.145   6.260  1.00  0.00     0.015 A 
ATOM     27  C   UNL     1       6.209   2.144   5.077  1.00  0.00     0.133 A 
ATOM     28  C   UNL     1       4.600   1.150   7.114  1.00  0.00     0.040 A 
ATOM     29  C   UNL     1       6.694   1.145   5.919  1.00  0.00     0.079 A 
ATOM     30  F   UNL     1       7.028   2.598   4.116  1.00  0.00    -0.206 F 
ATOM     31  C   UNL     1       5.886   0.663   6.936  1.00  0.00     0.126 A 
ATOM     32  F   UNL     1       6.352  -0.285   7.759  1.00  0.00    -0.207 F 
ENDBRANCH  24  25
ENDBRANCH   7  19
ENDBRANCH   4   7
ENDBRANCH   2   3
ENDBRANCH   1   2
BRANCH   1  33
ATOM     33  C   UNL     1       0.860  11.536   0.515  1.00  0.00     0.118 C 
BRANCH  33  34
ATOM     34  N   UNL     1       1.586  12.412  -0.392  1.00  0.00    -0.352 N 
ATOM     35  C   UNL     1       1.143  13.484  -1.125  1.00  0.00     0.251 C 
ATOM     36  H   UNL     1       2.542  12.204  -0.496  1.00  0.00     0.163 HD
ATOM     37  O   UNL     1       1.857  13.940  -2.015  1.00  0.00    -0.269 OA
BRANCH  35  38
ATOM     38  C   UNL     1      -0.181  14.087  -0.857  1.00  0.00     0.039 A 
ATOM     39  C   UNL     1      -0.972  14.486  -1.938  1.00  0.00     0.014 A 
ATOM     40  C   UNL     1      -0.622  14.309   0.451  1.00  0.00     0.014 A 
ATOM     41  C   UNL     1      -2.224  15.060  -1.709  1.00  0.00     0.010 A 
ATOM     42  C   UNL     1      -1.898  14.820   0.677  1.00  0.00     0.010 A 
ATOM     43  C   UNL     1      -2.710  15.207  -0.400  1.00  0.00    -0.014 A 
BRANCH  43  44
ATOM     44  C   UNL     1      -4.066  15.756  -0.141  1.00  0.00     0.031 A 
ATOM     45  C   UNL     1      -4.236  17.052   0.604  1.00  0.00     0.074 A 
ATOM     46  C   UNL     1      -5.149  15.043  -0.509  1.00  0.00     0.049 A 
ATOM     47  N   UNL     1      -5.339  17.655   0.969  1.00  0.00    -0.248 NA
ATOM     48  C   UNL     1      -3.006  17.747   1.017  1.00  0.00     0.031 C 
ATOM     49  C   UNL     1      -5.116  13.744  -1.184  1.00  0.00     0.029 A 
ATOM     50  N   UNL     1      -6.487  15.303  -0.352  1.00  0.00    -0.354 N 
ATOM     51  C   UNL     1      -4.938  18.782   1.677  1.00  0.00     0.074 A 
ATOM     52  C   UNL     1      -3.492  18.757   1.724  1.00  0.00     0.031 C 
ATOM     53  C   UNL     1      -6.374  13.326  -1.393  1.00  0.00     0.029 A 
ATOM     54  C   UNL     1      -7.301  14.307  -0.838  1.00  0.00     0.049 A 
ATOM     55  H   UNL     1      -6.831  16.124   0.068  1.00  0.00     0.167 HD
ATOM     56  C   UNL     1      -5.704  19.756   2.228  1.00  0.00     0.031 A 
ATOM     57  C   UNL     1      -8.643  14.187  -0.829  1.00  0.00     0.031 A 
ATOM     58  C   UNL     1      -7.142  19.780   2.167  1.00  0.00     0.049 A 
ATOM     59  C   UNL     1      -9.474  15.291  -0.240  1.00  0.00     0.074 A 
ATOM     60  C   UNL     1      -8.005  20.762   2.620  1.00  0.00     0.029 A 
ATOM     61  N   UNL     1      -7.929  18.773   1.630  1.00  0.00    -0.354 N 
ATOM     62  N   UNL     1      -9.077  16.397   0.343  1.00  0.00    -0.248 NA
ATOM     63  C   UNL     1     -10.933  15.140  -0.323  1.00  0.00     0.031 C 
ATOM     64  C   UNL     1      -9.317  20.323   2.406  1.00  0.00     0.029 A 
ATOM     65  C   UNL     1      -9.270  19.094   1.767  1.00  0.00     0.049 A 
ATOM     66  H   UNL     1      -7.586  17.950   1.213  1.00  0.00     0.167 HD
ATOM     67  C   UNL     1     -10.237  17.083   0.683  1.00  0.00     0.074 A 
ATOM     68  C   UNL     1     -11.350  16.275   0.224  1.00  0.00     0.031 C 
ATOM     69  C   UNL     1     -10.368  18.274   1.317  1.00  0.00     0.031 A 
BRANCH  56  70
ATOM     70  C   UNL     1      -4.994  20.863   2.964  1.00  0.00    -0.014 A 
ATOM     71  C   UNL     1      -4.200  21.805   2.284  1.00  0.00     0.010 A 
ATOM     72  C   UNL     1      -5.132  20.970   4.360  1.00  0.00     0.010 A 
ATOM     73  C   UNL     1      -3.510  22.794   2.991  1.00  0.00     0.020 A 
ATOM     74  C   UNL     1      -4.468  21.977   5.068  1.00  0.00     0.020 A 
ATOM     75  C   UNL     1      -3.642  22.867   4.381  1.00  0.00     0.054 A 
BRANCH  75  76
ATOM     76  S   UNL     1      -2.728  24.153   5.276  1.00  0.00     0.124 S 
ATOM     77  O   UNL     1      -1.363  23.633   5.237  1.00  0.00    -0.237 OA
ATOM     78  O   UNL     1      -2.969  25.343   4.465  1.00  0.00    -0.237 OA
ATOM     79  O   UNL     1      -3.351  24.166   6.597  1.00  0.00    -0.744 OA
ENDBRANCH  75  76
ENDBRANCH  56  70
BRANCH  57  80
ATOM     80  C   UNL     1      -9.269  12.971  -1.414  1.00  0.00    -0.014 A 
ATOM     81  C   UNL     1      -9.924  13.029  -2.656  1.00  0.00     0.010 A 
ATOM     82  C   UNL     1      -9.155  11.732  -0.756  1.00  0.00     0.010 A 
ATOM     83  C   UNL     1     -10.453  11.870  -3.231  1.00  0.00     0.020 A 
ATOM     84  C   UNL     1      -9.660  10.567  -1.340  1.00  0.00     0.020 A 
ATOM     85  C   UNL     1     -10.309  10.644  -2.573  1.00  0.00     0.054 A 
BRANCH  85  86
ATOM     86  S   UNL     1     -10.921   9.139  -3.382  1.00  0.00     0.124 S 
ATOM     87  O   UNL     1     -12.364   9.268  -3.213  1.00  0.00    -0.237 OA
ATOM     88  O   UNL     1     -10.425   9.293  -4.748  1.00  0.00    -0.237 OA
ATOM     89  O   UNL     1     -10.293   8.063  -2.618  1.00  0.00    -0.744 OA
ENDBRANCH  85  86
ENDBRANCH  57  80
BRANCH  69  90
ATOM     90  C   UNL     1     -11.765  18.790   1.540  1.00  0.00    -0.014 A 
ATOM     91  C   UNL     1     -12.612  18.207   2.499  1.00  0.00     0.010 A 
ATOM     92  C   UNL     1     -12.215  19.909   0.816  1.00  0.00     0.010 A 
ATOM     93  C   UNL     1     -13.896  18.717   2.708  1.00  0.00     0.020 A 
ATOM     94  C   UNL     1     -13.489  20.438   1.042  1.00  0.00     0.020 A 
ATOM     95  C   UNL     1     -14.327  19.829   1.978  1.00  0.00     0.054 A 
BRANCH  95  96
ATOM     96  S   UNL     1     -15.982  20.498   2.299  1.00  0.00     0.124 S 
ATOM     97  O   UNL     1     -16.840  19.509   1.653  1.00  0.00    -0.237 OA
ATOM     98  O   UNL     1     -16.041  20.524   3.758  1.00  0.00    -0.237 OA
ATOM     99  O   UNL     1     -15.954  21.811   1.659  1.00  0.00    -0.744 OA
ENDBRANCH  95  96
ENDBRANCH  69  90
ENDBRANCH  43  44
ENDBRANCH  35  38
ENDBRANCH  33  34
ENDBRANCH   1  33
TORSDOF 17
