REMARK SMILES O=C(COc1ccc(/C=C2\SC(=O)N(Cc3cc4c(cc3Cl)OCO4)C2=O)cc1)NCCCNC(=O)c1ccc(-c2c3nc(c(-c4ccc(S(=O)(=O)[O-])cc4)c4ccc([nH]4)c(-c4ccc(S(=O)(=O)[O-])cc4)c4nc(c(-c5ccc(S(=O)(=O)[O-])cc5)c5ccc2[nH]5)C=C4)C=C3)cc1
REMARK SMILES IDX 31 1 30 2 1 3 2 4 3 6 4 7 5 8 6 9 29 10 7 11 28 12 8 13 9 14
REMARK SMILES IDX 10 15 11 16 26 17 12 18 14 19 27 20 13 21 15 22 16 23 17 24
REMARK SMILES IDX 21 25 18 26 20 27 22 28 19 29 25 30 23 31 24 32 32 33 33 34
REMARK SMILES IDX 34 35 35 36 36 38 37 39 38 40 96 41 39 42 95 43 40 44 41 45
REMARK SMILES IDX 42 46 89 47 43 48 94 49 88 50 90 51 44 52 93 53 87 54 86 55
REMARK SMILES IDX 45 57 75 58 56 59 74 60 57 61 60 62 73 63 91 64 58 65 59 66
REMARK SMILES IDX 72 68 92 69 61 70 46 71 47 72 55 73 48 74 54 75 49 76 50 77
REMARK SMILES IDX 51 78 52 79 53 80 76 81 77 82 85 83 78 84 84 85 79 86 80 87
REMARK SMILES IDX 81 88 82 89 83 90 62 91 63 92 71 93 64 94 70 95 65 96 66 97
REMARK SMILES IDX 67 98 68 99 69 100
REMARK H PARENT 30 5 34 37 90 56 60 67
REMARK Flexibility Score: inf
ROOT
ATOM      1  C   UNL     1       2.230   1.476   1.954  1.00  0.00     0.117 C 
ENDROOT
BRANCH   1   2
ATOM      2  N   UNL     1       2.921   0.636   0.997  1.00  0.00    -0.353 N 
ATOM      3  O   UNL     1       1.167  -0.798   0.601  1.00  0.00    -0.271 OA
ATOM      4  C   UNL     1       2.272  -0.360   0.295  1.00  0.00     0.257 C 
ATOM      5  H   UNL     1       3.882   0.779   0.843  1.00  0.00     0.163 HD
BRANCH   4   6
ATOM      6  C   UNL     1       3.029  -0.841  -0.950  1.00  0.00     0.329 C 
BRANCH   6   7
ATOM      7  O   UNL     1       3.930   0.091  -1.553  1.00  0.00    -0.484 OA
BRANCH   7   8
ATOM      8  C   UNL     1       3.331   1.041  -2.338  1.00  0.00     0.120 A 
ATOM      9  C   UNL     1       3.855   1.244  -3.616  1.00  0.00     0.047 A 
ATOM     10  C   UNL     1       2.304   1.865  -1.884  1.00  0.00     0.047 A 
ATOM     11  C   UNL     1       3.327   2.242  -4.448  1.00  0.00     0.012 A 
ATOM     12  C   UNL     1       1.792   2.867  -2.695  1.00  0.00     0.012 A 
ATOM     13  C   UNL     1       2.296   3.060  -3.979  1.00  0.00    -0.024 A 
BRANCH  13  14
ATOM     14  C   UNL     1       1.623   4.058  -4.798  1.00  0.00     0.029 C 
ATOM     15  C   UNL     1       1.679   5.382  -4.618  1.00  0.00     0.083 C 
ATOM     16  S   UNL     1       2.719   6.338  -3.648  1.00  0.00    -0.022 SA
ATOM     17  C   UNL     1       0.719   6.256  -5.319  1.00  0.00     0.268 C 
ATOM     18  C   UNL     1       2.152   7.828  -4.408  1.00  0.00     0.293 C 
ATOM     19  N   UNL     1       1.186   7.542  -5.332  1.00  0.00    -0.264 N 
ATOM     20  O   UNL     1      -0.371   5.866  -5.710  1.00  0.00    -0.268 OA
ATOM     21  O   UNL     1       2.571   8.933  -4.098  1.00  0.00    -0.261 OA
BRANCH  19  22
ATOM     22  C   UNL     1       0.570   8.557  -6.164  1.00  0.00     0.167 C 
BRANCH  22  23
ATOM     23  C   UNL     1       1.250   8.650  -7.522  1.00  0.00    -0.005 A 
ATOM     24  C   UNL     1       2.169   9.697  -7.745  1.00  0.00     0.057 A 
ATOM     25  C   UNL     1       1.020   7.721  -8.574  1.00  0.00     0.050 A 
ATOM     26  C   UNL     1       2.791   9.777  -8.976  1.00  0.00     0.166 A 
ATOM     27  C   UNL     1       1.737   7.777  -9.773  1.00  0.00     0.071 A 
ATOM     28  Cl  UNL     1      -0.221   6.527  -8.528  1.00  0.00    -0.084 Cl
ATOM     29  C   UNL     1       2.598   8.829  -9.950  1.00  0.00     0.167 A 
ATOM     30  O   UNL     1       3.621  10.771  -9.395  1.00  0.00    -0.454 OA
ATOM     31  O   UNL     1       3.296   9.092 -11.086  1.00  0.00    -0.454 OA
ATOM     32  C   UNL     1       3.782  10.415 -10.786  1.00  0.00     0.468 C 
ENDBRANCH  22  23
ENDBRANCH  19  22
ENDBRANCH  13  14
ENDBRANCH   7   8
ENDBRANCH   6   7
ENDBRANCH   4   6
ENDBRANCH   1   2
BRANCH   1  33
ATOM     33  C   UNL     1       2.518   1.114   3.399  1.00  0.00     0.042 C 
BRANCH  33  34
ATOM     34  C   UNL     1       3.987   1.225   3.790  1.00  0.00     0.118 C 
BRANCH  34  35
ATOM     35  N   UNL     1       4.519   2.575   3.669  1.00  0.00    -0.352 N 
ATOM     36  C   UNL     1       5.258   3.321   4.555  1.00  0.00     0.251 C 
ATOM     37  H   UNL     1       4.318   3.025   2.817  1.00  0.00     0.163 HD
ATOM     38  O   UNL     1       5.508   4.493   4.283  1.00  0.00    -0.269 OA
BRANCH  36  39
ATOM     39  C   UNL     1       5.726   2.744   5.838  1.00  0.00     0.039 A 
ATOM     40  C   UNL     1       5.693   3.550   6.980  1.00  0.00     0.014 A 
ATOM     41  C   UNL     1       6.218   1.439   5.927  1.00  0.00     0.014 A 
ATOM     42  C   UNL     1       6.091   3.029   8.213  1.00  0.00     0.010 A 
ATOM     43  C   UNL     1       6.539   0.896   7.171  1.00  0.00     0.010 A 
ATOM     44  C   UNL     1       6.486   1.686   8.327  1.00  0.00    -0.014 A 
BRANCH  44  45
ATOM     45  C   UNL     1       6.833   1.105   9.651  1.00  0.00     0.031 A 
ATOM     46  C   UNL     1       8.228   0.614   9.934  1.00  0.00     0.074 A 
ATOM     47  C   UNL     1       5.877   0.987  10.594  1.00  0.00     0.049 A 
ATOM     48  N   UNL     1       8.712   0.096  11.035  1.00  0.00    -0.248 NA
ATOM     49  C   UNL     1       9.201   0.691   8.832  1.00  0.00     0.031 C 
ATOM     50  C   UNL     1       4.472   1.371  10.430  1.00  0.00     0.029 A 
ATOM     51  N   UNL     1       5.942   0.515  11.882  1.00  0.00    -0.354 N 
ATOM     52  C   UNL     1      10.036  -0.223  10.756  1.00  0.00     0.074 A 
ATOM     53  C   UNL     1      10.265   0.110   9.367  1.00  0.00     0.031 C 
ATOM     54  C   UNL     1       3.819   1.155  11.583  1.00  0.00     0.029 A 
ATOM     55  C   UNL     1       4.747   0.591  12.558  1.00  0.00     0.049 A 
ATOM     56  H   UNL     1       6.766   0.156  12.283  1.00  0.00     0.167 HD
ATOM     57  C   UNL     1      10.982  -0.728  11.584  1.00  0.00     0.031 A 
ATOM     58  C   UNL     1       4.432   0.254  13.823  1.00  0.00     0.031 A 
ATOM     59  C   UNL     1      10.759  -1.049  12.970  1.00  0.00     0.049 A 
ATOM     60  C   UNL     1       5.505  -0.281  14.730  1.00  0.00     0.074 A 
ATOM     61  C   UNL     1      11.669  -1.511  13.905  1.00  0.00     0.029 A 
ATOM     62  N   UNL     1       9.539  -0.941  13.621  1.00  0.00    -0.354 N 
ATOM     63  N   UNL     1       6.769  -0.509  14.466  1.00  0.00    -0.248 NA
ATOM     64  C   UNL     1       5.110  -0.587  16.112  1.00  0.00     0.031 C 
ATOM     65  C   UNL     1      10.990  -1.724  15.110  1.00  0.00     0.029 A 
ATOM     66  C   UNL     1       9.669  -1.343  14.940  1.00  0.00     0.049 A 
ATOM     67  H   UNL     1       8.704  -0.625  13.206  1.00  0.00     0.167 HD
ATOM     68  C   UNL     1       7.328  -0.960  15.657  1.00  0.00     0.074 A 
ATOM     69  C   UNL     1       6.267  -0.956  16.645  1.00  0.00     0.031 C 
ATOM     70  C   UNL     1       8.604  -1.343  15.910  1.00  0.00     0.031 A 
BRANCH  57  71
ATOM     71  C   UNL     1      12.354  -0.963  11.008  1.00  0.00    -0.014 A 
ATOM     72  C   UNL     1      13.191   0.115  10.665  1.00  0.00     0.010 A 
ATOM     73  C   UNL     1      12.829  -2.277  10.839  1.00  0.00     0.010 A 
ATOM     74  C   UNL     1      14.458  -0.116  10.123  1.00  0.00     0.020 A 
ATOM     75  C   UNL     1      14.107  -2.512  10.323  1.00  0.00     0.020 A 
ATOM     76  C   UNL     1      14.906  -1.429   9.951  1.00  0.00     0.054 A 
BRANCH  76  77
ATOM     77  S   UNL     1      16.562  -1.700   9.261  1.00  0.00     0.124 S 
ATOM     78  O   UNL     1      16.355  -1.382   7.850  1.00  0.00    -0.237 OA
ATOM     79  O   UNL     1      17.381  -0.747  10.005  1.00  0.00    -0.237 OA
ATOM     80  O   UNL     1      16.832  -3.107   9.549  1.00  0.00    -0.744 OA
ENDBRANCH  76  77
ENDBRANCH  57  71
BRANCH  58  81
ATOM     81  C   UNL     1       3.042   0.450  14.319  1.00  0.00    -0.014 A 
ATOM     82  C   UNL     1       2.751   1.473  15.238  1.00  0.00     0.010 A 
ATOM     83  C   UNL     1       2.001  -0.378  13.863  1.00  0.00     0.010 A 
ATOM     84  C   UNL     1       1.447   1.653  15.708  1.00  0.00     0.020 A 
ATOM     85  C   UNL     1       0.691  -0.184  14.310  1.00  0.00     0.020 A 
ATOM     86  C   UNL     1       0.424   0.824  15.240  1.00  0.00     0.054 A 
BRANCH  86  87
ATOM     87  S   UNL     1      -1.270   1.109  15.822  1.00  0.00     0.124 S 
ATOM     88  O   UNL     1      -1.225   0.555  17.171  1.00  0.00    -0.237 OA
ATOM     89  O   UNL     1      -1.395   2.562  15.736  1.00  0.00    -0.237 OA
ATOM     90  O   UNL     1      -2.088   0.365  14.865  1.00  0.00    -0.744 OA
ENDBRANCH  86  87
ENDBRANCH  58  81
BRANCH  70  91
ATOM     91  C   UNL     1       8.928  -1.760  17.320  1.00  0.00    -0.014 A 
ATOM     92  C   UNL     1       8.457  -2.975  17.849  1.00  0.00     0.010 A 
ATOM     93  C   UNL     1       9.733  -0.930  18.121  1.00  0.00     0.010 A 
ATOM     94  C   UNL     1       8.745  -3.329  19.169  1.00  0.00     0.020 A 
ATOM     95  C   UNL     1      10.046  -1.294  19.433  1.00  0.00     0.020 A 
ATOM     96  C   UNL     1       9.532  -2.483  19.956  1.00  0.00     0.054 A 
BRANCH  96  97
ATOM     97  S   UNL     1       9.902  -2.967  21.664  1.00  0.00     0.124 S 
ATOM     98  O   UNL     1       8.645  -2.668  22.343  1.00  0.00    -0.237 OA
ATOM     99  O   UNL     1      10.225  -4.386  21.535  1.00  0.00    -0.237 OA
ATOM    100  O   UNL     1      11.028  -2.110  22.030  1.00  0.00    -0.744 OA
ENDBRANCH  96  97
ENDBRANCH  70  91
ENDBRANCH  44  45
ENDBRANCH  36  39
ENDBRANCH  34  35
ENDBRANCH  33  34
ENDBRANCH   1  33
TORSDOF 18
