REMARK SMILES CC[C@](C)(NC(=O)N(C)Cc1cccc(C)c1)C(=O)NCCCNC(=O)c1ccc(-c2c3nc(c(-c4ccc(S(=O)(=O)[O-])cc4)c4ccc([nH]4)c(-c4ccc(S(=O)(=O)[O-])cc4)c4nc(c(-c5ccc(S(=O)(=O)[O-])cc5)c5ccc2[nH]5)C=C4)C=C3)cc1
REMARK SMILES IDX 21 1 20 2 18 3 19 4 3 6 4 7 2 8 1 9 5 10 6 11 7 13 8 14 9 15
REMARK SMILES IDX 10 16 11 17 12 18 17 19 13 20 15 21 14 22 16 23 22 24 23 25
REMARK SMILES IDX 24 26 25 27 26 29 27 30 28 31 86 32 29 33 85 34 30 35 31 36
REMARK SMILES IDX 32 37 79 38 33 39 84 40 78 41 80 42 34 43 83 44 77 45 76 46
REMARK SMILES IDX 35 48 65 49 46 50 64 51 47 52 50 53 63 54 81 55 48 56 49 57
REMARK SMILES IDX 62 59 82 60 51 61 36 62 37 63 45 64 38 65 44 66 39 67 40 68
REMARK SMILES IDX 41 69 42 70 43 71 66 72 67 73 75 74 68 75 74 76 69 77 70 78
REMARK SMILES IDX 71 79 72 80 73 81 52 82 53 83 61 84 54 85 60 86 55 87 56 88
REMARK SMILES IDX 57 89 58 90 59 91
REMARK H PARENT 20 5 5 12 24 28 80 47 50 58
REMARK Flexibility Score: inf
ROOT
ATOM      1  C   UNL     1       2.079   2.892  -4.320  1.00  0.00     0.117 C 
ENDROOT
BRANCH   1   2
ATOM      2  N   UNL     1       2.674   2.142  -3.222  1.00  0.00    -0.354 N 
ATOM      3  C   UNL     1       2.197   1.677  -2.030  1.00  0.00     0.245 C 
ATOM      4  O   UNL     1       2.928   0.875  -1.430  1.00  0.00    -0.272 OA
ATOM      5  H   UNL     1       3.623   1.925  -3.371  1.00  0.00     0.163 HD
BRANCH   3   6
ATOM      6  C   UNL     1       0.776   2.010  -1.459  1.00  0.00     0.117 C 
ATOM      7  C   UNL     1       0.570   1.382  -0.063  1.00  0.00     0.045 C 
BRANCH   6   8
ATOM      8  C   UNL     1      -0.339   1.389  -2.368  1.00  0.00     0.035 C 
ATOM      9  C   UNL     1      -0.363  -0.134  -2.468  1.00  0.00     0.007 C 
ENDBRANCH   6   8
BRANCH   6  10
ATOM     10  N   UNL     1       0.542   3.479  -1.421  1.00  0.00    -0.324 N 
ATOM     11  C   UNL     1       1.203   4.560  -0.944  1.00  0.00     0.318 C 
ATOM     12  H   UNL     1      -0.308   3.728  -1.851  1.00  0.00     0.166 HD
ATOM     13  O   UNL     1       0.708   5.662  -1.193  1.00  0.00    -0.249 OA
BRANCH  11  14
ATOM     14  N   UNL     1       2.424   4.434  -0.350  1.00  0.00    -0.324 N 
ATOM     15  C   UNL     1       2.568   3.716   0.906  1.00  0.00     0.149 C 
BRANCH  14  16
ATOM     16  C   UNL     1       3.398   5.510  -0.602  1.00  0.00     0.156 C 
BRANCH  16  17
ATOM     17  C   UNL     1       4.833   5.125  -0.324  1.00  0.00    -0.028 A 
ATOM     18  C   UNL     1       5.716   6.049   0.251  1.00  0.00     0.005 A 
ATOM     19  C   UNL     1       5.283   3.821  -0.570  1.00  0.00     0.009 A 
ATOM     20  C   UNL     1       6.969   5.634   0.696  1.00  0.00     0.001 A 
ATOM     21  C   UNL     1       6.499   3.375  -0.052  1.00  0.00    -0.051 A 
ATOM     22  C   UNL     1       7.328   4.290   0.601  1.00  0.00     0.003 A 
ATOM     23  C   UNL     1       6.868   1.930  -0.198  1.00  0.00     0.044 C 
ENDBRANCH  16  17
ENDBRANCH  14  16
ENDBRANCH  11  14
ENDBRANCH   6  10
ENDBRANCH   3   6
ENDBRANCH   1   2
BRANCH   1  24
ATOM     24  C   UNL     1       2.347   4.385  -4.284  1.00  0.00     0.042 C 
BRANCH  24  25
ATOM     25  C   UNL     1       3.740   4.767  -4.766  1.00  0.00     0.118 C 
BRANCH  25  26
ATOM     26  N   UNL     1       3.662   5.453  -6.055  1.00  0.00    -0.352 N 
ATOM     27  C   UNL     1       4.450   6.471  -6.554  1.00  0.00     0.251 C 
ATOM     28  H   UNL     1       2.944   5.144  -6.654  1.00  0.00     0.163 HD
ATOM     29  O   UNL     1       4.196   7.054  -7.587  1.00  0.00    -0.269 OA
BRANCH  27  30
ATOM     30  C   UNL     1       5.687   6.762  -5.810  1.00  0.00     0.039 A 
ATOM     31  C   UNL     1       6.877   6.253  -6.340  1.00  0.00     0.014 A 
ATOM     32  C   UNL     1       5.613   7.260  -4.512  1.00  0.00     0.014 A 
ATOM     33  C   UNL     1       7.971   6.082  -5.502  1.00  0.00     0.010 A 
ATOM     34  C   UNL     1       6.679   7.025  -3.665  1.00  0.00     0.010 A 
ATOM     35  C   UNL     1       7.834   6.389  -4.149  1.00  0.00    -0.014 A 
BRANCH  35  36
ATOM     36  C   UNL     1       8.821   6.000  -3.151  1.00  0.00     0.031 A 
ATOM     37  C   UNL     1       9.710   7.023  -2.551  1.00  0.00     0.074 A 
ATOM     38  C   UNL     1       8.868   4.727  -2.698  1.00  0.00     0.049 A 
ATOM     39  N   UNL     1      10.806   6.752  -1.923  1.00  0.00    -0.248 NA
ATOM     40  C   UNL     1       9.473   8.461  -2.670  1.00  0.00     0.031 C 
ATOM     41  C   UNL     1       9.583   4.273  -1.509  1.00  0.00     0.029 A 
ATOM     42  N   UNL     1       8.419   3.538  -3.280  1.00  0.00    -0.354 N 
ATOM     43  C   UNL     1      11.173   7.886  -1.240  1.00  0.00     0.074 A 
ATOM     44  C   UNL     1      10.440   8.948  -1.884  1.00  0.00     0.031 C 
ATOM     45  C   UNL     1       9.743   2.945  -1.569  1.00  0.00     0.029 A 
ATOM     46  C   UNL     1       9.335   2.546  -2.901  1.00  0.00     0.049 A 
ATOM     47  H   UNL     1       7.620   3.421  -3.843  1.00  0.00     0.167 HD
ATOM     48  C   UNL     1      11.904   7.765  -0.094  1.00  0.00     0.031 A 
ATOM     49  C   UNL     1      10.137   1.849  -3.757  1.00  0.00     0.031 A 
ATOM     50  C   UNL     1      12.395   6.394   0.103  1.00  0.00     0.049 A 
ATOM     51  C   UNL     1      11.604   1.987  -3.390  1.00  0.00     0.074 A 
ATOM     52  C   UNL     1      12.136   5.411   1.044  1.00  0.00     0.029 A 
ATOM     53  N   UNL     1      13.137   5.779  -0.907  1.00  0.00    -0.354 N 
ATOM     54  N   UNL     1      12.071   2.967  -2.664  1.00  0.00    -0.248 NA
ATOM     55  C   UNL     1      12.650   1.042  -3.767  1.00  0.00     0.031 C 
ATOM     56  C   UNL     1      12.669   4.184   0.556  1.00  0.00     0.029 A 
ATOM     57  C   UNL     1      13.285   4.428  -0.661  1.00  0.00     0.049 A 
ATOM     58  H   UNL     1      13.506   6.247  -1.691  1.00  0.00     0.167 HD
ATOM     59  C   UNL     1      13.395   2.764  -2.390  1.00  0.00     0.074 A 
ATOM     60  C   UNL     1      13.723   1.562  -3.139  1.00  0.00     0.031 C 
ATOM     61  C   UNL     1      14.090   3.590  -1.551  1.00  0.00     0.031 A 
BRANCH  48  62
ATOM     62  C   UNL     1      11.979   8.836   0.988  1.00  0.00    -0.014 A 
ATOM     63  C   UNL     1      12.663   8.576   2.196  1.00  0.00     0.010 A 
ATOM     64  C   UNL     1      11.319  10.080   0.925  1.00  0.00     0.010 A 
ATOM     65  C   UNL     1      12.659   9.483   3.274  1.00  0.00     0.020 A 
ATOM     66  C   UNL     1      11.326  11.006   1.978  1.00  0.00     0.020 A 
ATOM     67  C   UNL     1      11.982  10.696   3.158  1.00  0.00     0.054 A 
BRANCH  67  68
ATOM     68  S   UNL     1      11.946  11.854   4.551  1.00  0.00     0.124 S 
ATOM     69  O   UNL     1      11.152  11.128   5.538  1.00  0.00    -0.237 OA
ATOM     70  O   UNL     1      13.361  12.016   4.870  1.00  0.00    -0.237 OA
ATOM     71  O   UNL     1      11.300  13.043   3.995  1.00  0.00    -0.744 OA
ENDBRANCH  67  68
ENDBRANCH  48  62
BRANCH  49  72
ATOM     72  C   UNL     1       9.569   1.674  -5.119  1.00  0.00    -0.014 A 
ATOM     73  C   UNL     1       8.464   0.802  -5.243  1.00  0.00     0.010 A 
ATOM     74  C   UNL     1       9.781   2.645  -6.112  1.00  0.00     0.010 A 
ATOM     75  C   UNL     1       7.502   1.007  -6.235  1.00  0.00     0.020 A 
ATOM     76  C   UNL     1       8.817   2.849  -7.113  1.00  0.00     0.020 A 
ATOM     77  C   UNL     1       7.656   2.068  -7.127  1.00  0.00     0.054 A 
BRANCH  77  78
ATOM     78  S   UNL     1       6.223   2.532  -8.148  1.00  0.00     0.124 S 
ATOM     79  O   UNL     1       6.091   1.385  -9.040  1.00  0.00    -0.237 OA
ATOM     80  O   UNL     1       5.164   2.673  -7.148  1.00  0.00    -0.237 OA
ATOM     81  O   UNL     1       6.648   3.777  -8.780  1.00  0.00    -0.744 OA
ENDBRANCH  77  78
ENDBRANCH  49  72
BRANCH  61  82
ATOM     82  C   UNL     1      15.595   3.657  -1.398  1.00  0.00    -0.014 A 
ATOM     83  C   UNL     1      16.511   3.089  -2.296  1.00  0.00     0.010 A 
ATOM     84  C   UNL     1      16.139   4.471  -0.371  1.00  0.00     0.010 A 
ATOM     85  C   UNL     1      17.893   3.293  -2.158  1.00  0.00     0.020 A 
ATOM     86  C   UNL     1      17.509   4.716  -0.249  1.00  0.00     0.020 A 
ATOM     87  C   UNL     1      18.383   4.109  -1.139  1.00  0.00     0.054 A 
BRANCH  87  88
ATOM     88  S   UNL     1      20.158   4.450  -1.041  1.00  0.00     0.124 S 
ATOM     89  O   UNL     1      20.644   3.301  -0.282  1.00  0.00    -0.237 OA
ATOM     90  O   UNL     1      20.560   4.488  -2.446  1.00  0.00    -0.237 OA
ATOM     91  O   UNL     1      20.224   5.734  -0.349  1.00  0.00    -0.744 OA
ENDBRANCH  87  88
ENDBRANCH  61  82
ENDBRANCH  35  36
ENDBRANCH  27  30
ENDBRANCH  25  26
ENDBRANCH  24  25
ENDBRANCH   1  24
TORSDOF 18
