REMARK SMILES CC(C)C[C@H](NC(=O)[C@@H](NC(=O)N1CC(NCCCNC(=O)c2ccc(-c3c4nc(c(-c5ccc(S(=O)(=O)[O-])cc5)c5ccc([nH]5)c(-c5ccc(S(=O)(=O)[O-])cc5)c5nc(c(-c6ccc(S(=O)(=O)[O-])cc6)c6ccc3[nH]6)C=C5)C=C4)cc2)=[NH+]c2ccccc21)C(C)C)C(=O)[O-]
REMARK SMILES IDX 17 1 16 2 13 3 14 4 89 5 15 6 84 7 88 8 83 9 85 10 87 11
REMARK SMILES IDX 86 14 11 15 10 16 12 18 9 19 7 20 6 21 8 23 5 24 4 25 2 26
REMARK SMILES IDX 1 27 3 28 93 29 94 30 95 31 90 32 91 33 92 34 18 35 19 36
REMARK SMILES IDX 20 37 21 38 22 40 23 41 24 42 82 43 25 44 81 45 26 46 27 47
REMARK SMILES IDX 28 48 75 49 29 50 80 51 74 52 76 53 30 54 79 55 73 56 72 57
REMARK SMILES IDX 31 59 61 60 42 61 60 62 43 63 46 64 59 65 77 66 44 67 45 68
REMARK SMILES IDX 58 70 78 71 47 72 32 73 33 74 41 75 34 76 40 77 35 78 36 79
REMARK SMILES IDX 37 80 38 81 39 82 62 83 63 84 71 85 64 86 70 87 65 88 66 89
REMARK SMILES IDX 67 90 68 91 69 92 48 93 49 94 57 95 50 96 56 97 51 98 52 99
REMARK SMILES IDX 53 100 54 101 55 102
REMARK H PARENT 16 12 83 13 10 17 6 22 20 39 76 58 46 69
REMARK Flexibility Score: inf
ROOT
ATOM      1  C   UNL     1      -1.544  -3.651  -4.110  1.00  0.00     0.235 C 
ENDROOT
BRANCH   1   2
ATOM      2  N   UNL     1      -0.323  -4.069  -3.436  1.00  0.00    -0.277 N 
ATOM      3  N   UNL     1      -0.444  -5.532  -0.087  1.00  0.00    -0.278 N 
ATOM      4  C   UNL     1      -0.980  -5.744  -1.484  1.00  0.00     0.255 C 
ATOM      5  C   UNL     1       0.885  -6.031   0.008  1.00  0.00     0.093 A 
ATOM      6  C   UNL     1      -0.009  -5.029  -2.468  1.00  0.00     0.268 C 
ATOM      7  C   UNL     1       1.711  -5.908  -1.136  1.00  0.00     0.148 A 
ATOM      8  C   UNL     1       1.351  -6.678   1.157  1.00  0.00     0.031 A 
ATOM      9  N   UNL     1       1.281  -5.254  -2.322  1.00  0.00    -0.241 N 
ATOM     10  C   UNL     1       3.049  -6.288  -1.029  1.00  0.00     0.054 A 
ATOM     11  C   UNL     1       2.676  -7.103   1.222  1.00  0.00     0.002 A 
ATOM     12  H   UNL     1       0.465  -3.558  -3.731  1.00  0.00     0.304 HD
ATOM     13  H   UNL     1       1.927  -4.977  -3.012  1.00  0.00     0.312 HD
ATOM     14  C   UNL     1       3.535  -6.866   0.149  1.00  0.00     0.005 A 
BRANCH   3  15
ATOM     15  C   UNL     1      -1.254  -5.309   0.994  1.00  0.00     0.323 C 
ATOM     16  N   UNL     1      -0.917  -4.564   2.094  1.00  0.00    -0.326 N 
ATOM     17  H   UNL     1      -1.093  -5.121   2.886  1.00  0.00     0.166 HD
ATOM     18  O   UNL     1      -2.371  -5.842   1.036  1.00  0.00    -0.248 OA
BRANCH  16  19
ATOM     19  C   UNL     1      -0.370  -3.199   2.605  1.00  0.00     0.175 C 
BRANCH  19  20
ATOM     20  C   UNL     1      -1.485  -2.130   2.921  1.00  0.00     0.243 C 
ATOM     21  N   UNL     1      -1.745  -0.943   2.330  1.00  0.00    -0.346 N 
ATOM     22  H   UNL     1      -1.994  -0.284   3.018  1.00  0.00     0.164 HD
ATOM     23  O   UNL     1      -2.208  -2.350   3.911  1.00  0.00    -0.273 OA
BRANCH  21  24
ATOM     24  C   UNL     1      -1.783  -0.298   0.998  1.00  0.00     0.128 C 
BRANCH  24  25
ATOM     25  C   UNL     1      -0.696  -0.595  -0.020  1.00  0.00     0.034 C 
BRANCH  25  26
ATOM     26  C   UNL     1      -0.720  -1.934  -0.740  1.00  0.00    -0.015 C 
ATOM     27  C   UNL     1      -1.991  -2.745  -0.510  1.00  0.00     0.007 C 
ATOM     28  C   UNL     1       0.617  -2.631  -0.573  1.00  0.00     0.007 C 
ENDBRANCH  25  26
ENDBRANCH  24  25
BRANCH  24  29
ATOM     29  C   UNL     1      -3.204  -0.306   0.373  1.00  0.00     0.064 C 
ATOM     30  O   UNL     1      -3.501   0.066  -0.732  1.00  0.00    -0.548 OA
ATOM     31  O   UNL     1      -4.142  -0.807   1.215  1.00  0.00    -0.548 OA
ENDBRANCH  24  29
ENDBRANCH  21  24
ENDBRANCH  19  20
BRANCH  19  32
ATOM     32  C   UNL     1       1.118  -2.671   2.572  1.00  0.00     0.015 C 
ATOM     33  C   UNL     1       1.299  -1.237   3.129  1.00  0.00     0.010 C 
ATOM     34  C   UNL     1       2.084  -3.564   3.365  1.00  0.00     0.010 C 
ENDBRANCH  19  32
ENDBRANCH  16  19
ENDBRANCH   3  15
ENDBRANCH   1   2
BRANCH   1  35
ATOM     35  C   UNL     1      -1.957  -2.150  -4.018  1.00  0.00     0.067 C 
BRANCH  35  36
ATOM     36  C   UNL     1      -0.989  -1.001  -4.380  1.00  0.00     0.120 C 
BRANCH  36  37
ATOM     37  N   UNL     1      -0.847  -0.774  -5.811  1.00  0.00    -0.352 N 
ATOM     38  C   UNL     1      -1.240   0.236  -6.662  1.00  0.00     0.251 C 
ATOM     39  H   UNL     1      -0.366  -1.500  -6.270  1.00  0.00     0.163 HD
ATOM     40  O   UNL     1      -1.076   0.034  -7.869  1.00  0.00    -0.269 OA
BRANCH  38  41
ATOM     41  C   UNL     1      -1.854   1.537  -6.251  1.00  0.00     0.039 A 
ATOM     42  C   UNL     1      -2.843   2.079  -7.092  1.00  0.00     0.014 A 
ATOM     43  C   UNL     1      -1.404   2.319  -5.184  1.00  0.00     0.014 A 
ATOM     44  C   UNL     1      -3.408   3.343  -6.843  1.00  0.00     0.010 A 
ATOM     45  C   UNL     1      -1.993   3.578  -4.917  1.00  0.00     0.010 A 
ATOM     46  C   UNL     1      -3.012   4.103  -5.733  1.00  0.00    -0.014 A 
BRANCH  46  47
ATOM     47  C   UNL     1      -3.697   5.398  -5.404  1.00  0.00     0.031 A 
ATOM     48  C   UNL     1      -2.978   6.726  -5.476  1.00  0.00     0.074 A 
ATOM     49  C   UNL     1      -4.988   5.389  -5.002  1.00  0.00     0.049 A 
ATOM     50  N   UNL     1      -3.418   7.924  -5.168  1.00  0.00    -0.248 NA
ATOM     51  C   UNL     1      -1.587   6.706  -5.947  1.00  0.00     0.031 C 
ATOM     52  C   UNL     1      -5.823   4.193  -4.875  1.00  0.00     0.029 A 
ATOM     53  N   UNL     1      -5.823   6.414  -4.618  1.00  0.00    -0.354 N 
ATOM     54  C   UNL     1      -2.358   8.797  -5.392  1.00  0.00     0.074 A 
ATOM     55  C   UNL     1      -1.244   7.984  -5.837  1.00  0.00     0.031 C 
ATOM     56  C   UNL     1      -7.047   4.551  -4.455  1.00  0.00     0.029 A 
ATOM     57  C   UNL     1      -7.080   5.996  -4.242  1.00  0.00     0.049 A 
ATOM     58  H   UNL     1      -5.548   7.359  -4.613  1.00  0.00     0.167 HD
ATOM     59  C   UNL     1      -2.310  10.147  -5.249  1.00  0.00     0.031 A 
ATOM     60  C   UNL     1      -8.140   6.680  -3.763  1.00  0.00     0.031 A 
ATOM     61  C   UNL     1      -3.412  10.972  -4.814  1.00  0.00     0.049 A 
ATOM     62  C   UNL     1      -8.053   8.172  -3.584  1.00  0.00     0.074 A 
ATOM     63  C   UNL     1      -3.454  12.351  -4.681  1.00  0.00     0.029 A 
ATOM     64  N   UNL     1      -4.661  10.502  -4.440  1.00  0.00    -0.354 N 
ATOM     65  N   UNL     1      -7.049   8.975  -3.838  1.00  0.00    -0.248 NA
ATOM     66  C   UNL     1      -9.249   8.850  -3.061  1.00  0.00     0.031 C 
ATOM     67  C   UNL     1      -4.712  12.711  -4.184  1.00  0.00     0.029 A 
ATOM     68  C   UNL     1      -5.472  11.561  -4.057  1.00  0.00     0.049 A 
ATOM     69  H   UNL     1      -4.933   9.556  -4.446  1.00  0.00     0.167 HD
ATOM     70  C   UNL     1      -7.502  10.254  -3.531  1.00  0.00     0.074 A 
ATOM     71  C   UNL     1      -8.873  10.121  -3.086  1.00  0.00     0.031 C 
ATOM     72  C   UNL     1      -6.837  11.432  -3.614  1.00  0.00     0.031 A 
BRANCH  59  73
ATOM     73  C   UNL     1      -1.006  10.841  -5.558  1.00  0.00    -0.014 A 
ATOM     74  C   UNL     1      -0.560  10.990  -6.884  1.00  0.00     0.010 A 
ATOM     75  C   UNL     1      -0.253  11.415  -4.516  1.00  0.00     0.010 A 
ATOM     76  C   UNL     1       0.635  11.664  -7.158  1.00  0.00     0.020 A 
ATOM     77  C   UNL     1       0.930  12.110  -4.788  1.00  0.00     0.020 A 
ATOM     78  C   UNL     1       1.375  12.215  -6.107  1.00  0.00     0.054 A 
BRANCH  78  79
ATOM     79  S   UNL     1       2.913  13.099  -6.494  1.00  0.00     0.124 S 
ATOM     80  O   UNL     1       3.817  11.999  -6.821  1.00  0.00    -0.237 OA
ATOM     81  O   UNL     1       2.523  13.946  -7.618  1.00  0.00    -0.237 OA
ATOM     82  O   UNL     1       3.223  13.813  -5.258  1.00  0.00    -0.744 OA
ENDBRANCH  78  79
ENDBRANCH  59  73
BRANCH  60  83
ATOM     83  C   UNL     1      -9.392   5.956  -3.405  1.00  0.00    -0.014 A 
ATOM     84  C   UNL     1     -10.553   6.104  -4.184  1.00  0.00     0.010 A 
ATOM     85  C   UNL     1      -9.430   5.121  -2.273  1.00  0.00     0.010 A 
ATOM     86  C   UNL     1     -11.734   5.447  -3.828  1.00  0.00     0.020 A 
ATOM     87  C   UNL     1     -10.601   4.440  -1.929  1.00  0.00     0.020 A 
ATOM     88  C   UNL     1     -11.750   4.618  -2.702  1.00  0.00     0.054 A 
BRANCH  88  89
ATOM     89  S   UNL     1     -13.280   3.736  -2.282  1.00  0.00     0.124 S 
ATOM     90  O   UNL     1     -14.089   4.797  -1.691  1.00  0.00    -0.237 OA
ATOM     91  O   UNL     1     -13.730   3.245  -3.582  1.00  0.00    -0.237 OA
ATOM     92  O   UNL     1     -12.830   2.699  -1.356  1.00  0.00    -0.744 OA
ENDBRANCH  88  89
ENDBRANCH  60  83
BRANCH  72  93
ATOM     93  C   UNL     1      -7.590  12.686  -3.251  1.00  0.00    -0.014 A 
ATOM     94  C   UNL     1      -7.900  12.990  -1.913  1.00  0.00     0.010 A 
ATOM     95  C   UNL     1      -7.956  13.595  -4.260  1.00  0.00     0.010 A 
ATOM     96  C   UNL     1      -8.590  14.164  -1.595  1.00  0.00     0.020 A 
ATOM     97  C   UNL     1      -8.624  14.782  -3.944  1.00  0.00     0.020 A 
ATOM     98  C   UNL     1      -8.950  15.052  -2.614  1.00  0.00     0.054 A 
BRANCH  98  99
ATOM     99  S   UNL     1      -9.810  16.589  -2.174  1.00  0.00     0.124 S 
ATOM    100  O   UNL     1     -11.160  16.112  -1.889  1.00  0.00    -0.237 OA
ATOM    101  O   UNL     1      -9.053  17.061  -1.016  1.00  0.00    -0.237 OA
ATOM    102  O   UNL     1      -9.680  17.414  -3.373  1.00  0.00    -0.744 OA
ENDBRANCH  98  99
ENDBRANCH  72  93
ENDBRANCH  46  47
ENDBRANCH  38  41
ENDBRANCH  36  37
ENDBRANCH  35  36
ENDBRANCH   1  35
TORSDOF 20
