REMARK SMILES CC[C@H]1CC[C@@](C(=O)NCCCNC(=O)c2ccc(-c3c4nc(c(-c5ccc(S(=O)(=O)[O-])cc5)c5ccc([nH]5)c(-c5ccc(S(=O)(=O)[O-])cc5)c5nc(c(-c6ccc(S(=O)(=O)[O-])cc6)c6ccc3[nH]6)C=C5)C=C4)cc2)(C2CCCC2)C1
REMARK SMILES IDX 12 1 11 2 10 3 9 4 7 5 8 6 6 8 3 9 4 10 81 11 5 12 2 13 1 14
REMARK SMILES IDX 76 15 77 16 80 17 78 18 79 19 13 20 14 21 15 23 16 24 17 25
REMARK SMILES IDX 75 26 18 27 74 28 19 29 20 30 21 31 68 32 22 33 73 34 67 35
REMARK SMILES IDX 69 36 23 37 72 38 66 39 65 40 24 42 54 43 35 44 53 45 36 46
REMARK SMILES IDX 39 47 52 48 70 49 37 50 38 51 51 53 71 54 40 55 25 56 26 57
REMARK SMILES IDX 34 58 27 59 33 60 28 61 29 62 30 63 31 64 32 65 55 66 56 67
REMARK SMILES IDX 64 68 57 69 63 70 58 71 59 72 60 73 61 74 62 75 41 76 42 77
REMARK SMILES IDX 50 78 43 79 49 80 44 81 45 82 46 83 47 84 48 85
REMARK H PARENT 9 7 13 22 69 41 39 52
REMARK Flexibility Score: inf
ROOT
ATOM      1  C   UNL     1      -4.223   5.213  -2.314  1.00  0.00     0.118 C 
ENDROOT
BRANCH   1   2
ATOM      2  C   UNL     1      -2.946   4.736  -1.625  1.00  0.00     0.042 C 
BRANCH   2   3
ATOM      3  C   UNL     1      -2.502   3.334  -2.027  1.00  0.00     0.117 C 
BRANCH   3   4
ATOM      4  N   UNL     1      -2.141   3.242  -3.425  1.00  0.00    -0.356 N 
ATOM      5  C   UNL     1      -0.973   3.077  -4.090  1.00  0.00     0.226 C 
ATOM      6  O   UNL     1      -1.113   2.956  -5.314  1.00  0.00    -0.274 OA
ATOM      7  H   UNL     1      -2.917   3.315  -4.027  1.00  0.00     0.163 HD
BRANCH   5   8
ATOM      8  C   UNL     1       0.439   2.996  -3.422  1.00  0.00     0.052 C 
ATOM      9  C   UNL     1       0.793   2.235  -1.055  1.00  0.00    -0.010 C 
ATOM     10  C   UNL     1       0.819   3.761  -1.076  1.00  0.00     0.005 C 
ATOM     11  C   UNL     1       0.523   1.759  -2.490  1.00  0.00     0.020 C 
ATOM     12  C   UNL     1       0.747   4.213  -2.529  1.00  0.00     0.017 C 
BRANCH   9  13
ATOM     13  C   UNL     1       1.991   1.585  -0.341  1.00  0.00     0.000 C 
ATOM     14  C   UNL     1       3.375   1.886  -0.890  1.00  0.00     0.004 C 
ENDBRANCH   9  13
BRANCH   8  15
ATOM     15  C   UNL     1       1.481   2.870  -4.606  1.00  0.00     0.004 C 
ATOM     16  C   UNL     1       1.660   4.129  -5.475  1.00  0.00     0.005 C 
ATOM     17  C   UNL     1       2.928   2.558  -4.214  1.00  0.00     0.005 C 
ATOM     18  C   UNL     1       2.926   3.856  -6.279  1.00  0.00     0.000 C 
ATOM     19  C   UNL     1       3.786   2.947  -5.412  1.00  0.00     0.000 C 
ENDBRANCH   8  15
ENDBRANCH   5   8
ENDBRANCH   3   4
ENDBRANCH   2   3
ENDBRANCH   1   2
BRANCH   1  20
ATOM     20  N   UNL     1      -5.384   4.396  -1.982  1.00  0.00    -0.352 N 
ATOM     21  C   UNL     1      -6.571   4.741  -1.388  1.00  0.00     0.251 C 
ATOM     22  H   UNL     1      -5.303   3.445  -2.222  1.00  0.00     0.163 HD
ATOM     23  O   UNL     1      -7.344   3.845  -1.033  1.00  0.00    -0.269 OA
BRANCH  21  24
ATOM     24  C   UNL     1      -6.928   6.156  -1.151  1.00  0.00     0.039 A 
ATOM     25  C   UNL     1      -7.546   6.501   0.054  1.00  0.00     0.014 A 
ATOM     26  C   UNL     1      -6.692   7.138  -2.117  1.00  0.00     0.014 A 
ATOM     27  C   UNL     1      -7.864   7.836   0.318  1.00  0.00     0.010 A 
ATOM     28  C   UNL     1      -6.941   8.479  -1.823  1.00  0.00     0.010 A 
ATOM     29  C   UNL     1      -7.529   8.843  -0.603  1.00  0.00    -0.014 A 
BRANCH  29  30
ATOM     30  C   UNL     1      -7.769  10.277  -0.292  1.00  0.00     0.031 A 
ATOM     31  C   UNL     1      -8.726  11.092  -1.121  1.00  0.00     0.074 A 
ATOM     32  C   UNL     1      -7.077  10.862   0.706  1.00  0.00     0.049 A 
ATOM     33  N   UNL     1      -9.030  12.361  -1.016  1.00  0.00    -0.248 NA
ATOM     34  C   UNL     1      -9.412  10.400  -2.223  1.00  0.00     0.031 C 
ATOM     35  C   UNL     1      -6.085  10.194   1.554  1.00  0.00     0.029 A 
ATOM     36  N   UNL     1      -7.098  12.151   1.177  1.00  0.00    -0.354 N 
ATOM     37  C   UNL     1      -9.929  12.623  -2.045  1.00  0.00     0.074 A 
ATOM     38  C   UNL     1     -10.084  11.392  -2.790  1.00  0.00     0.031 C 
ATOM     39  C   UNL     1      -5.617  11.070   2.457  1.00  0.00     0.029 A 
ATOM     40  C   UNL     1      -6.242  12.369   2.231  1.00  0.00     0.049 A 
ATOM     41  H   UNL     1      -7.673  12.854   0.795  1.00  0.00     0.167 HD
ATOM     42  C   UNL     1     -10.580  13.775  -2.332  1.00  0.00     0.031 A 
ATOM     43  C   UNL     1      -5.984  13.487   2.936  1.00  0.00     0.031 A 
ATOM     44  C   UNL     1     -10.432  14.997  -1.584  1.00  0.00     0.049 A 
ATOM     45  C   UNL     1      -6.721  14.754   2.599  1.00  0.00     0.074 A 
ATOM     46  C   UNL     1     -11.090  16.201  -1.763  1.00  0.00     0.029 A 
ATOM     47  N   UNL     1      -9.564  15.172  -0.517  1.00  0.00    -0.354 N 
ATOM     48  N   UNL     1      -7.617  14.961   1.664  1.00  0.00    -0.248 NA
ATOM     49  C   UNL     1      -6.421  15.933   3.423  1.00  0.00     0.031 C 
ATOM     50  C   UNL     1     -10.585  17.119  -0.835  1.00  0.00     0.029 A 
ATOM     51  C   UNL     1      -9.654  16.470  -0.041  1.00  0.00     0.049 A 
ATOM     52  H   UNL     1      -8.971  14.476  -0.151  1.00  0.00     0.167 HD
ATOM     53  C   UNL     1      -8.006  16.289   1.803  1.00  0.00     0.074 A 
ATOM     54  C   UNL     1      -7.262  16.828   2.923  1.00  0.00     0.031 C 
ATOM     55  C   UNL     1      -8.902  16.996   1.070  1.00  0.00     0.031 A 
BRANCH  42  56
ATOM     56  C   UNL     1     -11.515  13.771  -3.515  1.00  0.00    -0.014 A 
ATOM     57  C   UNL     1     -12.729  13.061  -3.479  1.00  0.00     0.010 A 
ATOM     58  C   UNL     1     -11.196  14.520  -4.663  1.00  0.00     0.010 A 
ATOM     59  C   UNL     1     -13.585  13.064  -4.583  1.00  0.00     0.020 A 
ATOM     60  C   UNL     1     -12.064  14.549  -5.759  1.00  0.00     0.020 A 
ATOM     61  C   UNL     1     -13.245  13.805  -5.718  1.00  0.00     0.054 A 
BRANCH  61  62
ATOM     62  S   UNL     1     -14.385  13.807  -7.130  1.00  0.00     0.124 S 
ATOM     63  O   UNL     1     -14.182  12.469  -7.681  1.00  0.00    -0.237 OA
ATOM     64  O   UNL     1     -15.681  14.035  -6.495  1.00  0.00    -0.237 OA
ATOM     65  O   UNL     1     -13.902  14.904  -7.965  1.00  0.00    -0.744 OA
ENDBRANCH  61  62
ENDBRANCH  42  56
BRANCH  43  66
ATOM     66  C   UNL     1      -4.994  13.451   4.047  1.00  0.00    -0.014 A 
ATOM     67  C   UNL     1      -5.419  13.539   5.385  1.00  0.00     0.010 A 
ATOM     68  C   UNL     1      -3.621  13.311   3.774  1.00  0.00     0.010 A 
ATOM     69  C   UNL     1      -4.489  13.505   6.427  1.00  0.00     0.020 A 
ATOM     70  C   UNL     1      -2.691  13.248   4.815  1.00  0.00     0.020 A 
ATOM     71  C   UNL     1      -3.130  13.357   6.135  1.00  0.00     0.054 A 
BRANCH  71  72
ATOM     72  S   UNL     1      -1.945  13.259   7.506  1.00  0.00     0.124 S 
ATOM     73  O   UNL     1      -1.883  14.646   7.954  1.00  0.00    -0.237 OA
ATOM     74  O   UNL     1      -2.598  12.326   8.422  1.00  0.00    -0.237 OA
ATOM     75  O   UNL     1      -0.732  12.749   6.872  1.00  0.00    -0.744 OA
ENDBRANCH  71  72
ENDBRANCH  43  66
BRANCH  55  76
ATOM     76  C   UNL     1      -9.147  18.425   1.475  1.00  0.00    -0.014 A 
ATOM     77  C   UNL     1      -8.182  19.423   1.253  1.00  0.00     0.010 A 
ATOM     78  C   UNL     1     -10.380  18.779   2.055  1.00  0.00     0.010 A 
ATOM     79  C   UNL     1      -8.430  20.743   1.641  1.00  0.00     0.020 A 
ATOM     80  C   UNL     1     -10.642  20.103   2.417  1.00  0.00     0.020 A 
ATOM     81  C   UNL     1      -9.657  21.074   2.224  1.00  0.00     0.054 A 
BRANCH  81  82
ATOM     82  S   UNL     1      -9.966  22.798   2.693  1.00  0.00     0.124 S 
ATOM     83  O   UNL     1      -9.153  22.935   3.898  1.00  0.00    -0.237 OA
ATOM     84  O   UNL     1      -9.490  23.539   1.527  1.00  0.00    -0.237 OA
ATOM     85  O   UNL     1     -11.410  22.846   2.907  1.00  0.00    -0.744 OA
ENDBRANCH  81  82
ENDBRANCH  55  76
ENDBRANCH  29  30
ENDBRANCH  21  24
ENDBRANCH   1  20
TORSDOF 15
