REMARK SMILES CC[C@H](O)C[C@@H](Cc1ccccc1OC)C(=O)NCCCNC(=O)c1ccc(-c2c3nc(c(-c4ccc(S(=O)(=O)[O-])cc4)c4ccc([nH]4)c(-c4ccc(S(=O)(=O)[O-])cc4)c4nc(c(-c5ccc(S(=O)(=O)[O-])cc5)c5ccc2[nH]5)C=C4)C=C3)cc1
REMARK SMILES IDX 20 1 19 2 18 3 16 4 17 5 6 7 5 8 3 9 2 10 1 11 4 12 7 14
REMARK SMILES IDX 8 15 9 16 13 17 10 18 12 19 11 20 14 21 15 22 21 23 22 24
REMARK SMILES IDX 23 25 24 27 25 28 26 29 84 30 27 31 83 32 28 33 29 34 30 35
REMARK SMILES IDX 77 36 31 37 82 38 76 39 78 40 32 41 81 42 75 43 74 44 33 46
REMARK SMILES IDX 63 47 44 48 62 49 45 50 48 51 61 52 79 53 46 54 47 55 60 57
REMARK SMILES IDX 80 58 49 59 34 60 35 61 43 62 36 63 42 64 37 65 38 66 39 67
REMARK SMILES IDX 40 68 41 69 64 70 65 71 73 72 66 73 72 74 67 75 68 76 69 77
REMARK SMILES IDX 70 78 71 79 50 80 51 81 59 82 52 83 58 84 53 85 54 86 55 87
REMARK SMILES IDX 56 88 57 89
REMARK H PARENT 18 6 4 13 22 26 78 45 48 56
REMARK Flexibility Score: inf
ROOT
ATOM      1  C   UNL     1       0.494   6.820   4.056  1.00  0.00     0.042 C 
ENDROOT
BRANCH   1   2
ATOM      2  C   UNL     1       1.365   5.808   4.815  1.00  0.00     0.117 C 
BRANCH   2   3
ATOM      3  N   UNL     1       0.710   4.482   4.950  1.00  0.00    -0.356 N 
ATOM      4  C   UNL     1       0.712   3.224   4.448  1.00  0.00     0.223 C 
ATOM      5  O   UNL     1      -0.081   2.473   5.049  1.00  0.00    -0.275 OA
ATOM      6  H   UNL     1       0.029   4.537   5.659  1.00  0.00     0.163 HD
BRANCH   4   7
ATOM      7  C   UNL     1       1.508   2.580   3.286  1.00  0.00     0.085 C 
BRANCH   7   8
ATOM      8  C   UNL     1       0.621   2.148   2.082  1.00  0.00     0.045 C 
BRANCH   8   9
ATOM      9  C   UNL     1       1.320   1.401   0.917  1.00  0.00     0.115 C 
BRANCH   9  10
ATOM     10  C   UNL     1       0.806   1.874  -0.457  1.00  0.00     0.028 C 
ATOM     11  C   UNL     1       1.687   1.432  -1.621  1.00  0.00     0.006 C 
ENDBRANCH   9  10
BRANCH   9  12
ATOM     12  O   UNL     1       1.052  -0.003   1.017  1.00  0.00    -0.393 OA
ATOM     13  H   UNL     1       0.096  -0.155   0.946  1.00  0.00     0.210 HD
ENDBRANCH   9  12
ENDBRANCH   8   9
ENDBRANCH   7   8
BRANCH   7  14
ATOM     14  C   UNL     1       2.925   3.066   3.019  1.00  0.00     0.053 C 
BRANCH  14  15
ATOM     15  C   UNL     1       3.301   4.372   2.376  1.00  0.00    -0.005 A 
ATOM     16  C   UNL     1       4.649   4.736   2.607  1.00  0.00     0.007 A 
ATOM     17  C   UNL     1       2.500   5.236   1.614  1.00  0.00     0.122 A 
ATOM     18  C   UNL     1       5.154   5.963   2.203  1.00  0.00     0.001 A 
ATOM     19  C   UNL     1       2.996   6.497   1.258  1.00  0.00     0.047 A 
ATOM     20  C   UNL     1       4.310   6.866   1.573  1.00  0.00     0.004 A 
BRANCH  17  21
ATOM     21  O   UNL     1       1.383   4.765   0.989  1.00  0.00    -0.496 OA
ATOM     22  C   UNL     1       0.113   5.309   1.342  1.00  0.00     0.278 C 
ENDBRANCH  17  21
ENDBRANCH  14  15
ENDBRANCH   7  14
ENDBRANCH   4   7
ENDBRANCH   2   3
ENDBRANCH   1   2
BRANCH   1  23
ATOM     23  C   UNL     1       0.455   8.301   4.438  1.00  0.00     0.118 C 
BRANCH  23  24
ATOM     24  N   UNL     1       1.724   8.999   4.367  1.00  0.00    -0.352 N 
ATOM     25  C   UNL     1       2.117  10.193   3.784  1.00  0.00     0.251 C 
ATOM     26  H   UNL     1       2.455   8.528   4.827  1.00  0.00     0.163 HD
ATOM     27  O   UNL     1       3.277  10.534   3.938  1.00  0.00    -0.269 OA
BRANCH  25  28
ATOM     28  C   UNL     1       1.220  11.045   2.938  1.00  0.00     0.039 A 
ATOM     29  C   UNL     1       1.822  11.813   1.925  1.00  0.00     0.014 A 
ATOM     30  C   UNL     1      -0.159  11.155   3.109  1.00  0.00     0.014 A 
ATOM     31  C   UNL     1       1.049  12.595   1.050  1.00  0.00     0.010 A 
ATOM     32  C   UNL     1      -0.939  11.860   2.181  1.00  0.00     0.010 A 
ATOM     33  C   UNL     1      -0.349  12.582   1.131  1.00  0.00    -0.014 A 
BRANCH  33  34
ATOM     34  C   UNL     1      -1.207  13.287   0.130  1.00  0.00     0.031 A 
ATOM     35  C   UNL     1      -2.181  14.355   0.564  1.00  0.00     0.074 A 
ATOM     36  C   UNL     1      -1.179  12.910  -1.166  1.00  0.00     0.049 A 
ATOM     37  N   UNL     1      -3.084  14.992  -0.140  1.00  0.00    -0.248 NA
ATOM     38  C   UNL     1      -2.156  14.733   1.985  1.00  0.00     0.031 C 
ATOM     39  C   UNL     1      -0.310  11.873  -1.728  1.00  0.00     0.029 A 
ATOM     40  N   UNL     1      -1.905  13.349  -2.248  1.00  0.00    -0.354 N 
ATOM     41  C   UNL     1      -3.757  15.816   0.757  1.00  0.00     0.074 A 
ATOM     42  C   UNL     1      -3.189  15.559   2.064  1.00  0.00     0.031 C 
ATOM     43  C   UNL     1      -0.524  11.784  -3.050  1.00  0.00     0.029 A 
ATOM     44  C   UNL     1      -1.582  12.716  -3.427  1.00  0.00     0.049 A 
ATOM     45  H   UNL     1      -2.592  14.051  -2.185  1.00  0.00     0.167 HD
ATOM     46  C   UNL     1      -4.744  16.716   0.520  1.00  0.00     0.031 A 
ATOM     47  C   UNL     1      -2.081  12.858  -4.671  1.00  0.00     0.031 A 
ATOM     48  C   UNL     1      -5.298  16.983  -0.782  1.00  0.00     0.049 A 
ATOM     49  C   UNL     1      -3.188  13.845  -4.913  1.00  0.00     0.074 A 
ATOM     50  C   UNL     1      -6.255  17.918  -1.138  1.00  0.00     0.029 A 
ATOM     51  N   UNL     1      -4.946  16.311  -1.944  1.00  0.00    -0.354 N 
ATOM     52  N   UNL     1      -3.773  14.650  -4.059  1.00  0.00    -0.248 NA
ATOM     53  C   UNL     1      -3.702  13.944  -6.287  1.00  0.00     0.031 C 
ATOM     54  C   UNL     1      -6.518  17.776  -2.506  1.00  0.00     0.029 A 
ATOM     55  C   UNL     1      -5.686  16.790  -3.013  1.00  0.00     0.049 A 
ATOM     56  H   UNL     1      -4.269  15.599  -2.001  1.00  0.00     0.167 HD
ATOM     57  C   UNL     1      -4.712  15.365  -4.795  1.00  0.00     0.074 A 
ATOM     58  C   UNL     1      -4.607  14.907  -6.165  1.00  0.00     0.031 C 
ATOM     59  C   UNL     1      -5.581  16.316  -4.371  1.00  0.00     0.031 A 
BRANCH  46  60
ATOM     60  C   UNL     1      -5.297  17.462   1.711  1.00  0.00    -0.014 A 
ATOM     61  C   UNL     1      -4.511  18.390   2.421  1.00  0.00     0.010 A 
ATOM     62  C   UNL     1      -6.615  17.221   2.139  1.00  0.00     0.010 A 
ATOM     63  C   UNL     1      -5.001  18.995   3.581  1.00  0.00     0.020 A 
ATOM     64  C   UNL     1      -7.122  17.851   3.281  1.00  0.00     0.020 A 
ATOM     65  C   UNL     1      -6.299  18.709   4.013  1.00  0.00     0.054 A 
BRANCH  65  66
ATOM     66  S   UNL     1      -6.894  19.471   5.548  1.00  0.00     0.124 S 
ATOM     67  O   UNL     1      -6.187  18.693   6.562  1.00  0.00    -0.237 OA
ATOM     68  O   UNL     1      -6.461  20.859   5.408  1.00  0.00    -0.237 OA
ATOM     69  O   UNL     1      -8.339  19.265   5.500  1.00  0.00    -0.744 OA
ENDBRANCH  65  66
ENDBRANCH  46  60
BRANCH  47  70
ATOM     70  C   UNL     1      -1.503  12.063  -5.792  1.00  0.00    -0.014 A 
ATOM     71  C   UNL     1      -0.683  12.690  -6.747  1.00  0.00     0.010 A 
ATOM     72  C   UNL     1      -1.719  10.676  -5.882  1.00  0.00     0.010 A 
ATOM     73  C   UNL     1      -0.084  11.945  -7.766  1.00  0.00     0.020 A 
ATOM     74  C   UNL     1      -1.101   9.923  -6.887  1.00  0.00     0.020 A 
ATOM     75  C   UNL     1      -0.288  10.563  -7.824  1.00  0.00     0.054 A 
BRANCH  75  76
ATOM     76  S   UNL     1       0.579   9.607  -9.100  1.00  0.00     0.124 S 
ATOM     77  O   UNL     1      -0.140   9.993 -10.310  1.00  0.00    -0.237 OA
ATOM     78  O   UNL     1       1.948  10.105  -8.990  1.00  0.00    -0.237 OA
ATOM     79  O   UNL     1       0.392   8.222  -8.675  1.00  0.00    -0.744 OA
ENDBRANCH  75  76
ENDBRANCH  47  70
BRANCH  59  80
ATOM     80  C   UNL     1      -6.484  16.939  -5.402  1.00  0.00    -0.014 A 
ATOM     81  C   UNL     1      -7.576  16.231  -5.933  1.00  0.00     0.010 A 
ATOM     82  C   UNL     1      -6.275  18.275  -5.795  1.00  0.00     0.010 A 
ATOM     83  C   UNL     1      -8.434  16.841  -6.851  1.00  0.00     0.020 A 
ATOM     84  C   UNL     1      -7.146  18.896  -6.693  1.00  0.00     0.020 A 
ATOM     85  C   UNL     1      -8.216  18.172  -7.223  1.00  0.00     0.054 A 
BRANCH  85  86
ATOM     86  S   UNL     1      -9.382  18.960  -8.368  1.00  0.00     0.124 S 
ATOM     87  O   UNL     1      -9.032  18.333  -9.639  1.00  0.00    -0.237 OA
ATOM     88  O   UNL     1     -10.680  18.580  -7.815  1.00  0.00    -0.237 OA
ATOM     89  O   UNL     1      -9.061  20.382  -8.265  1.00  0.00    -0.744 OA
ENDBRANCH  85  86
ENDBRANCH  59  80
ENDBRANCH  33  34
ENDBRANCH  25  28
ENDBRANCH  23  24
ENDBRANCH   1  23
TORSDOF 20
