REMARK SMILES CC[C@@H](C(=O)NCCCNC(=O)c1ccc(-c2c3nc(c(-c4ccc(S(=O)(=O)[O-])cc4)c4ccc([nH]4)c(-c4ccc(S(=O)(=O)[O-])cc4)c4nc(c(-c5ccc(S(=O)(=O)[O-])cc5)c5ccc2[nH]5)C=C4)C=C3)cc1)N(C)C(=O)N(C)C[C@@H]1CCC[N@H+]1C
REMARK SMILES IDX 7 1 6 2 4 3 5 4 3 6 2 7 1 8 73 9 74 10 75 11 76 12 77 13
REMARK SMILES IDX 78 14 79 15 80 16 81 17 84 18 82 19 83 20 85 21 8 23 9 24
REMARK SMILES IDX 10 25 11 26 12 28 13 29 14 30 72 31 15 32 71 33 16 34 17 35
REMARK SMILES IDX 18 36 65 37 19 38 70 39 64 40 66 41 20 42 69 43 63 44 62 45
REMARK SMILES IDX 21 47 51 48 32 49 50 50 33 51 36 52 49 53 67 54 34 55 35 56
REMARK SMILES IDX 48 58 68 59 37 60 22 61 23 62 31 63 24 64 30 65 25 66 26 67
REMARK SMILES IDX 27 68 28 69 29 70 52 71 53 72 61 73 54 74 60 75 55 76 56 77
REMARK SMILES IDX 57 78 58 79 59 80 38 81 39 82 47 83 40 84 46 85 41 86 42 87
REMARK SMILES IDX 43 88 44 89 45 90
REMARK H PARENT 6 5 84 22 10 27 66 46 36 57
REMARK Flexibility Score: inf
ROOT
ATOM      1  C   UNL     1      -5.564  -1.649   1.855  1.00  0.00     0.117 C 
ENDROOT
BRANCH   1   2
ATOM      2  N   UNL     1      -5.673  -0.234   1.572  1.00  0.00    -0.354 N 
ATOM      3  C   UNL     1      -4.997   0.591   0.730  1.00  0.00     0.242 C 
ATOM      4  O   UNL     1      -5.533   1.696   0.581  1.00  0.00    -0.273 OA
ATOM      5  H   UNL     1      -6.376   0.220   2.091  1.00  0.00     0.163 HD
BRANCH   3   6
ATOM      6  C   UNL     1      -3.726   0.145  -0.068  1.00  0.00     0.175 C 
BRANCH   6   7
ATOM      7  C   UNL     1      -2.396  -0.053   0.692  1.00  0.00     0.032 C 
ATOM      8  C   UNL     1      -2.213  -1.360   1.439  1.00  0.00     0.006 C 
ENDBRANCH   6   7
BRANCH   6   9
ATOM      9  N   UNL     1      -3.538   1.121  -1.201  1.00  0.00    -0.316 N 
ATOM     10  C   UNL     1      -4.030   0.670  -2.488  1.00  0.00     0.149 C 
BRANCH   9  11
ATOM     11  C   UNL     1      -3.068   2.385  -0.875  1.00  0.00     0.320 C 
ATOM     12  O   UNL     1      -2.794   2.651   0.303  1.00  0.00    -0.248 OA
BRANCH  11  13
ATOM     13  N   UNL     1      -2.892   3.386  -1.809  1.00  0.00    -0.322 N 
ATOM     14  C   UNL     1      -2.919   3.366  -3.262  1.00  0.00     0.149 C 
BRANCH  13  15
ATOM     15  C   UNL     1      -2.516   4.702  -1.260  1.00  0.00     0.185 C 
BRANCH  15  16
ATOM     16  C   UNL     1      -3.569   5.454  -0.398  1.00  0.00     0.203 C 
ATOM     17  C   UNL     1      -4.997   4.903  -0.415  1.00  0.00     0.073 C 
ATOM     18  N   UNL     1      -3.773   6.866  -0.815  1.00  0.00    -0.333 N 
ATOM     19  C   UNL     1      -5.910   6.108  -0.226  1.00  0.00     0.068 C 
ATOM     20  C   UNL     1      -4.976   7.296  -0.096  1.00  0.00     0.262 C 
ATOM     21  C   UNL     1      -2.638   7.726  -0.499  1.00  0.00     0.333 C 
ATOM     22  H   UNL     1      -3.871   6.936  -1.828  1.00  0.00     0.348 HD
ENDBRANCH  15  16
ENDBRANCH  13  15
ENDBRANCH  11  13
ENDBRANCH   9  11
ENDBRANCH   6   9
ENDBRANCH   3   6
ENDBRANCH   1   2
BRANCH   1  23
ATOM     23  C   UNL     1      -5.180  -1.905   3.308  1.00  0.00     0.042 C 
BRANCH  23  24
ATOM     24  C   UNL     1      -6.242  -1.502   4.325  1.00  0.00     0.118 C 
BRANCH  24  25
ATOM     25  N   UNL     1      -7.317  -2.474   4.432  1.00  0.00    -0.352 N 
ATOM     26  C   UNL     1      -7.648  -3.310   5.469  1.00  0.00     0.251 C 
ATOM     27  H   UNL     1      -7.897  -2.543   3.639  1.00  0.00     0.163 HD
ATOM     28  O   UNL     1      -8.487  -4.196   5.276  1.00  0.00    -0.269 OA
BRANCH  26  29
ATOM     29  C   UNL     1      -7.002  -3.188   6.798  1.00  0.00     0.039 A 
ATOM     30  C   UNL     1      -6.673  -4.354   7.498  1.00  0.00     0.014 A 
ATOM     31  C   UNL     1      -6.752  -1.943   7.383  1.00  0.00     0.014 A 
ATOM     32  C   UNL     1      -6.046  -4.270   8.746  1.00  0.00     0.010 A 
ATOM     33  C   UNL     1      -6.046  -1.861   8.583  1.00  0.00     0.010 A 
ATOM     34  C   UNL     1      -5.696  -3.022   9.287  1.00  0.00    -0.014 A 
BRANCH  34  35
ATOM     35  C   UNL     1      -4.991  -2.913  10.593  1.00  0.00     0.031 A 
ATOM     36  C   UNL     1      -5.649  -2.209  11.754  1.00  0.00     0.074 A 
ATOM     37  C   UNL     1      -3.741  -3.400  10.727  1.00  0.00     0.049 A 
ATOM     38  N   UNL     1      -5.173  -1.966  12.949  1.00  0.00    -0.248 NA
ATOM     39  C   UNL     1      -7.010  -1.691  11.537  1.00  0.00     0.031 C 
ATOM     40  C   UNL     1      -2.974  -4.071   9.674  1.00  0.00     0.029 A 
ATOM     41  N   UNL     1      -2.890  -3.403  11.806  1.00  0.00    -0.354 N 
ATOM     42  C   UNL     1      -6.163  -1.252  13.615  1.00  0.00     0.074 A 
ATOM     43  C   UNL     1      -7.246  -1.058  12.676  1.00  0.00     0.031 C 
ATOM     44  C   UNL     1      -1.781  -4.443  10.167  1.00  0.00     0.029 A 
ATOM     45  C   UNL     1      -1.678  -4.003  11.554  1.00  0.00     0.049 A 
ATOM     46  H   UNL     1      -3.126  -3.011  12.678  1.00  0.00     0.167 HD
ATOM     47  C   UNL     1      -6.183  -0.814  14.897  1.00  0.00     0.031 A 
ATOM     48  C   UNL     1      -0.601  -4.174  12.346  1.00  0.00     0.031 A 
ATOM     49  C   UNL     1      -5.114  -1.023  15.838  1.00  0.00     0.049 A 
ATOM     50  C   UNL     1      -0.643  -3.673  13.765  1.00  0.00     0.074 A 
ATOM     51  C   UNL     1      -5.063  -0.666  17.174  1.00  0.00     0.029 A 
ATOM     52  N   UNL     1      -3.910  -1.644  15.544  1.00  0.00    -0.354 N 
ATOM     53  N   UNL     1      -1.615  -3.054  14.391  1.00  0.00    -0.248 NA
ATOM     54  C   UNL     1       0.553  -3.905  14.587  1.00  0.00     0.031 C 
ATOM     55  C   UNL     1      -3.809  -1.028  17.676  1.00  0.00     0.029 A 
ATOM     56  C   UNL     1      -3.101  -1.662  16.668  1.00  0.00     0.049 A 
ATOM     57  H   UNL     1      -3.666  -2.018  14.666  1.00  0.00     0.167 HD
ATOM     58  C   UNL     1      -1.158  -2.848  15.688  1.00  0.00     0.074 A 
ATOM     59  C   UNL     1       0.171  -3.421  15.761  1.00  0.00     0.031 C 
ATOM     60  C   UNL     1      -1.782  -2.239  16.727  1.00  0.00     0.031 A 
BRANCH  47  61
ATOM     61  C   UNL     1      -7.404  -0.062  15.360  1.00  0.00    -0.014 A 
ATOM     62  C   UNL     1      -8.636  -0.718  15.539  1.00  0.00     0.010 A 
ATOM     63  C   UNL     1      -7.309   1.307  15.667  1.00  0.00     0.010 A 
ATOM     64  C   UNL     1      -9.759  -0.010  15.975  1.00  0.00     0.020 A 
ATOM     65  C   UNL     1      -8.423   2.013  16.132  1.00  0.00     0.020 A 
ATOM     66  C   UNL     1      -9.646   1.352  16.267  1.00  0.00     0.054 A 
BRANCH  66  67
ATOM     67  S   UNL     1     -11.114   2.239  16.858  1.00  0.00     0.124 S 
ATOM     68  O   UNL     1     -11.915   2.338  15.641  1.00  0.00    -0.237 OA
ATOM     69  O   UNL     1     -11.639   1.341  17.884  1.00  0.00    -0.237 OA
ATOM     70  O   UNL     1     -10.579   3.503  17.356  1.00  0.00    -0.744 OA
ENDBRANCH  66  67
ENDBRANCH  47  61
BRANCH  48  71
ATOM     71  C   UNL     1       0.610  -4.864  11.819  1.00  0.00    -0.014 A 
ATOM     72  C   UNL     1       0.961  -6.144  12.282  1.00  0.00     0.010 A 
ATOM     73  C   UNL     1       1.418  -4.243  10.850  1.00  0.00     0.010 A 
ATOM     74  C   UNL     1       2.109  -6.782  11.802  1.00  0.00     0.020 A 
ATOM     75  C   UNL     1       2.551  -4.889  10.346  1.00  0.00     0.020 A 
ATOM     76  C   UNL     1       2.897  -6.150  10.836  1.00  0.00     0.054 A 
BRANCH  76  77
ATOM     77  S   UNL     1       4.357  -7.015  10.194  1.00  0.00     0.124 S 
ATOM     78  O   UNL     1       5.293  -6.898  11.308  1.00  0.00    -0.237 OA
ATOM     79  O   UNL     1       3.842  -8.357   9.937  1.00  0.00    -0.237 OA
ATOM     80  O   UNL     1       4.707  -6.252   8.998  1.00  0.00    -0.744 OA
ENDBRANCH  76  77
ENDBRANCH  48  71
BRANCH  60  81
ATOM     81  C   UNL     1      -1.056  -2.193  18.044  1.00  0.00    -0.014 A 
ATOM     82  C   UNL     1       0.050  -1.346  18.239  1.00  0.00     0.010 A 
ATOM     83  C   UNL     1      -1.524  -2.968  19.121  1.00  0.00     0.010 A 
ATOM     84  C   UNL     1       0.693  -1.300  19.479  1.00  0.00     0.020 A 
ATOM     85  C   UNL     1      -0.901  -2.903  20.370  1.00  0.00     0.020 A 
ATOM     86  C   UNL     1       0.213  -2.079  20.537  1.00  0.00     0.054 A 
BRANCH  86  87
ATOM     87  S   UNL     1       1.037  -1.966  22.149  1.00  0.00     0.124 S 
ATOM     88  O   UNL     1       2.274  -2.705  21.910  1.00  0.00    -0.237 OA
ATOM     89  O   UNL     1       1.191  -0.525  22.331  1.00  0.00    -0.237 OA
ATOM     90  O   UNL     1       0.096  -2.607  23.065  1.00  0.00    -0.744 OA
ENDBRANCH  86  87
ENDBRANCH  60  81
ENDBRANCH  34  35
ENDBRANCH  26  29
ENDBRANCH  24  25
ENDBRANCH  23  24
ENDBRANCH   1  23
TORSDOF 19
