REMARK SMILES O=C(NCCCNC(=O)c1cccnc1C(=O)Nc1ccc(Cl)cn1)c1ccc(-c2c3nc(c(-c4ccc(S(=O)(=O)[O-])cc4)c4ccc([nH]4)c(-c4ccc(S(=O)(=O)[O-])cc4)c4nc(c(-c5ccc(S(=O)(=O)[O-])cc5)c5ccc2[nH]5)C=C4)C=C3)cc1
REMARK SMILES IDX 4 1 3 2 1 3 2 4 26 6 27 7 85 8 28 9 84 10 29 11 30 12 31 13
REMARK SMILES IDX 78 14 32 15 83 16 77 17 79 18 33 19 82 20 76 21 75 22 34 24
REMARK SMILES IDX 64 25 45 26 63 27 46 28 49 29 62 30 80 31 47 32 48 33 61 35
REMARK SMILES IDX 81 36 50 37 35 38 36 39 44 40 37 41 43 42 38 43 39 44 40 45
REMARK SMILES IDX 41 46 42 47 65 48 66 49 74 50 67 51 73 52 68 53 69 54 70 55
REMARK SMILES IDX 71 56 72 57 51 58 52 59 60 60 53 61 59 62 54 63 55 64 56 65
REMARK SMILES IDX 57 66 58 67 5 68 6 69 7 70 8 71 9 73 10 74 11 75 15 76 12 77
REMARK SMILES IDX 14 78 13 79 16 80 17 81 18 82 19 84 20 85 25 86 21 87 24 88
REMARK SMILES IDX 22 89 23 90
REMARK H PARENT 3 5 79 23 49 34 7 72 18 83
REMARK Flexibility Score: inf
ROOT
ATOM      1  C   UNL     1       4.642   1.363   0.419  1.00  0.00     0.118 C 
ENDROOT
BRANCH   1   2
ATOM      2  N   UNL     1       3.212   1.103   0.409  1.00  0.00    -0.352 N 
ATOM      3  O   UNL     1       1.273   0.149  -0.211  1.00  0.00    -0.269 OA
ATOM      4  C   UNL     1       2.502   0.132  -0.249  1.00  0.00     0.251 C 
ATOM      5  H   UNL     1       2.672   1.717   0.957  1.00  0.00     0.163 HD
BRANCH   4   6
ATOM      6  C   UNL     1       3.208  -0.910  -1.022  1.00  0.00     0.039 A 
ATOM      7  C   UNL     1       4.283  -1.611  -0.467  1.00  0.00     0.014 A 
ATOM      8  C   UNL     1       2.768  -1.204  -2.315  1.00  0.00     0.014 A 
ATOM      9  C   UNL     1       4.984  -2.528  -1.244  1.00  0.00     0.010 A 
ATOM     10  C   UNL     1       3.431  -2.174  -3.070  1.00  0.00     0.010 A 
ATOM     11  C   UNL     1       4.554  -2.833  -2.545  1.00  0.00    -0.014 A 
BRANCH  11  12
ATOM     12  C   UNL     1       5.213  -3.925  -3.302  1.00  0.00     0.031 A 
ATOM     13  C   UNL     1       5.991  -3.650  -4.558  1.00  0.00     0.074 A 
ATOM     14  C   UNL     1       5.077  -5.187  -2.846  1.00  0.00     0.049 A 
ATOM     15  N   UNL     1       6.598  -4.501  -5.346  1.00  0.00    -0.248 NA
ATOM     16  C   UNL     1       6.100  -2.248  -4.993  1.00  0.00     0.031 C 
ATOM     17  C   UNL     1       4.325  -5.573  -1.647  1.00  0.00     0.029 A 
ATOM     18  N   UNL     1       5.557  -6.375  -3.332  1.00  0.00    -0.354 N 
ATOM     19  C   UNL     1       7.142  -3.746  -6.378  1.00  0.00     0.074 A 
ATOM     20  C   UNL     1       6.786  -2.366  -6.124  1.00  0.00     0.031 C 
ATOM     21  C   UNL     1       4.408  -6.901  -1.484  1.00  0.00     0.029 A 
ATOM     22  C   UNL     1       5.165  -7.467  -2.594  1.00  0.00     0.049 A 
ATOM     23  H   UNL     1       6.128  -6.441  -4.131  1.00  0.00     0.167 HD
ATOM     24  C   UNL     1       7.869  -4.171  -7.439  1.00  0.00     0.031 A 
ATOM     25  C   UNL     1       5.358  -8.783  -2.802  1.00  0.00     0.031 A 
ATOM     26  C   UNL     1       8.226  -5.547  -7.676  1.00  0.00     0.049 A 
ATOM     27  C   UNL     1       6.136  -9.222  -4.009  1.00  0.00     0.074 A 
ATOM     28  C   UNL     1       9.028  -6.063  -8.681  1.00  0.00     0.029 A 
ATOM     29  N   UNL     1       7.794  -6.623  -6.919  1.00  0.00    -0.354 N 
ATOM     30  N   UNL     1       6.715  -8.484  -4.925  1.00  0.00    -0.248 NA
ATOM     31  C   UNL     1       6.282 -10.669  -4.213  1.00  0.00     0.031 C 
ATOM     32  C   UNL     1       9.027  -7.456  -8.569  1.00  0.00     0.029 A 
ATOM     33  C   UNL     1       8.270  -7.805  -7.462  1.00  0.00     0.049 A 
ATOM     34  H   UNL     1       7.231  -6.558  -6.113  1.00  0.00     0.167 HD
ATOM     35  C   UNL     1       7.298  -9.379  -5.814  1.00  0.00     0.074 A 
ATOM     36  C   UNL     1       7.029 -10.709  -5.308  1.00  0.00     0.031 C 
ATOM     37  C   UNL     1       7.985  -9.121  -6.953  1.00  0.00     0.031 A 
BRANCH  24  38
ATOM     38  C   UNL     1       8.321  -3.154  -8.454  1.00  0.00    -0.014 A 
ATOM     39  C   UNL     1       9.392  -2.285  -8.187  1.00  0.00     0.010 A 
ATOM     40  C   UNL     1       7.743  -3.156  -9.737  1.00  0.00     0.010 A 
ATOM     41  C   UNL     1       9.873  -1.430  -9.184  1.00  0.00     0.020 A 
ATOM     42  C   UNL     1       8.232  -2.317 -10.742  1.00  0.00     0.020 A 
ATOM     43  C   UNL     1       9.293  -1.455 -10.457  1.00  0.00     0.054 A 
BRANCH  43  44
ATOM     44  S   UNL     1       9.983  -0.386 -11.751  1.00  0.00     0.124 S 
ATOM     45  O   UNL     1       9.537   0.937 -11.318  1.00  0.00    -0.237 OA
ATOM     46  O   UNL     1      11.419  -0.632 -11.637  1.00  0.00    -0.237 OA
ATOM     47  O   UNL     1       9.365  -0.880 -12.978  1.00  0.00    -0.744 OA
ENDBRANCH  43  44
ENDBRANCH  24  38
BRANCH  25  48
ATOM     48  C   UNL     1       4.750  -9.778  -1.879  1.00  0.00    -0.014 A 
ATOM     49  C   UNL     1       5.554 -10.575  -1.047  1.00  0.00     0.010 A 
ATOM     50  C   UNL     1       3.352  -9.935  -1.838  1.00  0.00     0.010 A 
ATOM     51  C   UNL     1       4.971 -11.533  -0.212  1.00  0.00     0.020 A 
ATOM     52  C   UNL     1       2.764 -10.868  -0.982  1.00  0.00     0.020 A 
ATOM     53  C   UNL     1       3.580 -11.676  -0.189  1.00  0.00     0.054 A 
BRANCH  53  54
ATOM     54  S   UNL     1       2.841 -12.910   0.916  1.00  0.00     0.124 S 
ATOM     55  O   UNL     1       3.096 -14.152   0.194  1.00  0.00    -0.237 OA
ATOM     56  O   UNL     1       3.601 -12.727   2.150  1.00  0.00    -0.237 OA
ATOM     57  O   UNL     1       1.439 -12.503   0.991  1.00  0.00    -0.744 OA
ENDBRANCH  53  54
ENDBRANCH  25  48
BRANCH  37  58
ATOM     58  C   UNL     1       8.495 -10.303  -7.729  1.00  0.00    -0.014 A 
ATOM     59  C   UNL     1       7.614 -11.109  -8.472  1.00  0.00     0.010 A 
ATOM     60  C   UNL     1       9.873 -10.581  -7.758  1.00  0.00     0.010 A 
ATOM     61  C   UNL     1       8.101 -12.189  -9.213  1.00  0.00     0.020 A 
ATOM     62  C   UNL     1      10.366 -11.644  -8.520  1.00  0.00     0.020 A 
ATOM     63  C   UNL     1       9.475 -12.448  -9.233  1.00  0.00     0.054 A 
BRANCH  63  64
ATOM     64  S   UNL     1      10.086 -13.823 -10.245  1.00  0.00     0.124 S 
ATOM     65  O   UNL     1       9.683 -14.984  -9.456  1.00  0.00    -0.237 OA
ATOM     66  O   UNL     1       9.369 -13.639 -11.504  1.00  0.00    -0.237 OA
ATOM     67  O   UNL     1      11.527 -13.587 -10.315  1.00  0.00    -0.744 OA
ENDBRANCH  63  64
ENDBRANCH  37  58
ENDBRANCH  11  12
ENDBRANCH   4   6
ENDBRANCH   1   2
BRANCH   1  68
ATOM     68  C   UNL     1       5.021   2.777   0.002  1.00  0.00     0.042 C 
BRANCH  68  69
ATOM     69  C   UNL     1       4.270   3.899   0.704  1.00  0.00     0.118 C 
BRANCH  69  70
ATOM     70  N   UNL     1       4.322   3.845   2.159  1.00  0.00    -0.352 N 
ATOM     71  C   UNL     1       4.953   4.685   3.039  1.00  0.00     0.253 C 
ATOM     72  H   UNL     1       3.832   3.096   2.569  1.00  0.00     0.163 HD
ATOM     73  O   UNL     1       4.659   4.673   4.236  1.00  0.00    -0.269 OA
BRANCH  71  74
ATOM     74  C   UNL     1       5.877   5.695   2.546  1.00  0.00     0.071 A 
ATOM     75  C   UNL     1       5.248   6.819   1.978  1.00  0.00     0.018 A 
ATOM     76  C   UNL     1       7.267   5.637   2.581  1.00  0.00     0.141 A 
ATOM     77  C   UNL     1       6.005   7.827   1.407  1.00  0.00     0.021 A 
ATOM     78  N   UNL     1       8.009   6.640   2.010  1.00  0.00    -0.250 NA
ATOM     79  C   UNL     1       7.376   7.690   1.440  1.00  0.00     0.112 A 
BRANCH  76  80
ATOM     80  C   UNL     1       8.167   4.583   3.212  1.00  0.00     0.276 C 
ATOM     81  O   UNL     1       9.293   4.390   2.749  1.00  0.00    -0.267 OA
ATOM     82  N   UNL     1       7.872   4.110   4.463  1.00  0.00    -0.305 N 
ATOM     83  H   UNL     1       8.320   4.568   5.210  1.00  0.00     0.171 HD
BRANCH  82  84
ATOM     84  C   UNL     1       7.022   3.068   4.819  1.00  0.00     0.132 A 
ATOM     85  C   UNL     1       6.483   2.183   3.893  1.00  0.00     0.049 A 
ATOM     86  N   UNL     1       6.731   3.021   6.135  1.00  0.00    -0.238 NA
ATOM     87  C   UNL     1       5.482   1.305   4.317  1.00  0.00     0.026 A 
ATOM     88  C   UNL     1       5.728   2.191   6.509  1.00  0.00     0.134 A 
ATOM     89  C   UNL     1       5.064   1.343   5.640  1.00  0.00     0.059 A 
ATOM     90  Cl  UNL     1       3.748   0.379   6.170  1.00  0.00    -0.083 Cl
ENDBRANCH  82  84
ENDBRANCH  76  80
ENDBRANCH  71  74
ENDBRANCH  69  70
ENDBRANCH  68  69
ENDBRANCH   1  68
TORSDOF 15
