REMARK SMILES Nc1ncccc1C[N@@H+]1CC2(CC[NH2+]CC2)C[C@H]1C(=O)NCCCNC(=O)c1ccc(-c2c3nc(c(-c4ccc(S(=O)(=O)[O-])cc4)c4ccc([nH]4)c(-c4ccc(S(=O)(=O)[O-])cc4)c4nc(c(-c5ccc(S(=O)(=O)[O-])cc5)c5ccc2[nH]5)C=C4)C=C3)cc1
REMARK SMILES IDX 23 1 22 2 21 3 19 4 20 5 18 7 9 8 10 9 11 11 17 12 12 13
REMARK SMILES IDX 16 14 13 15 15 16 14 17 8 20 7 21 2 22 3 23 4 24 6 25 5 26
REMARK SMILES IDX 1 27 24 30 25 31 26 32 27 34 28 35 29 36 87 37 30 38 86 39
REMARK SMILES IDX 31 40 32 41 33 42 80 43 34 44 85 45 79 46 81 47 35 48 84 49
REMARK SMILES IDX 78 50 77 51 36 53 66 54 47 55 65 56 48 57 51 58 64 59 82 60
REMARK SMILES IDX 49 61 50 62 63 64 83 65 52 66 37 67 38 68 46 69 39 70 45 71
REMARK SMILES IDX 40 72 41 73 42 74 43 75 44 76 67 77 68 78 76 79 69 80 75 81
REMARK SMILES IDX 70 82 71 83 72 84 73 85 74 86 53 87 54 88 62 89 55 90 61 91
REMARK SMILES IDX 56 92 57 93 58 94 59 95 60 96
REMARK H PARENT 21 6 9 10 14 18 14 19 1 28 1 29 25 33 81 52 51 63
REMARK Flexibility Score: inf
ROOT
ATOM      1  C   UNL     1      -1.409  -5.693   3.667  1.00  0.00     0.042 C 
ENDROOT
BRANCH   1   2
ATOM      2  C   UNL     1      -1.213  -4.257   4.105  1.00  0.00     0.118 C 
BRANCH   2   3
ATOM      3  N   UNL     1       0.130  -3.797   4.253  1.00  0.00    -0.351 N 
ATOM      4  C   UNL     1       0.719  -2.725   3.645  1.00  0.00     0.278 C 
ATOM      5  O   UNL     1       1.821  -2.397   4.108  1.00  0.00    -0.268 OA
ATOM      6  H   UNL     1       0.701  -4.314   4.867  1.00  0.00     0.163 HD
BRANCH   4   7
ATOM      7  C   UNL     1       0.126  -1.945   2.416  1.00  0.00     0.275 C 
ATOM      8  N   UNL     1       0.015  -2.826   1.242  1.00  0.00    -0.320 N 
ATOM      9  C   UNL     1      -1.414  -3.033   0.948  1.00  0.00     0.270 C 
ATOM     10  H   UNL     1       0.394  -3.752   1.442  1.00  0.00     0.349 HD
ATOM     11  C   UNL     1      -2.263  -1.931   1.662  1.00  0.00     0.036 C 
ATOM     12  C   UNL     1      -1.194  -1.156   2.475  1.00  0.00     0.089 C 
ATOM     13  C   UNL     1      -3.428  -2.300   2.637  1.00  0.00     0.074 C 
ATOM     14  C   UNL     1      -3.042  -1.151   0.569  1.00  0.00     0.074 C 
ATOM     15  C   UNL     1      -4.479  -3.200   2.007  1.00  0.00     0.261 C 
ATOM     16  C   UNL     1      -4.128  -2.038  -0.081  1.00  0.00     0.261 C 
ATOM     17  N   UNL     1      -5.115  -2.519   0.883  1.00  0.00    -0.346 N 
ATOM     18  H   UNL     1      -5.648  -1.724   1.236  1.00  0.00     0.346 HD
ATOM     19  H   UNL     1      -5.725  -3.186   0.410  1.00  0.00     0.346 HD
BRANCH   8  20
ATOM     20  C   UNL     1       0.899  -2.417   0.116  1.00  0.00     0.303 C 
BRANCH  20  21
ATOM     21  C   UNL     1       0.778  -0.984  -0.380  1.00  0.00     0.048 A 
ATOM     22  C   UNL     1       1.583   0.064   0.079  1.00  0.00     0.132 A 
ATOM     23  N   UNL     1       1.257   1.363  -0.083  1.00  0.00    -0.239 NA
ATOM     24  C   UNL     1       0.156   1.649  -0.802  1.00  0.00     0.113 A 
ATOM     25  C   UNL     1      -0.246  -0.643  -1.267  1.00  0.00     0.015 A 
ATOM     26  C   UNL     1      -0.587   0.692  -1.459  1.00  0.00     0.021 A 
BRANCH  22  27
ATOM     27  N   UNL     1       2.757  -0.141   0.774  1.00  0.00    -0.383 N 
ATOM     28  H   UNL     1       3.290   0.629   1.077  1.00  0.00     0.158 HD
ATOM     29  H   UNL     1       3.062  -1.057   0.966  1.00  0.00     0.158 HD
ENDBRANCH  22  27
ENDBRANCH  20  21
ENDBRANCH   8  20
ENDBRANCH   4   7
ENDBRANCH   2   3
ENDBRANCH   1   2
BRANCH   1  30
ATOM     30  C   UNL     1      -1.794  -6.618   4.806  1.00  0.00     0.118 C 
BRANCH  30  31
ATOM     31  N   UNL     1      -3.071  -6.264   5.428  1.00  0.00    -0.352 N 
ATOM     32  C   UNL     1      -4.231  -6.989   5.590  1.00  0.00     0.251 C 
ATOM     33  H   UNL     1      -3.106  -5.350   5.794  1.00  0.00     0.163 HD
ATOM     34  O   UNL     1      -5.231  -6.434   6.021  1.00  0.00    -0.269 OA
BRANCH  32  35
ATOM     35  C   UNL     1      -4.273  -8.421   5.219  1.00  0.00     0.039 A 
ATOM     36  C   UNL     1      -5.423  -8.938   4.614  1.00  0.00     0.014 A 
ATOM     37  C   UNL     1      -3.179  -9.252   5.456  1.00  0.00     0.014 A 
ATOM     38  C   UNL     1      -5.434 -10.262   4.167  1.00  0.00     0.010 A 
ATOM     39  C   UNL     1      -3.145 -10.524   4.903  1.00  0.00     0.010 A 
ATOM     40  C   UNL     1      -4.275 -11.048   4.261  1.00  0.00    -0.014 A 
BRANCH  40  41
ATOM     41  C   UNL     1      -4.208 -12.424   3.709  1.00  0.00     0.031 A 
ATOM     42  C   UNL     1      -3.903 -13.583   4.620  1.00  0.00     0.074 A 
ATOM     43  C   UNL     1      -4.324 -12.615   2.380  1.00  0.00     0.049 A 
ATOM     44  N   UNL     1      -3.706 -14.840   4.318  1.00  0.00    -0.248 NA
ATOM     45  C   UNL     1      -3.763 -13.282   6.055  1.00  0.00     0.031 C 
ATOM     46  C   UNL     1      -4.572 -11.564   1.389  1.00  0.00     0.029 A 
ATOM     47  N   UNL     1      -4.241 -13.761   1.631  1.00  0.00    -0.354 N 
ATOM     48  C   UNL     1      -3.391 -15.470   5.517  1.00  0.00     0.074 A 
ATOM     49  C   UNL     1      -3.362 -14.447   6.538  1.00  0.00     0.031 C 
ATOM     50  C   UNL     1      -4.662 -12.120   0.171  1.00  0.00     0.029 A 
ATOM     51  C   UNL     1      -4.426 -13.555   0.285  1.00  0.00     0.049 A 
ATOM     52  H   UNL     1      -4.066 -14.648   2.022  1.00  0.00     0.167 HD
ATOM     53  C   UNL     1      -3.167 -16.785   5.753  1.00  0.00     0.031 A 
ATOM     54  C   UNL     1      -4.404 -14.424  -0.745  1.00  0.00     0.031 A 
ATOM     55  C   UNL     1      -3.210 -17.797   4.732  1.00  0.00     0.049 A 
ATOM     56  C   UNL     1      -4.143 -15.877  -0.464  1.00  0.00     0.074 A 
ATOM     57  C   UNL     1      -3.070 -19.166   4.870  1.00  0.00     0.029 A 
ATOM     58  N   UNL     1      -3.403 -17.547   3.380  1.00  0.00    -0.354 N 
ATOM     59  N   UNL     1      -3.922 -16.467   0.687  1.00  0.00    -0.248 NA
ATOM     60  C   UNL     1      -4.134 -16.783  -1.621  1.00  0.00     0.031 C 
ATOM     61  C   UNL     1      -3.116 -19.738   3.594  1.00  0.00     0.029 A 
ATOM     62  C   UNL     1      -3.350 -18.733   2.668  1.00  0.00     0.049 A 
ATOM     63  H   UNL     1      -3.555 -16.658   2.986  1.00  0.00     0.167 HD
ATOM     64  C   UNL     1      -3.766 -17.817   0.396  1.00  0.00     0.074 A 
ATOM     65  C   UNL     1      -3.938 -17.957  -1.037  1.00  0.00     0.031 C 
ATOM     66  C   UNL     1      -3.506 -18.849   1.238  1.00  0.00     0.031 A 
BRANCH  53  67
ATOM     67  C   UNL     1      -2.838 -17.188   7.168  1.00  0.00    -0.014 A 
ATOM     68  C   UNL     1      -3.789 -17.078   8.200  1.00  0.00     0.010 A 
ATOM     69  C   UNL     1      -1.556 -17.679   7.473  1.00  0.00     0.010 A 
ATOM     70  C   UNL     1      -3.444 -17.389   9.518  1.00  0.00     0.020 A 
ATOM     71  C   UNL     1      -1.217 -18.024   8.786  1.00  0.00     0.020 A 
ATOM     72  C   UNL     1      -2.157 -17.851   9.804  1.00  0.00     0.054 A 
BRANCH  72  73
ATOM     73  S   UNL     1      -1.733 -18.234  11.525  1.00  0.00     0.124 S 
ATOM     74  O   UNL     1      -1.629 -16.900  12.112  1.00  0.00    -0.237 OA
ATOM     75  O   UNL     1      -2.877 -19.027  11.969  1.00  0.00    -0.237 OA
ATOM     76  O   UNL     1      -0.474 -18.968  11.418  1.00  0.00    -0.744 OA
ENDBRANCH  72  73
ENDBRANCH  53  67
BRANCH  54  77
ATOM     77  C   UNL     1      -4.671 -13.938  -2.126  1.00  0.00    -0.014 A 
ATOM     78  C   UNL     1      -5.884 -14.250  -2.764  1.00  0.00     0.010 A 
ATOM     79  C   UNL     1      -3.740 -13.120  -2.792  1.00  0.00     0.010 A 
ATOM     80  C   UNL     1      -6.162 -13.755  -4.042  1.00  0.00     0.020 A 
ATOM     81  C   UNL     1      -4.025 -12.601  -4.059  1.00  0.00     0.020 A 
ATOM     82  C   UNL     1      -5.234 -12.926  -4.678  1.00  0.00     0.054 A 
BRANCH  82  83
ATOM     83  S   UNL     1      -5.654 -12.230  -6.300  1.00  0.00     0.124 S 
ATOM     84  O   UNL     1      -5.562 -13.401  -7.167  1.00  0.00    -0.237 OA
ATOM     85  O   UNL     1      -7.001 -11.710  -6.079  1.00  0.00    -0.237 OA
ATOM     86  O   UNL     1      -4.628 -11.212  -6.512  1.00  0.00    -0.744 OA
ENDBRANCH  82  83
ENDBRANCH  54  77
BRANCH  66  87
ATOM     87  C   UNL     1      -3.403 -20.223   0.634  1.00  0.00    -0.014 A 
ATOM     88  C   UNL     1      -2.297 -20.589  -0.154  1.00  0.00     0.010 A 
ATOM     89  C   UNL     1      -4.399 -21.179   0.905  1.00  0.00     0.010 A 
ATOM     90  C   UNL     1      -2.205 -21.878  -0.684  1.00  0.00     0.020 A 
ATOM     91  C   UNL     1      -4.295 -22.478   0.403  1.00  0.00     0.020 A 
ATOM     92  C   UNL     1      -3.204 -22.815  -0.401  1.00  0.00     0.054 A 
BRANCH  92  93
ATOM     93  S   UNL     1      -3.035 -24.495  -1.062  1.00  0.00     0.124 S 
ATOM     94  O   UNL     1      -3.314 -24.292  -2.481  1.00  0.00    -0.237 OA
ATOM     95  O   UNL     1      -1.651 -24.830  -0.735  1.00  0.00    -0.237 OA
ATOM     96  O   UNL     1      -4.044 -25.259  -0.332  1.00  0.00    -0.744 OA
ENDBRANCH  92  93
ENDBRANCH  66  87
ENDBRANCH  40  41
ENDBRANCH  32  35
ENDBRANCH  30  31
ENDBRANCH   1  30
TORSDOF 16
