REMARK SMILES Cc1cc2c(=O)c3ccccc3oc2c(C(=O)NCCCNC(=O)c2ccc(-c3c4nc(c(-c5ccc(S(=O)(=O)[O-])cc5)c5ccc([nH]5)c(-c5ccc(S(=O)(=O)[O-])cc5)c5nc(c(-c6ccc(S(=O)(=O)[O-])cc6)c6ccc3[nH]6)C=C5)C=C4)cc2)c1C
REMARK SMILES IDX 22 1 23 2 24 3 21 5 20 6 19 7 18 8 16 9 17 10 15 12 1 13
REMARK SMILES IDX 2 14 3 15 85 16 4 17 86 18 5 19 14 20 6 21 7 22 13 23 8 24
REMARK SMILES IDX 12 25 9 26 11 27 10 28 25 29 26 30 84 31 27 32 83 33 28 34
REMARK SMILES IDX 29 35 30 36 77 37 31 38 82 39 76 40 78 41 32 42 81 43 75 44
REMARK SMILES IDX 74 45 33 47 63 48 44 49 62 50 45 51 48 52 61 53 79 54 46 55
REMARK SMILES IDX 47 56 60 58 80 59 49 60 34 61 35 62 43 63 36 64 42 65 37 66
REMARK SMILES IDX 38 67 39 68 40 69 41 70 64 71 65 72 73 73 66 74 72 75 67 76
REMARK SMILES IDX 68 77 69 78 70 79 71 80 50 81 51 82 59 83 52 84 58 85 53 86
REMARK SMILES IDX 54 87 55 88 56 89 57 90
REMARK H PARENT 22 4 18 11 78 46 48 57
REMARK Flexibility Score: inf
ROOT
ATOM      1  N   UNL     1       2.090  -7.321  -0.071  1.00  0.00    -0.352 N 
ATOM      2  C   UNL     1       2.784  -7.975  -1.068  1.00  0.00     0.251 C 
ATOM      3  O   UNL     1       2.158  -8.525  -1.966  1.00  0.00    -0.269 OA
ATOM      4  H   UNL     1       1.119  -7.480  -0.069  1.00  0.00     0.163 HD
ENDROOT
BRANCH   1   5
ATOM      5  C   UNL     1       2.567  -6.433   0.977  1.00  0.00     0.118 C 
BRANCH   5   6
ATOM      6  C   UNL     1       2.022  -5.019   0.838  1.00  0.00     0.042 C 
BRANCH   6   7
ATOM      7  C   UNL     1       0.614  -4.796   1.408  1.00  0.00     0.118 C 
BRANCH   7   8
ATOM      8  N   UNL     1       0.703  -4.307   2.773  1.00  0.00    -0.352 N 
ATOM      9  C   UNL     1       0.725  -3.091   3.406  1.00  0.00     0.255 C 
ATOM     10  O   UNL     1       1.053  -3.169   4.597  1.00  0.00    -0.269 OA
ATOM     11  H   UNL     1       0.763  -5.049   3.417  1.00  0.00     0.163 HD
BRANCH   9  12
ATOM     12  C   UNL     1       0.373  -1.725   2.856  1.00  0.00     0.086 A 
ATOM     13  C   UNL     1       0.857   0.825  -0.025  1.00  0.00     0.044 C 
ATOM     14  C   UNL     1       0.488   0.193   1.296  1.00  0.00    -0.046 A 
ATOM     15  C   UNL     1      -0.097   1.016   2.256  1.00  0.00     0.019 A 
ATOM     16  C   UNL     1       0.787  -1.167   1.608  1.00  0.00    -0.032 A 
ATOM     17  C   UNL     1      -0.455   0.499   3.493  1.00  0.00     0.066 A 
ATOM     18  C   UNL     1       1.599  -1.918   0.598  1.00  0.00     0.045 C 
ATOM     19  C   UNL     1      -0.985   1.413   4.517  1.00  0.00     0.200 A 
ATOM     20  C   UNL     1      -0.272  -0.855   3.789  1.00  0.00     0.151 A 
ATOM     21  O   UNL     1      -1.171   2.602   4.289  1.00  0.00    -0.288 OA
ATOM     22  C   UNL     1      -1.260   0.842   5.834  1.00  0.00     0.065 A 
ATOM     23  O   UNL     1      -0.718  -1.379   4.990  1.00  0.00    -0.455 OA
ATOM     24  C   UNL     1      -1.661   1.655   6.899  1.00  0.00     0.016 A 
ATOM     25  C   UNL     1      -1.112  -0.530   5.994  1.00  0.00     0.138 A 
ATOM     26  C   UNL     1      -1.925   1.080   8.141  1.00  0.00     0.001 A 
ATOM     27  C   UNL     1      -1.381  -1.102   7.238  1.00  0.00     0.048 A 
ATOM     28  C   UNL     1      -1.788  -0.299   8.309  1.00  0.00     0.004 A 
ENDBRANCH   9  12
ENDBRANCH   7   8
ENDBRANCH   6   7
ENDBRANCH   5   6
ENDBRANCH   1   5
BRANCH   2  29
ATOM     29  C   UNL     1       4.271  -7.993  -1.083  1.00  0.00     0.039 A 
ATOM     30  C   UNL     1       5.011  -8.124   0.091  1.00  0.00     0.014 A 
ATOM     31  C   UNL     1       4.941  -7.899  -2.309  1.00  0.00     0.014 A 
ATOM     32  C   UNL     1       6.396  -7.974   0.063  1.00  0.00     0.010 A 
ATOM     33  C   UNL     1       6.341  -7.855  -2.346  1.00  0.00     0.010 A 
ATOM     34  C   UNL     1       7.083  -7.844  -1.155  1.00  0.00    -0.014 A 
BRANCH  34  35
ATOM     35  C   UNL     1       8.567  -7.718  -1.153  1.00  0.00     0.031 A 
ATOM     36  C   UNL     1       9.239  -6.476  -1.683  1.00  0.00     0.074 A 
ATOM     37  C   UNL     1       9.312  -8.704  -0.611  1.00  0.00     0.049 A 
ATOM     38  N   UNL     1      10.517  -6.193  -1.732  1.00  0.00    -0.248 NA
ATOM     39  C   UNL     1       8.375  -5.416  -2.228  1.00  0.00     0.031 C 
ATOM     40  C   UNL     1       8.777  -9.943  -0.041  1.00  0.00     0.029 A 
ATOM     41  N   UNL     1      10.667  -8.810  -0.410  1.00  0.00    -0.354 N 
ATOM     42  C   UNL     1      10.610  -4.941  -2.330  1.00  0.00     0.074 A 
ATOM     43  C   UNL     1       9.263  -4.525  -2.651  1.00  0.00     0.031 C 
ATOM     44  C   UNL     1       9.776 -10.640   0.517  1.00  0.00     0.029 A 
ATOM     45  C   UNL     1      11.036  -9.947   0.272  1.00  0.00     0.049 A 
ATOM     46  H   UNL     1      11.312  -8.136  -0.724  1.00  0.00     0.167 HD
ATOM     47  C   UNL     1      11.717  -4.202  -2.578  1.00  0.00     0.031 A 
ATOM     48  C   UNL     1      12.249 -10.395   0.656  1.00  0.00     0.031 A 
ATOM     49  C   UNL     1      13.054  -4.610  -2.227  1.00  0.00     0.049 A 
ATOM     50  C   UNL     1      13.465  -9.578   0.325  1.00  0.00     0.074 A 
ATOM     51  C   UNL     1      14.236  -3.914  -2.416  1.00  0.00     0.029 A 
ATOM     52  N   UNL     1      13.389  -5.806  -1.612  1.00  0.00    -0.354 N 
ATOM     53  N   UNL     1      13.529  -8.399  -0.246  1.00  0.00    -0.248 NA
ATOM     54  C   UNL     1      14.771 -10.150   0.678  1.00  0.00     0.031 C 
ATOM     55  C   UNL     1      15.290  -4.716  -1.976  1.00  0.00     0.029 A 
ATOM     56  C   UNL     1      14.761  -5.881  -1.444  1.00  0.00     0.049 A 
ATOM     57  H   UNL     1      12.746  -6.499  -1.335  1.00  0.00     0.167 HD
ATOM     58  C   UNL     1      14.880  -8.085  -0.314  1.00  0.00     0.074 A 
ATOM     59  C   UNL     1      15.599  -9.186   0.294  1.00  0.00     0.031 C 
ATOM     60  C   UNL     1      15.468  -6.983  -0.840  1.00  0.00     0.031 A 
BRANCH  47  61
ATOM     61  C   UNL     1      11.561  -2.868  -3.264  1.00  0.00    -0.014 A 
ATOM     62  C   UNL     1      12.076  -2.690  -4.562  1.00  0.00     0.010 A 
ATOM     63  C   UNL     1      11.041  -1.756  -2.578  1.00  0.00     0.010 A 
ATOM     64  C   UNL     1      12.109  -1.422  -5.149  1.00  0.00     0.020 A 
ATOM     65  C   UNL     1      11.047  -0.489  -3.172  1.00  0.00     0.020 A 
ATOM     66  C   UNL     1      11.605  -0.327  -4.444  1.00  0.00     0.054 A 
BRANCH  66  67
ATOM     67  S   UNL     1      11.693   1.319  -5.203  1.00  0.00     0.124 S 
ATOM     68  O   UNL     1      13.106   1.653  -5.054  1.00  0.00    -0.237 OA
ATOM     69  O   UNL     1      11.244   1.065  -6.570  1.00  0.00    -0.237 OA
ATOM     70  O   UNL     1      10.773   2.117  -4.395  1.00  0.00    -0.744 OA
ENDBRANCH  66  67
ENDBRANCH  47  61
BRANCH  48  71
ATOM     71  C   UNL     1      12.349 -11.676   1.410  1.00  0.00    -0.014 A 
ATOM     72  C   UNL     1      11.996 -12.894   0.799  1.00  0.00     0.010 A 
ATOM     73  C   UNL     1      12.713 -11.675   2.768  1.00  0.00     0.010 A 
ATOM     74  C   UNL     1      11.937 -14.073   1.546  1.00  0.00     0.020 A 
ATOM     75  C   UNL     1      12.688 -12.860   3.511  1.00  0.00     0.020 A 
ATOM     76  C   UNL     1      12.269 -14.045   2.902  1.00  0.00     0.054 A 
BRANCH  76  77
ATOM     77  S   UNL     1      12.130 -15.576   3.865  1.00  0.00     0.124 S 
ATOM     78  O   UNL     1      10.687 -15.672   4.067  1.00  0.00    -0.237 OA
ATOM     79  O   UNL     1      12.707 -16.573   2.967  1.00  0.00    -0.237 OA
ATOM     80  O   UNL     1      12.914 -15.297   5.066  1.00  0.00    -0.744 OA
ENDBRANCH  76  77
ENDBRANCH  48  71
BRANCH  60  81
ATOM     81  C   UNL     1      16.970  -6.889  -0.796  1.00  0.00    -0.014 A 
ATOM     82  C   UNL     1      17.585  -5.915   0.012  1.00  0.00     0.010 A 
ATOM     83  C   UNL     1      17.763  -7.665  -1.659  1.00  0.00     0.010 A 
ATOM     84  C   UNL     1      18.960  -5.687  -0.075  1.00  0.00     0.020 A 
ATOM     85  C   UNL     1      19.143  -7.460  -1.728  1.00  0.00     0.020 A 
ATOM     86  C   UNL     1      19.728  -6.453  -0.955  1.00  0.00     0.054 A 
BRANCH  86  87
ATOM     87  S   UNL     1      21.505  -6.112  -1.089  1.00  0.00     0.124 S 
ATOM     88  O   UNL     1      21.523  -4.894  -1.895  1.00  0.00    -0.237 OA
ATOM     89  O   UNL     1      21.907  -5.950   0.306  1.00  0.00    -0.237 OA
ATOM     90  O   UNL     1      22.034  -7.305  -1.748  1.00  0.00    -0.744 OA
ENDBRANCH  86  87
ENDBRANCH  60  81
ENDBRANCH  34  35
ENDBRANCH   2  29
TORSDOF 13
