REMARK SMILES CC[C@@H]1CCC[C@@](Cc2ccccn2)(C(=O)NCCCNC(=O)c2ccc(-c3c4nc(c(-c5ccc(S(=O)(=O)[O-])cc5)c5ccc([nH]5)c(-c5ccc(S(=O)(=O)[O-])cc5)c5nc(c(-c6ccc(S(=O)(=O)[O-])cc6)c6ccc3[nH]6)C=C5)C=C4)cc2)C1
REMARK SMILES IDX 19 1 18 2 17 3 15 4 16 5 7 7 3 8 4 9 84 10 5 11 6 12 2 13
REMARK SMILES IDX 1 14 8 15 9 16 10 17 14 18 11 19 13 20 12 21 20 22 21 23
REMARK SMILES IDX 22 24 23 26 24 27 25 28 83 29 26 30 82 31 27 32 28 33 29 34
REMARK SMILES IDX 76 35 30 36 81 37 75 38 77 39 31 40 80 41 74 42 73 43 32 45
REMARK SMILES IDX 62 46 43 47 61 48 44 49 47 50 60 51 78 52 45 53 46 54 59 56
REMARK SMILES IDX 79 57 48 58 33 59 34 60 42 61 35 62 41 63 36 64 37 65 38 66
REMARK SMILES IDX 39 67 40 68 63 69 64 70 72 71 65 72 71 73 66 74 67 75 68 76
REMARK SMILES IDX 69 77 70 78 49 79 50 80 58 81 51 82 57 83 52 84 53 85 54 86
REMARK SMILES IDX 55 87 56 88
REMARK H PARENT 17 6 21 25 77 44 47 55
REMARK Flexibility Score: inf
ROOT
ATOM      1  C   UNL     1       2.383   1.174   8.022  1.00  0.00     0.042 C 
ENDROOT
BRANCH   1   2
ATOM      2  C   UNL     1       2.062   2.042   6.828  1.00  0.00     0.117 C 
BRANCH   2   3
ATOM      3  N   UNL     1       2.660   1.599   5.586  1.00  0.00    -0.356 N 
ATOM      4  C   UNL     1       2.161   1.576   4.322  1.00  0.00     0.226 C 
ATOM      5  O   UNL     1       3.009   1.537   3.422  1.00  0.00    -0.274 OA
ATOM      6  H   UNL     1       3.580   1.259   5.671  1.00  0.00     0.163 HD
BRANCH   4   7
ATOM      7  C   UNL     1       0.648   1.633   3.991  1.00  0.00     0.055 C 
ATOM      8  C   UNL     1       0.772  -0.446   2.387  1.00  0.00    -0.010 C 
ATOM      9  C   UNL     1       0.052  -1.292   3.447  1.00  0.00     0.003 C 
ATOM     10  C   UNL     1       0.455   1.058   2.539  1.00  0.00     0.021 C 
ATOM     11  C   UNL     1       0.182  -0.722   4.853  1.00  0.00     0.001 C 
ATOM     12  C   UNL     1      -0.245   0.746   4.889  1.00  0.00     0.017 C 
BRANCH   8  13
ATOM     13  C   UNL     1       0.400  -0.978   0.986  1.00  0.00     0.000 C 
ATOM     14  C   UNL     1       1.033  -0.211  -0.165  1.00  0.00     0.004 C 
ENDBRANCH   8  13
BRANCH   7  15
ATOM     15  C   UNL     1       0.177   3.120   3.902  1.00  0.00     0.073 C 
BRANCH  15  16
ATOM     16  C   UNL     1       0.383   4.033   5.085  1.00  0.00     0.041 A 
ATOM     17  C   UNL     1       1.522   4.836   5.178  1.00  0.00     0.024 A 
ATOM     18  N   UNL     1      -0.562   4.008   6.056  1.00  0.00    -0.261 NA
ATOM     19  C   UNL     1       1.719   5.600   6.328  1.00  0.00     0.003 A 
ATOM     20  C   UNL     1      -0.349   4.767   7.157  1.00  0.00     0.111 A 
ATOM     21  C   UNL     1       0.772   5.559   7.344  1.00  0.00     0.020 A 
ENDBRANCH  15  16
ENDBRANCH   7  15
ENDBRANCH   4   7
ENDBRANCH   2   3
ENDBRANCH   1   2
BRANCH   1  22
ATOM     22  C   UNL     1       3.830   1.304   8.467  1.00  0.00     0.118 C 
BRANCH  22  23
ATOM     23  N   UNL     1       4.207   2.678   8.811  1.00  0.00    -0.352 N 
ATOM     24  C   UNL     1       4.527   3.243  10.022  1.00  0.00     0.251 C 
ATOM     25  H   UNL     1       4.235   3.299   8.048  1.00  0.00     0.163 HD
ATOM     26  O   UNL     1       4.611   4.464  10.124  1.00  0.00    -0.269 OA
BRANCH  24  27
ATOM     27  C   UNL     1       4.745   2.376  11.195  1.00  0.00     0.039 A 
ATOM     28  C   UNL     1       4.239   2.752  12.441  1.00  0.00     0.014 A 
ATOM     29  C   UNL     1       5.422   1.166  11.049  1.00  0.00     0.014 A 
ATOM     30  C   UNL     1       4.330   1.863  13.514  1.00  0.00     0.010 A 
ATOM     31  C   UNL     1       5.387   0.233  12.072  1.00  0.00     0.010 A 
ATOM     32  C   UNL     1       4.856   0.575  13.322  1.00  0.00    -0.014 A 
BRANCH  32  33
ATOM     33  C   UNL     1       4.884  -0.436  14.408  1.00  0.00     0.031 A 
ATOM     34  C   UNL     1       6.199  -1.040  14.829  1.00  0.00     0.074 A 
ATOM     35  C   UNL     1       3.728  -0.879  14.941  1.00  0.00     0.049 A 
ATOM     36  N   UNL     1       6.427  -2.010  15.676  1.00  0.00    -0.248 NA
ATOM     37  C   UNL     1       7.414  -0.519  14.178  1.00  0.00     0.031 C 
ATOM     38  C   UNL     1       2.386  -0.425  14.563  1.00  0.00     0.029 A 
ATOM     39  N   UNL     1       3.494  -1.819  15.912  1.00  0.00    -0.354 N 
ATOM     40  C   UNL     1       7.798  -2.236  15.628  1.00  0.00     0.074 A 
ATOM     41  C   UNL     1       8.341  -1.351  14.623  1.00  0.00     0.031 C 
ATOM     42  C   UNL     1       1.476  -1.054  15.324  1.00  0.00     0.029 A 
ATOM     43  C   UNL     1       2.162  -1.986  16.211  1.00  0.00     0.049 A 
ATOM     44  H   UNL     1       4.213  -2.326  16.354  1.00  0.00     0.167 HD
ATOM     45  C   UNL     1       8.546  -3.082  16.375  1.00  0.00     0.031 A 
ATOM     46  C   UNL     1       1.563  -2.796  17.104  1.00  0.00     0.031 A 
ATOM     47  C   UNL     1       8.005  -3.926  17.404  1.00  0.00     0.049 A 
ATOM     48  C   UNL     1       2.417  -3.689  17.961  1.00  0.00     0.074 A 
ATOM     49  C   UNL     1       8.678  -4.767  18.271  1.00  0.00     0.029 A 
ATOM     50  N   UNL     1       6.656  -4.023  17.714  1.00  0.00    -0.354 N 
ATOM     51  N   UNL     1       3.721  -3.842  17.947  1.00  0.00    -0.248 NA
ATOM     52  C   UNL     1       1.724  -4.502  18.968  1.00  0.00     0.031 C 
ATOM     53  C   UNL     1       7.731  -5.401  19.083  1.00  0.00     0.029 A 
ATOM     54  C   UNL     1       6.475  -4.915  18.756  1.00  0.00     0.049 A 
ATOM     55  H   UNL     1       5.935  -3.530  17.260  1.00  0.00     0.167 HD
ATOM     56  C   UNL     1       4.006  -4.744  18.964  1.00  0.00     0.074 A 
ATOM     57  C   UNL     1       2.742  -5.093  19.580  1.00  0.00     0.031 C 
ATOM     58  C   UNL     1       5.207  -5.238  19.357  1.00  0.00     0.031 A 
BRANCH  45  59
ATOM     59  C   UNL     1      10.029  -3.118  16.110  1.00  0.00    -0.014 A 
ATOM     60  C   UNL     1      10.849  -2.018  16.422  1.00  0.00     0.010 A 
ATOM     61  C   UNL     1      10.614  -4.271  15.558  1.00  0.00     0.010 A 
ATOM     62  C   UNL     1      12.217  -2.051  16.141  1.00  0.00     0.020 A 
ATOM     63  C   UNL     1      11.989  -4.321  15.305  1.00  0.00     0.020 A 
ATOM     64  C   UNL     1      12.778  -3.201  15.580  1.00  0.00     0.054 A 
BRANCH  64  65
ATOM     65  S   UNL     1      14.559  -3.223  15.242  1.00  0.00     0.124 S 
ATOM     66  O   UNL     1      14.651  -2.366  14.062  1.00  0.00    -0.237 OA
ATOM     67  O   UNL     1      15.125  -2.666  16.468  1.00  0.00    -0.237 OA
ATOM     68  O   UNL     1      14.851  -4.635  15.010  1.00  0.00    -0.744 OA
ENDBRANCH  64  65
ENDBRANCH  45  59
BRANCH  46  69
ATOM     69  C   UNL     1       0.083  -2.764  17.264  1.00  0.00    -0.014 A 
ATOM     70  C   UNL     1      -0.494  -2.189  18.410  1.00  0.00     0.010 A 
ATOM     71  C   UNL     1      -0.757  -3.286  16.264  1.00  0.00     0.010 A 
ATOM     72  C   UNL     1      -1.883  -2.156  18.564  1.00  0.00     0.020 A 
ATOM     73  C   UNL     1      -2.148  -3.230  16.402  1.00  0.00     0.020 A 
ATOM     74  C   UNL     1      -2.702  -2.676  17.558  1.00  0.00     0.054 A 
BRANCH  74  75
ATOM     75  S   UNL     1      -4.503  -2.576  17.757  1.00  0.00     0.124 S 
ATOM     76  O   UNL     1      -4.756  -3.611  18.754  1.00  0.00    -0.237 OA
ATOM     77  O   UNL     1      -4.695  -1.200  18.210  1.00  0.00    -0.237 OA
ATOM     78  O   UNL     1      -5.010  -2.858  16.416  1.00  0.00    -0.744 OA
ENDBRANCH  74  75
ENDBRANCH  46  69
BRANCH  58  79
ATOM     79  C   UNL     1       5.216  -6.168  20.539  1.00  0.00    -0.014 A 
ATOM     80  C   UNL     1       4.738  -7.486  20.436  1.00  0.00     0.010 A 
ATOM     81  C   UNL     1       5.764  -5.726  21.757  1.00  0.00     0.010 A 
ATOM     82  C   UNL     1       4.776  -8.335  21.544  1.00  0.00     0.020 A 
ATOM     83  C   UNL     1       5.829  -6.582  22.858  1.00  0.00     0.020 A 
ATOM     84  C   UNL     1       5.319  -7.877  22.749  1.00  0.00     0.054 A 
BRANCH  84  85
ATOM     85  S   UNL     1       5.392  -9.011  24.162  1.00  0.00     0.124 S 
ATOM     86  O   UNL     1       4.000  -9.036  24.602  1.00  0.00    -0.237 OA
ATOM     87  O   UNL     1       5.883 -10.247  23.558  1.00  0.00    -0.237 OA
ATOM     88  O   UNL     1       6.325  -8.360  25.080  1.00  0.00    -0.744 OA
ENDBRANCH  84  85
ENDBRANCH  58  79
ENDBRANCH  32  33
ENDBRANCH  24  27
ENDBRANCH  22  23
ENDBRANCH   1  22
TORSDOF 16
