REMARK SMILES [NH3+]Cc1c(-c2ccccc2)c(C(=O)NCCCNC(=O)c2ccc(-c3c4nc(c(-c5ccc(S(=O)(=O)[O-])cc5)c5ccc([nH]5)c(-c5ccc(S(=O)(=O)[O-])cc5)c5nc(c(-c6ccc(S(=O)(=O)[O-])cc6)c6ccc3[nH]6)C=C5)C=C4)cc2)c2ccccn12
REMARK SMILES IDX 16 1 15 2 14 3 12 4 13 5 11 7 3 8 4 9 86 10 81 11 85 12
REMARK SMILES IDX 82 13 84 14 83 15 2 16 1 17 5 21 6 22 10 23 7 24 9 25 8 26
REMARK SMILES IDX 17 27 18 28 19 29 20 31 21 32 22 33 80 34 23 35 79 36 24 37
REMARK SMILES IDX 25 38 26 39 73 40 27 41 78 42 72 43 74 44 28 45 77 46 71 47
REMARK SMILES IDX 70 48 29 50 59 51 40 52 58 53 41 54 44 55 57 56 75 57 42 58
REMARK SMILES IDX 43 59 56 61 76 62 45 63 30 64 31 65 39 66 32 67 38 68 33 69
REMARK SMILES IDX 34 70 35 71 36 72 37 73 60 74 61 75 69 76 62 77 68 78 63 79
REMARK SMILES IDX 64 80 65 81 66 82 67 83 46 84 47 85 55 86 48 87 54 88 49 89
REMARK SMILES IDX 50 90 51 91 52 92 53 93
REMARK H PARENT 14 6 1 18 1 19 1 20 18 30 74 49 44 60
REMARK Flexibility Score: inf
ROOT
ATOM      1  C   UNL     1       1.031  -5.771   5.652  1.00  0.00     0.042 C 
ENDROOT
BRANCH   1   2
ATOM      2  C   UNL     1       1.865  -5.272   4.484  1.00  0.00     0.118 C 
BRANCH   2   3
ATOM      3  N   UNL     1       1.670  -5.970   3.229  1.00  0.00    -0.352 N 
ATOM      4  C   UNL     1       1.647  -5.519   1.926  1.00  0.00     0.254 C 
ATOM      5  O   UNL     1       1.561  -6.390   1.061  1.00  0.00    -0.269 OA
ATOM      6  H   UNL     1       1.528  -6.939   3.324  1.00  0.00     0.163 HD
BRANCH   4   7
ATOM      7  C   UNL     1       1.632  -4.090   1.588  1.00  0.00     0.073 A 
ATOM      8  C   UNL     1       1.056  -2.123   0.507  1.00  0.00     0.086 A 
ATOM      9  C   UNL     1       0.980  -3.518   0.440  1.00  0.00     0.022 A 
ATOM     10  N   UNL     1       1.740  -1.831   1.680  1.00  0.00    -0.314 N 
ATOM     11  C   UNL     1       2.296  -3.020   2.173  1.00  0.00     0.059 A 
ATOM     12  C   UNL     1       1.921  -0.615   2.355  1.00  0.00     0.092 A 
ATOM     13  C   UNL     1       3.309  -2.888   3.175  1.00  0.00     0.027 A 
ATOM     14  C   UNL     1       2.740  -0.539   3.416  1.00  0.00     0.018 A 
ATOM     15  C   UNL     1       3.497  -1.711   3.796  1.00  0.00     0.004 A 
BRANCH   8  16
ATOM     16  C   UNL     1       0.471  -1.160  -0.490  1.00  0.00     0.315 C 
BRANCH  16  17
ATOM     17  N   UNL     1       0.980   0.199  -0.478  1.00  0.00    -0.353 N 
ATOM     18  H   UNL     1       0.504   0.746  -1.196  1.00  0.00     0.344 HD
ATOM     19  H   UNL     1       1.982   0.188  -0.667  1.00  0.00     0.344 HD
ATOM     20  H   UNL     1       0.811   0.618   0.436  1.00  0.00     0.344 HD
ENDBRANCH  16  17
ENDBRANCH   8  16
BRANCH   9  21
ATOM     21  C   UNL     1       0.330  -4.203  -0.670  1.00  0.00    -0.016 A 
ATOM     22  C   UNL     1      -0.930  -4.787  -0.520  1.00  0.00     0.009 A 
ATOM     23  C   UNL     1       0.984  -4.277  -1.908  1.00  0.00     0.009 A 
ATOM     24  C   UNL     1      -1.532  -5.433  -1.604  1.00  0.00     0.001 A 
ATOM     25  C   UNL     1       0.377  -4.914  -2.991  1.00  0.00     0.001 A 
ATOM     26  C   UNL     1      -0.882  -5.492  -2.838  1.00  0.00     0.000 A 
ENDBRANCH   9  21
ENDBRANCH   4   7
ENDBRANCH   2   3
ENDBRANCH   1   2
BRANCH   1  27
ATOM     27  C   UNL     1       1.230  -7.227   6.039  1.00  0.00     0.118 C 
BRANCH  27  28
ATOM     28  N   UNL     1       2.570  -7.541   6.520  1.00  0.00    -0.352 N 
ATOM     29  C   UNL     1       3.063  -7.778   7.785  1.00  0.00     0.251 C 
ATOM     30  H   UNL     1       3.248  -7.594   5.809  1.00  0.00     0.163 HD
ATOM     31  O   UNL     1       4.273  -7.911   7.934  1.00  0.00    -0.269 OA
BRANCH  29  32
ATOM     32  C   UNL     1       2.168  -7.830   8.967  1.00  0.00     0.039 A 
ATOM     33  C   UNL     1       2.607  -7.277  10.176  1.00  0.00     0.014 A 
ATOM     34  C   UNL     1       0.911  -8.427   8.909  1.00  0.00     0.014 A 
ATOM     35  C   UNL     1       1.747  -7.234  11.280  1.00  0.00     0.010 A 
ATOM     36  C   UNL     1       0.015  -8.273   9.962  1.00  0.00     0.010 A 
ATOM     37  C   UNL     1       0.421  -7.680  11.165  1.00  0.00    -0.014 A 
BRANCH  37  38
ATOM     38  C   UNL     1      -0.554  -7.558  12.282  1.00  0.00     0.031 A 
ATOM     39  C   UNL     1      -1.229  -8.789  12.834  1.00  0.00     0.074 A 
ATOM     40  C   UNL     1      -0.896  -6.338  12.747  1.00  0.00     0.049 A 
ATOM     41  N   UNL     1      -2.182  -8.878  13.727  1.00  0.00    -0.248 NA
ATOM     42  C   UNL     1      -0.801 -10.087  12.286  1.00  0.00     0.031 C 
ATOM     43  C   UNL     1      -0.354  -5.063  12.271  1.00  0.00     0.029 A 
ATOM     44  N   UNL     1      -1.790  -5.970  13.723  1.00  0.00    -0.354 N 
ATOM     45  C   UNL     1      -2.481 -10.233  13.827  1.00  0.00     0.074 A 
ATOM     46  C   UNL     1      -1.656 -10.920  12.859  1.00  0.00     0.031 C 
ATOM     47  C   UNL     1      -0.893  -4.060  12.982  1.00  0.00     0.029 A 
ATOM     48  C   UNL     1      -1.856  -4.612  13.930  1.00  0.00     0.049 A 
ATOM     49  H   UNL     1      -2.332  -6.618  14.228  1.00  0.00     0.167 HD
ATOM     50  C   UNL     1      -3.342 -10.855  14.666  1.00  0.00     0.031 A 
ATOM     51  C   UNL     1      -2.609  -3.888  14.782  1.00  0.00     0.031 A 
ATOM     52  C   UNL     1      -4.143 -10.174  15.647  1.00  0.00     0.049 A 
ATOM     53  C   UNL     1      -3.560  -4.600  15.704  1.00  0.00     0.074 A 
ATOM     54  C   UNL     1      -5.011 -10.718  16.578  1.00  0.00     0.029 A 
ATOM     55  N   UNL     1      -4.168  -8.800  15.830  1.00  0.00    -0.354 N 
ATOM     56  N   UNL     1      -3.797  -5.886  15.809  1.00  0.00    -0.248 NA
ATOM     57  C   UNL     1      -4.339  -3.764  16.628  1.00  0.00     0.031 C 
ATOM     58  C   UNL     1      -5.594  -9.668  17.295  1.00  0.00     0.029 A 
ATOM     59  C   UNL     1      -5.046  -8.476  16.850  1.00  0.00     0.049 A 
ATOM     60  H   UNL     1      -3.640  -8.151  15.312  1.00  0.00     0.167 HD
ATOM     61  C   UNL     1      -4.730  -6.015  16.832  1.00  0.00     0.074 A 
ATOM     62  C   UNL     1      -5.004  -4.679  17.320  1.00  0.00     0.031 C 
ATOM     63  C   UNL     1      -5.307  -7.140  17.324  1.00  0.00     0.031 A 
BRANCH  50  64
ATOM     64  C   UNL     1      -3.450 -12.355  14.565  1.00  0.00    -0.014 A 
ATOM     65  C   UNL     1      -2.385 -13.186  14.961  1.00  0.00     0.010 A 
ATOM     66  C   UNL     1      -4.640 -12.945  14.101  1.00  0.00     0.010 A 
ATOM     67  C   UNL     1      -2.491 -14.574  14.853  1.00  0.00     0.020 A 
ATOM     68  C   UNL     1      -4.761 -14.336  14.022  1.00  0.00     0.020 A 
ATOM     69  C   UNL     1      -3.678 -15.141  14.382  1.00  0.00     0.054 A 
BRANCH  69  70
ATOM     70  S   UNL     1      -3.795 -16.948  14.277  1.00  0.00     0.124 S 
ATOM     71  O   UNL     1      -2.935 -17.239  13.133  1.00  0.00    -0.237 OA
ATOM     72  O   UNL     1      -3.279 -17.378  15.575  1.00  0.00    -0.237 OA
ATOM     73  O   UNL     1      -5.219 -17.192  14.064  1.00  0.00    -0.744 OA
ENDBRANCH  69  70
ENDBRANCH  50  64
BRANCH  51  74
ATOM     74  C   UNL     1      -2.467  -2.406  14.824  1.00  0.00    -0.014 A 
ATOM     75  C   UNL     1      -1.851  -1.783  15.924  1.00  0.00     0.010 A 
ATOM     76  C   UNL     1      -2.926  -1.611  13.758  1.00  0.00     0.010 A 
ATOM     77  C   UNL     1      -1.707  -0.393  15.963  1.00  0.00     0.020 A 
ATOM     78  C   UNL     1      -2.758  -0.223  13.781  1.00  0.00     0.020 A 
ATOM     79  C   UNL     1      -2.158   0.378  14.889  1.00  0.00     0.054 A 
BRANCH  79  80
ATOM     80  S   UNL     1      -1.902   2.175  14.934  1.00  0.00     0.124 S 
ATOM     81  O   UNL     1      -2.887   2.597  15.923  1.00  0.00    -0.237 OA
ATOM     82  O   UNL     1      -0.504   2.283  15.345  1.00  0.00    -0.237 OA
ATOM     83  O   UNL     1      -2.173   2.593  13.560  1.00  0.00    -0.744 OA
ENDBRANCH  79  80
ENDBRANCH  51  74
BRANCH  63  84
ATOM     84  C   UNL     1      -6.265  -6.982  18.473  1.00  0.00    -0.014 A 
ATOM     85  C   UNL     1      -7.545  -6.433  18.286  1.00  0.00     0.010 A 
ATOM     86  C   UNL     1      -5.897  -7.448  19.749  1.00  0.00     0.010 A 
ATOM     87  C   UNL     1      -8.430  -6.325  19.362  1.00  0.00     0.020 A 
ATOM     88  C   UNL     1      -6.789  -7.368  20.821  1.00  0.00     0.020 A 
ATOM     89  C   UNL     1      -8.046  -6.793  20.623  1.00  0.00     0.054 A 
BRANCH  89  90
ATOM     90  S   UNL     1      -9.230  -6.684  21.992  1.00  0.00     0.124 S 
ATOM     91  O   UNL     1      -9.214  -5.255  22.293  1.00  0.00    -0.237 OA
ATOM     92  O   UNL     1     -10.463  -7.186  21.390  1.00  0.00    -0.237 OA
ATOM     93  O   UNL     1      -8.651  -7.544  23.021  1.00  0.00    -0.744 OA
ENDBRANCH  89  90
ENDBRANCH  63  84
ENDBRANCH  37  38
ENDBRANCH  29  32
ENDBRANCH  27  28
ENDBRANCH   1  27
TORSDOF 16
