REMARK SMILES Cc1c(CC(=O)NCCCNC(=O)c2ccc(-c3c4nc(c(-c5ccc(S(=O)(=O)[O-])cc5)c5ccc([nH]5)c(-c5ccc(S(=O)(=O)[O-])cc5)c5nc(c(-c6ccc(S(=O)(=O)[O-])cc6)c6ccc3[nH]6)C=C5)C=C4)cc2)cc(-c2ccc(S(C)(=O)=O)cc2)n1-c1ccccc1
REMARK SMILES IDX 9 1 8 2 7 3 5 4 6 5 4 7 3 8 1 9 2 10 86 11 74 12 75 13 87 14
REMARK SMILES IDX 88 15 92 16 89 17 91 18 90 19 76 20 77 21 85 22 78 23 84 24
REMARK SMILES IDX 79 25 80 26 81 27 82 28 83 29 10 30 11 31 12 32 13 34 14 35
REMARK SMILES IDX 15 36 73 37 16 38 72 39 17 40 18 41 19 42 66 43 20 44 71 45
REMARK SMILES IDX 65 46 67 47 21 48 70 49 64 50 63 51 22 53 52 54 33 55 51 56
REMARK SMILES IDX 34 57 37 58 50 59 68 60 35 61 36 62 49 64 69 65 38 66 23 67
REMARK SMILES IDX 24 68 32 69 25 70 31 71 26 72 27 73 28 74 29 75 30 76 53 77
REMARK SMILES IDX 54 78 62 79 55 80 61 81 56 82 57 83 58 84 59 85 60 86 39 87
REMARK SMILES IDX 40 88 48 89 41 90 47 91 42 92 43 93 44 94 45 95 46 96
REMARK H PARENT 7 6 11 33 67 52 37 63
REMARK Flexibility Score: inf
ROOT
ATOM      1  C   UNL     1      -2.751  -2.837  -1.042  1.00  0.00     0.042 C 
ENDROOT
BRANCH   1   2
ATOM      2  C   UNL     1      -1.562  -3.672  -1.603  1.00  0.00     0.117 C 
BRANCH   2   3
ATOM      3  N   UNL     1      -0.571  -2.909  -2.343  1.00  0.00    -0.356 N 
ATOM      4  C   UNL     1       0.707  -2.532  -2.049  1.00  0.00     0.224 C 
ATOM      5  O   UNL     1       1.327  -1.908  -2.918  1.00  0.00    -0.275 OA
ATOM      6  H   UNL     1      -0.882  -2.605  -3.227  1.00  0.00     0.163 HD
BRANCH   4   7
ATOM      7  C   UNL     1       1.398  -2.907  -0.747  1.00  0.00     0.137 C 
BRANCH   7   8
ATOM      8  C   UNL     1       0.743  -2.355   0.478  1.00  0.00    -0.017 A 
ATOM      9  C   UNL     1       0.858   0.184  -0.015  1.00  0.00     0.065 C 
ATOM     10  C   UNL     1       0.460  -1.027   0.769  1.00  0.00     0.024 A 
ATOM     11  N   UNL     1      -0.214  -0.982   1.986  1.00  0.00    -0.314 N 
ATOM     12  C   UNL     1       0.350  -3.116   1.607  1.00  0.00     0.033 A 
ATOM     13  C   UNL     1      -0.266  -2.275   2.514  1.00  0.00     0.053 A 
BRANCH  11  14
ATOM     14  C   UNL     1      -0.801   0.165   2.585  1.00  0.00     0.046 A 
ATOM     15  C   UNL     1      -0.572   0.435   3.940  1.00  0.00     0.026 A 
ATOM     16  C   UNL     1      -1.702   0.940   1.849  1.00  0.00     0.026 A 
ATOM     17  C   UNL     1      -1.270   1.465   4.567  1.00  0.00     0.002 A 
ATOM     18  C   UNL     1      -2.404   1.963   2.488  1.00  0.00     0.002 A 
ATOM     19  C   UNL     1      -2.194   2.220   3.844  1.00  0.00     0.000 A 
ENDBRANCH  11  14
BRANCH  13  20
ATOM     20  C   UNL     1      -0.952  -2.655   3.753  1.00  0.00    -0.001 A 
ATOM     21  C   UNL     1      -2.314  -2.370   3.941  1.00  0.00     0.011 A 
ATOM     22  C   UNL     1      -0.239  -3.292   4.777  1.00  0.00     0.011 A 
ATOM     23  C   UNL     1      -2.943  -2.662   5.153  1.00  0.00     0.021 A 
ATOM     24  C   UNL     1      -0.861  -3.591   5.990  1.00  0.00     0.021 A 
ATOM     25  C   UNL     1      -2.205  -3.257   6.179  1.00  0.00     0.067 A 
BRANCH  25  26
ATOM     26  S   UNL     1      -3.007  -3.627   7.719  1.00  0.00     0.175 S 
ATOM     27  C   UNL     1      -3.443  -2.045   8.389  1.00  0.00     0.163 C 
ATOM     28  O   UNL     1      -4.216  -4.349   7.412  1.00  0.00    -0.224 OA
ATOM     29  O   UNL     1      -1.999  -4.204   8.609  1.00  0.00    -0.224 OA
ENDBRANCH  25  26
ENDBRANCH  13  20
ENDBRANCH   7   8
ENDBRANCH   4   7
ENDBRANCH   2   3
ENDBRANCH   1   2
BRANCH   1  30
ATOM     30  C   UNL     1      -3.462  -1.742  -1.940  1.00  0.00     0.118 C 
BRANCH  30  31
ATOM     31  N   UNL     1      -4.800  -2.082  -2.446  1.00  0.00    -0.352 N 
ATOM     32  C   UNL     1      -5.982  -1.459  -2.885  1.00  0.00     0.251 C 
ATOM     33  H   UNL     1      -4.901  -3.061  -2.494  1.00  0.00     0.163 HD
ATOM     34  O   UNL     1      -6.842  -2.343  -3.072  1.00  0.00    -0.269 OA
BRANCH  32  35
ATOM     35  C   UNL     1      -6.449   0.045  -3.165  1.00  0.00     0.039 A 
ATOM     36  C   UNL     1      -7.789   0.190  -3.542  1.00  0.00     0.014 A 
ATOM     37  C   UNL     1      -5.863   1.324  -3.212  1.00  0.00     0.014 A 
ATOM     38  C   UNL     1      -8.463   1.462  -3.977  1.00  0.00     0.010 A 
ATOM     39  C   UNL     1      -6.645   2.688  -3.483  1.00  0.00     0.010 A 
ATOM     40  C   UNL     1      -8.028   2.850  -3.878  1.00  0.00    -0.014 A 
BRANCH  40  41
ATOM     41  C   UNL     1      -9.204   4.202  -3.360  1.00  0.00     0.031 A 
ATOM     42  C   UNL     1      -9.601   2.951  -2.196  1.00  0.00     0.074 A 
ATOM     43  C   UNL     1     -10.053   5.664  -3.712  1.00  0.00     0.049 A 
ATOM     44  N   UNL     1     -10.471   2.014  -2.555  1.00  0.00    -0.248 NA
ATOM     45  C   UNL     1      -9.370   2.584  -0.771  1.00  0.00     0.031 C 
ATOM     46  C   UNL     1     -10.430   6.608  -4.947  1.00  0.00     0.029 A 
ATOM     47  N   UNL     1     -10.846   6.942  -2.900  1.00  0.00    -0.354 N 
ATOM     48  C   UNL     1     -11.434   2.361  -1.681  1.00  0.00     0.074 A 
ATOM     49  C   UNL     1     -10.628   2.146  -0.482  1.00  0.00     0.031 C 
ATOM     50  C   UNL     1     -10.734   7.960  -4.728  1.00  0.00     0.029 A 
ATOM     51  C   UNL     1     -10.880   8.400  -3.311  1.00  0.00     0.049 A 
ATOM     52  H   UNL     1     -11.332   6.705  -2.078  1.00  0.00     0.167 HD
ATOM     53  C   UNL     1     -11.916   3.568  -2.183  1.00  0.00     0.031 A 
ATOM     54  C   UNL     1     -10.344   9.648  -2.695  1.00  0.00     0.031 A 
ATOM     55  C   UNL     1     -11.164   4.708  -1.139  1.00  0.00     0.049 A 
ATOM     56  C   UNL     1      -9.182   9.135  -1.955  1.00  0.00     0.074 A 
ATOM     57  C   UNL     1     -10.604   4.778   0.185  1.00  0.00     0.029 A 
ATOM     58  N   UNL     1     -10.307   5.799  -1.325  1.00  0.00    -0.354 N 
ATOM     59  N   UNL     1      -8.011   8.926  -2.460  1.00  0.00    -0.248 NA
ATOM     60  C   UNL     1      -9.248   8.864  -0.511  1.00  0.00     0.031 C 
ATOM     61  C   UNL     1      -9.084   5.291   0.016  1.00  0.00     0.029 A 
ATOM     62  C   UNL     1      -8.879   5.698  -1.333  1.00  0.00     0.049 A 
ATOM     63  H   UNL     1     -10.709   6.688  -1.457  1.00  0.00     0.167 HD
ATOM     64  C   UNL     1      -7.650   7.829  -1.738  1.00  0.00     0.074 A 
ATOM     65  C   UNL     1      -8.135   8.138  -0.405  1.00  0.00     0.031 C 
ATOM     66  C   UNL     1      -7.870   6.628  -2.370  1.00  0.00     0.031 A 
BRANCH  53  67
ATOM     67  C   UNL     1     -11.986   3.102  -3.985  1.00  0.00    -0.014 A 
ATOM     68  C   UNL     1     -12.435   1.785  -4.406  1.00  0.00     0.010 A 
ATOM     69  C   UNL     1     -11.142   3.502  -5.080  1.00  0.00     0.010 A 
ATOM     70  C   UNL     1     -11.950   1.011  -5.611  1.00  0.00     0.020 A 
ATOM     71  C   UNL     1     -10.584   2.774  -6.215  1.00  0.00     0.020 A 
ATOM     72  C   UNL     1     -10.987   1.505  -6.492  1.00  0.00     0.054 A 
BRANCH  72  73
ATOM     73  S   UNL     1     -10.178   0.581  -7.870  1.00  0.00     0.124 S 
ATOM     74  O   UNL     1     -10.001  -0.766  -7.330  1.00  0.00    -0.237 OA
ATOM     75  O   UNL     1     -11.162   0.689  -8.944  1.00  0.00    -0.237 OA
ATOM     76  O   UNL     1      -8.923   1.295  -8.110  1.00  0.00    -0.744 OA
ENDBRANCH  72  73
ENDBRANCH  53  67
BRANCH  54  77
ATOM     77  C   UNL     1     -10.567  11.192  -1.887  1.00  0.00    -0.014 A 
ATOM     78  C   UNL     1     -11.676  12.056  -1.672  1.00  0.00     0.010 A 
ATOM     79  C   UNL     1      -9.401  11.767  -1.201  1.00  0.00     0.010 A 
ATOM     80  C   UNL     1     -11.636  13.262  -0.785  1.00  0.00     0.020 A 
ATOM     81  C   UNL     1      -9.357  12.895  -0.297  1.00  0.00     0.020 A 
ATOM     82  C   UNL     1     -10.489  13.648  -0.072  1.00  0.00     0.054 A 
BRANCH  82  83
ATOM     83  S   UNL     1     -10.448  15.044   1.169  1.00  0.00     0.124 S 
ATOM     84  O   UNL     1     -10.425  16.242   0.334  1.00  0.00    -0.237 OA
ATOM     85  O   UNL     1     -11.673  14.846   1.941  1.00  0.00    -0.237 OA
ATOM     86  O   UNL     1      -9.217  14.807   1.927  1.00  0.00    -0.744 OA
ENDBRANCH  82  83
ENDBRANCH  54  77
BRANCH  66  87
ATOM     87  C   UNL     1      -7.661   6.825  -4.193  1.00  0.00    -0.014 A 
ATOM     88  C   UNL     1      -7.553   8.109  -4.877  1.00  0.00     0.010 A 
ATOM     89  C   UNL     1      -7.803   5.865  -5.267  1.00  0.00     0.010 A 
ATOM     90  C   UNL     1      -7.945   8.431  -6.258  1.00  0.00     0.020 A 
ATOM     91  C   UNL     1      -8.238   6.153  -6.668  1.00  0.00     0.020 A 
ATOM     92  C   UNL     1      -8.405   7.455  -7.121  1.00  0.00     0.054 A 
BRANCH  92  93
ATOM     93  S   UNL     1      -9.477   7.889  -8.587  1.00  0.00     0.124 S 
ATOM     94  O   UNL     1      -9.711   9.327  -8.436  1.00  0.00    -0.237 OA
ATOM     95  O   UNL     1      -8.649   7.525  -9.732  1.00  0.00    -0.237 OA
ATOM     96  O   UNL     1     -10.677   7.078  -8.388  1.00  0.00    -0.744 OA
ENDBRANCH  92  93
ENDBRANCH  66  87
ENDBRANCH  40  41
ENDBRANCH  32  35
ENDBRANCH  30  31
ENDBRANCH   1  30
TORSDOF 17
