REMARK SMILES Cc1ccc(NC(=O)N2CCCC[C@@H]2C(=O)NCCCNC(=O)c2ccc(-c3c4nc(c(-c5ccc(S(=O)(=O)[O-])cc5)c5ccc([nH]5)c(-c5ccc(S(=O)(=O)[O-])cc5)c5nc(c(-c6ccc(S(=O)(=O)[O-])cc6)c6ccc3[nH]6)C=C5)C=C4)cc2)cc1
REMARK SMILES IDX 19 1 18 2 17 3 15 4 16 5 14 7 9 8 10 9 11 10 13 11 12 12
REMARK SMILES IDX 7 13 6 14 8 16 5 17 1 18 2 19 3 20 85 21 4 22 84 23 20 24
REMARK SMILES IDX 21 25 22 26 23 28 24 29 25 30 83 31 26 32 82 33 27 34 28 35
REMARK SMILES IDX 29 36 76 37 30 38 81 39 75 40 77 41 31 42 80 43 74 44 73 45
REMARK SMILES IDX 32 47 62 48 43 49 61 50 44 51 47 52 60 53 78 54 45 55 46 56
REMARK SMILES IDX 59 58 79 59 48 60 33 61 34 62 42 63 35 64 41 65 36 66 37 67
REMARK SMILES IDX 38 68 39 69 40 70 63 71 64 72 72 73 65 74 71 75 66 76 67 77
REMARK SMILES IDX 68 78 69 79 70 80 49 81 50 82 58 83 51 84 57 85 52 86 53 87
REMARK SMILES IDX 54 88 55 89 56 90
REMARK H PARENT 17 6 6 15 21 27 77 46 47 57
REMARK Flexibility Score: inf
ROOT
ATOM      1  C   UNL     1      -5.583  -3.146   3.152  1.00  0.00     0.042 C 
ENDROOT
BRANCH   1   2
ATOM      2  C   UNL     1      -5.116  -2.064   2.184  1.00  0.00     0.117 C 
BRANCH   2   3
ATOM      3  N   UNL     1      -3.833  -1.491   2.572  1.00  0.00    -0.354 N 
ATOM      4  C   UNL     1      -2.563  -1.724   2.134  1.00  0.00     0.242 C 
ATOM      5  O   UNL     1      -1.644  -1.221   2.792  1.00  0.00    -0.273 OA
ATOM      6  H   UNL     1      -3.895  -0.810   3.281  1.00  0.00     0.163 HD
BRANCH   4   7
ATOM      7  C   UNL     1      -2.229  -2.727   0.997  1.00  0.00     0.176 C 
ATOM      8  N   UNL     1      -3.111  -2.660  -0.198  1.00  0.00    -0.313 N 
ATOM      9  C   UNL     1      -3.357  -3.868  -0.980  1.00  0.00     0.122 C 
ATOM     10  C   UNL     1      -3.376  -5.162  -0.188  1.00  0.00     0.022 C 
ATOM     11  C   UNL     1      -2.138  -4.114   1.664  1.00  0.00     0.035 C 
ATOM     12  C   UNL     1      -2.134  -5.263   0.675  1.00  0.00     0.004 C 
BRANCH   8  13
ATOM     13  C   UNL     1      -3.466  -1.473  -0.835  1.00  0.00     0.322 C 
ATOM     14  N   UNL     1      -2.811  -0.325  -0.511  1.00  0.00    -0.308 N 
ATOM     15  H   UNL     1      -3.376   0.430  -0.230  1.00  0.00     0.171 HD
ATOM     16  O   UNL     1      -4.412  -1.415  -1.623  1.00  0.00    -0.248 OA
BRANCH  14  17
ATOM     17  C   UNL     1      -1.425  -0.084  -0.529  1.00  0.00     0.042 A 
ATOM     18  C   UNL     1       2.808   0.545  -0.108  1.00  0.00     0.044 C 
ATOM     19  C   UNL     1       1.338   0.382  -0.348  1.00  0.00    -0.051 A 
ATOM     20  C   UNL     1       0.854  -0.741  -1.027  1.00  0.00     0.005 A 
ATOM     21  C   UNL     1       0.425   1.298   0.187  1.00  0.00     0.005 A 
ATOM     22  C   UNL     1      -0.520  -0.959  -1.137  1.00  0.00     0.026 A 
ATOM     23  C   UNL     1      -0.951   1.076   0.082  1.00  0.00     0.026 A 
ENDBRANCH  14  17
ENDBRANCH   8  13
ENDBRANCH   4   7
ENDBRANCH   2   3
ENDBRANCH   1   2
BRANCH   1  24
ATOM     24  C   UNL     1      -5.984  -2.590   4.512  1.00  0.00     0.118 C 
BRANCH  24  25
ATOM     25  N   UNL     1      -7.396  -2.771   4.809  1.00  0.00    -0.352 N 
ATOM     26  C   UNL     1      -7.976  -2.709   6.067  1.00  0.00     0.251 C 
ATOM     27  H   UNL     1      -7.995  -2.953   4.049  1.00  0.00     0.163 HD
ATOM     28  O   UNL     1      -9.004  -3.286   6.362  1.00  0.00    -0.269 OA
BRANCH  26  29
ATOM     29  C   UNL     1      -7.354  -1.744   6.999  1.00  0.00     0.039 A 
ATOM     30  C   UNL     1      -7.995  -0.510   7.161  1.00  0.00     0.014 A 
ATOM     31  C   UNL     1      -6.051  -1.947   7.439  1.00  0.00     0.014 A 
ATOM     32  C   UNL     1      -7.270   0.578   7.638  1.00  0.00     0.010 A 
ATOM     33  C   UNL     1      -5.309  -0.843   7.812  1.00  0.00     0.010 A 
ATOM     34  C   UNL     1      -5.905   0.426   7.881  1.00  0.00    -0.014 A 
BRANCH  34  35
ATOM     35  C   UNL     1      -5.000   1.538   8.160  1.00  0.00     0.031 A 
ATOM     36  C   UNL     1      -4.443   1.710   9.525  1.00  0.00     0.074 A 
ATOM     37  C   UNL     1      -4.594   2.371   7.176  1.00  0.00     0.049 A 
ATOM     38  N   UNL     1      -3.962   2.818   9.986  1.00  0.00    -0.248 NA
ATOM     39  C   UNL     1      -4.444   0.635  10.513  1.00  0.00     0.031 C 
ATOM     40  C   UNL     1      -3.452   3.281   7.229  1.00  0.00     0.029 A 
ATOM     41  N   UNL     1      -5.257   2.735   6.003  1.00  0.00    -0.354 N 
ATOM     42  C   UNL     1      -3.328   2.532  11.174  1.00  0.00     0.074 A 
ATOM     43  C   UNL     1      -3.730   1.184  11.499  1.00  0.00     0.031 C 
ATOM     44  C   UNL     1      -3.654   4.274   6.351  1.00  0.00     0.029 A 
ATOM     45  C   UNL     1      -4.990   4.102   5.808  1.00  0.00     0.049 A 
ATOM     46  H   UNL     1      -5.803   2.152   5.427  1.00  0.00     0.167 HD
ATOM     47  C   UNL     1      -2.417   3.407  11.689  1.00  0.00     0.031 A 
ATOM     48  C   UNL     1      -5.938   5.079   5.721  1.00  0.00     0.031 A 
ATOM     49  C   UNL     1      -2.334   4.637  10.906  1.00  0.00     0.049 A 
ATOM     50  C   UNL     1      -5.736   6.203   6.715  1.00  0.00     0.074 A 
ATOM     51  C   UNL     1      -1.433   5.103   9.962  1.00  0.00     0.029 A 
ATOM     52  N   UNL     1      -3.432   5.485  10.854  1.00  0.00    -0.354 N 
ATOM     53  N   UNL     1      -4.922   6.136   7.731  1.00  0.00    -0.248 NA
ATOM     54  C   UNL     1      -6.469   7.466   6.680  1.00  0.00     0.031 C 
ATOM     55  C   UNL     1      -2.021   6.214   9.304  1.00  0.00     0.029 A 
ATOM     56  C   UNL     1      -3.267   6.433   9.863  1.00  0.00     0.049 A 
ATOM     57  H   UNL     1      -4.219   5.420  11.443  1.00  0.00     0.167 HD
ATOM     58  C   UNL     1      -5.017   7.279   8.482  1.00  0.00     0.074 A 
ATOM     59  C   UNL     1      -5.985   8.091   7.769  1.00  0.00     0.031 C 
ATOM     60  C   UNL     1      -4.298   7.438   9.633  1.00  0.00     0.031 A 
BRANCH  47  61
ATOM     61  C   UNL     1      -1.395   3.021  12.739  1.00  0.00    -0.014 A 
ATOM     62  C   UNL     1      -0.146   3.677  12.772  1.00  0.00     0.010 A 
ATOM     63  C   UNL     1      -1.573   1.987  13.677  1.00  0.00     0.010 A 
ATOM     64  C   UNL     1       0.900   3.251  13.605  1.00  0.00     0.020 A 
ATOM     65  C   UNL     1      -0.525   1.522  14.487  1.00  0.00     0.020 A 
ATOM     66  C   UNL     1       0.714   2.149  14.435  1.00  0.00     0.054 A 
BRANCH  66  67
ATOM     67  S   UNL     1       2.103   1.543  15.427  1.00  0.00     0.124 S 
ATOM     68  O   UNL     1       3.134   1.310  14.419  1.00  0.00    -0.237 OA
ATOM     69  O   UNL     1       2.350   2.658  16.336  1.00  0.00    -0.237 OA
ATOM     70  O   UNL     1       1.576   0.333  16.057  1.00  0.00    -0.744 OA
ENDBRANCH  66  67
ENDBRANCH  47  61
BRANCH  48  71
ATOM     71  C   UNL     1      -7.254   4.610   5.208  1.00  0.00    -0.014 A 
ATOM     72  C   UNL     1      -7.318   4.251   3.845  1.00  0.00     0.010 A 
ATOM     73  C   UNL     1      -8.210   4.091   6.098  1.00  0.00     0.010 A 
ATOM     74  C   UNL     1      -8.180   3.237   3.421  1.00  0.00     0.020 A 
ATOM     75  C   UNL     1      -9.082   3.078   5.670  1.00  0.00     0.020 A 
ATOM     76  C   UNL     1      -8.998   2.604   4.357  1.00  0.00     0.054 A 
BRANCH  76  77
ATOM     77  S   UNL     1      -9.796   1.040   3.881  1.00  0.00     0.124 S 
ATOM     78  O   UNL     1     -10.475   1.395   2.640  1.00  0.00    -0.237 OA
ATOM     79  O   UNL     1      -8.648   0.143   3.736  1.00  0.00    -0.237 OA
ATOM     80  O   UNL     1     -10.666   0.750   5.016  1.00  0.00    -0.744 OA
ENDBRANCH  76  77
ENDBRANCH  48  71
BRANCH  60  81
ATOM     81  C   UNL     1      -4.427   8.558  10.644  1.00  0.00    -0.014 A 
ATOM     82  C   UNL     1      -5.538   9.406  10.762  1.00  0.00     0.010 A 
ATOM     83  C   UNL     1      -3.414   8.701  11.628  1.00  0.00     0.010 A 
ATOM     84  C   UNL     1      -5.614  10.376  11.777  1.00  0.00     0.020 A 
ATOM     85  C   UNL     1      -3.499   9.633  12.667  1.00  0.00     0.020 A 
ATOM     86  C   UNL     1      -4.594  10.483  12.722  1.00  0.00     0.054 A 
BRANCH  86  87
ATOM     87  S   UNL     1      -4.739  11.678  14.075  1.00  0.00     0.124 S 
ATOM     88  O   UNL     1      -4.136  12.872  13.489  1.00  0.00    -0.237 OA
ATOM     89  O   UNL     1      -6.182  11.752  14.297  1.00  0.00    -0.237 OA
ATOM     90  O   UNL     1      -3.982  11.059  15.160  1.00  0.00    -0.744 OA
ENDBRANCH  86  87
ENDBRANCH  60  81
ENDBRANCH  34  35
ENDBRANCH  26  29
ENDBRANCH  24  25
ENDBRANCH   1  24
TORSDOF 15
