REMARK SMILES CC(C)(O)C[C@]1(C(=O)NCCCNC(=O)c2ccc(-c3c4nc(c(-c5ccc(S(=O)(=O)[O-])cc5)c5ccc([nH]5)c(-c5ccc(S(=O)(=O)[O-])cc5)c5nc(c(-c6ccc(S(=O)(=O)[O-])cc6)c6ccc3[nH]6)C=C5)C=C4)cc2)CCc2ccccc2C1
REMARK SMILES IDX 11 1 10 2 9 3 7 4 8 5 6 7 76 8 84 9 77 10 83 11 78 12 82 13
REMARK SMILES IDX 79 14 81 15 80 16 5 17 2 18 1 19 3 20 4 21 12 23 13 24 14 25
REMARK SMILES IDX 15 27 16 28 17 29 75 30 18 31 74 32 19 33 20 34 21 35 68 36
REMARK SMILES IDX 22 37 73 38 67 39 69 40 23 41 72 42 66 43 65 44 24 46 54 47
REMARK SMILES IDX 35 48 53 49 36 50 39 51 52 52 70 53 37 54 38 55 51 57 71 58
REMARK SMILES IDX 40 59 25 60 26 61 34 62 27 63 33 64 28 65 29 66 30 67 31 68
REMARK SMILES IDX 32 69 55 70 56 71 64 72 57 73 63 74 58 75 59 76 60 77 61 78
REMARK SMILES IDX 62 79 41 80 42 81 50 82 43 83 49 84 44 85 45 86 46 87 47 88
REMARK SMILES IDX 48 89
REMARK H PARENT 9 6 4 22 13 26 69 45 39 56
REMARK Flexibility Score: inf
ROOT
ATOM      1  C   UNL     1      -1.739  -2.041   5.518  1.00  0.00     0.042 C 
ENDROOT
BRANCH   1   2
ATOM      2  C   UNL     1      -1.858  -1.791   4.019  1.00  0.00     0.117 C 
BRANCH   2   3
ATOM      3  N   UNL     1      -1.760  -0.380   3.718  1.00  0.00    -0.356 N 
ATOM      4  C   UNL     1      -0.766   0.446   3.319  1.00  0.00     0.226 C 
ATOM      5  O   UNL     1      -1.059   1.647   3.439  1.00  0.00    -0.274 OA
ATOM      6  H   UNL     1      -2.618   0.090   3.831  1.00  0.00     0.163 HD
BRANCH   4   7
ATOM      7  C   UNL     1       0.667   0.035   2.859  1.00  0.00     0.056 C 
ATOM      8  C   UNL     1       1.616   0.046   4.088  1.00  0.00     0.022 C 
ATOM      9  C   UNL     1       0.826  -1.274   2.073  1.00  0.00     0.052 C 
ATOM     10  C   UNL     1       1.647  -1.222   4.941  1.00  0.00     0.037 C 
ATOM     11  C   UNL     1       1.129  -2.534   2.837  1.00  0.00    -0.044 A 
ATOM     12  C   UNL     1       1.503  -2.511   4.184  1.00  0.00    -0.045 A 
ATOM     13  C   UNL     1       0.965  -3.764   2.174  1.00  0.00     0.004 A 
ATOM     14  C   UNL     1       1.643  -3.731   4.866  1.00  0.00     0.004 A 
ATOM     15  C   UNL     1       1.099  -4.964   2.863  1.00  0.00     0.000 A 
ATOM     16  C   UNL     1       1.427  -4.947   4.214  1.00  0.00     0.000 A 
BRANCH   7  17
ATOM     17  C   UNL     1       1.166   1.213   1.912  1.00  0.00     0.052 C 
BRANCH  17  18
ATOM     18  C   UNL     1       0.548   1.378   0.489  1.00  0.00     0.060 C 
ATOM     19  C   UNL     1       1.128   0.416  -0.556  1.00  0.00     0.042 C 
ATOM     20  C   UNL     1       0.814   2.814   0.007  1.00  0.00     0.042 C 
BRANCH  18  21
ATOM     21  O   UNL     1      -0.856   1.153   0.527  1.00  0.00    -0.390 OA
ATOM     22  H   UNL     1      -1.225   1.259  -0.364  1.00  0.00     0.211 HD
ENDBRANCH  18  21
ENDBRANCH  17  18
ENDBRANCH   7  17
ENDBRANCH   4   7
ENDBRANCH   2   3
ENDBRANCH   1   2
BRANCH   1  23
ATOM     23  C   UNL     1      -3.090  -2.168   6.200  1.00  0.00     0.118 C 
BRANCH  23  24
ATOM     24  N   UNL     1      -3.764  -3.408   5.838  1.00  0.00    -0.352 N 
ATOM     25  C   UNL     1      -4.154  -4.468   6.620  1.00  0.00     0.251 C 
ATOM     26  H   UNL     1      -3.973  -3.501   4.881  1.00  0.00     0.163 HD
ATOM     27  O   UNL     1      -4.503  -5.513   6.080  1.00  0.00    -0.269 OA
BRANCH  25  28
ATOM     28  C   UNL     1      -4.141  -4.362   8.096  1.00  0.00     0.039 A 
ATOM     29  C   UNL     1      -3.792  -5.487   8.850  1.00  0.00     0.014 A 
ATOM     30  C   UNL     1      -4.499  -3.177   8.743  1.00  0.00     0.014 A 
ATOM     31  C   UNL     1      -3.754  -5.403  10.244  1.00  0.00     0.010 A 
ATOM     32  C   UNL     1      -4.353  -3.064  10.121  1.00  0.00     0.010 A 
ATOM     33  C   UNL     1      -4.002  -4.182  10.890  1.00  0.00    -0.014 A 
BRANCH  33  34
ATOM     34  C   UNL     1      -3.934  -4.057  12.368  1.00  0.00     0.031 A 
ATOM     35  C   UNL     1      -5.158  -3.648  13.146  1.00  0.00     0.074 A 
ATOM     36  C   UNL     1      -2.761  -4.254  13.002  1.00  0.00     0.049 A 
ATOM     37  N   UNL     1      -5.285  -3.427  14.429  1.00  0.00    -0.248 NA
ATOM     38  C   UNL     1      -6.396  -3.426  12.377  1.00  0.00     0.031 C 
ATOM     39  C   UNL     1      -1.495  -4.607  12.354  1.00  0.00     0.029 A 
ATOM     40  N   UNL     1      -2.440  -4.182  14.334  1.00  0.00    -0.354 N 
ATOM     41  C   UNL     1      -6.601  -3.019  14.615  1.00  0.00     0.074 A 
ATOM     42  C   UNL     1      -7.217  -2.965  13.309  1.00  0.00     0.031 C 
ATOM     43  C   UNL     1      -0.546  -4.757  13.292  1.00  0.00     0.029 A 
ATOM     44  C   UNL     1      -1.121  -4.465  14.601  1.00  0.00     0.049 A 
ATOM     45  H   UNL     1      -3.092  -3.949  15.033  1.00  0.00     0.167 HD
ATOM     46  C   UNL     1      -7.248  -2.740  15.771  1.00  0.00     0.031 A 
ATOM     47  C   UNL     1      -0.448  -4.483  15.767  1.00  0.00     0.031 A 
ATOM     48  C   UNL     1      -6.635  -2.817  17.070  1.00  0.00     0.049 A 
ATOM     49  C   UNL     1      -1.188  -4.170  17.039  1.00  0.00     0.074 A 
ATOM     50  C   UNL     1      -7.216  -2.615  18.308  1.00  0.00     0.029 A 
ATOM     51  N   UNL     1      -5.301  -3.121  17.297  1.00  0.00    -0.354 N 
ATOM     52  N   UNL     1      -2.451  -3.853  17.200  1.00  0.00    -0.248 NA
ATOM     53  C   UNL     1      -0.415  -4.228  18.287  1.00  0.00     0.031 C 
ATOM     54  C   UNL     1      -6.221  -2.742  19.282  1.00  0.00     0.029 A 
ATOM     55  C   UNL     1      -5.034  -3.088  18.654  1.00  0.00     0.049 A 
ATOM     56  H   UNL     1      -4.642  -3.329  16.596  1.00  0.00     0.167 HD
ATOM     57  C   UNL     1      -2.631  -3.701  18.571  1.00  0.00     0.074 A 
ATOM     58  C   UNL     1      -1.351  -3.978  19.192  1.00  0.00     0.031 C 
ATOM     59  C   UNL     1      -3.753  -3.365  19.254  1.00  0.00     0.031 A 
BRANCH  46  60
ATOM     60  C   UNL     1      -8.694  -2.324  15.680  1.00  0.00    -0.014 A 
ATOM     61  C   UNL     1      -9.691  -3.233  15.278  1.00  0.00     0.010 A 
ATOM     62  C   UNL     1      -9.069  -1.015  16.034  1.00  0.00     0.010 A 
ATOM     63  C   UNL     1     -11.026  -2.829  15.189  1.00  0.00     0.020 A 
ATOM     64  C   UNL     1     -10.408  -0.616  15.977  1.00  0.00     0.020 A 
ATOM     65  C   UNL     1     -11.376  -1.522  15.538  1.00  0.00     0.054 A 
BRANCH  65  66
ATOM     66  S   UNL     1     -13.120  -1.034  15.437  1.00  0.00     0.124 S 
ATOM     67  O   UNL     1     -13.330  -0.965  13.993  1.00  0.00    -0.237 OA
ATOM     68  O   UNL     1     -13.799  -2.133  16.118  1.00  0.00    -0.237 OA
ATOM     69  O   UNL     1     -13.163   0.249  16.134  1.00  0.00    -0.744 OA
ENDBRANCH  65  66
ENDBRANCH  46  60
BRANCH  47  70
ATOM     70  C   UNL     1       1.001  -4.828  15.786  1.00  0.00    -0.014 A 
ATOM     71  C   UNL     1       1.440  -6.042  16.343  1.00  0.00     0.010 A 
ATOM     72  C   UNL     1       1.950  -3.950  15.230  1.00  0.00     0.010 A 
ATOM     73  C   UNL     1       2.801  -6.363  16.363  1.00  0.00     0.020 A 
ATOM     74  C   UNL     1       3.308  -4.281  15.220  1.00  0.00     0.020 A 
ATOM     75  C   UNL     1       3.726  -5.481  15.798  1.00  0.00     0.054 A 
BRANCH  75  76
ATOM     76  S   UNL     1       5.481  -5.941  15.790  1.00  0.00     0.124 S 
ATOM     77  O   UNL     1       5.844  -5.779  17.194  1.00  0.00    -0.237 OA
ATOM     78  O   UNL     1       5.444  -7.317  15.300  1.00  0.00    -0.237 OA
ATOM     79  O   UNL     1       6.084  -4.977  14.871  1.00  0.00    -0.744 OA
ENDBRANCH  75  76
ENDBRANCH  47  70
BRANCH  59  80
ATOM     80  C   UNL     1      -3.659  -3.310  20.755  1.00  0.00    -0.014 A 
ATOM     81  C   UNL     1      -2.956  -2.280  21.406  1.00  0.00     0.010 A 
ATOM     82  C   UNL     1      -4.335  -4.274  21.526  1.00  0.00     0.010 A 
ATOM     83  C   UNL     1      -2.904  -2.236  22.802  1.00  0.00     0.020 A 
ATOM     84  C   UNL     1      -4.311  -4.214  22.921  1.00  0.00     0.020 A 
ATOM     85  C   UNL     1      -3.583  -3.203  23.550  1.00  0.00     0.054 A 
BRANCH  85  86
ATOM     86  S   UNL     1      -3.535  -3.096  25.360  1.00  0.00     0.124 S 
ATOM     87  O   UNL     1      -2.167  -3.512  25.652  1.00  0.00    -0.237 OA
ATOM     88  O   UNL     1      -3.831  -1.687  25.605  1.00  0.00    -0.237 OA
ATOM     89  O   UNL     1      -4.575  -4.029  25.790  1.00  0.00    -0.744 OA
ENDBRANCH  85  86
ENDBRANCH  59  80
ENDBRANCH  33  34
ENDBRANCH  25  28
ENDBRANCH  23  24
ENDBRANCH   1  23
TORSDOF 16
