REMARK SMILES CCc1ccc(N2C(=O)/C(=C/c3cc(Cl)c(OCC(=O)NCCCNC(=O)c4ccc(-c5c6nc(c(-c7ccc(S(=O)(=O)[O-])cc7)c7ccc([nH]7)c(-c7ccc(S(=O)(=O)[O-])cc7)c7nc(c(-c8ccc(S(=O)(=O)[O-])cc8)c8ccc5[nH]8)C=C7)C=C6)cc4)c(Cl)c3)C(=O)NC2=S)cc1
REMARK SMILES IDX 22 1 21 2 19 3 20 4 18 6 17 7 16 8 12 9 13 10 90 11 14 12
REMARK SMILES IDX 88 13 15 14 89 15 11 16 7 17 8 18 94 19 9 20 10 21 93 22
REMARK SMILES IDX 95 23 91 24 92 26 6 27 3 28 4 29 97 30 5 31 96 32 2 33 1 34
REMARK SMILES IDX 23 35 24 36 25 37 26 38 27 40 28 41 29 42 87 43 30 44 86 45
REMARK SMILES IDX 31 46 32 47 33 48 80 49 34 50 85 51 79 52 81 53 35 54 84 55
REMARK SMILES IDX 78 56 77 57 36 59 66 60 47 61 65 62 48 63 51 64 64 65 82 66
REMARK SMILES IDX 49 67 50 68 63 70 83 71 52 72 37 73 38 74 46 75 39 76 45 77
REMARK SMILES IDX 40 78 41 79 42 80 43 81 44 82 67 83 68 84 76 85 69 86 75 87
REMARK SMILES IDX 70 88 71 89 72 90 73 91 74 92 53 93 54 94 62 95 55 96 61 97
REMARK SMILES IDX 56 98 57 99 58 100 59 101 60 102
REMARK H PARENT 21 5 93 25 25 39 81 58 51 69
REMARK Flexibility Score: inf
ROOT
ATOM      1  C   UNL     1       4.710  12.180   4.791  1.00  0.00     0.117 C 
ENDROOT
BRANCH   1   2
ATOM      2  N   UNL     1       4.594  11.828   6.193  1.00  0.00    -0.353 N 
ATOM      3  C   UNL     1       5.538  11.325   7.039  1.00  0.00     0.257 C 
ATOM      4  O   UNL     1       5.233  11.183   8.225  1.00  0.00    -0.271 OA
ATOM      5  H   UNL     1       3.705  11.971   6.591  1.00  0.00     0.163 HD
BRANCH   3   6
ATOM      6  C   UNL     1       6.952  11.015   6.524  1.00  0.00     0.329 C 
BRANCH   6   7
ATOM      7  O   UNL     1       7.178   9.976   5.590  1.00  0.00    -0.481 OA
BRANCH   7   8
ATOM      8  C   UNL     1       6.589   8.753   5.773  1.00  0.00     0.157 A 
ATOM      9  C   UNL     1       5.354   6.205   5.837  1.00  0.00    -0.021 A 
ATOM     10  C   UNL     1       5.534   6.866   4.623  1.00  0.00     0.032 A 
ATOM     11  C   UNL     1       5.836   6.788   7.008  1.00  0.00     0.032 A 
ATOM     12  C   UNL     1       6.154   8.118   4.594  1.00  0.00     0.085 A 
ATOM     13  C   UNL     1       6.468   8.043   6.978  1.00  0.00     0.085 A 
ATOM     14  Cl  UNL     1       6.396   8.843   3.037  1.00  0.00    -0.080 Cl
ATOM     15  Cl  UNL     1       7.189   8.542   8.468  1.00  0.00    -0.080 Cl
BRANCH   9  16
ATOM     16  C   UNL     1       4.700   4.896   5.841  1.00  0.00     0.028 C 
ATOM     17  N   UNL     1       1.589   3.244   5.371  1.00  0.00    -0.253 N 
ATOM     18  C   UNL     1       2.919   3.282   5.805  1.00  0.00     0.270 C 
ATOM     19  C   UNL     1       0.643   4.180   5.801  1.00  0.00     0.187 C 
ATOM     20  O   UNL     1       3.690   2.326   5.880  1.00  0.00    -0.268 OA
ATOM     21  C   UNL     1       3.404   4.653   6.120  1.00  0.00     0.106 C 
ATOM     22  N   UNL     1       1.133   5.300   6.427  1.00  0.00    -0.298 N 
ATOM     23  S   UNL     1      -1.030   4.072   5.707  1.00  0.00    -0.040 S 
ATOM     24  C   UNL     1       2.439   5.673   6.566  1.00  0.00     0.263 C 
ATOM     25  H   UNL     1       0.464   5.905   6.822  1.00  0.00     0.172 HD
ATOM     26  O   UNL     1       2.740   6.770   7.019  1.00  0.00    -0.269 OA
BRANCH  17  27
ATOM     27  C   UNL     1       1.248   2.230   4.413  1.00  0.00     0.052 A 
ATOM     28  C   UNL     1       0.774   0.336   2.367  1.00  0.00    -0.048 A 
ATOM     29  C   UNL     1       1.323  -0.056   3.595  1.00  0.00     0.006 A 
ATOM     30  C   UNL     1       0.441   1.681   2.182  1.00  0.00     0.006 A 
ATOM     31  C   UNL     1       1.572   0.884   4.603  1.00  0.00     0.027 A 
ATOM     32  C   UNL     1       0.680   2.617   3.189  1.00  0.00     0.027 A 
BRANCH  28  33
ATOM     33  C   UNL     1       0.511  -0.683   1.284  1.00  0.00     0.032 C 
ATOM     34  C   UNL     1       1.112  -0.312  -0.067  1.00  0.00     0.009 C 
ENDBRANCH  28  33
ENDBRANCH  17  27
ENDBRANCH   9  16
ENDBRANCH   7   8
ENDBRANCH   6   7
ENDBRANCH   3   6
ENDBRANCH   1   2
BRANCH   1  35
ATOM     35  C   UNL     1       3.783  11.361   3.901  1.00  0.00     0.042 C 
BRANCH  35  36
ATOM     36  C   UNL     1       2.297  11.436   4.240  1.00  0.00     0.118 C 
BRANCH  36  37
ATOM     37  N   UNL     1       1.751  12.781   4.174  1.00  0.00    -0.352 N 
ATOM     38  C   UNL     1       0.642  13.265   3.523  1.00  0.00     0.251 C 
ATOM     39  H   UNL     1       2.258  13.456   4.680  1.00  0.00     0.163 HD
ATOM     40  O   UNL     1       0.438  14.478   3.531  1.00  0.00    -0.269 OA
BRANCH  38  41
ATOM     41  C   UNL     1      -0.287  12.369   2.792  1.00  0.00     0.039 A 
ATOM     42  C   UNL     1      -0.823  12.822   1.581  1.00  0.00     0.014 A 
ATOM     43  C   UNL     1      -0.674  11.122   3.290  1.00  0.00     0.014 A 
ATOM     44  C   UNL     1      -1.692  12.008   0.849  1.00  0.00     0.010 A 
ATOM     45  C   UNL     1      -1.486  10.281   2.524  1.00  0.00     0.010 A 
ATOM     46  C   UNL     1      -2.007  10.716   1.297  1.00  0.00    -0.014 A 
BRANCH  46  47
ATOM     47  C   UNL     1      -2.871   9.820   0.483  1.00  0.00     0.031 A 
ATOM     48  C   UNL     1      -4.222   9.384   0.986  1.00  0.00     0.074 A 
ATOM     49  C   UNL     1      -2.425   9.368  -0.707  1.00  0.00     0.049 A 
ATOM     50  N   UNL     1      -5.109   8.616   0.404  1.00  0.00    -0.248 NA
ATOM     51  C   UNL     1      -4.618   9.850   2.324  1.00  0.00     0.031 C 
ATOM     52  C   UNL     1      -1.115   9.669  -1.290  1.00  0.00     0.029 A 
ATOM     53  N   UNL     1      -3.026   8.562  -1.641  1.00  0.00    -0.354 N 
ATOM     54  C   UNL     1      -6.159   8.495   1.308  1.00  0.00     0.074 A 
ATOM     55  C   UNL     1      -5.779   9.232   2.494  1.00  0.00     0.031 C 
ATOM     56  C   UNL     1      -1.026   9.086  -2.497  1.00  0.00     0.029 A 
ATOM     57  C   UNL     1      -2.258   8.350  -2.762  1.00  0.00     0.049 A 
ATOM     58  H   UNL     1      -3.922   8.172  -1.520  1.00  0.00     0.167 HD
ATOM     59  C   UNL     1      -7.341   7.848   1.160  1.00  0.00     0.031 A 
ATOM     60  C   UNL     1      -2.517   7.651  -3.885  1.00  0.00     0.031 A 
ATOM     61  C   UNL     1      -7.731   7.129  -0.025  1.00  0.00     0.049 A 
ATOM     62  C   UNL     1      -3.849   6.973  -4.042  1.00  0.00     0.074 A 
ATOM     63  C   UNL     1      -8.929   6.485  -0.287  1.00  0.00     0.029 A 
ATOM     64  N   UNL     1      -6.935   6.962  -1.147  1.00  0.00    -0.354 N 
ATOM     65  N   UNL     1      -4.851   6.922  -3.198  1.00  0.00    -0.248 NA
ATOM     66  C   UNL     1      -4.090   6.276  -5.313  1.00  0.00     0.031 C 
ATOM     67  C   UNL     1      -8.845   5.901  -1.556  1.00  0.00     0.029 A 
ATOM     68  C   UNL     1      -7.611   6.218  -2.101  1.00  0.00     0.049 A 
ATOM     69  H   UNL     1      -6.024   7.319  -1.251  1.00  0.00     0.167 HD
ATOM     70  C   UNL     1      -5.853   6.208  -3.847  1.00  0.00     0.074 A 
ATOM     71  C   UNL     1      -5.340   5.861  -5.156  1.00  0.00     0.031 C 
ATOM     72  C   UNL     1      -7.088   5.874  -3.398  1.00  0.00     0.031 A 
BRANCH  59  73
ATOM     73  C   UNL     1      -8.302   7.893   2.318  1.00  0.00    -0.014 A 
ATOM     74  C   UNL     1      -8.987   9.078   2.644  1.00  0.00     0.010 A 
ATOM     75  C   UNL     1      -8.547   6.731   3.072  1.00  0.00     0.010 A 
ATOM     76  C   UNL     1      -9.864   9.113   3.731  1.00  0.00     0.020 A 
ATOM     77  C   UNL     1      -9.444   6.755   4.145  1.00  0.00     0.020 A 
ATOM     78  C   UNL     1     -10.081   7.952   4.480  1.00  0.00     0.054 A 
BRANCH  78  79
ATOM     79  S   UNL     1     -11.233   8.020   5.880  1.00  0.00     0.124 S 
ATOM     80  O   UNL     1     -10.431   8.697   6.895  1.00  0.00    -0.237 OA
ATOM     81  O   UNL     1     -12.350   8.794   5.343  1.00  0.00    -0.237 OA
ATOM     82  O   UNL     1     -11.528   6.615   6.152  1.00  0.00    -0.744 OA
ENDBRANCH  78  79
ENDBRANCH  59  73
BRANCH  60  83
ATOM     83  C   UNL     1      -1.501   7.593  -4.969  1.00  0.00    -0.014 A 
ATOM     84  C   UNL     1      -1.684   8.328  -6.154  1.00  0.00     0.010 A 
ATOM     85  C   UNL     1      -0.339   6.817  -4.815  1.00  0.00     0.010 A 
ATOM     86  C   UNL     1      -0.729   8.277  -7.172  1.00  0.00     0.020 A 
ATOM     87  C   UNL     1       0.629   6.782  -5.822  1.00  0.00     0.020 A 
ATOM     88  C   UNL     1       0.423   7.504  -7.000  1.00  0.00     0.054 A 
BRANCH  88  89
ATOM     89  S   UNL     1       1.681   7.496  -8.308  1.00  0.00     0.124 S 
ATOM     90  O   UNL     1       1.091   6.592  -9.289  1.00  0.00    -0.237 OA
ATOM     91  O   UNL     1       1.743   8.902  -8.698  1.00  0.00    -0.237 OA
ATOM     92  O   UNL     1       2.873   6.994  -7.628  1.00  0.00    -0.744 OA
ENDBRANCH  88  89
ENDBRANCH  60  83
BRANCH  72  93
ATOM     93  C   UNL     1      -7.979   5.117  -4.344  1.00  0.00    -0.014 A 
ATOM     94  C   UNL     1      -7.748   3.761  -4.636  1.00  0.00     0.010 A 
ATOM     95  C   UNL     1      -9.077   5.769  -4.935  1.00  0.00     0.010 A 
ATOM     96  C   UNL     1      -8.572   3.083  -5.537  1.00  0.00     0.020 A 
ATOM     97  C   UNL     1      -9.917   5.088  -5.818  1.00  0.00     0.020 A 
ATOM     98  C   UNL     1      -9.647   3.753  -6.130  1.00  0.00     0.054 A 
BRANCH  98  99
ATOM     99  S   UNL     1     -10.715   2.851  -7.286  1.00  0.00     0.124 S 
ATOM    100  O   UNL     1      -9.911   2.854  -8.505  1.00  0.00    -0.237 OA
ATOM    101  O   UNL     1     -10.869   1.551  -6.638  1.00  0.00    -0.237 OA
ATOM    102  O   UNL     1     -11.930   3.662  -7.337  1.00  0.00    -0.744 OA
ENDBRANCH  98  99
ENDBRANCH  72  93
ENDBRANCH  46  47
ENDBRANCH  38  41
ENDBRANCH  36  37
ENDBRANCH  35  36
ENDBRANCH   1  35
TORSDOF 18
