REMARK SMILES C[C@H]1SC[C@H](C(=O)NCCCNC(=O)c2ccc(-c3c4nc(c(-c5ccc(S(=O)(=O)[O-])cc5)c5ccc([nH]5)c(-c5ccc(S(=O)(=O)[O-])cc5)c5nc(c(-c6ccc(S(=O)(=O)[O-])cc6)c6ccc3[nH]6)C=C5)C=C4)cc2)N1C(=O)[C@@H]1CSc2ccccc21
REMARK SMILES IDX 10 1 9 2 8 3 6 4 7 5 5 7 1 8 2 9 3 10 75 11 4 12 76 13 77 14
REMARK SMILES IDX 78 15 79 16 86 17 80 18 81 19 85 20 82 21 84 22 83 23 11 24
REMARK SMILES IDX 12 25 13 26 14 28 15 29 16 30 74 31 17 32 73 33 18 34 19 35
REMARK SMILES IDX 20 36 67 37 21 38 72 39 66 40 68 41 22 42 71 43 65 44 64 45
REMARK SMILES IDX 23 47 53 48 34 49 52 50 35 51 38 52 51 53 69 54 36 55 37 56
REMARK SMILES IDX 50 58 70 59 39 60 24 61 25 62 33 63 26 64 32 65 27 66 28 67
REMARK SMILES IDX 29 68 30 69 31 70 54 71 55 72 63 73 56 74 62 75 57 76 58 77
REMARK SMILES IDX 59 78 60 79 61 80 40 81 41 82 49 83 42 84 48 85 43 86 44 87
REMARK SMILES IDX 45 88 46 89 47 90
REMARK H PARENT 8 6 12 27 68 46 38 57
REMARK Flexibility Score: inf
ROOT
ATOM      1  C   UNL     1       2.076  -3.917   6.747  1.00  0.00     0.042 C 
ENDROOT
BRANCH   1   2
ATOM      2  C   UNL     1       2.486  -2.670   5.985  1.00  0.00     0.117 C 
BRANCH   2   3
ATOM      3  N   UNL     1       3.508  -1.902   6.663  1.00  0.00    -0.354 N 
ATOM      4  C   UNL     1       4.749  -1.528   6.240  1.00  0.00     0.243 C 
ATOM      5  O   UNL     1       5.494  -1.009   7.080  1.00  0.00    -0.273 OA
ATOM      6  H   UNL     1       3.271  -1.604   7.571  1.00  0.00     0.163 HD
BRANCH   4   7
ATOM      7  C   UNL     1       5.303  -1.933   4.861  1.00  0.00     0.185 C 
ATOM      8  C   UNL     1       5.990  -2.179   1.791  1.00  0.00     0.043 C 
ATOM      9  C   UNL     1       4.840  -2.755   2.622  1.00  0.00     0.141 C 
ATOM     10  S   UNL     1       5.465  -4.235   3.452  1.00  0.00    -0.135 SA
ATOM     11  N   UNL     1       4.419  -1.849   3.680  1.00  0.00    -0.318 N 
ATOM     12  C   UNL     1       5.791  -3.384   5.013  1.00  0.00     0.107 C 
BRANCH  11  13
ATOM     13  C   UNL     1       3.659  -0.707   3.482  1.00  0.00     0.232 C 
ATOM     14  O   UNL     1       3.812   0.269   4.226  1.00  0.00    -0.274 OA
BRANCH  13  15
ATOM     15  C   UNL     1       2.543  -0.634   2.424  1.00  0.00     0.120 C 
ATOM     16  C   UNL     1       1.476  -1.735   2.533  1.00  0.00     0.093 C 
ATOM     17  C   UNL     1       3.008  -0.554   0.997  1.00  0.00    -0.021 A 
ATOM     18  S   UNL     1       1.429  -2.679   0.977  1.00  0.00    -0.125 SA
ATOM     19  C   UNL     1       2.551  -1.581   0.170  1.00  0.00     0.011 A 
ATOM     20  C   UNL     1       3.834   0.443   0.485  1.00  0.00     0.006 A 
ATOM     21  C   UNL     1       2.985  -1.690  -1.141  1.00  0.00     0.015 A 
ATOM     22  C   UNL     1       4.261   0.351  -0.840  1.00  0.00     0.000 A 
ATOM     23  C   UNL     1       3.855  -0.721  -1.643  1.00  0.00     0.001 A 
ENDBRANCH  13  15
ENDBRANCH  11  13
ENDBRANCH   4   7
ENDBRANCH   2   3
ENDBRANCH   1   2
BRANCH   1  24
ATOM     24  C   UNL     1       1.467  -3.641   8.111  1.00  0.00     0.118 C 
BRANCH  24  25
ATOM     25  N   UNL     1       0.186  -2.950   8.036  1.00  0.00    -0.352 N 
ATOM     26  C   UNL     1      -1.050  -3.351   8.496  1.00  0.00     0.251 C 
ATOM     27  H   UNL     1       0.206  -2.071   7.593  1.00  0.00     0.163 HD
ATOM     28  O   UNL     1      -2.050  -2.709   8.214  1.00  0.00    -0.269 OA
BRANCH  26  29
ATOM     29  C   UNL     1      -1.153  -4.586   9.306  1.00  0.00     0.039 A 
ATOM     30  C   UNL     1      -2.123  -5.537   8.980  1.00  0.00     0.014 A 
ATOM     31  C   UNL     1      -0.255  -4.823  10.348  1.00  0.00     0.014 A 
ATOM     32  C   UNL     1      -2.127  -6.770   9.637  1.00  0.00     0.010 A 
ATOM     33  C   UNL     1      -0.202  -6.082  10.934  1.00  0.00     0.010 A 
ATOM     34  C   UNL     1      -1.133  -7.071  10.582  1.00  0.00    -0.014 A 
BRANCH  34  35
ATOM     35  C   UNL     1      -1.020  -8.411  11.214  1.00  0.00     0.031 A 
ATOM     36  C   UNL     1      -1.115  -8.541  12.709  1.00  0.00     0.074 A 
ATOM     37  C   UNL     1      -0.699  -9.483  10.462  1.00  0.00     0.049 A 
ATOM     38  N   UNL     1      -0.871  -9.580  13.465  1.00  0.00    -0.248 NA
ATOM     39  C   UNL     1      -1.496  -7.330  13.454  1.00  0.00     0.031 C 
ATOM     40  C   UNL     1      -0.522  -9.481   9.008  1.00  0.00     0.029 A 
ATOM     41  N   UNL     1      -0.434 -10.781  10.825  1.00  0.00    -0.354 N 
ATOM     42  C   UNL     1      -1.019  -9.136  14.774  1.00  0.00     0.074 A 
ATOM     43  C   UNL     1      -1.341  -7.726  14.708  1.00  0.00     0.031 C 
ATOM     44  C   UNL     1      -0.185 -10.716   8.604  1.00  0.00     0.029 A 
ATOM     45  C   UNL     1      -0.077 -11.586   9.770  1.00  0.00     0.049 A 
ATOM     46  H   UNL     1      -0.494 -11.103  11.754  1.00  0.00     0.167 HD
ATOM     47  C   UNL     1      -0.907  -9.838  15.926  1.00  0.00     0.031 A 
ATOM     48  C   UNL     1       0.315 -12.875   9.741  1.00  0.00     0.031 A 
ATOM     49  C   UNL     1      -0.617 -11.245  15.986  1.00  0.00     0.049 A 
ATOM     50  C   UNL     1       0.391 -13.650  11.026  1.00  0.00     0.074 A 
ATOM     51  C   UNL     1      -0.566 -12.066  17.098  1.00  0.00     0.029 A 
ATOM     52  N   UNL     1      -0.328 -12.039  14.886  1.00  0.00    -0.354 N 
ATOM     53  N   UNL     1       0.178 -13.232  12.251  1.00  0.00    -0.248 NA
ATOM     54  C   UNL     1       0.748 -15.072  10.927  1.00  0.00     0.031 C 
ATOM     55  C   UNL     1      -0.205 -13.350  16.674  1.00  0.00     0.029 A 
ATOM     56  C   UNL     1      -0.080 -13.339  15.294  1.00  0.00     0.049 A 
ATOM     57  H   UNL     1      -0.303 -11.726  13.953  1.00  0.00     0.167 HD
ATOM     58  C   UNL     1       0.351 -14.344  13.067  1.00  0.00     0.074 A 
ATOM     59  C   UNL     1       0.680 -15.454  12.196  1.00  0.00     0.031 C 
ATOM     60  C   UNL     1       0.243 -14.435  14.415  1.00  0.00     0.031 A 
BRANCH  47  61
ATOM     61  C   UNL     1      -1.080  -9.079  17.215  1.00  0.00    -0.014 A 
ATOM     62  C   UNL     1      -2.332  -8.568  17.601  1.00  0.00     0.010 A 
ATOM     63  C   UNL     1       0.031  -8.871  18.053  1.00  0.00     0.010 A 
ATOM     64  C   UNL     1      -2.458  -7.808  18.766  1.00  0.00     0.020 A 
ATOM     65  C   UNL     1      -0.096  -8.136  19.235  1.00  0.00     0.020 A 
ATOM     66  C   UNL     1      -1.335  -7.587  19.570  1.00  0.00     0.054 A 
BRANCH  66  67
ATOM     67  S   UNL     1      -1.519  -6.584  21.070  1.00  0.00     0.124 S 
ATOM     68  O   UNL     1      -1.576  -5.231  20.519  1.00  0.00    -0.237 OA
ATOM     69  O   UNL     1      -2.769  -7.081  21.640  1.00  0.00    -0.237 OA
ATOM     70  O   UNL     1      -0.319  -6.893  21.842  1.00  0.00    -0.744 OA
ENDBRANCH  66  67
ENDBRANCH  47  61
BRANCH  48  71
ATOM     71  C   UNL     1       0.650 -13.507   8.437  1.00  0.00    -0.014 A 
ATOM     72  C   UNL     1      -0.248 -14.401   7.829  1.00  0.00     0.010 A 
ATOM     73  C   UNL     1       1.839 -13.166   7.765  1.00  0.00     0.010 A 
ATOM     74  C   UNL     1       0.034 -14.940   6.571  1.00  0.00     0.020 A 
ATOM     75  C   UNL     1       2.113 -13.687   6.497  1.00  0.00     0.020 A 
ATOM     76  C   UNL     1       1.209 -14.573   5.909  1.00  0.00     0.054 A 
BRANCH  76  77
ATOM     77  S   UNL     1       1.507 -15.210   4.236  1.00  0.00     0.124 S 
ATOM     78  O   UNL     1       1.899 -16.591   4.501  1.00  0.00    -0.237 OA
ATOM     79  O   UNL     1       0.206 -15.034   3.594  1.00  0.00    -0.237 OA
ATOM     80  O   UNL     1       2.567 -14.344   3.724  1.00  0.00    -0.744 OA
ENDBRANCH  76  77
ENDBRANCH  48  71
BRANCH  60  81
ATOM     81  C   UNL     1       0.446 -15.788  15.040  1.00  0.00    -0.014 A 
ATOM     82  C   UNL     1       1.730 -16.343  15.176  1.00  0.00     0.010 A 
ATOM     83  C   UNL     1      -0.661 -16.476  15.570  1.00  0.00     0.010 A 
ATOM     84  C   UNL     1       1.901 -17.573  15.817  1.00  0.00     0.020 A 
ATOM     85  C   UNL     1      -0.491 -17.694  16.231  1.00  0.00     0.020 A 
ATOM     86  C   UNL     1       0.789 -18.240  16.343  1.00  0.00     0.054 A 
BRANCH  86  87
ATOM     87  S   UNL     1       1.043 -19.803  17.228  1.00  0.00     0.124 S 
ATOM     88  O   UNL     1       1.282 -20.737  16.131  1.00  0.00    -0.237 OA
ATOM     89  O   UNL     1       2.200 -19.512  18.070  1.00  0.00    -0.237 OA
ATOM     90  O   UNL     1      -0.212 -19.999  17.951  1.00  0.00    -0.744 OA
ENDBRANCH  86  87
ENDBRANCH  60  81
ENDBRANCH  34  35
ENDBRANCH  26  29
ENDBRANCH  24  25
ENDBRANCH   1  24
TORSDOF 15
