REMARK SMILES Cc1ccc(C)c(-n2nc(C)c(/C=C(/C#N)C(=O)NCCCNC(=O)c3ccc(-c4c5nc(c(-c6ccc(S(=O)(=O)[O-])cc6)c6ccc([nH]6)c(-c6ccc(S(=O)(=O)[O-])cc6)c6nc(c(-c7ccc(S(=O)(=O)[O-])cc7)c7ccc4[nH]7)C=C6)C=C5)cc3)c2Cl)c1
REMARK SMILES IDX 21 1 20 2 19 3 17 4 18 5 14 7 13 8 12 9 8 10 9 11 86 12
REMARK SMILES IDX 10 13 87 14 11 15 7 16 1 17 2 18 3 19 88 20 4 21 5 22 6 23
REMARK SMILES IDX 15 24 16 25 22 26 23 27 24 28 25 30 26 31 27 32 85 33 28 34
REMARK SMILES IDX 84 35 29 36 30 37 31 38 78 39 32 40 83 41 77 42 79 43 33 44
REMARK SMILES IDX 82 45 76 46 75 47 34 49 64 50 45 51 63 52 46 53 49 54 62 55
REMARK SMILES IDX 80 56 47 57 48 58 61 60 81 61 50 62 35 63 36 64 44 65 37 66
REMARK SMILES IDX 43 67 38 68 39 69 40 70 41 71 42 72 65 73 66 74 74 75 67 76
REMARK SMILES IDX 73 77 68 78 69 79 70 80 71 81 72 82 51 83 52 84 60 85 53 86
REMARK SMILES IDX 59 87 54 88 55 89 56 90 57 91 58 92
REMARK H PARENT 19 6 23 29 79 48 49 59
REMARK Flexibility Score: inf
ROOT
ATOM      1  C   UNL     1      -5.404   9.939  -1.541  1.00  0.00     0.042 C 
ENDROOT
BRANCH   1   2
ATOM      2  C   UNL     1      -4.548   9.424  -0.363  1.00  0.00     0.118 C 
BRANCH   2   3
ATOM      3  N   UNL     1      -4.793   8.001  -0.084  1.00  0.00    -0.351 N 
ATOM      4  C   UNL     1      -4.280   6.835  -0.598  1.00  0.00     0.261 C 
ATOM      5  O   UNL     1      -4.919   5.805  -0.400  1.00  0.00    -0.268 OA
ATOM      6  H   UNL     1      -5.465   7.853   0.620  1.00  0.00     0.163 HD
BRANCH   4   7
ATOM      7  C   UNL     1      -3.024   6.816  -1.421  1.00  0.00     0.117 C 
ATOM      8  C   UNL     1      -2.077   5.867  -1.399  1.00  0.00     0.038 C 
BRANCH   8   9
ATOM      9  C   UNL     1      -1.967   4.662  -0.614  1.00  0.00     0.036 A 
ATOM     10  N   UNL     1      -1.383   2.556  -0.122  1.00  0.00    -0.221 N 
ATOM     11  N   UNL     1      -2.127   2.963   0.925  1.00  0.00    -0.171 NA
ATOM     12  C   UNL     1      -1.219   3.578  -1.031  1.00  0.00     0.140 A 
ATOM     13  C   UNL     1      -2.479   4.227   0.650  1.00  0.00     0.069 A 
ATOM     14  Cl  UNL     1      -0.328   3.333  -2.476  1.00  0.00    -0.061 Cl
ATOM     15  C   UNL     1      -3.293   4.901   1.696  1.00  0.00     0.069 C 
BRANCH  10  16
ATOM     16  C   UNL     1      -0.742   1.297  -0.068  1.00  0.00     0.069 A 
ATOM     17  C   UNL     1       2.853   0.029  -0.009  1.00  0.00     0.044 C 
ATOM     18  C   UNL     1       1.355   0.060  -0.012  1.00  0.00    -0.049 A 
ATOM     19  C   UNL     1       0.626  -1.129   0.078  1.00  0.00     0.004 A 
ATOM     20  C   UNL     1       0.664   1.272  -0.094  1.00  0.00     0.032 A 
ATOM     21  C   UNL     1      -0.771  -1.104   0.115  1.00  0.00     0.006 A 
ATOM     22  C   UNL     1      -1.480   0.107   0.055  1.00  0.00    -0.025 A 
ATOM     23  C   UNL     1      -2.984   0.024   0.064  1.00  0.00     0.047 C 
ENDBRANCH  10  16
ENDBRANCH   8   9
BRANCH   7  24
ATOM     24  C   UNL     1      -3.058   7.979  -2.401  1.00  0.00     0.105 C 
ATOM     25  N   UNL     1      -3.086   8.943  -3.213  1.00  0.00    -0.192 NA
ENDBRANCH   7  24
ENDBRANCH   4   7
ENDBRANCH   2   3
ENDBRANCH   1   2
BRANCH   1  26
ATOM     26  C   UNL     1      -6.822  10.355  -1.181  1.00  0.00     0.118 C 
BRANCH  26  27
ATOM     27  N   UNL     1      -6.856  11.547  -0.318  1.00  0.00    -0.352 N 
ATOM     28  C   UNL     1      -7.583  11.871   0.810  1.00  0.00     0.251 C 
ATOM     29  H   UNL     1      -6.235  12.256  -0.602  1.00  0.00     0.163 HD
ATOM     30  O   UNL     1      -7.593  13.043   1.210  1.00  0.00    -0.269 OA
BRANCH  28  31
ATOM     31  C   UNL     1      -8.329  10.843   1.552  1.00  0.00     0.039 A 
ATOM     32  C   UNL     1      -9.120  11.072   2.680  1.00  0.00     0.014 A 
ATOM     33  C   UNL     1      -8.051   9.533   1.239  1.00  0.00     0.014 A 
ATOM     34  C   UNL     1      -9.514   9.961   3.441  1.00  0.00     0.010 A 
ATOM     35  C   UNL     1      -8.909   8.560   1.609  1.00  0.00     0.010 A 
ATOM     36  C   UNL     1      -9.275   8.684   2.924  1.00  0.00    -0.014 A 
BRANCH  36  37
ATOM     37  C   UNL     1      -9.632   7.428   3.539  1.00  0.00     0.031 A 
ATOM     38  C   UNL     1     -11.078   7.150   3.457  1.00  0.00     0.074 A 
ATOM     39  C   UNL     1      -8.730   6.454   3.780  1.00  0.00     0.049 A 
ATOM     40  N   UNL     1     -11.959   7.414   4.362  1.00  0.00    -0.248 NA
ATOM     41  C   UNL     1     -11.653   6.809   2.139  1.00  0.00     0.031 C 
ATOM     42  C   UNL     1      -7.297   6.405   3.468  1.00  0.00     0.029 A 
ATOM     43  N   UNL     1      -8.966   5.213   4.274  1.00  0.00    -0.354 N 
ATOM     44  C   UNL     1     -13.159   7.000   3.810  1.00  0.00     0.074 A 
ATOM     45  C   UNL     1     -12.952   6.987   2.386  1.00  0.00     0.031 C 
ATOM     46  C   UNL     1      -6.859   5.127   3.582  1.00  0.00     0.029 A 
ATOM     47  C   UNL     1      -7.941   4.296   4.086  1.00  0.00     0.049 A 
ATOM     48  H   UNL     1      -9.804   4.980   4.733  1.00  0.00     0.167 HD
ATOM     49  C   UNL     1     -14.096   6.348   4.553  1.00  0.00     0.031 A 
ATOM     50  C   UNL     1      -8.032   2.950   4.267  1.00  0.00     0.031 A 
ATOM     51  C   UNL     1     -13.748   6.351   5.956  1.00  0.00     0.049 A 
ATOM     52  C   UNL     1      -9.241   2.716   5.112  1.00  0.00     0.074 A 
ATOM     53  C   UNL     1     -13.429   7.340   6.868  1.00  0.00     0.029 A 
ATOM     54  N   UNL     1     -13.231   5.181   6.473  1.00  0.00    -0.354 N 
ATOM     55  N   UNL     1      -9.344   3.126   6.349  1.00  0.00    -0.248 NA
ATOM     56  C   UNL     1     -10.509   2.485   4.433  1.00  0.00     0.031 C 
ATOM     57  C   UNL     1     -12.326   6.815   7.605  1.00  0.00     0.029 A 
ATOM     58  C   UNL     1     -12.099   5.504   7.180  1.00  0.00     0.049 A 
ATOM     59  H   UNL     1     -13.605   4.278   6.355  1.00  0.00     0.167 HD
ATOM     60  C   UNL     1     -10.639   3.620   6.459  1.00  0.00     0.074 A 
ATOM     61  C   UNL     1     -11.335   3.119   5.272  1.00  0.00     0.031 C 
ATOM     62  C   UNL     1     -10.951   4.629   7.329  1.00  0.00     0.031 A 
BRANCH  49  63
ATOM     63  C   UNL     1     -15.074   5.355   3.978  1.00  0.00    -0.014 A 
ATOM     64  C   UNL     1     -16.083   4.847   4.817  1.00  0.00     0.010 A 
ATOM     65  C   UNL     1     -14.909   4.727   2.725  1.00  0.00     0.010 A 
ATOM     66  C   UNL     1     -16.843   3.733   4.442  1.00  0.00     0.020 A 
ATOM     67  C   UNL     1     -15.694   3.650   2.319  1.00  0.00     0.020 A 
ATOM     68  C   UNL     1     -16.635   3.138   3.197  1.00  0.00     0.054 A 
BRANCH  68  69
ATOM     69  S   UNL     1     -17.559   1.650   2.758  1.00  0.00     0.124 S 
ATOM     70  O   UNL     1     -17.029   0.678   3.709  1.00  0.00    -0.237 OA
ATOM     71  O   UNL     1     -18.940   2.069   2.980  1.00  0.00    -0.237 OA
ATOM     72  O   UNL     1     -17.199   1.423   1.360  1.00  0.00    -0.744 OA
ENDBRANCH  68  69
ENDBRANCH  49  63
BRANCH  50  73
ATOM     73  C   UNL     1      -7.373   1.867   3.482  1.00  0.00    -0.014 A 
ATOM     74  C   UNL     1      -7.470   0.517   3.877  1.00  0.00     0.010 A 
ATOM     75  C   UNL     1      -6.876   2.122   2.187  1.00  0.00     0.010 A 
ATOM     76  C   UNL     1      -7.156  -0.531   2.987  1.00  0.00     0.020 A 
ATOM     77  C   UNL     1      -6.554   1.086   1.298  1.00  0.00     0.020 A 
ATOM     78  C   UNL     1      -6.723  -0.238   1.692  1.00  0.00     0.054 A 
BRANCH  78  79
ATOM     79  S   UNL     1      -6.516  -1.584   0.484  1.00  0.00     0.124 S 
ATOM     80  O   UNL     1      -5.342  -2.288   0.988  1.00  0.00    -0.237 OA
ATOM     81  O   UNL     1      -7.780  -2.308   0.593  1.00  0.00    -0.237 OA
ATOM     82  O   UNL     1      -6.317  -0.883  -0.784  1.00  0.00    -0.744 OA
ENDBRANCH  78  79
ENDBRANCH  50  73
BRANCH  62  83
ATOM     83  C   UNL     1      -9.945   5.027   8.390  1.00  0.00    -0.014 A 
ATOM     84  C   UNL     1      -8.631   5.461   8.120  1.00  0.00     0.010 A 
ATOM     85  C   UNL     1     -10.413   5.115   9.714  1.00  0.00     0.010 A 
ATOM     86  C   UNL     1      -7.805   5.939   9.152  1.00  0.00     0.020 A 
ATOM     87  C   UNL     1      -9.605   5.609  10.741  1.00  0.00     0.020 A 
ATOM     88  C   UNL     1      -8.299   6.008  10.458  1.00  0.00     0.054 A 
BRANCH  88  89
ATOM     89  S   UNL     1      -7.242   6.651  11.787  1.00  0.00     0.124 S 
ATOM     90  O   UNL     1      -6.209   5.625  11.895  1.00  0.00    -0.237 OA
ATOM     91  O   UNL     1      -6.798   7.937  11.255  1.00  0.00    -0.237 OA
ATOM     92  O   UNL     1      -8.143   6.743  12.936  1.00  0.00    -0.744 OA
ENDBRANCH  88  89
ENDBRANCH  62  83
ENDBRANCH  36  37
ENDBRANCH  28  31
ENDBRANCH  26  27
ENDBRANCH   1  26
TORSDOF 16
