REMARK SMILES CC(=O)Nc1ccc(/C=N/c2ccccc2C(=O)NCCCNC(=O)c2ccc(-c3c4nc(c(-c5ccc(S(=O)(=O)[O-])cc5)c5ccc([nH]5)c(-c5ccc(S(=O)(=O)[O-])cc5)c5nc(c(-c6ccc(S(=O)(=O)[O-])cc6)c6ccc3[nH]6)C=C5)C=C4)cc2)cc1
REMARK SMILES IDX 21 1 20 2 19 3 17 4 18 5 16 7 11 8 12 9 13 10 15 11 14 12
REMARK SMILES IDX 10 13 9 14 8 15 5 16 6 17 87 18 7 19 86 20 4 21 1 22 2 23
REMARK SMILES IDX 3 24 22 26 23 27 24 28 25 30 26 31 27 32 85 33 28 34 84 35
REMARK SMILES IDX 29 36 30 37 31 38 78 39 32 40 83 41 77 42 79 43 33 44 82 45
REMARK SMILES IDX 76 46 75 47 34 49 64 50 45 51 63 52 46 53 49 54 62 55 80 56
REMARK SMILES IDX 47 57 48 58 61 60 81 61 50 62 35 63 36 64 44 65 37 66 43 67
REMARK SMILES IDX 38 68 39 69 40 70 41 71 42 72 65 73 66 74 74 75 67 76 73 77
REMARK SMILES IDX 68 78 69 79 70 80 71 81 72 82 51 83 52 84 60 85 53 86 59 87
REMARK SMILES IDX 54 88 55 89 56 90 57 91 58 92
REMARK H PARENT 19 6 4 25 23 29 79 48 49 59
REMARK Flexibility Score: inf
ROOT
ATOM      1  C   UNL     1       4.668  -5.097   3.311  1.00  0.00     0.042 C 
ENDROOT
BRANCH   1   2
ATOM      2  C   UNL     1       4.789  -5.657   1.909  1.00  0.00     0.118 C 
BRANCH   2   3
ATOM      3  N   UNL     1       6.117  -5.832   1.373  1.00  0.00    -0.352 N 
ATOM      4  C   UNL     1       6.532  -6.646   0.344  1.00  0.00     0.253 C 
ATOM      5  O   UNL     1       7.663  -6.438  -0.107  1.00  0.00    -0.269 OA
ATOM      6  H   UNL     1       6.822  -5.296   1.802  1.00  0.00     0.163 HD
BRANCH   4   7
ATOM      7  C   UNL     1       5.766  -7.816  -0.190  1.00  0.00     0.065 A 
ATOM      8  C   UNL     1       4.388  -7.908  -0.484  1.00  0.00     0.076 A 
ATOM      9  C   UNL     1       3.875  -9.139  -0.933  1.00  0.00     0.029 A 
ATOM     10  C   UNL     1       4.693 -10.249  -1.141  1.00  0.00     0.002 A 
ATOM     11  C   UNL     1       6.584  -8.945  -0.438  1.00  0.00     0.016 A 
ATOM     12  C   UNL     1       6.055 -10.149  -0.905  1.00  0.00     0.001 A 
BRANCH   8  13
ATOM     13  N   UNL     1       3.420  -6.918  -0.256  1.00  0.00    -0.255 NA
ATOM     14  C   UNL     1       3.424  -5.834  -0.959  1.00  0.00     0.119 C 
BRANCH  14  15
ATOM     15  C   UNL     1       2.524  -4.717  -0.582  1.00  0.00    -0.007 A 
ATOM     16  C   UNL     1       1.061  -2.501   0.360  1.00  0.00     0.041 A 
ATOM     17  C   UNL     1       0.756  -3.798   0.795  1.00  0.00     0.027 A 
ATOM     18  C   UNL     1       2.137  -2.332  -0.514  1.00  0.00     0.027 A 
ATOM     19  C   UNL     1       1.482  -4.901   0.331  1.00  0.00     0.012 A 
ATOM     20  C   UNL     1       2.857  -3.431  -0.998  1.00  0.00     0.012 A 
BRANCH  16  21
ATOM     21  N   UNL     1       0.284  -1.459   0.898  1.00  0.00    -0.326 N 
ATOM     22  C   UNL     1       0.913   0.521  -0.496  1.00  0.00     0.114 C 
ATOM     23  C   UNL     1       0.219  -0.117   0.670  1.00  0.00     0.221 C 
ATOM     24  O   UNL     1      -0.473   0.568   1.430  1.00  0.00    -0.275 OA
ATOM     25  H   UNL     1      -0.350  -1.766   1.586  1.00  0.00     0.169 HD
ENDBRANCH  16  21
ENDBRANCH  14  15
ENDBRANCH   8  13
ENDBRANCH   4   7
ENDBRANCH   2   3
ENDBRANCH   1   2
BRANCH   1  26
ATOM     26  C   UNL     1       5.258  -3.710   3.516  1.00  0.00     0.118 C 
BRANCH  26  27
ATOM     27  N   UNL     1       4.694  -2.656   2.675  1.00  0.00    -0.352 N 
ATOM     28  C   UNL     1       3.759  -1.676   2.928  1.00  0.00     0.251 C 
ATOM     29  H   UNL     1       5.049  -2.644   1.757  1.00  0.00     0.163 HD
ATOM     30  O   UNL     1       3.467  -0.875   2.048  1.00  0.00    -0.269 OA
BRANCH  28  31
ATOM     31  C   UNL     1       3.068  -1.617   4.234  1.00  0.00     0.039 A 
ATOM     32  C   UNL     1       1.677  -1.476   4.262  1.00  0.00     0.014 A 
ATOM     33  C   UNL     1       3.776  -1.696   5.428  1.00  0.00     0.014 A 
ATOM     34  C   UNL     1       0.987  -1.534   5.474  1.00  0.00     0.010 A 
ATOM     35  C   UNL     1       3.090  -1.854   6.624  1.00  0.00     0.010 A 
ATOM     36  C   UNL     1       1.688  -1.779   6.659  1.00  0.00    -0.014 A 
BRANCH  36  37
ATOM     37  C   UNL     1       1.010  -1.900   7.973  1.00  0.00     0.031 A 
ATOM     38  C   UNL     1       1.396  -0.941   9.063  1.00  0.00     0.074 A 
ATOM     39  C   UNL     1       0.157  -2.915   8.209  1.00  0.00     0.049 A 
ATOM     40  N   UNL     1       1.197  -1.026  10.350  1.00  0.00    -0.248 NA
ATOM     41  C   UNL     1       2.156   0.251   8.646  1.00  0.00     0.031 C 
ATOM     42  C   UNL     1      -0.296  -3.897   7.220  1.00  0.00     0.029 A 
ATOM     43  N   UNL     1      -0.461  -3.309   9.370  1.00  0.00    -0.354 N 
ATOM     44  C   UNL     1       1.851   0.071  10.901  1.00  0.00     0.074 A 
ATOM     45  C   UNL     1       2.487   0.780   9.814  1.00  0.00     0.031 C 
ATOM     46  C   UNL     1      -1.121  -4.774   7.814  1.00  0.00     0.029 A 
ATOM     47  C   UNL     1      -1.194  -4.466   9.237  1.00  0.00     0.049 A 
ATOM     48  H   UNL     1      -0.387  -2.812  10.216  1.00  0.00     0.167 HD
ATOM     49  C   UNL     1       1.905   0.453  12.198  1.00  0.00     0.031 A 
ATOM     50  C   UNL     1      -1.813  -5.219  10.168  1.00  0.00     0.031 A 
ATOM     51  C   UNL     1       1.235  -0.256  13.254  1.00  0.00     0.049 A 
ATOM     52  C   UNL     1      -1.727  -4.786  11.607  1.00  0.00     0.074 A 
ATOM     53  C   UNL     1       1.191   0.042  14.603  1.00  0.00     0.029 A 
ATOM     54  N   UNL     1       0.472  -1.402  13.070  1.00  0.00    -0.354 N 
ATOM     55  N   UNL     1      -1.096  -3.753  12.118  1.00  0.00    -0.248 NA
ATOM     56  C   UNL     1      -2.427  -5.616  12.594  1.00  0.00     0.031 C 
ATOM     57  C   UNL     1       0.438  -0.949  15.241  1.00  0.00     0.029 A 
ATOM     58  C   UNL     1      -0.037  -1.831  14.281  1.00  0.00     0.049 A 
ATOM     59  H   UNL     1       0.318  -1.844  12.204  1.00  0.00     0.167 HD
ATOM     60  C   UNL     1      -1.338  -3.801  13.486  1.00  0.00     0.074 A 
ATOM     61  C   UNL     1      -2.193  -4.949  13.716  1.00  0.00     0.031 C 
ATOM     62  C   UNL     1      -0.890  -2.979  14.468  1.00  0.00     0.031 A 
BRANCH  49  63
ATOM     63  C   UNL     1       2.719   1.676  12.534  1.00  0.00    -0.014 A 
ATOM     64  C   UNL     1       2.322   2.957  12.106  1.00  0.00     0.010 A 
ATOM     65  C   UNL     1       3.892   1.548  13.301  1.00  0.00     0.010 A 
ATOM     66  C   UNL     1       3.104   4.077  12.399  1.00  0.00     0.020 A 
ATOM     67  C   UNL     1       4.660   2.672  13.625  1.00  0.00     0.020 A 
ATOM     68  C   UNL     1       4.269   3.928  13.157  1.00  0.00     0.054 A 
BRANCH  68  69
ATOM     69  S   UNL     1       5.247   5.405  13.544  1.00  0.00     0.124 S 
ATOM     70  O   UNL     1       5.829   5.731  12.245  1.00  0.00    -0.237 OA
ATOM     71  O   UNL     1       4.236   6.339  14.032  1.00  0.00    -0.237 OA
ATOM     72  O   UNL     1       6.197   4.939  14.552  1.00  0.00    -0.744 OA
ENDBRANCH  68  69
ENDBRANCH  49  63
BRANCH  50  73
ATOM     73  C   UNL     1      -2.523  -6.471   9.775  1.00  0.00    -0.014 A 
ATOM     74  C   UNL     1      -3.922  -6.568   9.878  1.00  0.00     0.010 A 
ATOM     75  C   UNL     1      -1.801  -7.574   9.281  1.00  0.00     0.010 A 
ATOM     76  C   UNL     1      -4.582  -7.748   9.514  1.00  0.00     0.020 A 
ATOM     77  C   UNL     1      -2.459  -8.743   8.885  1.00  0.00     0.020 A 
ATOM     78  C   UNL     1      -3.846  -8.827   9.017  1.00  0.00     0.054 A 
BRANCH  78  79
ATOM     79  S   UNL     1      -4.728 -10.330   8.507  1.00  0.00     0.124 S 
ATOM     80  O   UNL     1      -5.127 -10.899   9.790  1.00  0.00    -0.237 OA
ATOM     81  O   UNL     1      -5.812  -9.796   7.686  1.00  0.00    -0.237 OA
ATOM     82  O   UNL     1      -3.716 -11.087   7.773  1.00  0.00    -0.744 OA
ENDBRANCH  78  79
ENDBRANCH  50  73
BRANCH  62  83
ATOM     83  C   UNL     1      -1.345  -3.276  15.870  1.00  0.00    -0.014 A 
ATOM     84  C   UNL     1      -0.832  -4.374  16.581  1.00  0.00     0.010 A 
ATOM     85  C   UNL     1      -2.250  -2.404  16.502  1.00  0.00     0.010 A 
ATOM     86  C   UNL     1      -1.238  -4.611  17.896  1.00  0.00     0.020 A 
ATOM     87  C   UNL     1      -2.634  -2.620  17.826  1.00  0.00     0.020 A 
ATOM     88  C   UNL     1      -2.134  -3.730  18.511  1.00  0.00     0.054 A 
BRANCH  88  89
ATOM     89  S   UNL     1      -2.602  -4.031  20.236  1.00  0.00     0.124 S 
ATOM     90  O   UNL     1      -3.472  -5.197  20.116  1.00  0.00    -0.237 OA
ATOM     91  O   UNL     1      -1.312  -4.272  20.879  1.00  0.00    -0.237 OA
ATOM     92  O   UNL     1      -3.269  -2.793  20.635  1.00  0.00    -0.744 OA
ENDBRANCH  88  89
ENDBRANCH  62  83
ENDBRANCH  36  37
ENDBRANCH  28  31
ENDBRANCH  26  27
ENDBRANCH   1  26
TORSDOF 16
