REMARK SMILES CC[C@](C)(NC(=O)NC[C@@H](C)[NH+](C)C)C(=O)NCCCNC(=O)c1ccc(-c2c3nc(c(-c4ccc(S(=O)(=O)[O-])cc4)c4ccc([nH]4)c(-c4ccc(S(=O)(=O)[O-])cc4)c4nc(c(-c5ccc(S(=O)(=O)[O-])cc5)c5ccc2[nH]5)C=C4)C=C3)cc1
REMARK SMILES IDX 18 1 17 2 15 3 16 4 3 6 4 7 2 8 1 9 5 10 6 11 7 13 8 14 9 16
REMARK SMILES IDX 10 17 11 18 12 19 13 20 14 21 19 23 20 24 21 25 22 26 23 28
REMARK SMILES IDX 24 29 25 30 83 31 26 32 82 33 27 34 28 35 29 36 76 37 30 38
REMARK SMILES IDX 81 39 75 40 77 41 31 42 80 43 74 44 73 45 32 47 62 48 43 49
REMARK SMILES IDX 61 50 44 51 47 52 60 53 78 54 45 55 46 56 59 58 79 59 48 60
REMARK SMILES IDX 33 61 34 62 42 63 35 64 41 65 36 66 37 67 38 68 39 69 40 70
REMARK SMILES IDX 63 71 64 72 72 73 65 74 71 75 66 76 67 77 68 78 69 79 70 80
REMARK SMILES IDX 49 81 50 82 58 83 51 84 57 85 52 86 53 87 54 88 55 89 56 90
REMARK H PARENT 17 5 5 12 8 15 12 22 21 27 77 46 47 57
REMARK Flexibility Score: inf
ROOT
ATOM      1  C   UNL     1       1.940  -4.256   3.109  1.00  0.00     0.117 C 
ENDROOT
BRANCH   1   2
ATOM      2  N   UNL     1       2.606  -3.104   2.522  1.00  0.00    -0.354 N 
ATOM      3  C   UNL     1       2.196  -2.127   1.654  1.00  0.00     0.245 C 
ATOM      4  O   UNL     1       2.760  -1.029   1.748  1.00  0.00    -0.272 OA
ATOM      5  H   UNL     1       3.544  -3.007   2.806  1.00  0.00     0.163 HD
BRANCH   3   6
ATOM      6  C   UNL     1       0.979  -2.288   0.715  1.00  0.00     0.117 C 
ATOM      7  C   UNL     1       0.957  -1.283  -0.461  1.00  0.00     0.045 C 
BRANCH   6   8
ATOM      8  C   UNL     1      -0.289  -2.003   1.590  1.00  0.00     0.035 C 
ATOM      9  C   UNL     1      -0.256  -0.671   2.346  1.00  0.00     0.007 C 
ENDBRANCH   6   8
BRANCH   6  10
ATOM     10  N   UNL     1       0.925  -3.651   0.165  1.00  0.00    -0.324 N 
ATOM     11  C   UNL     1       1.743  -4.396  -0.589  1.00  0.00     0.315 C 
ATOM     12  H   UNL     1       0.097  -4.125   0.406  1.00  0.00     0.166 HD
ATOM     13  O   UNL     1       1.266  -5.440  -1.047  1.00  0.00    -0.249 OA
ATOM     14  N   UNL     1       3.032  -4.159  -0.851  1.00  0.00    -0.332 N 
ATOM     15  H   UNL     1       3.437  -4.915  -1.334  1.00  0.00     0.165 HD
BRANCH  14  16
ATOM     16  C   UNL     1       4.016  -3.094  -0.624  1.00  0.00     0.182 C 
BRANCH  16  17
ATOM     17  C   UNL     1       5.042  -3.386   0.523  1.00  0.00     0.200 C 
ATOM     18  C   UNL     1       6.220  -4.240   0.037  1.00  0.00     0.077 C 
BRANCH  17  19
ATOM     19  N   UNL     1       5.456  -2.173   1.255  1.00  0.00    -0.336 N 
ATOM     20  C   UNL     1       6.159  -2.426   2.509  1.00  0.00     0.332 C 
ATOM     21  C   UNL     1       6.139  -1.163   0.461  1.00  0.00     0.332 C 
ATOM     22  H   UNL     1       4.553  -1.768   1.501  1.00  0.00     0.347 HD
ENDBRANCH  17  19
ENDBRANCH  16  17
ENDBRANCH  14  16
ENDBRANCH   6  10
ENDBRANCH   3   6
ENDBRANCH   1   2
BRANCH   1  23
ATOM     23  C   UNL     1       2.190  -5.664   2.558  1.00  0.00     0.042 C 
BRANCH  23  24
ATOM     24  C   UNL     1       3.598  -6.253   2.507  1.00  0.00     0.118 C 
BRANCH  24  25
ATOM     25  N   UNL     1       4.422  -5.997   3.672  1.00  0.00    -0.352 N 
ATOM     26  C   UNL     1       5.382  -6.810   4.236  1.00  0.00     0.251 C 
ATOM     27  H   UNL     1       4.276  -5.132   4.119  1.00  0.00     0.163 HD
ATOM     28  O   UNL     1       5.961  -6.462   5.253  1.00  0.00    -0.269 OA
BRANCH  26  29
ATOM     29  C   UNL     1       5.682  -8.126   3.622  1.00  0.00     0.039 A 
ATOM     30  C   UNL     1       5.534  -9.276   4.401  1.00  0.00     0.014 A 
ATOM     31  C   UNL     1       6.105  -8.226   2.293  1.00  0.00     0.014 A 
ATOM     32  C   UNL     1       5.743 -10.535   3.829  1.00  0.00     0.010 A 
ATOM     33  C   UNL     1       6.285  -9.487   1.715  1.00  0.00     0.010 A 
ATOM     34  C   UNL     1       6.088 -10.654   2.471  1.00  0.00    -0.014 A 
BRANCH  34  35
ATOM     35  C   UNL     1       6.174 -11.992   1.823  1.00  0.00     0.031 A 
ATOM     36  C   UNL     1       7.493 -12.551   1.365  1.00  0.00     0.074 A 
ATOM     37  C   UNL     1       5.042 -12.690   1.602  1.00  0.00     0.049 A 
ATOM     38  N   UNL     1       7.739 -13.686   0.759  1.00  0.00    -0.248 NA
ATOM     39  C   UNL     1       8.686 -11.728   1.610  1.00  0.00     0.031 C 
ATOM     40  C   UNL     1       3.694 -12.252   1.974  1.00  0.00     0.029 A 
ATOM     41  N   UNL     1       4.841 -13.910   1.004  1.00  0.00    -0.354 N 
ATOM     42  C   UNL     1       9.112 -13.714   0.545  1.00  0.00     0.074 A 
ATOM     43  C   UNL     1       9.640 -12.465   1.055  1.00  0.00     0.031 C 
ATOM     44  C   UNL     1       2.810 -13.194   1.609  1.00  0.00     0.029 A 
ATOM     45  C   UNL     1       3.519 -14.284   0.945  1.00  0.00     0.049 A 
ATOM     46  H   UNL     1       5.574 -14.464   0.652  1.00  0.00     0.167 HD
ATOM     47  C   UNL     1       9.866 -14.693  -0.014  1.00  0.00     0.031 A 
ATOM     48  C   UNL     1       2.935 -15.373   0.406  1.00  0.00     0.031 A 
ATOM     49  C   UNL     1       9.342 -15.931  -0.532  1.00  0.00     0.049 A 
ATOM     50  C   UNL     1       3.789 -16.425  -0.247  1.00  0.00     0.074 A 
ATOM     51  C   UNL     1      10.038 -17.000  -1.071  1.00  0.00     0.029 A 
ATOM     52  N   UNL     1       7.997 -16.264  -0.589  1.00  0.00    -0.354 N 
ATOM     53  N   UNL     1       5.093 -16.462  -0.377  1.00  0.00    -0.248 NA
ATOM     54  C   UNL     1       3.091 -17.584  -0.822  1.00  0.00     0.031 C 
ATOM     55  C   UNL     1       9.111 -17.954  -1.506  1.00  0.00     0.029 A 
ATOM     56  C   UNL     1       7.840 -17.506  -1.185  1.00  0.00     0.049 A 
ATOM     57  H   UNL     1       7.262 -15.701  -0.255  1.00  0.00     0.167 HD
ATOM     58  C   UNL     1       5.373 -17.657  -1.032  1.00  0.00     0.074 A 
ATOM     59  C   UNL     1       4.106 -18.322  -1.253  1.00  0.00     0.031 C 
ATOM     60  C   UNL     1       6.575 -18.157  -1.414  1.00  0.00     0.031 A 
BRANCH  47  61
ATOM     61  C   UNL     1      11.352 -14.457  -0.111  1.00  0.00    -0.014 A 
ATOM     62  C   UNL     1      12.166 -14.481   1.035  1.00  0.00     0.010 A 
ATOM     63  C   UNL     1      11.949 -14.262  -1.370  1.00  0.00     0.010 A 
ATOM     64  C   UNL     1      13.544 -14.271   0.929  1.00  0.00     0.020 A 
ATOM     65  C   UNL     1      13.330 -14.078  -1.484  1.00  0.00     0.020 A 
ATOM     66  C   UNL     1      14.117 -14.066  -0.330  1.00  0.00     0.054 A 
BRANCH  66  67
ATOM     67  S   UNL     1      15.910 -13.811  -0.440  1.00  0.00     0.124 S 
ATOM     68  O   UNL     1      16.053 -12.456   0.087  1.00  0.00    -0.237 OA
ATOM     69  O   UNL     1      16.438 -14.874   0.411  1.00  0.00    -0.237 OA
ATOM     70  O   UNL     1      16.195 -13.958  -1.865  1.00  0.00    -0.744 OA
ENDBRANCH  66  67
ENDBRANCH  47  61
BRANCH  48  71
ATOM     71  C   UNL     1       1.455 -15.524   0.461  1.00  0.00    -0.014 A 
ATOM     72  C   UNL     1       0.866 -16.490   1.294  1.00  0.00     0.010 A 
ATOM     73  C   UNL     1       0.626 -14.691  -0.314  1.00  0.00     0.010 A 
ATOM     74  C   UNL     1      -0.524 -16.631   1.342  1.00  0.00     0.020 A 
ATOM     75  C   UNL     1      -0.764 -14.811  -0.249  1.00  0.00     0.020 A 
ATOM     76  C   UNL     1      -1.331 -15.789   0.572  1.00  0.00     0.054 A 
BRANCH  76  77
ATOM     77  S   UNL     1      -3.134 -15.952   0.692  1.00  0.00     0.124 S 
ATOM     78  O   UNL     1      -3.379 -17.177  -0.062  1.00  0.00    -0.237 OA
ATOM     79  O   UNL     1      -3.347 -16.042   2.135  1.00  0.00    -0.237 OA
ATOM     80  O   UNL     1      -3.630 -14.724   0.074  1.00  0.00    -0.744 OA
ENDBRANCH  76  77
ENDBRANCH  48  71
BRANCH  60  81
ATOM     81  C   UNL     1       6.582 -19.498  -2.100  1.00  0.00    -0.014 A 
ATOM     82  C   UNL     1       6.121 -19.640  -3.421  1.00  0.00     0.010 A 
ATOM     83  C   UNL     1       7.101 -20.622  -1.432  1.00  0.00     0.010 A 
ATOM     84  C   UNL     1       6.152 -20.888  -4.051  1.00  0.00     0.020 A 
ATOM     85  C   UNL     1       7.159 -21.865  -2.067  1.00  0.00     0.020 A 
ATOM     86  C   UNL     1       6.671 -21.993  -3.369  1.00  0.00     0.054 A 
BRANCH  86  87
ATOM     87  S   UNL     1       6.743 -23.592  -4.224  1.00  0.00     0.124 S 
ATOM     88  O   UNL     1       5.343 -24.005  -4.215  1.00  0.00    -0.237 OA
ATOM     89  O   UNL     1       7.284 -23.233  -5.533  1.00  0.00    -0.237 OA
ATOM     90  O   UNL     1       7.634 -24.393  -3.387  1.00  0.00    -0.744 OA
ENDBRANCH  86  87
ENDBRANCH  60  81
ENDBRANCH  34  35
ENDBRANCH  26  29
ENDBRANCH  24  25
ENDBRANCH  23  24
ENDBRANCH   1  23
TORSDOF 18
