REMARK SMILES O=C(NCCCNC(=O)c1ccc(-c2c3nc(c(-c4ccc(S(=O)(=O)[O-])cc4)c4ccc([nH]4)c(-c4ccc(S(=O)(=O)[O-])cc4)c4nc(c(-c5ccc(S(=O)(=O)[O-])cc5)c5ccc2[nH]5)C=C4)C=C3)cc1)/C(=C\c1ccc(-c2ccccc2)cc1)c1ccc(S(=O)(=O)N2CCOCC2)s1
REMARK SMILES IDX 5 1 4 2 3 3 1 4 2 5 70 7 71 8 84 9 85 10 97 11 86 12 87 13
REMARK SMILES IDX 88 14 89 15 90 16 91 17 92 18 96 19 93 20 95 21 94 22 72 23
REMARK SMILES IDX 73 24 83 25 74 26 82 27 75 28 76 29 77 30 81 31 78 32 80 33
REMARK SMILES IDX 79 34 6 35 7 36 8 37 9 39 10 40 11 41 69 42 12 43 68 44
REMARK SMILES IDX 13 45 14 46 15 47 62 48 16 49 67 50 61 51 63 52 17 53 66 54
REMARK SMILES IDX 60 55 59 56 18 58 48 59 29 60 47 61 30 62 33 63 46 64 64 65
REMARK SMILES IDX 31 66 32 67 45 69 65 70 34 71 19 72 20 73 28 74 21 75 27 76
REMARK SMILES IDX 22 77 23 78 24 79 25 80 26 81 49 82 50 83 58 84 51 85 57 86
REMARK SMILES IDX 52 87 53 88 54 89 55 90 56 91 35 92 36 93 44 94 37 95 43 96
REMARK SMILES IDX 38 97 39 98 40 99 41 100 42 101
REMARK H PARENT 3 6 7 38 63 57 33 68
REMARK Flexibility Score: inf
ROOT
ATOM      1  C   UNL     1       4.614  -2.270   1.413  1.00  0.00     0.042 C 
ENDROOT
BRANCH   1   2
ATOM      2  C   UNL     1       4.459  -1.223   0.324  1.00  0.00     0.118 C 
BRANCH   2   3
ATOM      3  N   UNL     1       3.128  -1.108  -0.247  1.00  0.00    -0.352 N 
ATOM      4  O   UNL     1       1.413  -0.270  -1.379  1.00  0.00    -0.269 OA
ATOM      5  C   UNL     1       2.471  -0.039  -0.793  1.00  0.00     0.252 C 
ATOM      6  H   UNL     1       2.609  -1.945  -0.240  1.00  0.00     0.163 HD
BRANCH   5   7
ATOM      7  C   UNL     1       3.003   1.363  -0.672  1.00  0.00     0.057 C 
ATOM      8  C   UNL     1       2.161   2.394  -0.419  1.00  0.00     0.023 C 
BRANCH   7   9
ATOM      9  C   UNL     1       4.409   1.641  -0.788  1.00  0.00     0.041 A 
ATOM     10  C   UNL     1       5.392   1.092  -1.601  1.00  0.00     0.022 A 
ATOM     11  S   UNL     1       5.147   2.771   0.278  1.00  0.00    -0.122 S 
ATOM     12  C   UNL     1       6.718   1.371  -1.121  1.00  0.00     0.034 A 
ATOM     13  C   UNL     1       6.706   2.189  -0.008  1.00  0.00     0.135 A 
BRANCH  13  14
ATOM     14  S   UNL     1       7.962   2.738   1.132  1.00  0.00     0.252 S 
ATOM     15  O   UNL     1       8.629   1.508   1.501  1.00  0.00    -0.206 OA
ATOM     16  O   UNL     1       8.641   3.792   0.412  1.00  0.00    -0.206 OA
BRANCH  14  17
ATOM     17  N   UNL     1       7.253   3.388   2.506  1.00  0.00    -0.193 NA
ATOM     18  C   UNL     1       6.806   2.546   3.634  1.00  0.00     0.131 C 
ATOM     19  C   UNL     1       6.874   4.812   2.595  1.00  0.00     0.131 C 
ATOM     20  C   UNL     1       5.332   2.814   3.962  1.00  0.00     0.177 C 
ATOM     21  C   UNL     1       5.412   4.985   3.033  1.00  0.00     0.177 C 
ATOM     22  O   UNL     1       5.092   4.209   4.194  1.00  0.00    -0.379 OA
ENDBRANCH  14  17
ENDBRANCH  13  14
ENDBRANCH   7   9
BRANCH   8  23
ATOM     23  C   UNL     1       0.717   2.420  -0.146  1.00  0.00    -0.025 A 
ATOM     24  C   UNL     1      -0.040   3.420  -0.764  1.00  0.00     0.009 A 
ATOM     25  C   UNL     1       0.090   1.577   0.776  1.00  0.00     0.009 A 
ATOM     26  C   UNL     1      -1.410   3.528  -0.523  1.00  0.00     0.009 A 
ATOM     27  C   UNL     1      -1.289   1.683   1.013  1.00  0.00     0.009 A 
ATOM     28  C   UNL     1      -2.066   2.643   0.345  1.00  0.00    -0.018 A 
BRANCH  28  29
ATOM     29  C   UNL     1      -3.529   2.700   0.492  1.00  0.00    -0.018 A 
ATOM     30  C   UNL     1      -4.349   2.651  -0.649  1.00  0.00     0.009 A 
ATOM     31  C   UNL     1      -4.150   2.802   1.746  1.00  0.00     0.009 A 
ATOM     32  C   UNL     1      -5.740   2.712  -0.547  1.00  0.00     0.001 A 
ATOM     33  C   UNL     1      -5.544   2.863   1.851  1.00  0.00     0.001 A 
ATOM     34  C   UNL     1      -6.337   2.819   0.705  1.00  0.00     0.000 A 
ENDBRANCH  28  29
ENDBRANCH   8  23
ENDBRANCH   5   7
ENDBRANCH   2   3
ENDBRANCH   1   2
BRANCH   1  35
ATOM     35  C   UNL     1       4.112  -3.665   1.082  1.00  0.00     0.118 C 
BRANCH  35  36
ATOM     36  N   UNL     1       4.705  -4.249  -0.111  1.00  0.00    -0.352 N 
ATOM     37  C   UNL     1       5.487  -5.367  -0.287  1.00  0.00     0.251 C 
ATOM     38  H   UNL     1       4.513  -3.755  -0.941  1.00  0.00     0.163 HD
ATOM     39  O   UNL     1       5.927  -5.606  -1.410  1.00  0.00    -0.269 OA
BRANCH  37  40
ATOM     40  C   UNL     1       5.842  -6.258   0.845  1.00  0.00     0.039 A 
ATOM     41  C   UNL     1       7.121  -6.824   0.873  1.00  0.00     0.014 A 
ATOM     42  C   UNL     1       4.941  -6.560   1.865  1.00  0.00     0.014 A 
ATOM     43  C   UNL     1       7.514  -7.616   1.958  1.00  0.00     0.010 A 
ATOM     44  C   UNL     1       5.370  -7.247   2.999  1.00  0.00     0.010 A 
ATOM     45  C   UNL     1       6.657  -7.797   3.055  1.00  0.00    -0.014 A 
BRANCH  45  46
ATOM     46  C   UNL     1       7.085  -8.570   4.253  1.00  0.00     0.031 A 
ATOM     47  C   UNL     1       6.324  -9.800   4.681  1.00  0.00     0.074 A 
ATOM     48  C   UNL     1       8.125  -8.134   4.994  1.00  0.00     0.049 A 
ATOM     49  N   UNL     1       6.528 -10.578   5.714  1.00  0.00    -0.248 NA
ATOM     50  C   UNL     1       5.161 -10.186   3.865  1.00  0.00     0.031 C 
ATOM     51  C   UNL     1       8.904  -6.919   4.737  1.00  0.00     0.029 A 
ATOM     52  N   UNL     1       8.710  -8.668   6.115  1.00  0.00    -0.354 N 
ATOM     53  C   UNL     1       5.504 -11.520   5.689  1.00  0.00     0.074 A 
ATOM     54  C   UNL     1       4.650 -11.183   4.572  1.00  0.00     0.031 C 
ATOM     55  C   UNL     1       9.889  -6.827   5.644  1.00  0.00     0.029 A 
ATOM     56  C   UNL     1       9.796  -7.955   6.565  1.00  0.00     0.049 A 
ATOM     57  H   UNL     1       8.382  -9.485   6.556  1.00  0.00     0.167 HD
ATOM     58  C   UNL     1       5.303 -12.585   6.501  1.00  0.00     0.031 A 
ATOM     59  C   UNL     1      10.634  -8.188   7.593  1.00  0.00     0.031 A 
ATOM     60  C   UNL     1       6.175 -12.948   7.586  1.00  0.00     0.049 A 
ATOM     61  C   UNL     1      10.436  -9.417   8.436  1.00  0.00     0.074 A 
ATOM     62  C   UNL     1       6.098 -14.047   8.425  1.00  0.00     0.029 A 
ATOM     63  N   UNL     1       7.294 -12.227   7.973  1.00  0.00    -0.354 N 
ATOM     64  N   UNL     1       9.496 -10.328   8.355  1.00  0.00    -0.248 NA
ATOM     65  C   UNL     1      11.427  -9.660   9.493  1.00  0.00     0.031 C 
ATOM     66  C   UNL     1       7.157 -13.975   9.337  1.00  0.00     0.029 A 
ATOM     67  C   UNL     1       7.915 -12.854   9.039  1.00  0.00     0.049 A 
ATOM     68  H   UNL     1       7.602 -11.393   7.551  1.00  0.00     0.167 HD
ATOM     69  C   UNL     1       9.795 -11.265   9.337  1.00  0.00     0.074 A 
ATOM     70  C   UNL     1      11.013 -10.820   9.983  1.00  0.00     0.031 C 
ATOM     71  C   UNL     1       9.123 -12.394   9.674  1.00  0.00     0.031 A 
BRANCH  58  72
ATOM     72  C   UNL     1       4.092 -13.440   6.232  1.00  0.00    -0.014 A 
ATOM     73  C   UNL     1       4.023 -14.260   5.090  1.00  0.00     0.010 A 
ATOM     74  C   UNL     1       3.017 -13.438   7.138  1.00  0.00     0.010 A 
ATOM     75  C   UNL     1       2.880 -15.020   4.832  1.00  0.00     0.020 A 
ATOM     76  C   UNL     1       1.882 -14.220   6.898  1.00  0.00     0.020 A 
ATOM     77  C   UNL     1       1.812 -14.989   5.734  1.00  0.00     0.054 A 
BRANCH  77  78
ATOM     78  S   UNL     1       0.342 -15.992   5.381  1.00  0.00     0.124 S 
ATOM     79  O   UNL     1      -0.320 -15.198   4.349  1.00  0.00    -0.237 OA
ATOM     80  O   UNL     1       0.915 -17.257   4.929  1.00  0.00    -0.237 OA
ATOM     81  O   UNL     1      -0.353 -16.049   6.665  1.00  0.00    -0.744 OA
ENDBRANCH  77  78
ENDBRANCH  58  72
BRANCH  59  82
ATOM     82  C   UNL     1      11.770  -7.263   7.850  1.00  0.00    -0.014 A 
ATOM     83  C   UNL     1      13.084  -7.647   7.529  1.00  0.00     0.010 A 
ATOM     84  C   UNL     1      11.544  -5.989   8.401  1.00  0.00     0.010 A 
ATOM     85  C   UNL     1      14.155  -6.783   7.773  1.00  0.00     0.020 A 
ATOM     86  C   UNL     1      12.611  -5.112   8.624  1.00  0.00     0.020 A 
ATOM     87  C   UNL     1      13.911  -5.520   8.319  1.00  0.00     0.054 A 
BRANCH  87  88
ATOM     88  S   UNL     1      15.309  -4.391   8.578  1.00  0.00     0.124 S 
ATOM     89  O   UNL     1      15.913  -4.930   9.791  1.00  0.00    -0.237 OA
ATOM     90  O   UNL     1      16.087  -4.562   7.353  1.00  0.00    -0.237 OA
ATOM     91  O   UNL     1      14.668  -3.086   8.722  1.00  0.00    -0.744 OA
ENDBRANCH  87  88
ENDBRANCH  59  82
BRANCH  71  92
ATOM     92  C   UNL     1       9.712 -13.236  10.772  1.00  0.00    -0.014 A 
ATOM     93  C   UNL     1       9.659 -12.821  12.114  1.00  0.00     0.010 A 
ATOM     94  C   UNL     1      10.319 -14.464  10.454  1.00  0.00     0.010 A 
ATOM     95  C   UNL     1      10.249 -13.597  13.115  1.00  0.00     0.020 A 
ATOM     96  C   UNL     1      10.889 -15.254  11.455  1.00  0.00     0.020 A 
ATOM     97  C   UNL     1      10.870 -14.803  12.777  1.00  0.00     0.054 A 
BRANCH  97  98
ATOM     98  S   UNL     1      11.629 -15.799  14.090  1.00  0.00     0.124 S 
ATOM     99  O   UNL     1      12.894 -15.102  14.304  1.00  0.00    -0.237 OA
ATOM    100  O   UNL     1      10.661 -15.692  15.179  1.00  0.00    -0.237 OA
ATOM    101  O   UNL     1      11.740 -17.128  13.493  1.00  0.00    -0.744 OA
ENDBRANCH  97  98
ENDBRANCH  71  92
ENDBRANCH  45  46
ENDBRANCH  37  40
ENDBRANCH  35  36
ENDBRANCH   1  35
TORSDOF 18
