REMARK SMILES CN(C)C(=O)CC[NH2+]Cc1cc(C(=O)NCCCNC(=O)c2ccc(-c3c4nc(c(-c5ccc(S(=O)(=O)[O-])cc5)c5ccc([nH]5)c(-c5ccc(S(=O)(=O)[O-])cc5)c5nc(c(-c6ccc(S(=O)(=O)[O-])cc6)c6ccc3[nH]6)C=C5)C=C4)cc2)cs1
REMARK SMILES IDX 16 1 15 2 13 3 14 4 12 6 10 7 11 8 83 9 82 10 9 11 8 12 7 15
REMARK SMILES IDX 6 16 4 17 1 18 2 19 3 20 5 21 17 22 18 23 19 24 20 25 21 27
REMARK SMILES IDX 22 28 23 29 81 30 24 31 80 32 25 33 26 34 27 35 74 36 28 37
REMARK SMILES IDX 79 38 73 39 75 40 29 41 78 42 72 43 71 44 30 46 60 47 41 48
REMARK SMILES IDX 59 49 42 50 45 51 58 52 76 53 43 54 44 55 57 57 77 58 46 59
REMARK SMILES IDX 31 60 32 61 40 62 33 63 39 64 34 65 35 66 36 67 37 68 38 69
REMARK SMILES IDX 61 70 62 71 70 72 63 73 69 74 64 75 65 76 66 77 67 78 68 79
REMARK SMILES IDX 47 80 48 81 56 82 49 83 55 84 50 85 51 86 52 87 53 88 54 89
REMARK H PARENT 15 5 8 13 8 14 19 26 75 45 45 56
REMARK Flexibility Score: inf
ROOT
ATOM      1  C   UNL     1       3.854   4.911  -5.173  1.00  0.00     0.118 C 
ENDROOT
BRANCH   1   2
ATOM      2  N   UNL     1       5.160   4.282  -5.309  1.00  0.00    -0.352 N 
ATOM      3  C   UNL     1       5.526   2.961  -5.408  1.00  0.00     0.252 C 
ATOM      4  O   UNL     1       6.731   2.692  -5.439  1.00  0.00    -0.269 OA
ATOM      5  H   UNL     1       5.914   4.915  -5.334  1.00  0.00     0.163 HD
BRANCH   3   6
ATOM      6  C   UNL     1       4.510   1.914  -5.405  1.00  0.00     0.051 A 
ATOM      7  C   UNL     1       2.382   0.970  -5.430  1.00  0.00     0.059 A 
ATOM      8  C   UNL     1       3.195   1.943  -5.973  1.00  0.00     0.035 A 
ATOM      9  S   UNL     1       3.313  -0.266  -4.704  1.00  0.00    -0.142 S 
ATOM     10  C   UNL     1       4.739   0.672  -4.835  1.00  0.00     0.079 A 
BRANCH   7  11
ATOM     11  C   UNL     1       0.886   0.960  -5.386  1.00  0.00     0.308 C 
BRANCH  11  12
ATOM     12  N   UNL     1       0.380   1.262  -4.040  1.00  0.00    -0.341 N 
ATOM     13  H   UNL     1      -0.634   1.148  -4.047  1.00  0.00     0.346 HD
ATOM     14  H   UNL     1       0.845   0.618  -3.400  1.00  0.00     0.346 HD
BRANCH  12  15
ATOM     15  C   UNL     1       0.689   2.622  -3.571  1.00  0.00     0.270 C 
BRANCH  15  16
ATOM     16  C   UNL     1       0.090   2.918  -2.193  1.00  0.00     0.161 C 
BRANCH  16  17
ATOM     17  C   UNL     1       0.750   2.075  -1.118  1.00  0.00     0.227 C 
ATOM     18  C   UNL     1       0.985  -0.049   0.061  1.00  0.00     0.146 C 
ATOM     19  N   UNL     1       0.248   0.806  -0.854  1.00  0.00    -0.349 N 
ATOM     20  C   UNL     1      -1.004   0.260  -1.362  1.00  0.00     0.146 C 
ATOM     21  O   UNL     1       1.761   2.507  -0.556  1.00  0.00    -0.275 OA
ENDBRANCH  16  17
ENDBRANCH  15  16
ENDBRANCH  12  15
ENDBRANCH  11  12
ENDBRANCH   7  11
ENDBRANCH   3   6
ENDBRANCH   1   2
BRANCH   1  22
ATOM     22  C   UNL     1       3.666   5.688  -3.880  1.00  0.00     0.042 C 
BRANCH  22  23
ATOM     23  C   UNL     1       4.511   6.946  -3.766  1.00  0.00     0.118 C 
BRANCH  23  24
ATOM     24  N   UNL     1       4.242   7.906  -4.829  1.00  0.00    -0.352 N 
ATOM     25  C   UNL     1       3.752   9.188  -4.783  1.00  0.00     0.251 C 
ATOM     26  H   UNL     1       4.447   7.580  -5.735  1.00  0.00     0.163 HD
ATOM     27  O   UNL     1       3.431   9.737  -5.835  1.00  0.00    -0.269 OA
BRANCH  25  28
ATOM     28  C   UNL     1       3.592   9.906  -3.497  1.00  0.00     0.039 A 
ATOM     29  C   UNL     1       2.513  10.784  -3.344  1.00  0.00     0.014 A 
ATOM     30  C   UNL     1       4.514   9.761  -2.458  1.00  0.00     0.014 A 
ATOM     31  C   UNL     1       2.333  11.465  -2.137  1.00  0.00     0.010 A 
ATOM     32  C   UNL     1       4.277  10.358  -1.224  1.00  0.00     0.010 A 
ATOM     33  C   UNL     1       3.195  11.232  -1.054  1.00  0.00    -0.014 A 
BRANCH  33  34
ATOM     34  C   UNL     1       2.997  11.911   0.253  1.00  0.00     0.031 A 
ATOM     35  C   UNL     1       4.058  12.833   0.797  1.00  0.00     0.074 A 
ATOM     36  C   UNL     1       1.887  11.657   0.975  1.00  0.00     0.049 A 
ATOM     37  N   UNL     1       4.082  13.485   1.932  1.00  0.00    -0.248 NA
ATOM     38  C   UNL     1       5.264  13.026  -0.026  1.00  0.00     0.031 C 
ATOM     39  C   UNL     1       0.811  10.744   0.583  1.00  0.00     0.029 A 
ATOM     40  N   UNL     1       1.481  12.142   2.193  1.00  0.00    -0.354 N 
ATOM     41  C   UNL     1       5.306  14.144   1.966  1.00  0.00     0.074 A 
ATOM     42  C   UNL     1       6.021  13.770   0.766  1.00  0.00     0.031 C 
ATOM     43  C   UNL     1      -0.148  10.764   1.522  1.00  0.00     0.029 A 
ATOM     44  C   UNL     1       0.261  11.657   2.602  1.00  0.00     0.049 A 
ATOM     45  H   UNL     1       2.013  12.778   2.724  1.00  0.00     0.167 HD
ATOM     46  C   UNL     1       5.785  15.002   2.898  1.00  0.00     0.031 A 
ATOM     47  C   UNL     1      -0.450  11.902   3.719  1.00  0.00     0.031 A 
ATOM     48  C   UNL     1       5.064  15.386   4.083  1.00  0.00     0.049 A 
ATOM     49  C   UNL     1       0.094  12.872   4.732  1.00  0.00     0.074 A 
ATOM     50  C   UNL     1       5.435  16.290   5.063  1.00  0.00     0.029 A 
ATOM     51  N   UNL     1       3.821  14.889   4.447  1.00  0.00    -0.354 N 
ATOM     52  N   UNL     1       1.227  13.534   4.714  1.00  0.00    -0.248 NA
ATOM     53  C   UNL     1      -0.746  13.143   5.906  1.00  0.00     0.031 C 
ATOM     54  C   UNL     1       4.438  16.304   6.044  1.00  0.00     0.029 A 
ATOM     55  C   UNL     1       3.417  15.456   5.644  1.00  0.00     0.049 A 
ATOM     56  H   UNL     1       3.302  14.230   3.931  1.00  0.00     0.167 HD
ATOM     57  C   UNL     1       1.220  14.325   5.858  1.00  0.00     0.074 A 
ATOM     58  C   UNL     1      -0.036  14.069   6.535  1.00  0.00     0.031 C 
ATOM     59  C   UNL     1       2.165  15.189   6.305  1.00  0.00     0.031 A 
BRANCH  46  60
ATOM     60  C   UNL     1       7.157  15.585   2.671  1.00  0.00    -0.014 A 
ATOM     61  C   UNL     1       7.394  16.503   1.631  1.00  0.00     0.010 A 
ATOM     62  C   UNL     1       8.217  15.236   3.527  1.00  0.00     0.010 A 
ATOM     63  C   UNL     1       8.674  17.026   1.424  1.00  0.00     0.020 A 
ATOM     64  C   UNL     1       9.492  15.781   3.343  1.00  0.00     0.020 A 
ATOM     65  C   UNL     1       9.716  16.659   2.281  1.00  0.00     0.054 A 
BRANCH  65  66
ATOM     66  S   UNL     1      11.361  17.370   2.002  1.00  0.00     0.124 S 
ATOM     67  O   UNL     1      11.796  16.660   0.802  1.00  0.00    -0.237 OA
ATOM     68  O   UNL     1      11.069  18.790   1.819  1.00  0.00    -0.237 OA
ATOM     69  O   UNL     1      12.094  17.040   3.221  1.00  0.00    -0.744 OA
ENDBRANCH  65  66
ENDBRANCH  46  60
BRANCH  47  70
ATOM     70  C   UNL     1      -1.771  11.244   3.919  1.00  0.00    -0.014 A 
ATOM     71  C   UNL     1      -2.960  11.991   3.840  1.00  0.00     0.010 A 
ATOM     72  C   UNL     1      -1.849   9.863   4.172  1.00  0.00     0.010 A 
ATOM     73  C   UNL     1      -4.200  11.374   4.032  1.00  0.00     0.020 A 
ATOM     74  C   UNL     1      -3.088   9.236   4.335  1.00  0.00     0.020 A 
ATOM     75  C   UNL     1      -4.256   9.999   4.276  1.00  0.00     0.054 A 
BRANCH  75  76
ATOM     76  S   UNL     1      -5.878   9.210   4.469  1.00  0.00     0.124 S 
ATOM     77  O   UNL     1      -6.283   9.666   5.795  1.00  0.00    -0.237 OA
ATOM     78  O   UNL     1      -6.635   9.765   3.349  1.00  0.00    -0.237 OA
ATOM     79  O   UNL     1      -5.580   7.783   4.361  1.00  0.00    -0.744 OA
ENDBRANCH  75  76
ENDBRANCH  47  70
BRANCH  59  80
ATOM     80  C   UNL     1       1.855  15.958   7.563  1.00  0.00    -0.014 A 
ATOM     81  C   UNL     1       1.823  15.328   8.820  1.00  0.00     0.010 A 
ATOM     82  C   UNL     1       1.624  17.343   7.484  1.00  0.00     0.010 A 
ATOM     83  C   UNL     1       1.517  16.063   9.969  1.00  0.00     0.020 A 
ATOM     84  C   UNL     1       1.348  18.087   8.633  1.00  0.00     0.020 A 
ATOM     85  C   UNL     1       1.276  17.437   9.867  1.00  0.00     0.054 A 
BRANCH  85  86
ATOM     86  S   UNL     1       0.897  18.372  11.373  1.00  0.00     0.124 S 
ATOM     87  O   UNL     1      -0.477  17.962  11.648  1.00  0.00    -0.237 OA
ATOM     88  O   UNL     1       1.900  17.883  12.316  1.00  0.00    -0.237 OA
ATOM     89  O   UNL     1       1.062  19.766  10.966  1.00  0.00    -0.744 OA
ENDBRANCH  85  86
ENDBRANCH  59  80
ENDBRANCH  33  34
ENDBRANCH  25  28
ENDBRANCH  23  24
ENDBRANCH  22  23
ENDBRANCH   1  22
TORSDOF 18
