REMARK SMILES O=C(COc1cccc(/C=C2\SC(=O)N(c3cccc(Cl)c3)C2=O)c1)NCCCNC(=O)c1ccc(-c2c3nc(c(-c4ccc(S(=O)(=O)[O-])cc4)c4ccc([nH]4)c(-c4ccc(S(=O)(=O)[O-])cc4)c4nc(c(-c5ccc(S(=O)(=O)[O-])cc5)c5ccc2[nH]5)C=C4)C=C3)cc1
REMARK SMILES IDX 27 1 26 2 1 3 2 4 3 6 4 7 5 8 6 9 25 10 7 11 9 12 8 13 10 14
REMARK SMILES IDX 11 15 12 16 23 17 13 18 15 19 24 20 14 21 16 22 17 23 22 24
REMARK SMILES IDX 18 25 20 26 19 27 21 28 28 29 29 30 30 31 31 32 32 34 33 35
REMARK SMILES IDX 34 36 92 37 35 38 91 39 36 40 37 41 38 42 85 43 39 44 90 45
REMARK SMILES IDX 84 46 86 47 40 48 89 49 83 50 82 51 41 53 71 54 52 55 70 56
REMARK SMILES IDX 53 57 56 58 69 59 87 60 54 61 55 62 68 64 88 65 57 66 42 67
REMARK SMILES IDX 43 68 51 69 44 70 50 71 45 72 46 73 47 74 48 75 49 76 72 77
REMARK SMILES IDX 73 78 81 79 74 80 80 81 75 82 76 83 77 84 78 85 79 86 58 87
REMARK SMILES IDX 59 88 67 89 60 90 66 91 61 92 62 93 63 94 64 95 65 96
REMARK H PARENT 26 5 30 33 86 52 56 63
REMARK Flexibility Score: inf
ROOT
ATOM      1  C   UNL     1       2.289   1.072   2.144  1.00  0.00     0.117 C 
ENDROOT
BRANCH   1   2
ATOM      2  N   UNL     1       2.952   0.481   0.999  1.00  0.00    -0.353 N 
ATOM      3  O   UNL     1       1.146  -0.746   0.287  1.00  0.00    -0.271 OA
ATOM      4  C   UNL     1       2.274  -0.304   0.088  1.00  0.00     0.257 C 
ATOM      5  H   UNL     1       3.914   0.644   0.867  1.00  0.00     0.163 HD
BRANCH   4   6
ATOM      6  C   UNL     1       3.021  -0.543  -1.233  1.00  0.00     0.329 C 
BRANCH   6   7
ATOM      7  O   UNL     1       3.924   0.466  -1.682  1.00  0.00    -0.484 OA
BRANCH   7   8
ATOM      8  C   UNL     1       3.342   1.567  -2.252  1.00  0.00     0.120 A 
ATOM      9  C   UNL     1       3.881   2.034  -3.449  1.00  0.00     0.046 A 
ATOM     10  C   UNL     1       2.350   2.314  -1.625  1.00  0.00     0.054 A 
ATOM     11  C   UNL     1       3.411   3.224  -4.017  1.00  0.00     0.004 A 
ATOM     12  C   UNL     1       1.916   3.537  -2.151  1.00  0.00    -0.021 A 
ATOM     13  C   UNL     1       2.433   3.983  -3.365  1.00  0.00     0.008 A 
BRANCH  12  14
ATOM     14  C   UNL     1       0.960   4.319  -1.359  1.00  0.00     0.029 C 
ATOM     15  C   UNL     1       1.251   4.869  -0.169  1.00  0.00     0.083 C 
ATOM     16  S   UNL     1       2.787   4.963   0.591  1.00  0.00    -0.022 SA
ATOM     17  C   UNL     1       0.206   5.470   0.704  1.00  0.00     0.272 C 
ATOM     18  C   UNL     1       2.133   5.743   2.021  1.00  0.00     0.298 C 
ATOM     19  N   UNL     1       0.768   5.906   1.895  1.00  0.00    -0.236 N 
ATOM     20  O   UNL     1      -0.961   5.563   0.342  1.00  0.00    -0.268 OA
ATOM     21  O   UNL     1       2.855   6.019   2.963  1.00  0.00    -0.260 OA
BRANCH  19  22
ATOM     22  C   UNL     1      -0.016   6.500   2.931  1.00  0.00     0.054 A 
ATOM     23  C   UNL     1      -1.327   6.063   3.180  1.00  0.00     0.027 A 
ATOM     24  C   UNL     1       0.497   7.541   3.719  1.00  0.00     0.047 A 
ATOM     25  C   UNL     1      -2.104   6.649   4.184  1.00  0.00     0.004 A 
ATOM     26  C   UNL     1      -0.295   8.148   4.696  1.00  0.00     0.043 A 
ATOM     27  C   UNL     1      -1.591   7.703   4.936  1.00  0.00     0.020 A 
ATOM     28  Cl  UNL     1       0.325   9.483   5.589  1.00  0.00    -0.084 Cl
ENDBRANCH  19  22
ENDBRANCH  12  14
ENDBRANCH   7   8
ENDBRANCH   6   7
ENDBRANCH   4   6
ENDBRANCH   1   2
BRANCH   1  29
ATOM     29  C   UNL     1       2.580   0.366   3.457  1.00  0.00     0.042 C 
BRANCH  29  30
ATOM     30  C   UNL     1       4.044   0.393   3.877  1.00  0.00     0.118 C 
BRANCH  30  31
ATOM     31  N   UNL     1       4.567   1.734   4.093  1.00  0.00    -0.352 N 
ATOM     32  C   UNL     1       5.316   2.243   5.127  1.00  0.00     0.251 C 
ATOM     33  H   UNL     1       4.349   2.381   3.384  1.00  0.00     0.163 HD
ATOM     34  O   UNL     1       5.581   3.443   5.134  1.00  0.00    -0.269 OA
BRANCH  32  35
ATOM     35  C   UNL     1       5.781   1.384   6.240  1.00  0.00     0.039 A 
ATOM     36  C   UNL     1       5.758   1.911   7.535  1.00  0.00     0.014 A 
ATOM     37  C   UNL     1       6.266   0.091   6.028  1.00  0.00     0.014 A 
ATOM     38  C   UNL     1       6.162   1.124   8.616  1.00  0.00     0.010 A 
ATOM     39  C   UNL     1       6.593  -0.721   7.115  1.00  0.00     0.010 A 
ATOM     40  C   UNL     1       6.550  -0.212   8.421  1.00  0.00    -0.014 A 
BRANCH  40  41
ATOM     41  C   UNL     1       6.898  -1.076   9.580  1.00  0.00     0.031 A 
ATOM     42  C   UNL     1       8.290  -1.627   9.742  1.00  0.00     0.074 A 
ATOM     43  C   UNL     1       5.943  -1.390  10.479  1.00  0.00     0.049 A 
ATOM     44  N   UNL     1       8.775  -2.367  10.708  1.00  0.00    -0.248 NA
ATOM     45  C   UNL     1       9.257  -1.329   8.674  1.00  0.00     0.031 C 
ATOM     46  C   UNL     1       4.540  -0.972  10.405  1.00  0.00     0.029 A 
ATOM     47  N   UNL     1       6.008  -2.127  11.634  1.00  0.00    -0.354 N 
ATOM     48  C   UNL     1      10.095  -2.631  10.360  1.00  0.00     0.074 A 
ATOM     49  C   UNL     1      10.319  -2.017   9.069  1.00  0.00     0.031 C 
ATOM     50  C   UNL     1       3.889  -1.422  11.489  1.00  0.00     0.029 A 
ATOM     51  C   UNL     1       4.816  -2.185  12.319  1.00  0.00     0.049 A 
ATOM     52  H   UNL     1       6.829  -2.573  11.944  1.00  0.00     0.167 HD
ATOM     53  C   UNL     1      11.042  -3.303  11.058  1.00  0.00     0.031 A 
ATOM     54  C   UNL     1       4.504  -2.774  13.489  1.00  0.00     0.031 A 
ATOM     55  C   UNL     1      10.821  -3.906  12.347  1.00  0.00     0.049 A 
ATOM     56  C   UNL     1       5.579  -3.490  14.259  1.00  0.00     0.074 A 
ATOM     57  C   UNL     1      11.731  -4.561  13.159  1.00  0.00     0.029 A 
ATOM     58  N   UNL     1       9.605  -3.928  13.014  1.00  0.00    -0.354 N 
ATOM     59  N   UNL     1       6.840  -3.667  13.945  1.00  0.00    -0.248 NA
ATOM     60  C   UNL     1       5.190  -4.066  15.553  1.00  0.00     0.031 C 
ATOM     61  C   UNL     1      11.055  -5.018  14.297  1.00  0.00     0.029 A 
ATOM     62  C   UNL     1       9.737  -4.599  14.219  1.00  0.00     0.049 A 
ATOM     63  H   UNL     1       8.771  -3.526  12.680  1.00  0.00     0.167 HD
ATOM     64  C   UNL     1       7.402  -4.354  15.015  1.00  0.00     0.074 A 
ATOM     65  C   UNL     1       6.348  -4.540  15.992  1.00  0.00     0.031 C 
ATOM     66  C   UNL     1       8.677  -4.790  15.176  1.00  0.00     0.031 A 
BRANCH  53  67
ATOM     67  C   UNL     1      12.410  -3.422  10.437  1.00  0.00    -0.014 A 
ATOM     68  C   UNL     1      13.251  -2.300  10.312  1.00  0.00     0.010 A 
ATOM     69  C   UNL     1      12.878  -4.676  10.005  1.00  0.00     0.010 A 
ATOM     70  C   UNL     1      14.514  -2.422   9.727  1.00  0.00     0.020 A 
ATOM     71  C   UNL     1      14.153  -4.808   9.445  1.00  0.00     0.020 A 
ATOM     72  C   UNL     1      14.955  -3.675   9.293  1.00  0.00     0.054 A 
BRANCH  72  73
ATOM     73  S   UNL     1      16.607  -3.808   8.555  1.00  0.00     0.124 S 
ATOM     74  O   UNL     1      16.399  -3.202   7.242  1.00  0.00    -0.237 OA
ATOM     75  O   UNL     1      17.435  -3.037   9.478  1.00  0.00    -0.237 OA
ATOM     76  O   UNL     1      16.867  -5.246   8.543  1.00  0.00    -0.744 OA
ENDBRANCH  72  73
ENDBRANCH  53  67
BRANCH  54  77
ATOM     77  C   UNL     1       3.118  -2.675  14.023  1.00  0.00    -0.014 A 
ATOM     78  C   UNL     1       2.840  -1.869  15.141  1.00  0.00     0.010 A 
ATOM     79  C   UNL     1       2.067  -3.377  13.405  1.00  0.00     0.010 A 
ATOM     80  C   UNL     1       1.539  -1.782  15.645  1.00  0.00     0.020 A 
ATOM     81  C   UNL     1       0.760  -3.270  13.890  1.00  0.00     0.020 A 
ATOM     82  C   UNL     1       0.506  -2.482  15.014  1.00  0.00     0.054 A 
BRANCH  82  83
ATOM     83  S   UNL     1      -1.184  -2.313  15.652  1.00  0.00     0.124 S 
ATOM     84  O   UNL     1      -1.138  -3.135  16.856  1.00  0.00    -0.237 OA
ATOM     85  O   UNL     1      -1.297  -0.873  15.871  1.00  0.00    -0.237 OA
ATOM     86  O   UNL     1      -2.011  -2.836  14.566  1.00  0.00    -0.744 OA
ENDBRANCH  82  83
ENDBRANCH  54  77
BRANCH  66  87
ATOM     87  C   UNL     1       9.003  -5.484  16.472  1.00  0.00    -0.014 A 
ATOM     88  C   UNL     1       8.505  -6.768  16.759  1.00  0.00     0.010 A 
ATOM     89  C   UNL     1       9.826  -4.843  17.415  1.00  0.00     0.010 A 
ATOM     90  C   UNL     1       8.776  -7.372  17.989  1.00  0.00     0.020 A 
ATOM     91  C   UNL     1      10.124  -5.456  18.634  1.00  0.00     0.020 A 
ATOM     92  C   UNL     1       9.576  -6.707  18.924  1.00  0.00     0.054 A 
BRANCH  92  93
ATOM     93  S   UNL     1       9.913  -7.507  20.516  1.00  0.00     0.124 S 
ATOM     94  O   UNL     1       8.655  -7.303  21.229  1.00  0.00    -0.237 OA
ATOM     95  O   UNL     1      10.201  -8.886  20.131  1.00  0.00    -0.237 OA
ATOM     96  O   UNL     1      11.055  -6.763  21.042  1.00  0.00    -0.744 OA
ENDBRANCH  92  93
ENDBRANCH  66  87
ENDBRANCH  40  41
ENDBRANCH  32  35
ENDBRANCH  30  31
ENDBRANCH  29  30
ENDBRANCH   1  29
TORSDOF 17
