REMARK SMILES COc1ccc(/C=C(\Sc2nc(C)n[nH]2)C(=O)NCCCNC(=O)c2ccc(-c3c4nc(c(-c5ccc(S(=O)(=O)[O-])cc5)c5ccc([nH]5)c(-c5ccc(S(=O)(=O)[O-])cc5)c5nc(c(-c6ccc(S(=O)(=O)[O-])cc6)c6ccc3[nH]6)C=C5)C=C4)cc2)c(OC)c1
REMARK SMILES IDX 20 1 19 2 18 3 16 4 17 5 8 7 7 8 6 9 3 10 4 11 88 12 5 13
REMARK SMILES IDX 85 14 2 15 1 16 86 17 87 18 9 19 10 20 11 21 15 22 12 23
REMARK SMILES IDX 14 24 13 26 21 27 22 28 23 29 24 31 25 32 26 33 84 34 27 35
REMARK SMILES IDX 83 36 28 37 29 38 30 39 77 40 31 41 82 42 76 43 78 44 32 45
REMARK SMILES IDX 81 46 75 47 74 48 33 50 63 51 44 52 62 53 45 54 48 55 61 56
REMARK SMILES IDX 79 57 46 58 47 59 60 61 80 62 49 63 34 64 35 65 43 66 36 67
REMARK SMILES IDX 42 68 37 69 38 70 39 71 40 72 41 73 64 74 65 75 73 76 66 77
REMARK SMILES IDX 72 78 67 79 68 80 69 81 70 82 71 83 50 84 51 85 59 86 52 87
REMARK SMILES IDX 58 88 53 89 54 90 55 91 56 92 57 93
REMARK H PARENT 18 6 15 25 22 30 78 49 48 60
REMARK Flexibility Score: inf
ROOT
ATOM      1  C   UNL     1      -1.879   4.762  -8.492  1.00  0.00     0.042 C 
ENDROOT
BRANCH   1   2
ATOM      2  C   UNL     1      -0.744   3.764  -8.762  1.00  0.00     0.118 C 
BRANCH   2   3
ATOM      3  N   UNL     1       0.571   4.291  -8.414  1.00  0.00    -0.352 N 
ATOM      4  C   UNL     1       1.407   4.053  -7.357  1.00  0.00     0.258 C 
ATOM      5  O   UNL     1       2.527   4.568  -7.405  1.00  0.00    -0.269 OA
ATOM      6  H   UNL     1       0.925   4.941  -9.063  1.00  0.00     0.163 HD
BRANCH   4   7
ATOM      7  C   UNL     1       1.011   3.180  -6.180  1.00  0.00     0.081 C 
ATOM      8  C   UNL     1       2.031   2.423  -5.706  1.00  0.00     0.033 C 
BRANCH   8   9
ATOM      9  C   UNL     1       2.058   1.497  -4.563  1.00  0.00     0.018 A 
ATOM     10  C   UNL     1       1.646  -0.127  -2.316  1.00  0.00     0.122 A 
ATOM     11  C   UNL     1       1.114  -0.492  -3.544  1.00  0.00     0.047 A 
ATOM     12  C   UNL     1       2.559   0.918  -2.259  1.00  0.00     0.093 A 
ATOM     13  C   UNL     1       1.310   0.323  -4.660  1.00  0.00     0.016 A 
ATOM     14  C   UNL     1       2.829   1.676  -3.408  1.00  0.00     0.129 A 
BRANCH  10  15
ATOM     15  O   UNL     1       1.256  -0.870  -1.238  1.00  0.00    -0.497 OA
ATOM     16  C   UNL     1       1.112  -0.106  -0.040  1.00  0.00     0.278 C 
ENDBRANCH  10  15
BRANCH  14  17
ATOM     17  O   UNL     1       3.873   2.568  -3.414  1.00  0.00    -0.496 OA
ATOM     18  C   UNL     1       5.082   1.958  -2.927  1.00  0.00     0.278 C 
ENDBRANCH  14  17
ENDBRANCH   8   9
BRANCH   7  19
ATOM     19  S   UNL     1      -0.516   3.587  -5.464  1.00  0.00    -0.045 SA
BRANCH  19  20
ATOM     20  C   UNL     1      -1.125   2.201  -4.666  1.00  0.00     0.188 A 
ATOM     21  N   UNL     1      -1.569   1.053  -5.126  1.00  0.00    -0.206 NA
ATOM     22  N   UNL     1      -1.391   2.291  -3.335  1.00  0.00    -0.254 N 
ATOM     23  C   UNL     1      -2.026   0.427  -3.979  1.00  0.00     0.148 A 
ATOM     24  N   UNL     1      -1.971   1.174  -2.868  1.00  0.00    -0.158 NA
ATOM     25  H   UNL     1      -1.183   3.079  -2.782  1.00  0.00     0.192 HD
ATOM     26  C   UNL     1      -2.437  -0.995  -3.932  1.00  0.00     0.092 C 
ENDBRANCH  19  20
ENDBRANCH   7  19
ENDBRANCH   4   7
ENDBRANCH   2   3
ENDBRANCH   1   2
BRANCH   1  27
ATOM     27  C   UNL     1      -1.964   5.866  -9.536  1.00  0.00     0.118 C 
BRANCH  27  28
ATOM     28  N   UNL     1      -2.519   5.419 -10.817  1.00  0.00    -0.352 N 
ATOM     29  C   UNL     1      -2.825   6.186 -11.935  1.00  0.00     0.251 C 
ATOM     30  H   UNL     1      -2.699   4.454 -10.896  1.00  0.00     0.163 HD
ATOM     31  O   UNL     1      -3.594   5.769 -12.783  1.00  0.00    -0.269 OA
BRANCH  29  32
ATOM     32  C   UNL     1      -2.192   7.515 -12.074  1.00  0.00     0.039 A 
ATOM     33  C   UNL     1      -2.872   8.613 -12.609  1.00  0.00     0.014 A 
ATOM     34  C   UNL     1      -0.885   7.650 -11.621  1.00  0.00     0.014 A 
ATOM     35  C   UNL     1      -2.240   9.858 -12.604  1.00  0.00     0.010 A 
ATOM     36  C   UNL     1      -0.355   8.894 -11.425  1.00  0.00     0.010 A 
ATOM     37  C   UNL     1      -0.985   9.992 -11.987  1.00  0.00    -0.014 A 
BRANCH  37  38
ATOM     38  C   UNL     1      -0.358  11.294 -11.784  1.00  0.00     0.031 A 
ATOM     39  C   UNL     1      -1.225  12.238 -11.036  1.00  0.00     0.074 A 
ATOM     40  C   UNL     1       0.956  11.529 -12.010  1.00  0.00     0.049 A 
ATOM     41  N   UNL     1      -1.915  13.216 -11.519  1.00  0.00    -0.248 NA
ATOM     42  C   UNL     1      -1.533  11.936  -9.625  1.00  0.00     0.031 C 
ATOM     43  C   UNL     1       1.985  10.557 -12.415  1.00  0.00     0.029 A 
ATOM     44  N   UNL     1       1.689  12.660 -11.814  1.00  0.00    -0.354 N 
ATOM     45  C   UNL     1      -2.492  13.834 -10.415  1.00  0.00     0.074 A 
ATOM     46  C   UNL     1      -2.451  12.867  -9.350  1.00  0.00     0.031 C 
ATOM     47  C   UNL     1       3.216  11.070 -12.189  1.00  0.00     0.029 A 
ATOM     48  C   UNL     1       3.070  12.464 -11.819  1.00  0.00     0.049 A 
ATOM     49  H   UNL     1       1.277  13.544 -11.679  1.00  0.00     0.167 HD
ATOM     50  C   UNL     1      -2.598  15.192 -10.361  1.00  0.00     0.031 A 
ATOM     51  C   UNL     1       4.029  13.386 -11.546  1.00  0.00     0.031 A 
ATOM     52  C   UNL     1      -2.284  15.777 -11.641  1.00  0.00     0.049 A 
ATOM     53  C   UNL     1       3.414  14.713 -11.768  1.00  0.00     0.074 A 
ATOM     54  C   UNL     1      -2.867  15.845 -12.886  1.00  0.00     0.029 A 
ATOM     55  N   UNL     1      -0.947  16.048 -11.795  1.00  0.00    -0.354 N 
ATOM     56  N   UNL     1       2.995  15.115 -12.937  1.00  0.00    -0.248 NA
ATOM     57  C   UNL     1       2.899  15.459 -10.628  1.00  0.00     0.031 C 
ATOM     58  C   UNL     1      -1.789  15.955 -13.816  1.00  0.00     0.029 A 
ATOM     59  C   UNL     1      -0.586  16.020 -13.114  1.00  0.00     0.049 A 
ATOM     60  H   UNL     1      -0.329  16.238 -11.053  1.00  0.00     0.167 HD
ATOM     61  C   UNL     1       1.855  15.845 -12.659  1.00  0.00     0.074 A 
ATOM     62  C   UNL     1       1.944  16.167 -11.239  1.00  0.00     0.031 C 
ATOM     63  C   UNL     1       0.796  15.847 -13.520  1.00  0.00     0.031 A 
BRANCH  50  64
ATOM     64  C   UNL     1      -2.430  16.009  -9.094  1.00  0.00    -0.014 A 
ATOM     65  C   UNL     1      -2.563  17.411  -9.174  1.00  0.00     0.010 A 
ATOM     66  C   UNL     1      -1.868  15.494  -7.907  1.00  0.00     0.010 A 
ATOM     67  C   UNL     1      -2.116  18.250  -8.143  1.00  0.00     0.020 A 
ATOM     68  C   UNL     1      -1.451  16.318  -6.859  1.00  0.00     0.020 A 
ATOM     69  C   UNL     1      -1.557  17.695  -6.993  1.00  0.00     0.054 A 
BRANCH  69  70
ATOM     70  S   UNL     1      -0.927  18.782  -5.691  1.00  0.00     0.124 S 
ATOM     71  O   UNL     1       0.183  19.449  -6.364  1.00  0.00    -0.237 OA
ATOM     72  O   UNL     1      -2.089  19.618  -5.402  1.00  0.00    -0.237 OA
ATOM     73  O   UNL     1      -0.552  17.857  -4.625  1.00  0.00    -0.744 OA
ENDBRANCH  69  70
ENDBRANCH  50  64
BRANCH  51  74
ATOM     74  C   UNL     1       5.344  13.223 -10.874  1.00  0.00    -0.014 A 
ATOM     75  C   UNL     1       6.330  14.226 -10.950  1.00  0.00     0.010 A 
ATOM     76  C   UNL     1       5.508  12.220  -9.898  1.00  0.00     0.010 A 
ATOM     77  C   UNL     1       7.398  14.269 -10.034  1.00  0.00     0.020 A 
ATOM     78  C   UNL     1       6.571  12.255  -8.982  1.00  0.00     0.020 A 
ATOM     79  C   UNL     1       7.497  13.295  -9.038  1.00  0.00     0.054 A 
BRANCH  79  80
ATOM     80  S   UNL     1       8.766  13.464  -7.742  1.00  0.00     0.124 S 
ATOM     81  O   UNL     1       9.999  13.196  -8.476  1.00  0.00    -0.237 OA
ATOM     82  O   UNL     1       8.585  14.843  -7.296  1.00  0.00    -0.237 OA
ATOM     83  O   UNL     1       8.395  12.445  -6.761  1.00  0.00    -0.744 OA
ENDBRANCH  79  80
ENDBRANCH  51  74
BRANCH  63  84
ATOM     84  C   UNL     1       1.060  15.531 -14.968  1.00  0.00    -0.014 A 
ATOM     85  C   UNL     1       1.488  14.285 -15.461  1.00  0.00     0.010 A 
ATOM     86  C   UNL     1       0.764  16.554 -15.886  1.00  0.00     0.010 A 
ATOM     87  C   UNL     1       1.632  14.080 -16.844  1.00  0.00     0.020 A 
ATOM     88  C   UNL     1       0.886  16.351 -17.259  1.00  0.00     0.020 A 
ATOM     89  C   UNL     1       1.330  15.118 -17.733  1.00  0.00     0.054 A 
BRANCH  89  90
ATOM     90  S   UNL     1       1.490  14.851 -19.521  1.00  0.00     0.124 S 
ATOM     91  O   UNL     1       2.933  14.711 -19.694  1.00  0.00    -0.237 OA
ATOM     92  O   UNL     1       0.708  13.637 -19.739  1.00  0.00    -0.237 OA
ATOM     93  O   UNL     1       0.913  16.061 -20.107  1.00  0.00    -0.744 OA
ENDBRANCH  89  90
ENDBRANCH  63  84
ENDBRANCH  37  38
ENDBRANCH  29  32
ENDBRANCH  27  28
ENDBRANCH   1  27
TORSDOF 18
