REMARK SMILES O=C(CCC(=O)Nc1cccc2c1C(=O)c1ccccc1C2=O)NCCCNC(=O)c1ccc(-c2c3nc(c(-c4ccc(S(=O)(=O)[O-])cc4)c4ccc([nH]4)c(-c4ccc(S(=O)(=O)[O-])cc4)c4nc(c(-c5ccc(S(=O)(=O)[O-])cc5)c5ccc2[nH]5)C=C4)C=C3)cc1
REMARK SMILES IDX 26 1 25 2 24 3 1 4 2 5 3 7 4 8 5 9 6 10 7 11 8 13 9 14 13 15
REMARK SMILES IDX 10 16 12 17 14 18 11 19 22 20 15 21 16 22 21 23 23 24 17 25
REMARK SMILES IDX 20 26 18 27 19 28 27 29 28 30 29 31 30 33 31 34 32 35 90 36
REMARK SMILES IDX 33 37 89 38 34 39 35 40 36 41 83 42 37 43 88 44 82 45 84 46
REMARK SMILES IDX 38 47 87 48 81 49 80 50 39 52 69 53 50 54 68 55 51 56 54 57
REMARK SMILES IDX 67 58 85 59 52 60 53 61 66 63 86 64 55 65 40 66 41 67 49 68
REMARK SMILES IDX 42 69 48 70 43 71 44 72 45 73 46 74 47 75 70 76 71 77 79 78
REMARK SMILES IDX 72 79 78 80 73 81 74 82 75 83 76 84 77 85 56 86 57 87 65 88
REMARK SMILES IDX 58 89 64 90 59 91 60 92 61 93 62 94 63 95
REMARK H PARENT 24 6 7 12 28 32 84 51 54 62
REMARK Flexibility Score: inf
ROOT
ATOM      1  C   UNL     1       3.724   2.836   1.563  1.00  0.00     0.042 C 
ENDROOT
BRANCH   1   2
ATOM      2  C   UNL     1       4.195   1.795   0.571  1.00  0.00     0.117 C 
BRANCH   2   3
ATOM      3  N   UNL     1       5.048   0.731   1.051  1.00  0.00    -0.356 N 
ATOM      4  O   UNL     1       3.609  -0.926   1.759  1.00  0.00    -0.275 OA
ATOM      5  C   UNL     1       4.535  -0.549   1.053  1.00  0.00     0.220 C 
ATOM      6  H   UNL     1       5.963   0.914   1.365  1.00  0.00     0.163 HD
BRANCH   5   7
ATOM      7  C   UNL     1       5.021  -1.416  -0.077  1.00  0.00     0.110 C 
BRANCH   7   8
ATOM      8  C   UNL     1       3.937  -1.407  -1.170  1.00  0.00     0.110 C 
BRANCH   8   9
ATOM      9  C   UNL     1       3.950  -0.086  -1.883  1.00  0.00     0.224 C 
ATOM     10  O   UNL     1       5.018   0.314  -2.372  1.00  0.00    -0.275 OA
ATOM     11  N   UNL     1       2.887   0.726  -2.091  1.00  0.00    -0.325 N 
ATOM     12  H   UNL     1       3.175   1.498  -2.630  1.00  0.00     0.169 HD
BRANCH  11  13
ATOM     13  C   UNL     1       1.501   0.856  -1.806  1.00  0.00     0.053 A 
ATOM     14  C   UNL     1       0.893   1.734  -2.734  1.00  0.00     0.027 A 
ATOM     15  C   UNL     1       0.655   0.286  -0.825  1.00  0.00     0.057 A 
ATOM     16  C   UNL     1      -0.482   1.951  -2.778  1.00  0.00     0.003 A 
ATOM     17  C   UNL     1      -0.747   0.394  -0.969  1.00  0.00     0.036 A 
ATOM     18  C   UNL     1       0.969   0.160   0.625  1.00  0.00     0.196 C 
ATOM     19  C   UNL     1      -1.310   1.236  -1.931  1.00  0.00     0.013 A 
ATOM     20  C   UNL     1      -1.661  -0.330  -0.043  1.00  0.00     0.194 C 
ATOM     21  O   UNL     1       1.517   1.082   1.214  1.00  0.00    -0.288 OA
ATOM     22  C   UNL     1       0.233  -0.804   1.452  1.00  0.00     0.034 A 
ATOM     23  C   UNL     1      -1.085  -1.060   1.103  1.00  0.00     0.034 A 
ATOM     24  O   UNL     1      -2.871  -0.338  -0.237  1.00  0.00    -0.289 OA
ATOM     25  C   UNL     1       0.751  -1.309   2.647  1.00  0.00     0.013 A 
ATOM     26  C   UNL     1      -1.868  -1.904   1.898  1.00  0.00     0.013 A 
ATOM     27  C   UNL     1      -0.015  -2.174   3.428  1.00  0.00     0.001 A 
ATOM     28  C   UNL     1      -1.320  -2.482   3.047  1.00  0.00     0.001 A 
ENDBRANCH  11  13
ENDBRANCH   8   9
ENDBRANCH   7   8
ENDBRANCH   5   7
ENDBRANCH   2   3
ENDBRANCH   1   2
BRANCH   1  29
ATOM     29  C   UNL     1       4.727   3.950   1.664  1.00  0.00     0.118 C 
BRANCH  29  30
ATOM     30  N   UNL     1       4.928   4.670   0.405  1.00  0.00    -0.352 N 
ATOM     31  C   UNL     1       5.519   5.900   0.204  1.00  0.00     0.251 C 
ATOM     32  H   UNL     1       4.597   4.216  -0.404  1.00  0.00     0.163 HD
ATOM     33  O   UNL     1       5.564   6.394  -0.901  1.00  0.00    -0.269 OA
BRANCH  31  34
ATOM     34  C   UNL     1       6.013   6.625   1.396  1.00  0.00     0.039 A 
ATOM     35  C   UNL     1       5.707   7.977   1.538  1.00  0.00     0.014 A 
ATOM     36  C   UNL     1       6.665   5.937   2.416  1.00  0.00     0.014 A 
ATOM     37  C   UNL     1       6.002   8.614   2.742  1.00  0.00     0.010 A 
ATOM     38  C   UNL     1       6.783   6.515   3.663  1.00  0.00     0.010 A 
ATOM     39  C   UNL     1       6.506   7.875   3.825  1.00  0.00    -0.014 A 
BRANCH  39  40
ATOM     40  C   UNL     1       6.842   8.511   5.118  1.00  0.00     0.031 A 
ATOM     41  C   UNL     1       8.255   8.414   5.637  1.00  0.00     0.074 A 
ATOM     42  C   UNL     1       5.876   9.107   5.841  1.00  0.00     0.049 A 
ATOM     43  N   UNL     1       8.750   8.846   6.767  1.00  0.00    -0.248 NA
ATOM     44  C   UNL     1       9.231   7.686   4.804  1.00  0.00     0.031 C 
ATOM     45  C   UNL     1       4.457   9.181   5.476  1.00  0.00     0.029 A 
ATOM     46  N   UNL     1       5.945   9.776   7.034  1.00  0.00    -0.354 N 
ATOM     47  C   UNL     1      10.069   8.405   6.790  1.00  0.00     0.074 A 
ATOM     48  C   UNL     1      10.274   7.600   5.612  1.00  0.00     0.031 C 
ATOM     49  C   UNL     1       3.804   9.912   6.395  1.00  0.00     0.029 A 
ATOM     50  C   UNL     1       4.748  10.327   7.426  1.00  0.00     0.049 A 
ATOM     51  H   UNL     1       6.773   9.856   7.560  1.00  0.00     0.167 HD
ATOM     52  C   UNL     1      11.041   8.685   7.688  1.00  0.00     0.031 A 
ATOM     53  C   UNL     1       4.457  11.099   8.489  1.00  0.00     0.031 A 
ATOM     54  C   UNL     1      10.841   9.545   8.819  1.00  0.00     0.049 A 
ATOM     55  C   UNL     1       5.572  11.473   9.426  1.00  0.00     0.074 A 
ATOM     56  C   UNL     1      11.763   9.969   9.757  1.00  0.00     0.029 A 
ATOM     57  N   UNL     1       9.629  10.135   9.147  1.00  0.00    -0.354 N 
ATOM     58  N   UNL     1       6.831  11.101   9.400  1.00  0.00    -0.248 NA
ATOM     59  C   UNL     1       5.235  12.393  10.518  1.00  0.00     0.031 C 
ATOM     60  C   UNL     1      11.100  10.796  10.671  1.00  0.00     0.029 A 
ATOM     61  C   UNL     1       9.777  10.923  10.272  1.00  0.00     0.049 A 
ATOM     62  H   UNL     1       8.787  10.011   8.651  1.00  0.00     0.167 HD
ATOM     63  C   UNL     1       7.444  11.767  10.455  1.00  0.00     0.074 A 
ATOM     64  C   UNL     1       6.419  12.576  11.085  1.00  0.00     0.031 C 
ATOM     65  C   UNL     1       8.735  11.717  10.869  1.00  0.00     0.031 A 
BRANCH  52  66
ATOM     66  C   UNL     1      12.398   8.074   7.454  1.00  0.00    -0.014 A 
ATOM     67  C   UNL     1      13.191   8.462   6.357  1.00  0.00     0.010 A 
ATOM     68  C   UNL     1      12.887   7.095   8.336  1.00  0.00     0.010 A 
ATOM     69  C   UNL     1      14.421   7.845   6.115  1.00  0.00     0.020 A 
ATOM     70  C   UNL     1      14.133   6.499   8.117  1.00  0.00     0.020 A 
ATOM     71  C   UNL     1      14.882   6.863   6.996  1.00  0.00     0.054 A 
BRANCH  71  72
ATOM     72  S   UNL     1      16.489   6.088   6.669  1.00  0.00     0.124 S 
ATOM     73  O   UNL     1      16.172   5.196   5.556  1.00  0.00    -0.237 OA
ATOM     74  O   UNL     1      17.335   7.231   6.335  1.00  0.00    -0.237 OA
ATOM     75  O   UNL     1      16.815   5.423   7.927  1.00  0.00    -0.744 OA
ENDBRANCH  71  72
ENDBRANCH  52  66
BRANCH  53  76
ATOM     76  C   UNL     1       3.077  11.622   8.677  1.00  0.00    -0.014 A 
ATOM     77  C   UNL     1       2.796  12.982   8.454  1.00  0.00     0.010 A 
ATOM     78  C   UNL     1       2.031  10.762   9.057  1.00  0.00     0.010 A 
ATOM     79  C   UNL     1       1.501  13.478   8.633  1.00  0.00     0.020 A 
ATOM     80  C   UNL     1       0.729  11.250   9.211  1.00  0.00     0.020 A 
ATOM     81  C   UNL     1       0.475  12.608   9.012  1.00  0.00     0.054 A 
BRANCH  81  82
ATOM     82  S   UNL     1      -1.206  13.266   9.197  1.00  0.00     0.124 S 
ATOM     83  O   UNL     1      -1.111  13.990  10.460  1.00  0.00    -0.237 OA
ATOM     84  O   UNL     1      -1.356  14.094   8.002  1.00  0.00    -0.237 OA
ATOM     85  O   UNL     1      -2.041  12.067   9.222  1.00  0.00    -0.744 OA
ENDBRANCH  81  82
ENDBRANCH  53  76
BRANCH  65  86
ATOM     86  C   UNL     1       9.111  12.596  12.028  1.00  0.00    -0.014 A 
ATOM     87  C   UNL     1       8.687  12.301  13.335  1.00  0.00     0.010 A 
ATOM     88  C   UNL     1       9.928  13.719  11.803  1.00  0.00     0.010 A 
ATOM     89  C   UNL     1       9.031  13.145  14.392  1.00  0.00     0.020 A 
ATOM     90  C   UNL     1      10.298  14.549  12.862  1.00  0.00     0.020 A 
ATOM     91  C   UNL     1       9.828  14.268  14.146  1.00  0.00     0.054 A 
BRANCH  91  92
ATOM     92  S   UNL     1      10.271  15.346  15.535  1.00  0.00     0.124 S 
ATOM     93  O   UNL     1       9.034  16.095  15.741  1.00  0.00    -0.237 OA
ATOM     94  O   UNL     1      10.612  14.392  16.588  1.00  0.00    -0.237 OA
ATOM     95  O   UNL     1      11.395  16.126  15.022  1.00  0.00    -0.744 OA
ENDBRANCH  91  92
ENDBRANCH  65  86
ENDBRANCH  39  40
ENDBRANCH  31  34
ENDBRANCH  29  30
ENDBRANCH   1  29
TORSDOF 16
