REMARK SMILES CC(C)N1C(=O)C[C@@H](C(=O)NCCCNC(=O)c2ccc(-c3c4nc(c(-c5ccc(S(=O)(=O)[O-])cc5)c5ccc([nH]5)c(-c5ccc(S(=O)(=O)[O-])cc5)c5nc(c(-c6ccc(S(=O)(=O)[O-])cc6)c6ccc3[nH]6)C=C5)C=C4)cc2)[C@H]1c1ccccc1
REMARK SMILES IDX 14 1 13 2 12 3 11 4 9 5 10 6 8 8 4 9 5 10 78 11 6 12 7 13
REMARK SMILES IDX 2 14 1 15 3 16 79 17 80 18 84 19 81 20 83 21 82 22 15 23
REMARK SMILES IDX 16 24 17 26 18 27 19 28 77 29 20 30 76 31 21 32 22 33 23 34
REMARK SMILES IDX 70 35 24 36 75 37 69 38 71 39 25 40 74 41 68 42 67 43 26 45
REMARK SMILES IDX 56 46 37 47 55 48 38 49 41 50 54 51 72 52 39 53 40 54 53 56
REMARK SMILES IDX 73 57 42 58 27 59 28 60 36 61 29 62 35 63 30 64 31 65 32 66
REMARK SMILES IDX 33 67 34 68 57 69 58 70 66 71 59 72 65 73 60 74 61 75 62 76
REMARK SMILES IDX 63 77 64 78 43 79 44 80 52 81 45 82 51 83 46 84 47 85 48 86
REMARK SMILES IDX 49 87 50 88
REMARK H PARENT 11 7 15 25 71 44 41 55
REMARK Flexibility Score: inf
ROOT
ATOM      1  C   UNL     1      -7.309   0.229  -1.776  1.00  0.00     0.118 C 
ENDROOT
BRANCH   1   2
ATOM      2  C   UNL     1      -6.872   0.040  -0.323  1.00  0.00     0.042 C 
BRANCH   2   3
ATOM      3  C   UNL     1      -6.046  -1.222  -0.069  1.00  0.00     0.117 C 
BRANCH   3   4
ATOM      4  N   UNL     1      -4.849  -1.226  -0.888  1.00  0.00    -0.356 N 
ATOM      5  C   UNL     1      -3.604  -0.784  -0.557  1.00  0.00     0.226 C 
ATOM      6  O   UNL     1      -2.938  -0.266  -1.451  1.00  0.00    -0.275 OA
ATOM      7  H   UNL     1      -4.948  -1.595  -1.795  1.00  0.00     0.163 HD
BRANCH   5   8
ATOM      8  C   UNL     1      -3.142  -0.882   0.886  1.00  0.00     0.115 C 
ATOM      9  N   UNL     1      -0.912  -0.121   1.138  1.00  0.00    -0.332 N 
ATOM     10  C   UNL     1      -1.729   0.994   1.293  1.00  0.00     0.224 C 
ATOM     11  C   UNL     1      -1.693  -1.345   1.119  1.00  0.00     0.128 C 
ATOM     12  O   UNL     1      -1.375   2.160   1.394  1.00  0.00    -0.275 OA
ATOM     13  C   UNL     1      -3.156   0.529   1.464  1.00  0.00     0.116 C 
BRANCH   9  14
ATOM     14  C   UNL     1       0.554  -0.101   1.228  1.00  0.00     0.079 C 
ATOM     15  C   UNL     1       1.196   0.366  -0.075  1.00  0.00     0.031 C 
ATOM     16  C   UNL     1       1.062   0.748   2.400  1.00  0.00     0.031 C 
ENDBRANCH   9  14
BRANCH  11  17
ATOM     17  C   UNL     1      -1.184  -2.483   0.253  1.00  0.00    -0.025 A 
ATOM     18  C   UNL     1      -0.879  -2.320  -1.107  1.00  0.00     0.006 A 
ATOM     19  C   UNL     1      -1.014  -3.763   0.806  1.00  0.00     0.006 A 
ATOM     20  C   UNL     1      -0.464  -3.393  -1.898  1.00  0.00     0.000 A 
ATOM     21  C   UNL     1      -0.574  -4.835   0.021  1.00  0.00     0.000 A 
ATOM     22  C   UNL     1      -0.311  -4.652  -1.333  1.00  0.00     0.000 A 
ENDBRANCH  11  17
ENDBRANCH   5   8
ENDBRANCH   3   4
ENDBRANCH   2   3
ENDBRANCH   1   2
BRANCH   1  23
ATOM     23  N   UNL     1      -8.098  -0.888  -2.274  1.00  0.00    -0.352 N 
ATOM     24  C   UNL     1      -9.362  -0.917  -2.807  1.00  0.00     0.251 C 
ATOM     25  H   UNL     1      -7.653  -1.764  -2.220  1.00  0.00     0.163 HD
ATOM     26  O   UNL     1      -9.906  -2.005  -2.985  1.00  0.00    -0.269 OA
BRANCH  24  27
ATOM     27  C   UNL     1     -10.079   0.332  -3.145  1.00  0.00     0.039 A 
ATOM     28  C   UNL     1     -11.448   0.405  -2.876  1.00  0.00     0.014 A 
ATOM     29  C   UNL     1      -9.434   1.413  -3.753  1.00  0.00     0.014 A 
ATOM     30  C   UNL     1     -12.152   1.577  -3.159  1.00  0.00     0.010 A 
ATOM     31  C   UNL     1     -10.120   2.611  -3.962  1.00  0.00     0.010 A 
ATOM     32  C   UNL     1     -11.487   2.707  -3.667  1.00  0.00    -0.014 A 
BRANCH  32  33
ATOM     33  C   UNL     1     -12.217   3.990  -3.845  1.00  0.00     0.031 A 
ATOM     34  C   UNL     1     -12.396   4.604  -5.208  1.00  0.00     0.074 A 
ATOM     35  C   UNL     1     -12.707   4.618  -2.757  1.00  0.00     0.049 A 
ATOM     36  N   UNL     1     -13.050   5.688  -5.542  1.00  0.00    -0.248 NA
ATOM     37  C   UNL     1     -11.743   3.927  -6.340  1.00  0.00     0.031 C 
ATOM     38  C   UNL     1     -12.553   4.157  -1.374  1.00  0.00     0.029 A 
ATOM     39  N   UNL     1     -13.443   5.771  -2.640  1.00  0.00    -0.354 N 
ATOM     40  C   UNL     1     -12.887   5.826  -6.916  1.00  0.00     0.074 A 
ATOM     41  C   UNL     1     -12.026   4.745  -7.345  1.00  0.00     0.031 C 
ATOM     42  C   UNL     1     -13.216   4.988  -0.556  1.00  0.00     0.029 A 
ATOM     43  C   UNL     1     -13.805   6.064  -1.345  1.00  0.00     0.049 A 
ATOM     44  H   UNL     1     -13.690   6.333  -3.409  1.00  0.00     0.167 HD
ATOM     45  C   UNL     1     -13.419   6.755  -7.747  1.00  0.00     0.031 A 
ATOM     46  C   UNL     1     -14.531   7.083  -0.845  1.00  0.00     0.031 A 
ATOM     47  C   UNL     1     -14.268   7.836  -7.315  1.00  0.00     0.049 A 
ATOM     48  C   UNL     1     -15.104   8.104  -1.788  1.00  0.00     0.074 A 
ATOM     49  C   UNL     1     -14.898   8.797  -8.087  1.00  0.00     0.029 A 
ATOM     50  N   UNL     1     -14.600   8.108  -5.995  1.00  0.00    -0.354 N 
ATOM     51  N   UNL     1     -15.004   8.168  -3.095  1.00  0.00    -0.248 NA
ATOM     52  C   UNL     1     -15.904   9.179  -1.188  1.00  0.00     0.031 C 
ATOM     53  C   UNL     1     -15.556   9.687  -7.230  1.00  0.00     0.029 A 
ATOM     54  C   UNL     1     -15.398   9.239  -5.929  1.00  0.00     0.049 A 
ATOM     55  H   UNL     1     -14.310   7.575  -5.220  1.00  0.00     0.167 HD
ATOM     56  C   UNL     1     -15.746   9.281  -3.475  1.00  0.00     0.074 A 
ATOM     57  C   UNL     1     -16.314   9.836  -2.263  1.00  0.00     0.031 C 
ATOM     58  C   UNL     1     -15.938   9.799  -4.715  1.00  0.00     0.031 A 
BRANCH  45  59
ATOM     59  C   UNL     1     -13.089   6.649  -9.216  1.00  0.00    -0.014 A 
ATOM     60  C   UNL     1     -13.582   5.589 -10.000  1.00  0.00     0.010 A 
ATOM     61  C   UNL     1     -12.318   7.650  -9.835  1.00  0.00     0.010 A 
ATOM     62  C   UNL     1     -13.277   5.511 -11.362  1.00  0.00     0.020 A 
ATOM     63  C   UNL     1     -12.037   7.593 -11.204  1.00  0.00     0.020 A 
ATOM     64  C   UNL     1     -12.506   6.514 -11.956  1.00  0.00     0.054 A 
BRANCH  64  65
ATOM     65  S   UNL     1     -12.150   6.400 -13.731  1.00  0.00     0.124 S 
ATOM     66  O   UNL     1     -11.215   5.279 -13.780  1.00  0.00    -0.237 OA
ATOM     67  O   UNL     1     -13.469   6.142 -14.305  1.00  0.00    -0.237 OA
ATOM     68  O   UNL     1     -11.576   7.703 -14.056  1.00  0.00    -0.744 OA
ENDBRANCH  64  65
ENDBRANCH  45  59
BRANCH  46  69
ATOM     69  C   UNL     1     -14.771   7.174   0.622  1.00  0.00    -0.014 A 
ATOM     70  C   UNL     1     -16.058   6.977   1.154  1.00  0.00     0.010 A 
ATOM     71  C   UNL     1     -13.706   7.451   1.499  1.00  0.00     0.010 A 
ATOM     72  C   UNL     1     -16.279   7.076   2.531  1.00  0.00     0.020 A 
ATOM     73  C   UNL     1     -13.916   7.516   2.879  1.00  0.00     0.020 A 
ATOM     74  C   UNL     1     -15.205   7.341   3.385  1.00  0.00     0.054 A 
BRANCH  74  75
ATOM     75  S   UNL     1     -15.506   7.411   5.173  1.00  0.00     0.124 S 
ATOM     76  O   UNL     1     -16.230   8.670   5.310  1.00  0.00    -0.237 OA
ATOM     77  O   UNL     1     -16.289   6.200   5.407  1.00  0.00    -0.237 OA
ATOM     78  O   UNL     1     -14.162   7.394   5.746  1.00  0.00    -0.744 OA
ENDBRANCH  74  75
ENDBRANCH  46  69
BRANCH  58  79
ATOM     79  C   UNL     1     -16.819  11.019  -4.816  1.00  0.00    -0.014 A 
ATOM     80  C   UNL     1     -16.419  12.258  -4.282  1.00  0.00     0.010 A 
ATOM     81  C   UNL     1     -18.071  10.922  -5.451  1.00  0.00     0.010 A 
ATOM     82  C   UNL     1     -17.282  13.357  -4.321  1.00  0.00     0.020 A 
ATOM     83  C   UNL     1     -18.921  12.029  -5.526  1.00  0.00     0.020 A 
ATOM     84  C   UNL     1     -18.531  13.233  -4.936  1.00  0.00     0.054 A 
BRANCH  84  85
ATOM     85  S   UNL     1     -19.638  14.669  -4.963  1.00  0.00     0.124 S 
ATOM     86  O   UNL     1     -20.083  14.735  -3.574  1.00  0.00    -0.237 OA
ATOM     87  O   UNL     1     -18.752  15.749  -5.391  1.00  0.00    -0.237 OA
ATOM     88  O   UNL     1     -20.667  14.296  -5.930  1.00  0.00    -0.744 OA
ENDBRANCH  84  85
ENDBRANCH  58  79
ENDBRANCH  32  33
ENDBRANCH  24  27
ENDBRANCH   1  23
TORSDOF 15
