REMARK SMILES Cc1csc(=O)n1CC(=O)N[C@@H](C(=O)NCCCNC(=O)c1ccc(-c2c3nc(c(-c4ccc(S(=O)(=O)[O-])cc4)c4ccc([nH]4)c(-c4ccc(S(=O)(=O)[O-])cc4)c4nc(c(-c5ccc(S(=O)(=O)[O-])cc5)c5ccc2[nH]5)C=C4)C=C3)cc1)[C@@H](C)O
REMARK SMILES IDX 17 1 16 2 15 3 13 4 14 5 12 7 11 8 9 9 10 10 8 12 7 13 1 14
REMARK SMILES IDX 2 15 3 16 4 17 5 18 6 19 82 20 83 21 84 22 18 24 19 25 20 26
REMARK SMILES IDX 21 28 22 29 23 30 81 31 24 32 80 33 25 34 26 35 27 36 74 37
REMARK SMILES IDX 28 38 79 39 73 40 75 41 29 42 78 43 72 44 71 45 30 47 60 48
REMARK SMILES IDX 41 49 59 50 42 51 45 52 58 53 76 54 43 55 44 56 57 58 77 59
REMARK SMILES IDX 46 60 31 61 32 62 40 63 33 64 39 65 34 66 35 67 36 68 37 69
REMARK SMILES IDX 38 70 61 71 62 72 70 73 63 74 69 75 64 76 65 77 66 78 67 79
REMARK SMILES IDX 68 80 47 81 48 82 56 83 49 84 55 85 50 86 51 87 52 88 53 89
REMARK SMILES IDX 54 90
REMARK H PARENT 15 6 11 11 84 23 19 27 75 46 45 57
REMARK Flexibility Score: inf
ROOT
ATOM      1  C   UNL     1       2.098   3.479  -3.982  1.00  0.00     0.042 C 
ENDROOT
BRANCH   1   2
ATOM      2  C   UNL     1       2.148   1.999  -3.604  1.00  0.00     0.117 C 
BRANCH   2   3
ATOM      3  N   UNL     1       3.468   1.410  -3.675  1.00  0.00    -0.354 N 
ATOM      4  C   UNL     1       4.272   1.006  -2.638  1.00  0.00     0.245 C 
ATOM      5  O   UNL     1       5.245   0.308  -2.921  1.00  0.00    -0.273 OA
ATOM      6  H   UNL     1       3.835   1.282  -4.579  1.00  0.00     0.163 HD
BRANCH   4   7
ATOM      7  C   UNL     1       3.854   1.319  -1.171  1.00  0.00     0.200 C 
BRANCH   7   8
ATOM      8  N   UNL     1       3.623   2.761  -1.023  1.00  0.00    -0.340 N 
ATOM      9  C   UNL     1       2.593   3.470  -0.479  1.00  0.00     0.240 C 
ATOM     10  O   UNL     1       2.686   4.700  -0.534  1.00  0.00    -0.273 OA
ATOM     11  H   UNL     1       4.348   3.321  -1.384  1.00  0.00     0.164 HD
BRANCH   9  12
ATOM     12  C   UNL     1       1.385   2.803   0.220  1.00  0.00     0.226 C 
BRANCH  12  13
ATOM     13  N   UNL     1       0.399   2.174  -0.649  1.00  0.00    -0.294 N 
ATOM     14  C   UNL     1       0.657  -0.177   0.267  1.00  0.00     0.065 C 
ATOM     15  C   UNL     1       0.100   0.815  -0.698  1.00  0.00     0.029 A 
ATOM     16  C   UNL     1      -0.791   0.502  -1.651  1.00  0.00     0.091 A 
ATOM     17  S   UNL     1      -1.391   1.903  -2.473  1.00  0.00    -0.082 S 
ATOM     18  C   UNL     1      -0.395   2.968  -1.473  1.00  0.00     0.307 A 
ATOM     19  O   UNL     1      -0.413   4.186  -1.568  1.00  0.00    -0.257 OA
ENDBRANCH  12  13
ENDBRANCH   9  12
ENDBRANCH   7   8
BRANCH   7  20
ATOM     20  C   UNL     1       4.904   0.767  -0.165  1.00  0.00     0.143 C 
ATOM     21  C   UNL     1       4.739   1.309   1.252  1.00  0.00     0.041 C 
BRANCH  20  22
ATOM     22  O   UNL     1       4.828  -0.660  -0.045  1.00  0.00    -0.391 OA
ATOM     23  H   UNL     1       3.967  -0.908   0.327  1.00  0.00     0.211 HD
ENDBRANCH  20  22
ENDBRANCH   7  20
ENDBRANCH   4   7
ENDBRANCH   2   3
ENDBRANCH   1   2
BRANCH   1  24
ATOM     24  C   UNL     1       1.575   3.666  -5.393  1.00  0.00     0.118 C 
BRANCH  24  25
ATOM     25  N   UNL     1       0.142   3.345  -5.543  1.00  0.00    -0.352 N 
ATOM     26  C   UNL     1      -0.580   3.236  -6.727  1.00  0.00     0.251 C 
ATOM     27  H   UNL     1      -0.360   3.191  -4.710  1.00  0.00     0.163 HD
ATOM     28  O   UNL     1      -1.802   3.270  -6.759  1.00  0.00    -0.269 OA
BRANCH  26  29
ATOM     29  C   UNL     1       0.205   3.028  -7.952  1.00  0.00     0.039 A 
ATOM     30  C   UNL     1       0.121   3.854  -9.077  1.00  0.00     0.014 A 
ATOM     31  C   UNL     1       1.212   2.088  -7.811  1.00  0.00     0.014 A 
ATOM     32  C   UNL     1       1.148   3.787 -10.020  1.00  0.00     0.010 A 
ATOM     33  C   UNL     1       2.335   2.262  -8.557  1.00  0.00     0.010 A 
ATOM     34  C   UNL     1       2.272   3.003  -9.729  1.00  0.00    -0.014 A 
BRANCH  34  35
ATOM     35  C   UNL     1       3.463   2.941 -10.562  1.00  0.00     0.031 A 
ATOM     36  C   UNL     1       4.154   4.242 -10.788  1.00  0.00     0.074 A 
ATOM     37  C   UNL     1       4.051   1.747 -10.821  1.00  0.00     0.049 A 
ATOM     38  N   UNL     1       4.266   4.902 -11.892  1.00  0.00    -0.248 NA
ATOM     39  C   UNL     1       4.673   4.970  -9.615  1.00  0.00     0.031 C 
ATOM     40  C   UNL     1       3.690   0.406 -10.320  1.00  0.00     0.029 A 
ATOM     41  N   UNL     1       5.202   1.491 -11.485  1.00  0.00    -0.354 N 
ATOM     42  C   UNL     1       5.054   6.015 -11.606  1.00  0.00     0.074 A 
ATOM     43  C   UNL     1       5.109   6.104 -10.169  1.00  0.00     0.031 C 
ATOM     44  C   UNL     1       4.734  -0.440 -10.470  1.00  0.00     0.029 A 
ATOM     45  C   UNL     1       5.738   0.225 -11.273  1.00  0.00     0.049 A 
ATOM     46  H   UNL     1       5.629   2.153 -12.075  1.00  0.00     0.167 HD
ATOM     47  C   UNL     1       5.791   6.639 -12.570  1.00  0.00     0.031 A 
ATOM     48  C   UNL     1       6.933  -0.234 -11.723  1.00  0.00     0.031 A 
ATOM     49  C   UNL     1       5.436   6.162 -13.883  1.00  0.00     0.049 A 
ATOM     50  C   UNL     1       7.330   0.671 -12.831  1.00  0.00     0.074 A 
ATOM     51  C   UNL     1       4.296   6.203 -14.658  1.00  0.00     0.029 A 
ATOM     52  N   UNL     1       6.212   5.147 -14.396  1.00  0.00    -0.354 N 
ATOM     53  N   UNL     1       6.641   0.803 -13.933  1.00  0.00    -0.248 NA
ATOM     54  C   UNL     1       8.199   1.789 -12.501  1.00  0.00     0.031 C 
ATOM     55  C   UNL     1       4.226   4.913 -15.264  1.00  0.00     0.029 A 
ATOM     56  C   UNL     1       5.367   4.191 -14.902  1.00  0.00     0.049 A 
ATOM     57  H   UNL     1       7.196   5.114 -14.400  1.00  0.00     0.167 HD
ATOM     58  C   UNL     1       6.662   2.164 -14.211  1.00  0.00     0.074 A 
ATOM     59  C   UNL     1       7.702   2.708 -13.335  1.00  0.00     0.031 C 
ATOM     60  C   UNL     1       5.651   2.767 -14.907  1.00  0.00     0.031 A 
BRANCH  47  61
ATOM     61  C   UNL     1       7.083   7.386 -12.329  1.00  0.00    -0.014 A 
ATOM     62  C   UNL     1       7.713   8.019 -13.422  1.00  0.00     0.010 A 
ATOM     63  C   UNL     1       7.832   7.277 -11.140  1.00  0.00     0.010 A 
ATOM     64  C   UNL     1       9.044   8.454 -13.349  1.00  0.00     0.020 A 
ATOM     65  C   UNL     1       9.147   7.744 -11.044  1.00  0.00     0.020 A 
ATOM     66  C   UNL     1       9.757   8.299 -12.161  1.00  0.00     0.054 A 
BRANCH  66  67
ATOM     67  S   UNL     1      11.504   8.771 -12.109  1.00  0.00     0.124 S 
ATOM     68  O   UNL     1      12.100   7.823 -13.046  1.00  0.00    -0.237 OA
ATOM     69  O   UNL     1      11.462  10.161 -12.555  1.00  0.00    -0.237 OA
ATOM     70  O   UNL     1      11.869   8.581 -10.707  1.00  0.00    -0.744 OA
ENDBRANCH  66  67
ENDBRANCH  47  61
BRANCH  48  71
ATOM     71  C   UNL     1       7.896  -1.114 -11.009  1.00  0.00    -0.014 A 
ATOM     72  C   UNL     1       8.945  -1.756 -11.694  1.00  0.00     0.010 A 
ATOM     73  C   UNL     1       7.961  -1.085  -9.599  1.00  0.00     0.010 A 
ATOM     74  C   UNL     1      10.044  -2.295 -10.999  1.00  0.00     0.020 A 
ATOM     75  C   UNL     1       9.053  -1.619  -8.900  1.00  0.00     0.020 A 
ATOM     76  C   UNL     1      10.102  -2.203  -9.606  1.00  0.00     0.054 A 
BRANCH  76  77
ATOM     77  S   UNL     1      11.607  -2.741  -8.732  1.00  0.00     0.124 S 
ATOM     78  O   UNL     1      11.555  -4.192  -8.889  1.00  0.00    -0.237 OA
ATOM     79  O   UNL     1      12.665  -2.064  -9.476  1.00  0.00    -0.237 OA
ATOM     80  O   UNL     1      11.405  -2.257  -7.368  1.00  0.00    -0.744 OA
ENDBRANCH  76  77
ENDBRANCH  48  71
BRANCH  60  81
ATOM     81  C   UNL     1       4.616   1.894 -15.589  1.00  0.00    -0.014 A 
ATOM     82  C   UNL     1       3.685   1.081 -14.908  1.00  0.00     0.010 A 
ATOM     83  C   UNL     1       4.464   2.058 -16.976  1.00  0.00     0.010 A 
ATOM     84  C   UNL     1       2.638   0.448 -15.603  1.00  0.00     0.020 A 
ATOM     85  C   UNL     1       3.418   1.446 -17.670  1.00  0.00     0.020 A 
ATOM     86  C   UNL     1       2.511   0.638 -16.983  1.00  0.00     0.054 A 
BRANCH  86  87
ATOM     87  S   UNL     1       1.128  -0.127 -17.879  1.00  0.00     0.124 S 
ATOM     88  O   UNL     1       1.464  -1.547 -17.829  1.00  0.00    -0.237 OA
ATOM     89  O   UNL     1      -0.034   0.273 -17.090  1.00  0.00    -0.237 OA
ATOM     90  O   UNL     1       1.198   0.477 -19.210  1.00  0.00    -0.744 OA
ENDBRANCH  86  87
ENDBRANCH  60  81
ENDBRANCH  34  35
ENDBRANCH  26  29
ENDBRANCH  24  25
ENDBRANCH   1  24
TORSDOF 18
