REMARK SMILES CC[C@](O)(C(=O)NCCCNC(=O)c1ccc(-c2c3nc(c(-c4ccc(S(=O)(=O)[O-])cc4)c4ccc([nH]4)c(-c4ccc(S(=O)(=O)[O-])cc4)c4nc(c(-c5ccc(S(=O)(=O)[O-])cc5)c5ccc2[nH]5)C=C4)C=C3)cc1)[C@@H](C)c1ccc2c(c1)OCCO2
REMARK SMILES IDX 9 1 8 2 7 3 5 4 6 5 3 7 2 8 1 9 74 10 75 11 76 12 77 13
REMARK SMILES IDX 81 14 78 15 80 16 79 17 82 18 85 19 83 20 84 21 4 22 10 24
REMARK SMILES IDX 11 25 12 26 13 28 14 29 15 30 73 31 16 32 72 33 17 34 18 35
REMARK SMILES IDX 19 36 66 37 20 38 71 39 65 40 67 41 21 42 70 43 64 44 63 45
REMARK SMILES IDX 22 47 52 48 33 49 51 50 34 51 37 52 50 53 68 54 35 55 36 56
REMARK SMILES IDX 49 58 69 59 38 60 23 61 24 62 32 63 25 64 31 65 26 66 27 67
REMARK SMILES IDX 28 68 29 69 30 70 53 71 54 72 62 73 55 74 61 75 56 76 57 77
REMARK SMILES IDX 58 78 59 79 60 80 39 81 40 82 48 83 41 84 47 85 42 86 43 87
REMARK SMILES IDX 44 88 45 89 46 90
REMARK H PARENT 7 6 4 23 11 27 67 46 37 57
REMARK Flexibility Score: inf
ROOT
ATOM      1  C   UNL     1      -3.001   1.420  -2.869  1.00  0.00     0.042 C 
ENDROOT
BRANCH   1   2
ATOM      2  C   UNL     1      -2.252   0.260  -3.501  1.00  0.00     0.117 C 
BRANCH   2   3
ATOM      3  N   UNL     1      -1.071   0.652  -4.250  1.00  0.00    -0.354 N 
ATOM      4  C   UNL     1       0.260   0.424  -4.004  1.00  0.00     0.252 C 
ATOM      5  O   UNL     1       1.032   0.578  -4.952  1.00  0.00    -0.272 OA
ATOM      6  H   UNL     1      -1.256   1.167  -5.069  1.00  0.00     0.163 HD
BRANCH   4   7
ATOM      7  C   UNL     1       0.733  -0.010  -2.582  1.00  0.00     0.149 C 
BRANCH   7   8
ATOM      8  C   UNL     1       0.200  -1.444  -2.271  1.00  0.00     0.043 C 
ATOM      9  C   UNL     1      -0.469  -1.631  -0.913  1.00  0.00     0.007 C 
ENDBRANCH   7   8
BRANCH   7  10
ATOM     10  C   UNL     1       2.297  -0.011  -2.487  1.00  0.00     0.058 C 
ATOM     11  C   UNL     1       2.964   1.358  -2.754  1.00  0.00     0.016 C 
BRANCH  10  12
ATOM     12  C   UNL     1       2.791  -0.479  -1.115  1.00  0.00    -0.038 A 
ATOM     13  C   UNL     1       3.594  -1.624  -0.983  1.00  0.00     0.008 A 
ATOM     14  C   UNL     1       2.533   0.309   0.017  1.00  0.00     0.054 A 
ATOM     15  C   UNL     1       4.232  -1.900   0.229  1.00  0.00     0.051 A 
ATOM     16  C   UNL     1       3.215   0.076   1.192  1.00  0.00     0.161 A 
ATOM     17  C   UNL     1       4.102  -0.994   1.277  1.00  0.00     0.161 A 
ATOM     18  O   UNL     1       3.075   1.018   2.170  1.00  0.00    -0.486 OA
ATOM     19  O   UNL     1       4.989  -1.065   2.324  1.00  0.00    -0.486 OA
ATOM     20  C   UNL     1       4.255   1.171   2.964  1.00  0.00     0.271 C 
ATOM     21  C   UNL     1       5.426   0.287   2.537  1.00  0.00     0.271 C 
ENDBRANCH  10  12
ENDBRANCH   7  10
BRANCH   7  22
ATOM     22  O   UNL     1       0.240   0.986  -1.675  1.00  0.00    -0.379 OA
ATOM     23  H   UNL     1       0.604   1.852  -1.917  1.00  0.00     0.212 HD
ENDBRANCH   7  22
ENDBRANCH   4   7
ENDBRANCH   2   3
ENDBRANCH   1   2
BRANCH   1  24
ATOM     24  C   UNL     1      -3.736   2.284  -3.876  1.00  0.00     0.118 C 
BRANCH  24  25
ATOM     25  N   UNL     1      -4.695   1.515  -4.655  1.00  0.00    -0.352 N 
ATOM     26  C   UNL     1      -6.066   1.532  -4.649  1.00  0.00     0.251 C 
ATOM     27  H   UNL     1      -4.293   0.878  -5.290  1.00  0.00     0.163 HD
ATOM     28  O   UNL     1      -6.675   0.598  -5.163  1.00  0.00    -0.269 OA
BRANCH  26  29
ATOM     29  C   UNL     1      -6.802   2.658  -4.039  1.00  0.00     0.039 A 
ATOM     30  C   UNL     1      -8.031   2.408  -3.423  1.00  0.00     0.014 A 
ATOM     31  C   UNL     1      -6.314   3.965  -4.115  1.00  0.00     0.014 A 
ATOM     32  C   UNL     1      -8.740   3.462  -2.847  1.00  0.00     0.010 A 
ATOM     33  C   UNL     1      -6.966   4.994  -3.447  1.00  0.00     0.010 A 
ATOM     34  C   UNL     1      -8.197   4.758  -2.827  1.00  0.00    -0.014 A 
BRANCH  34  35
ATOM     35  C   UNL     1      -8.915   5.878  -2.172  1.00  0.00     0.031 A 
ATOM     36  C   UNL     1      -9.364   7.066  -2.979  1.00  0.00     0.074 A 
ATOM     37  C   UNL     1      -9.120   5.837  -0.841  1.00  0.00     0.049 A 
ATOM     38  N   UNL     1      -9.992   8.142  -2.579  1.00  0.00    -0.248 NA
ATOM     39  C   UNL     1      -9.044   7.063  -4.417  1.00  0.00     0.031 C 
ATOM     40  C   UNL     1      -8.670   4.765   0.053  1.00  0.00     0.029 A 
ATOM     41  N   UNL     1      -9.760   6.716  -0.007  1.00  0.00    -0.354 N 
ATOM     42  C   UNL     1     -10.134   8.941  -3.708  1.00  0.00     0.074 A 
ATOM     43  C   UNL     1      -9.471   8.258  -4.796  1.00  0.00     0.031 C 
ATOM     44  C   UNL     1      -9.083   5.032   1.302  1.00  0.00     0.029 A 
ATOM     45  C   UNL     1      -9.790   6.307   1.305  1.00  0.00     0.049 A 
ATOM     46  H   UNL     1     -10.161   7.559  -0.319  1.00  0.00     0.167 HD
ATOM     47  C   UNL     1     -10.783  10.123  -3.835  1.00  0.00     0.031 A 
ATOM     48  C   UNL     1     -10.328   6.895   2.390  1.00  0.00     0.031 A 
ATOM     49  C   UNL     1     -11.449  10.790  -2.748  1.00  0.00     0.049 A 
ATOM     50  C   UNL     1     -11.054   8.199   2.221  1.00  0.00     0.074 A 
ATOM     51  C   UNL     1     -12.175  11.967  -2.776  1.00  0.00     0.029 A 
ATOM     52  N   UNL     1     -11.472  10.336  -1.438  1.00  0.00    -0.354 N 
ATOM     53  N   UNL     1     -11.235   8.906   1.130  1.00  0.00    -0.248 NA
ATOM     54  C   UNL     1     -11.665   8.776   3.425  1.00  0.00     0.031 C 
ATOM     55  C   UNL     1     -12.598  12.249  -1.473  1.00  0.00     0.029 A 
ATOM     56  C   UNL     1     -12.184  11.219  -0.644  1.00  0.00     0.049 A 
ATOM     57  H   UNL     1     -11.044   9.509  -1.119  1.00  0.00     0.167 HD
ATOM     58  C   UNL     1     -11.993  10.005   1.514  1.00  0.00     0.074 A 
ATOM     59  C   UNL     1     -12.262   9.851   2.930  1.00  0.00     0.031 C 
ATOM     60  C   UNL     1     -12.425  11.052   0.767  1.00  0.00     0.031 A 
BRANCH  47  61
ATOM     61  C   UNL     1     -10.811  10.760  -5.200  1.00  0.00    -0.014 A 
ATOM     62  C   UNL     1     -11.555  10.188  -6.250  1.00  0.00     0.010 A 
ATOM     63  C   UNL     1     -10.124  11.965  -5.429  1.00  0.00     0.010 A 
ATOM     64  C   UNL     1     -11.581  10.789  -7.511  1.00  0.00     0.020 A 
ATOM     65  C   UNL     1     -10.171  12.586  -6.682  1.00  0.00     0.020 A 
ATOM     66  C   UNL     1     -10.888  11.985  -7.719  1.00  0.00     0.054 A 
BRANCH  66  67
ATOM     67  S   UNL     1     -10.970  12.760  -9.357  1.00  0.00     0.124 S 
ATOM     68  O   UNL     1     -10.140  11.863 -10.157  1.00  0.00    -0.237 OA
ATOM     69  O   UNL     1     -12.399  12.725  -9.656  1.00  0.00    -0.237 OA
ATOM     70  O   UNL     1     -10.414  14.093  -9.139  1.00  0.00    -0.744 OA
ENDBRANCH  66  67
ENDBRANCH  47  61
BRANCH  48  71
ATOM     71  C   UNL     1     -10.208   6.244   3.723  1.00  0.00    -0.014 A 
ATOM     72  C   UNL     1     -11.334   5.688   4.355  1.00  0.00     0.010 A 
ATOM     73  C   UNL     1      -8.957   6.162   4.361  1.00  0.00     0.010 A 
ATOM     74  C   UNL     1     -11.216   5.085   5.611  1.00  0.00     0.020 A 
ATOM     75  C   UNL     1      -8.829   5.533   5.603  1.00  0.00     0.020 A 
ATOM     76  C   UNL     1      -9.963   5.011   6.226  1.00  0.00     0.054 A 
BRANCH  76  77
ATOM     77  S   UNL     1      -9.825   4.185   7.836  1.00  0.00     0.124 S 
ATOM     78  O   UNL     1     -10.419   5.170   8.734  1.00  0.00    -0.237 OA
ATOM     79  O   UNL     1     -10.600   2.964   7.632  1.00  0.00    -0.237 OA
ATOM     80  O   UNL     1      -8.386   3.981   7.992  1.00  0.00    -0.744 OA
ENDBRANCH  76  77
ENDBRANCH  48  71
BRANCH  60  81
ATOM     81  C   UNL     1     -13.243  12.100   1.472  1.00  0.00    -0.014 A 
ATOM     82  C   UNL     1     -12.656  12.975   2.403  1.00  0.00     0.010 A 
ATOM     83  C   UNL     1     -14.614  12.224   1.183  1.00  0.00     0.010 A 
ATOM     84  C   UNL     1     -13.436  13.922   3.071  1.00  0.00     0.020 A 
ATOM     85  C   UNL     1     -15.391  13.191   1.825  1.00  0.00     0.020 A 
ATOM     86  C   UNL     1     -14.800  14.019   2.781  1.00  0.00     0.054 A 
BRANCH  86  87
ATOM     87  S   UNL     1     -15.790  15.264   3.652  1.00  0.00     0.124 S 
ATOM     88  O   UNL     1     -15.921  14.671   4.980  1.00  0.00    -0.237 OA
ATOM     89  O   UNL     1     -14.947  16.455   3.576  1.00  0.00    -0.237 OA
ATOM     90  O   UNL     1     -17.025  15.331   2.874  1.00  0.00    -0.744 OA
ENDBRANCH  86  87
ENDBRANCH  60  81
ENDBRANCH  34  35
ENDBRANCH  26  29
ENDBRANCH  24  25
ENDBRANCH   1  24
TORSDOF 17
