REMARK SMILES CCN(CCO)C(=O)N[C@H]1CCCCC[C@H]1C(=O)NCCCNC(=O)c1ccc(-c2c3nc(c(-c4ccc(S(=O)(=O)[O-])cc4)c4ccc([nH]4)c(-c4ccc(S(=O)(=O)[O-])cc4)c4nc(c(-c5ccc(S(=O)(=O)[O-])cc5)c5ccc2[nH]5)C=C4)C=C3)cc1
REMARK SMILES IDX 17 1 18 2 19 3 16 5 10 6 9 7 7 8 8 9 3 11 2 12 1 13 4 14
REMARK SMILES IDX 5 15 6 16 11 18 15 20 14 21 13 22 12 23 20 25 21 26 22 27
REMARK SMILES IDX 23 28 24 29 25 31 26 32 27 33 85 34 28 35 84 36 29 37 30 38
REMARK SMILES IDX 31 39 78 40 32 41 83 42 77 43 79 44 33 45 82 46 76 47 75 48
REMARK SMILES IDX 34 50 64 51 45 52 63 53 46 54 49 55 62 56 80 57 47 58 48 59
REMARK SMILES IDX 61 61 81 62 50 63 35 64 36 65 44 66 37 67 43 68 38 69 39 70
REMARK SMILES IDX 40 71 41 72 42 73 65 74 66 75 74 76 67 77 73 78 68 79 69 80
REMARK SMILES IDX 70 81 71 82 72 83 51 84 52 85 60 86 53 87 59 88 54 89 55 90
REMARK SMILES IDX 56 91 57 92 58 93
REMARK H PARENT 19 4 9 10 6 17 23 30 79 49 49 60
REMARK Flexibility Score: 90.00
ROOT
ATOM      1  C   UNL     1       1.679  -6.202  -3.861  1.00  0.00     0.225 C 
ATOM      2  O   UNL     1       2.327  -7.249  -3.950  1.00  0.00    -0.275 OA
ATOM      3  N   UNL     1       0.480  -6.101  -4.504  1.00  0.00    -0.356 N 
ATOM      4  H   UNL     1       0.517  -6.111  -5.488  1.00  0.00     0.163 HD
ENDROOT
BRANCH   1   5
ATOM      5  C   UNL     1       2.306  -5.004  -3.186  1.00  0.00     0.101 C 
BRANCH   5   6
ATOM      6  C   UNL     1       1.804  -3.646  -3.613  1.00  0.00     0.096 C 
BRANCH   6   7
ATOM      7  N   UNL     1       1.492  -3.401  -5.073  1.00  0.00    -0.334 N 
ATOM      8  C   UNL     1       1.399  -3.837  -6.339  1.00  0.00     0.317 C 
ATOM      9  O   UNL     1       0.912  -2.958  -7.071  1.00  0.00    -0.249 OA
ATOM     10  H   UNL     1       1.226  -2.454  -5.115  1.00  0.00     0.165 HD
BRANCH   8  11
ATOM     11  N   UNL     1       1.661  -5.066  -6.885  1.00  0.00    -0.323 N 
BRANCH  11  12
ATOM     12  C   UNL     1       0.877  -5.374  -8.112  1.00  0.00     0.118 C 
ATOM     13  C   UNL     1      -0.631  -5.374  -7.951  1.00  0.00     0.027 C 
ENDBRANCH  11  12
BRANCH  11  14
ATOM     14  C   UNL     1       2.756  -6.061  -6.729  1.00  0.00     0.149 C 
BRANCH  14  15
ATOM     15  C   UNL     1       4.176  -5.729  -6.293  1.00  0.00     0.177 C 
BRANCH  15  16
ATOM     16  O   UNL     1       4.579  -4.419  -6.638  1.00  0.00    -0.395 OA
ATOM     17  H   UNL     1       4.568  -4.321  -7.603  1.00  0.00     0.210 HD
ENDBRANCH  15  16
ENDBRANCH  14  15
ENDBRANCH  11  14
ENDBRANCH   8  11
ENDBRANCH   6   7
BRANCH   6  18
ATOM     18  C   UNL     1       0.889  -2.888  -2.572  1.00  0.00     0.026 CG0
ATOM     19  G   UNL     1      -0.105  -3.553  -1.597  1.00  0.00     0.000 G0
ENDBRANCH   6  18
ENDBRANCH   5   6
BRANCH   5  20
ATOM     20  C   UNL     1       2.481  -5.224  -1.679  1.00  0.00     0.015 C 
BRANCH  20  21
ATOM     21  C   UNL     1       1.236  -5.754  -0.997  1.00  0.00     0.001 C 
BRANCH  21  22
ATOM     22  C   UNL     1       0.243  -4.676  -0.617  1.00  0.00     0.000 C 
BRANCH  22  23
ATOM     23  C   UNL     1      -0.105  -3.553  -1.597  1.00  0.00     0.002 CG0
ATOM     24  G   UNL     1       0.889  -2.888  -2.572  1.00  0.00     0.000 G0
ENDBRANCH  22  23
ENDBRANCH  21  22
ENDBRANCH  20  21
ENDBRANCH   5  20
ENDBRANCH   1   5
BRANCH   3  25
ATOM     25  C   UNL     1      -0.838  -5.982  -3.921  1.00  0.00     0.117 C 
BRANCH  25  26
ATOM     26  C   UNL     1      -1.658  -4.767  -4.351  1.00  0.00     0.042 C 
BRANCH  26  27
ATOM     27  C   UNL     1      -2.844  -5.024  -5.261  1.00  0.00     0.118 C 
BRANCH  27  28
ATOM     28  N   UNL     1      -3.656  -6.144  -4.808  1.00  0.00    -0.352 N 
ATOM     29  C   UNL     1      -4.916  -6.160  -4.285  1.00  0.00     0.251 C 
ATOM     30  H   UNL     1      -3.229  -7.027  -4.892  1.00  0.00     0.163 HD
ATOM     31  O   UNL     1      -5.309  -7.170  -3.691  1.00  0.00    -0.269 OA
BRANCH  29  32
ATOM     32  C   UNL     1      -5.796  -4.988  -4.431  1.00  0.00     0.039 A 
ATOM     33  C   UNL     1      -6.676  -4.659  -3.399  1.00  0.00     0.014 A 
ATOM     34  C   UNL     1      -5.774  -4.228  -5.604  1.00  0.00     0.014 A 
ATOM     35  C   UNL     1      -7.497  -3.540  -3.527  1.00  0.00     0.010 A 
ATOM     36  C   UNL     1      -6.498  -3.049  -5.677  1.00  0.00     0.010 A 
ATOM     37  C   UNL     1      -7.391  -2.707  -4.654  1.00  0.00    -0.014 A 
BRANCH  37  38
ATOM     38  C   UNL     1      -8.227  -1.492  -4.805  1.00  0.00     0.031 A 
ATOM     39  C   UNL     1      -9.155  -1.368  -5.987  1.00  0.00     0.074 A 
ATOM     40  C   UNL     1      -8.097  -0.481  -3.923  1.00  0.00     0.049 A 
ATOM     41  N   UNL     1      -9.904  -0.357  -6.341  1.00  0.00    -0.248 NA
ATOM     42  C   UNL     1      -9.225  -2.513  -6.913  1.00  0.00     0.031 C 
ATOM     43  C   UNL     1      -7.187  -0.467  -2.774  1.00  0.00     0.029 A 
ATOM     44  N   UNL     1      -8.726   0.736  -3.859  1.00  0.00    -0.354 N 
ATOM     45  C   UNL     1     -10.504  -0.732  -7.538  1.00  0.00     0.074 A 
ATOM     46  C   UNL     1      -9.993  -2.038  -7.882  1.00  0.00     0.031 C 
ATOM     47  C   UNL     1      -7.342   0.684  -2.102  1.00  0.00     0.029 A 
ATOM     48  C   UNL     1      -8.322   1.511  -2.796  1.00  0.00     0.049 A 
ATOM     49  H   UNL     1      -9.403   1.028  -4.511  1.00  0.00     0.167 HD
ATOM     50  C   UNL     1     -11.418  -0.057  -8.273  1.00  0.00     0.031 A 
ATOM     51  C   UNL     1      -8.693   2.753  -2.431  1.00  0.00     0.031 A 
ATOM     52  C   UNL     1     -11.951   1.224  -7.900  1.00  0.00     0.049 A 
ATOM     53  C   UNL     1      -9.726   3.471  -3.258  1.00  0.00     0.074 A 
ATOM     54  C   UNL     1     -12.941   1.957  -8.528  1.00  0.00     0.029 A 
ATOM     55  N   UNL     1     -11.541   1.961  -6.799  1.00  0.00    -0.354 N 
ATOM     56  N   UNL     1     -10.344   3.062  -4.341  1.00  0.00    -0.248 NA
ATOM     57  C   UNL     1     -10.121   4.812  -2.807  1.00  0.00     0.031 C 
ATOM     58  C   UNL     1     -13.087   3.166  -7.842  1.00  0.00     0.029 A 
ATOM     59  C   UNL     1     -12.239   3.154  -6.746  1.00  0.00     0.049 A 
ATOM     60  H   UNL     1     -10.856   1.677  -6.152  1.00  0.00     0.167 HD
ATOM     61  C   UNL     1     -11.223   4.084  -4.682  1.00  0.00     0.074 A 
ATOM     62  C   UNL     1     -11.072   5.117  -3.679  1.00  0.00     0.031 C 
ATOM     63  C   UNL     1     -12.078   4.163  -5.731  1.00  0.00     0.031 A 
BRANCH  50  64
ATOM     64  C   UNL     1     -11.912  -0.689  -9.548  1.00  0.00    -0.014 A 
ATOM     65  C   UNL     1     -12.739  -1.826  -9.526  1.00  0.00     0.010 A 
ATOM     66  C   UNL     1     -11.612  -0.086 -10.784  1.00  0.00     0.010 A 
ATOM     67  C   UNL     1     -13.241  -2.360 -10.716  1.00  0.00     0.020 A 
ATOM     68  C   UNL     1     -12.136  -0.599 -11.974  1.00  0.00     0.020 A 
ATOM     69  C   UNL     1     -12.943  -1.737 -11.932  1.00  0.00     0.054 A 
BRANCH  69  70
ATOM     70  S   UNL     1     -13.671  -2.410 -13.451  1.00  0.00     0.124 S 
ATOM     71  O   UNL     1     -12.940  -3.666 -13.605  1.00  0.00    -0.237 OA
ATOM     72  O   UNL     1     -15.081  -2.544 -13.095  1.00  0.00    -0.237 OA
ATOM     73  O   UNL     1     -13.378  -1.392 -14.457  1.00  0.00    -0.744 OA
ENDBRANCH  69  70
ENDBRANCH  50  64
BRANCH  51  74
ATOM     74  C   UNL     1      -8.088   3.400  -1.232  1.00  0.00    -0.014 A 
ATOM     75  C   UNL     1      -8.866   3.677  -0.094  1.00  0.00     0.010 A 
ATOM     76  C   UNL     1      -6.728   3.761  -1.232  1.00  0.00     0.010 A 
ATOM     77  C   UNL     1      -8.308   4.342   1.003  1.00  0.00     0.020 A 
ATOM     78  C   UNL     1      -6.157   4.394  -0.123  1.00  0.00     0.020 A 
ATOM     79  C   UNL     1      -6.957   4.699   0.979  1.00  0.00     0.054 A 
BRANCH  79  80
ATOM     80  S   UNL     1      -6.250   5.551   2.417  1.00  0.00     0.124 S 
ATOM     81  O   UNL     1      -6.840   6.880   2.301  1.00  0.00    -0.237 OA
ATOM     82  O   UNL     1      -6.731   4.739   3.532  1.00  0.00    -0.237 OA
ATOM     83  O   UNL     1      -4.810   5.481   2.180  1.00  0.00    -0.744 OA
ENDBRANCH  79  80
ENDBRANCH  51  74
BRANCH  63  84
ATOM     84  C   UNL     1     -12.950   5.386  -5.824  1.00  0.00    -0.014 A 
ATOM     85  C   UNL     1     -12.415   6.642  -6.158  1.00  0.00     0.010 A 
ATOM     86  C   UNL     1     -14.339   5.258  -5.634  1.00  0.00     0.010 A 
ATOM     87  C   UNL     1     -13.250   7.757  -6.263  1.00  0.00     0.020 A 
ATOM     88  C   UNL     1     -15.180   6.363  -5.773  1.00  0.00     0.020 A 
ATOM     89  C   UNL     1     -14.627   7.609  -6.072  1.00  0.00     0.054 A 
BRANCH  89  90
ATOM     90  S   UNL     1     -15.693   9.064  -6.258  1.00  0.00     0.124 S 
ATOM     91  O   UNL     1     -15.369   9.833  -5.060  1.00  0.00    -0.237 OA
ATOM     92  O   UNL     1     -15.230   9.639  -7.519  1.00  0.00    -0.237 OA
ATOM     93  O   UNL     1     -17.042   8.504  -6.293  1.00  0.00    -0.744 OA
ENDBRANCH  89  90
ENDBRANCH  63  84
ENDBRANCH  37  38
ENDBRANCH  29  32
ENDBRANCH  27  28
ENDBRANCH  26  27
ENDBRANCH  25  26
ENDBRANCH   3  25
TORSDOF 19
