REMARK SMILES O=C1[NH+]=C(Nc2ccc(C(=O)NCCCNC(=O)c3ccc(-c4c5nc(c(-c6ccc(S(=O)(=O)[O-])cc6)c6ccc([nH]6)c(-c6ccc(S(=O)(=O)[O-])cc6)c6nc(c(-c7ccc(S(=O)(=O)[O-])cc7)c7ccc4[nH]7)C=C6)C=C5)cc3)c(O)c2)S/C1=C\c1ccc[nH]1
REMARK SMILES IDX 14 1 13 2 12 3 10 4 11 5 9 7 6 8 7 9 81 10 8 11 79 12 5 13
REMARK SMILES IDX 1 14 2 15 3 16 83 17 4 18 82 20 84 21 85 23 86 24 89 25
REMARK SMILES IDX 87 26 88 27 80 29 15 31 16 32 17 33 18 35 19 36 20 37 78 38
REMARK SMILES IDX 21 39 77 40 22 41 23 42 24 43 71 44 25 45 76 46 70 47 72 48
REMARK SMILES IDX 26 49 75 50 69 51 68 52 27 54 57 55 38 56 56 57 39 58 42 59
REMARK SMILES IDX 55 60 73 61 40 62 41 63 54 65 74 66 43 67 28 68 29 69 37 70
REMARK SMILES IDX 30 71 36 72 31 73 32 74 33 75 34 76 35 77 58 78 59 79 67 80
REMARK SMILES IDX 60 81 66 82 61 83 62 84 63 85 64 86 65 87 44 88 45 89 53 90
REMARK SMILES IDX 46 91 52 92 47 93 48 94 49 95 50 96 51 97
REMARK H PARENT 12 6 3 19 5 22 89 28 80 30 16 34 72 53 42 64
REMARK Flexibility Score: inf
ROOT
ATOM      1  C   UNL     1      -1.071   8.580  -3.494  1.00  0.00     0.042 C 
ENDROOT
BRANCH   1   2
ATOM      2  C   UNL     1      -0.126   8.216  -2.363  1.00  0.00     0.118 C 
BRANCH   2   3
ATOM      3  N   UNL     1      -0.627   8.516  -1.028  1.00  0.00    -0.352 N 
ATOM      4  C   UNL     1      -0.534   7.810   0.147  1.00  0.00     0.255 C 
ATOM      5  O   UNL     1      -1.046   8.280   1.161  1.00  0.00    -0.269 OA
ATOM      6  H   UNL     1      -1.114   9.368  -0.955  1.00  0.00     0.163 HD
BRANCH   4   7
ATOM      7  C   UNL     1       0.115   6.479   0.217  1.00  0.00     0.081 A 
ATOM      8  C   UNL     1       1.047   3.814   0.278  1.00  0.00     0.129 A 
ATOM      9  C   UNL     1      -0.081   4.193   1.012  1.00  0.00     0.053 A 
ATOM     10  C   UNL     1       1.743   4.803  -0.427  1.00  0.00     0.098 A 
ATOM     11  C   UNL     1      -0.543   5.511   0.984  1.00  0.00     0.022 A 
ATOM     12  C   UNL     1       1.310   6.130  -0.415  1.00  0.00     0.132 A 
BRANCH   8  13
ATOM     13  N   UNL     1       1.453   2.481   0.158  1.00  0.00    -0.234 N 
ATOM     14  O   UNL     1      -2.288  -0.307   0.034  1.00  0.00    -0.240 OA
ATOM     15  C   UNL     1      -1.106   0.012   0.077  1.00  0.00     0.346 C 
ATOM     16  N   UNL     1      -0.639   1.303   0.147  1.00  0.00    -0.199 N 
ATOM     17  C   UNL     1       0.008  -0.978   0.077  1.00  0.00     0.111 C 
ATOM     18  C   UNL     1       0.649   1.381   0.154  1.00  0.00     0.322 C 
ATOM     19  H   UNL     1      -1.229   2.090   0.188  1.00  0.00     0.316 HD
ATOM     20  S   UNL     1       1.509  -0.141   0.114  1.00  0.00     0.006 SA
ATOM     21  C   UNL     1      -0.209  -2.299   0.041  1.00  0.00     0.050 C 
ATOM     22  H   UNL     1       2.420   2.320   0.069  1.00  0.00     0.313 HD
BRANCH  21  23
ATOM     23  C   UNL     1       0.841  -3.243   0.132  1.00  0.00     0.039 A 
ATOM     24  C   UNL     1       1.840  -3.466   1.059  1.00  0.00     0.027 A 
ATOM     25  N   UNL     1       0.984  -4.176  -0.865  1.00  0.00    -0.362 N 
ATOM     26  C   UNL     1       2.628  -4.542   0.590  1.00  0.00     0.020 A 
ATOM     27  C   UNL     1       2.082  -4.957  -0.603  1.00  0.00     0.083 A 
ATOM     28  H   UNL     1       0.392  -4.269  -1.646  1.00  0.00     0.166 HD
ENDBRANCH  21  23
ENDBRANCH   8  13
BRANCH  12  29
ATOM     29  O   UNL     1       2.144   7.022  -1.029  1.00  0.00    -0.507 OA
ATOM     30  H   UNL     1       1.918   7.931  -1.060  1.00  0.00     0.293 HD
ENDBRANCH  12  29
ENDBRANCH   4   7
ENDBRANCH   2   3
ENDBRANCH   1   2
BRANCH   1  31
ATOM     31  C   UNL     1      -1.500  10.038  -3.543  1.00  0.00     0.118 C 
BRANCH  31  32
ATOM     32  N   UNL     1      -0.402  10.975  -3.751  1.00  0.00    -0.352 N 
ATOM     33  C   UNL     1      -0.047  11.727  -4.849  1.00  0.00     0.251 C 
ATOM     34  H   UNL     1       0.188  11.090  -2.972  1.00  0.00     0.163 HD
ATOM     35  O   UNL     1       1.005  12.361  -4.827  1.00  0.00    -0.269 OA
BRANCH  33  36
ATOM     36  C   UNL     1      -0.894  11.743  -6.064  1.00  0.00     0.039 A 
ATOM     37  C   UNL     1      -0.285  11.705  -7.322  1.00  0.00     0.014 A 
ATOM     38  C   UNL     1      -2.284  11.782  -5.973  1.00  0.00     0.014 A 
ATOM     39  C   UNL     1      -1.074  11.597  -8.473  1.00  0.00     0.010 A 
ATOM     40  C   UNL     1      -3.059  11.541  -7.101  1.00  0.00     0.010 A 
ATOM     41  C   UNL     1      -2.466  11.453  -8.368  1.00  0.00    -0.014 A 
BRANCH  41  42
ATOM     42  C   UNL     1      -3.328  11.225  -9.559  1.00  0.00     0.031 A 
ATOM     43  C   UNL     1      -4.446  12.186  -9.877  1.00  0.00     0.074 A 
ATOM     44  C   UNL     1      -3.160  10.116 -10.309  1.00  0.00     0.049 A 
ATOM     45  N   UNL     1      -5.354  12.115 -10.816  1.00  0.00    -0.248 NA
ATOM     46  C   UNL     1      -4.580  13.366  -9.005  1.00  0.00     0.031 C 
ATOM     47  C   UNL     1      -2.146   9.082 -10.084  1.00  0.00     0.029 A 
ATOM     48  N   UNL     1      -3.843   9.669 -11.413  1.00  0.00    -0.354 N 
ATOM     49  C   UNL     1      -6.175  13.223 -10.633  1.00  0.00     0.074 A 
ATOM     50  C   UNL     1      -5.700  13.911  -9.454  1.00  0.00     0.031 C 
ATOM     51  C   UNL     1      -2.246   8.148 -11.043  1.00  0.00     0.029 A 
ATOM     52  C   UNL     1      -3.364   8.482 -11.919  1.00  0.00     0.049 A 
ATOM     53  H   UNL     1      -4.606  10.152 -11.807  1.00  0.00     0.167 HD
ATOM     54  C   UNL     1      -7.213  13.649 -11.392  1.00  0.00     0.031 A 
ATOM     55  C   UNL     1      -3.780   7.741 -12.965  1.00  0.00     0.031 A 
ATOM     56  C   UNL     1      -7.676  12.968 -12.571  1.00  0.00     0.049 A 
ATOM     57  C   UNL     1      -4.953   8.219 -13.778  1.00  0.00     0.074 A 
ATOM     58  C   UNL     1      -8.685  13.344 -13.440  1.00  0.00     0.029 A 
ATOM     59  N   UNL     1      -7.161  11.771 -13.047  1.00  0.00    -0.354 N 
ATOM     60  N   UNL     1      -5.674   9.305 -13.626  1.00  0.00    -0.248 NA
ATOM     61  C   UNL     1      -5.363   7.376 -14.910  1.00  0.00     0.031 C 
ATOM     62  C   UNL     1      -8.823  12.342 -14.405  1.00  0.00     0.029 A 
ATOM     63  C   UNL     1      -7.851  11.379 -14.182  1.00  0.00     0.049 A 
ATOM     64  H   UNL     1      -6.416  11.274 -12.639  1.00  0.00     0.167 HD
ATOM     65  C   UNL     1      -6.600   9.292 -14.664  1.00  0.00     0.074 A 
ATOM     66  C   UNL     1      -6.338   8.099 -15.443  1.00  0.00     0.031 C 
ATOM     67  C   UNL     1      -7.577  10.189 -14.948  1.00  0.00     0.031 A 
BRANCH  54  68
ATOM     68  C   UNL     1      -7.918  14.911 -10.963  1.00  0.00    -0.014 A 
ATOM     69  C   UNL     1      -7.270  16.160 -11.010  1.00  0.00     0.010 A 
ATOM     70  C   UNL     1      -9.256  14.855 -10.533  1.00  0.00     0.010 A 
ATOM     71  C   UNL     1      -7.928  17.317 -10.589  1.00  0.00     0.020 A 
ATOM     72  C   UNL     1      -9.930  16.016 -10.144  1.00  0.00     0.020 A 
ATOM     73  C   UNL     1      -9.254  17.238 -10.156  1.00  0.00     0.054 A 
BRANCH  73  74
ATOM     74  S   UNL     1     -10.087  18.761  -9.632  1.00  0.00     0.124 S 
ATOM     75  O   UNL     1      -9.412  19.055  -8.371  1.00  0.00    -0.237 OA
ATOM     76  O   UNL     1      -9.794  19.679 -10.730  1.00  0.00    -0.237 OA
ATOM     77  O   UNL     1     -11.489  18.367  -9.510  1.00  0.00    -0.744 OA
ENDBRANCH  73  74
ENDBRANCH  54  68
BRANCH  55  78
ATOM     78  C   UNL     1      -3.070   6.479 -13.317  1.00  0.00    -0.014 A 
ATOM     79  C   UNL     1      -2.321   6.389 -14.504  1.00  0.00     0.010 A 
ATOM     80  C   UNL     1      -3.131   5.360 -12.466  1.00  0.00     0.010 A 
ATOM     81  C   UNL     1      -1.664   5.202 -14.843  1.00  0.00     0.020 A 
ATOM     82  C   UNL     1      -2.450   4.181 -12.784  1.00  0.00     0.020 A 
ATOM     83  C   UNL     1      -1.730   4.106 -13.978  1.00  0.00     0.054 A 
BRANCH  83  84
ATOM     84  S   UNL     1      -0.830   2.593 -14.416  1.00  0.00     0.124 S 
ATOM     85  O   UNL     1      -1.615   2.084 -15.536  1.00  0.00    -0.237 OA
ATOM     86  O   UNL     1       0.497   3.103 -14.752  1.00  0.00    -0.237 OA
ATOM     87  O   UNL     1      -0.890   1.793 -13.194  1.00  0.00    -0.744 OA
ENDBRANCH  83  84
ENDBRANCH  55  78
BRANCH  67  88
ATOM     88  C   UNL     1      -8.413   9.943 -16.177  1.00  0.00    -0.014 A 
ATOM     89  C   UNL     1      -9.349   8.895 -16.231  1.00  0.00     0.010 A 
ATOM     90  C   UNL     1      -8.300  10.818 -17.274  1.00  0.00     0.010 A 
ATOM     91  C   UNL     1     -10.135   8.709 -17.371  1.00  0.00     0.020 A 
ATOM     92  C   UNL     1      -9.108  10.656 -18.401  1.00  0.00     0.020 A 
ATOM     93  C   UNL     1     -10.012   9.593 -18.448  1.00  0.00     0.054 A 
BRANCH  93  94
ATOM     94  S   UNL     1     -11.080   9.359 -19.894  1.00  0.00     0.124 S 
ATOM     95  O   UNL     1     -10.520   8.151 -20.495  1.00  0.00    -0.237 OA
ATOM     96  O   UNL     1     -12.402   9.206 -19.292  1.00  0.00    -0.237 OA
ATOM     97  O   UNL     1     -10.892  10.584 -20.668  1.00  0.00    -0.744 OA
ENDBRANCH  93  94
ENDBRANCH  67  88
ENDBRANCH  41  42
ENDBRANCH  33  36
ENDBRANCH  31  32
ENDBRANCH   1  31
TORSDOF 16
