REMARK SMILES C[C@@H](C(=O)NCCCNC(=O)c1ccc(-c2c3nc(c(-c4ccc(S(=O)(=O)[O-])cc4)c4ccc([nH]4)c(-c4ccc(S(=O)(=O)[O-])cc4)c4nc(c(-c5ccc(S(=O)(=O)[O-])cc5)c5ccc2[nH]5)C=C4)C=C3)cc1)c1ccc(C[C@@H]2CCC[C@@H]2O)cc1
REMARK SMILES IDX 6 1 5 2 3 3 4 4 2 6 1 7 72 8 73 9 84 10 74 11 83 12 75 13
REMARK SMILES IDX 76 14 77 15 78 16 81 17 79 18 80 19 82 20 7 22 8 23 9 24
REMARK SMILES IDX 10 25 11 27 12 28 13 29 71 30 14 31 70 32 15 33 16 34 17 35
REMARK SMILES IDX 64 36 18 37 69 38 63 39 65 40 19 41 68 42 62 43 61 44 20 46
REMARK SMILES IDX 50 47 31 48 49 49 32 50 35 51 48 52 66 53 33 54 34 55 47 57
REMARK SMILES IDX 67 58 36 59 21 60 22 61 30 62 23 63 29 64 24 65 25 66 26 67
REMARK SMILES IDX 27 68 28 69 51 70 52 71 60 72 53 73 59 74 54 75 55 76 56 77
REMARK SMILES IDX 57 78 58 79 37 80 38 81 46 82 39 83 45 84 40 85 41 86 42 87
REMARK SMILES IDX 43 88 44 89
REMARK H PARENT 5 5 82 21 9 26 65 45 35 56
REMARK Flexibility Score: inf
ROOT
ATOM      1  C   UNL     1     -11.274   3.713   7.131  1.00  0.00     0.117 C 
ENDROOT
BRANCH   1   2
ATOM      2  N   UNL     1     -11.594   3.791   5.719  1.00  0.00    -0.356 N 
ATOM      3  C   UNL     1     -10.942   3.306   4.622  1.00  0.00     0.227 C 
ATOM      4  O   UNL     1     -11.486   3.530   3.539  1.00  0.00    -0.274 OA
ATOM      5  H   UNL     1     -12.425   4.277   5.516  1.00  0.00     0.163 HD
BRANCH   3   6
ATOM      6  C   UNL     1      -9.635   2.511   4.787  1.00  0.00     0.105 C 
ATOM      7  C   UNL     1      -8.478   3.393   5.269  1.00  0.00     0.023 C 
BRANCH   6   8
ATOM      8  C   UNL     1      -9.151   1.775   3.538  1.00  0.00    -0.036 A 
ATOM      9  C   UNL     1      -8.554   0.511   3.674  1.00  0.00     0.005 A 
ATOM     10  C   UNL     1      -9.148   2.375   2.272  1.00  0.00     0.005 A 
ATOM     11  C   UNL     1      -7.942  -0.114   2.583  1.00  0.00     0.004 A 
ATOM     12  C   UNL     1      -8.554   1.742   1.181  1.00  0.00     0.004 A 
ATOM     13  C   UNL     1      -7.905   0.513   1.334  1.00  0.00    -0.048 A 
BRANCH  13  14
ATOM     14  C   UNL     1      -7.140  -0.077   0.176  1.00  0.00     0.041 C 
BRANCH  14  15
ATOM     15  C   UNL     1      -5.619   0.195   0.111  1.00  0.00     0.022 C 
ATOM     16  C   UNL     1      -4.807  -0.434   1.249  1.00  0.00     0.007 C 
ATOM     17  C   UNL     1      -5.154   1.656   0.138  1.00  0.00     0.117 C 
ATOM     18  C   UNL     1      -4.517   0.680   2.258  1.00  0.00     0.003 C 
ATOM     19  C   UNL     1      -4.974   1.986   1.615  1.00  0.00     0.032 C 
BRANCH  17  20
ATOM     20  O   UNL     1      -6.033   2.535  -0.531  1.00  0.00    -0.393 OA
ATOM     21  H   UNL     1      -6.908   2.496  -0.114  1.00  0.00     0.210 HD
ENDBRANCH  17  20
ENDBRANCH  14  15
ENDBRANCH  13  14
ENDBRANCH   6   8
ENDBRANCH   3   6
ENDBRANCH   1   2
BRANCH   1  22
ATOM     22  C   UNL     1     -10.808   5.055   7.693  1.00  0.00     0.042 C 
BRANCH  22  23
ATOM     23  C   UNL     1     -11.796   6.205   7.512  1.00  0.00     0.118 C 
BRANCH  23  24
ATOM     24  N   UNL     1     -13.066   5.970   8.177  1.00  0.00    -0.352 N 
ATOM     25  C   UNL     1     -13.720   6.716   9.124  1.00  0.00     0.251 C 
ATOM     26  H   UNL     1     -13.531   5.145   7.906  1.00  0.00     0.163 HD
ATOM     27  O   UNL     1     -14.709   6.240   9.682  1.00  0.00    -0.269 OA
BRANCH  25  28
ATOM     28  C   UNL     1     -13.242   8.067   9.498  1.00  0.00     0.039 A 
ATOM     29  C   UNL     1     -13.271   8.435  10.846  1.00  0.00     0.014 A 
ATOM     30  C   UNL     1     -12.805   8.984   8.537  1.00  0.00     0.014 A 
ATOM     31  C   UNL     1     -12.812   9.696  11.234  1.00  0.00     0.010 A 
ATOM     32  C   UNL     1     -12.279  10.213   8.933  1.00  0.00     0.010 A 
ATOM     33  C   UNL     1     -12.282  10.586  10.285  1.00  0.00    -0.014 A 
BRANCH  33  34
ATOM     34  C   UNL     1     -11.729  11.902  10.701  1.00  0.00     0.031 A 
ATOM     35  C   UNL     1     -12.374  13.183  10.244  1.00  0.00     0.074 A 
ATOM     36  C   UNL     1     -10.620  11.943  11.466  1.00  0.00     0.049 A 
ATOM     37  N   UNL     1     -12.023  14.418  10.501  1.00  0.00    -0.248 NA
ATOM     38  C   UNL     1     -13.550  13.064   9.368  1.00  0.00     0.031 C 
ATOM     39  C   UNL     1      -9.871  10.774  11.936  1.00  0.00     0.029 A 
ATOM     40  N   UNL     1      -9.927  13.009  11.983  1.00  0.00    -0.354 N 
ATOM     41  C   UNL     1     -12.929  15.221   9.816  1.00  0.00     0.074 A 
ATOM     42  C   UNL     1     -13.810  14.333   9.088  1.00  0.00     0.031 C 
ATOM     43  C   UNL     1      -8.842  11.186  12.693  1.00  0.00     0.029 A 
ATOM     44  C   UNL     1      -8.835  12.645  12.736  1.00  0.00     0.049 A 
ATOM     45  H   UNL     1     -10.186  13.946  11.829  1.00  0.00     0.167 HD
ATOM     46  C   UNL     1     -13.035  16.572   9.810  1.00  0.00     0.031 A 
ATOM     47  C   UNL     1      -7.927  13.397  13.388  1.00  0.00     0.031 A 
ATOM     48  C   UNL     1     -12.160  17.455  10.536  1.00  0.00     0.049 A 
ATOM     49  C   UNL     1      -8.066  14.894  13.369  1.00  0.00     0.074 A 
ATOM     50  C   UNL     1     -12.210  18.835  10.626  1.00  0.00     0.029 A 
ATOM     51  N   UNL     1     -11.076  17.045  11.298  1.00  0.00    -0.354 N 
ATOM     52  N   UNL     1      -8.968  15.630  12.764  1.00  0.00    -0.248 NA
ATOM     53  C   UNL     1      -7.074  15.661  14.136  1.00  0.00     0.031 C 
ATOM     54  C   UNL     1     -11.130  19.263  11.406  1.00  0.00     0.029 A 
ATOM     55  C   UNL     1     -10.440  18.146  11.848  1.00  0.00     0.049 A 
ATOM     56  H   UNL     1     -10.799  16.109  11.429  1.00  0.00     0.167 HD
ATOM     57  C   UNL     1      -8.665  16.946  13.096  1.00  0.00     0.074 A 
ATOM     58  C   UNL     1      -7.511  16.902  13.970  1.00  0.00     0.031 C 
ATOM     59  C   UNL     1      -9.287  18.088  12.710  1.00  0.00     0.031 A 
BRANCH  46  60
ATOM     60  C   UNL     1     -14.145  17.177   8.990  1.00  0.00    -0.014 A 
ATOM     61  C   UNL     1     -15.490  17.038   9.380  1.00  0.00     0.010 A 
ATOM     62  C   UNL     1     -13.842  17.925   7.838  1.00  0.00     0.010 A 
ATOM     63  C   UNL     1     -16.513  17.597   8.610  1.00  0.00     0.020 A 
ATOM     64  C   UNL     1     -14.862  18.511   7.080  1.00  0.00     0.020 A 
ATOM     65  C   UNL     1     -16.192  18.327   7.462  1.00  0.00     0.054 A 
BRANCH  65  66
ATOM     66  S   UNL     1     -17.540  19.057   6.492  1.00  0.00     0.124 S 
ATOM     67  O   UNL     1     -18.115  17.881   5.843  1.00  0.00    -0.237 OA
ATOM     68  O   UNL     1     -18.374  19.678   7.518  1.00  0.00    -0.237 OA
ATOM     69  O   UNL     1     -16.859  19.990   5.598  1.00  0.00    -0.744 OA
ENDBRANCH  65  66
ENDBRANCH  46  60
BRANCH  47  70
ATOM     70  C   UNL     1      -6.815  12.741  14.127  1.00  0.00    -0.014 A 
ATOM     71  C   UNL     1      -6.789  12.741  15.533  1.00  0.00     0.010 A 
ATOM     72  C   UNL     1      -5.780  12.097  13.425  1.00  0.00     0.010 A 
ATOM     73  C   UNL     1      -5.739  12.126  16.222  1.00  0.00     0.020 A 
ATOM     74  C   UNL     1      -4.744  11.457  14.110  1.00  0.00     0.020 A 
ATOM     75  C   UNL     1      -4.724  11.486  15.506  1.00  0.00     0.054 A 
BRANCH  75  76
ATOM     76  S   UNL     1      -3.400  10.647  16.419  1.00  0.00     0.124 S 
ATOM     77  O   UNL     1      -2.597  11.771  16.890  1.00  0.00    -0.237 OA
ATOM     78  O   UNL     1      -4.138   9.920  17.450  1.00  0.00    -0.237 OA
ATOM     79  O   UNL     1      -2.768   9.804  15.406  1.00  0.00    -0.744 OA
ENDBRANCH  75  76
ENDBRANCH  47  70
BRANCH  59  80
ATOM     80  C   UNL     1      -8.747  19.384  13.256  1.00  0.00    -0.014 A 
ATOM     81  C   UNL     1      -7.518  19.905  12.815  1.00  0.00     0.010 A 
ATOM     82  C   UNL     1      -9.499  20.107  14.200  1.00  0.00     0.010 A 
ATOM     83  C   UNL     1      -7.030  21.105  13.340  1.00  0.00     0.020 A 
ATOM     84  C   UNL     1      -9.029  21.321  14.706  1.00  0.00     0.020 A 
ATOM     85  C   UNL     1      -7.788  21.803  14.285  1.00  0.00     0.054 A 
BRANCH  85  86
ATOM     86  S   UNL     1      -7.146  23.371  14.934  1.00  0.00     0.124 S 
ATOM     87  O   UNL     1      -6.100  22.916  15.845  1.00  0.00    -0.237 OA
ATOM     88  O   UNL     1      -6.678  24.051  13.729  1.00  0.00    -0.237 OA
ATOM     89  O   UNL     1      -8.308  23.982  15.575  1.00  0.00    -0.744 OA
ENDBRANCH  85  86
ENDBRANCH  59  80
ENDBRANCH  33  34
ENDBRANCH  25  28
ENDBRANCH  23  24
ENDBRANCH  22  23
ENDBRANCH   1  22
TORSDOF 17
