REMARK SMILES O=C(C[C@H](NC(=O)OCc1ccccc1)c1ccc(Cl)cc1)NCCCNC(=O)c1ccc(-c2c3nc(c(-c4ccc(S(=O)(=O)[O-])cc4)c4ccc([nH]4)c(-c4ccc(S(=O)(=O)[O-])cc4)c4nc(c(-c5ccc(S(=O)(=O)[O-])cc5)c5ccc2[nH]5)C=C4)C=C3)cc1
REMARK SMILES IDX 24 1 23 2 1 3 2 4 3 6 4 7 16 8 17 9 22 10 18 11 21 12 19 13
REMARK SMILES IDX 20 14 5 15 6 16 7 18 8 19 9 20 10 21 11 22 15 23 12 24 14 25
REMARK SMILES IDX 13 26 25 27 26 28 27 29 28 30 29 32 30 33 31 34 89 35 32 36
REMARK SMILES IDX 88 37 33 38 34 39 35 40 82 41 36 42 87 43 81 44 83 45 37 46
REMARK SMILES IDX 86 47 80 48 79 49 38 51 68 52 49 53 67 54 50 55 53 56 66 57
REMARK SMILES IDX 84 58 51 59 52 60 65 62 85 63 54 64 39 65 40 66 48 67 41 68
REMARK SMILES IDX 47 69 42 70 43 71 44 72 45 73 46 74 69 75 70 76 78 77 71 78
REMARK SMILES IDX 77 79 72 80 73 81 74 82 75 83 76 84 55 85 56 86 64 87 57 88
REMARK SMILES IDX 63 89 58 90 59 91 60 92 61 93 62 94
REMARK H PARENT 23 5 5 17 27 31 83 50 53 61
REMARK Flexibility Score: inf
ROOT
ATOM      1  C   UNL     1       6.082   1.821  -1.484  1.00  0.00     0.117 C 
ENDROOT
BRANCH   1   2
ATOM      2  N   UNL     1       5.424   0.732  -0.787  1.00  0.00    -0.356 N 
ATOM      3  O   UNL     1       6.990   0.538   0.888  1.00  0.00    -0.275 OA
ATOM      4  C   UNL     1       5.899   0.242   0.413  1.00  0.00     0.222 C 
ATOM      5  H   UNL     1       4.615   0.331  -1.181  1.00  0.00     0.163 HD
BRANCH   4   6
ATOM      6  C   UNL     1       4.919  -0.655   1.145  1.00  0.00     0.130 C 
BRANCH   6   7
ATOM      7  C   UNL     1       3.810   0.172   1.831  1.00  0.00     0.125 C 
BRANCH   7   8
ATOM      8  C   UNL     1       4.363   1.204   2.809  1.00  0.00    -0.025 A 
ATOM      9  C   UNL     1       5.112   0.765   3.917  1.00  0.00     0.007 A 
ATOM     10  C   UNL     1       4.185   2.588   2.639  1.00  0.00     0.007 A 
ATOM     11  C   UNL     1       5.686   1.676   4.807  1.00  0.00     0.021 A 
ATOM     12  C   UNL     1       4.757   3.501   3.532  1.00  0.00     0.021 A 
ATOM     13  C   UNL     1       5.509   3.041   4.609  1.00  0.00     0.041 A 
ATOM     14  Cl  UNL     1       6.220   4.165   5.701  1.00  0.00    -0.084 Cl
ENDBRANCH   7   8
BRANCH   7  15
ATOM     15  N   UNL     1       2.958   0.752   0.801  1.00  0.00    -0.314 N 
ATOM     16  C   UNL     1       1.640   0.531   0.573  1.00  0.00     0.407 C 
ATOM     17  H   UNL     1       3.397   1.389   0.191  1.00  0.00     0.167 HD
ATOM     18  O   UNL     1       1.141   0.872  -0.491  1.00  0.00    -0.225 OA
BRANCH  16  19
ATOM     19  O   UNL     1       0.987  -0.014   1.623  1.00  0.00    -0.445 OA
BRANCH  19  20
ATOM     20  C   UNL     1      -0.443  -0.074   1.489  1.00  0.00     0.270 C 
BRANCH  20  21
ATOM     21  C   UNL     1      -1.110   1.168   2.044  1.00  0.00    -0.011 A 
ATOM     22  C   UNL     1      -0.823   2.440   1.524  1.00  0.00     0.007 A 
ATOM     23  C   UNL     1      -2.074   1.068   3.057  1.00  0.00     0.007 A 
ATOM     24  C   UNL     1      -1.456   3.581   2.019  1.00  0.00     0.000 A 
ATOM     25  C   UNL     1      -2.716   2.210   3.545  1.00  0.00     0.000 A 
ATOM     26  C   UNL     1      -2.403   3.466   3.030  1.00  0.00     0.000 A 
ENDBRANCH  20  21
ENDBRANCH  19  20
ENDBRANCH  16  19
ENDBRANCH   7  15
ENDBRANCH   6   7
ENDBRANCH   4   6
ENDBRANCH   1   2
BRANCH   1  27
ATOM     27  C   UNL     1       6.024   1.681  -2.998  1.00  0.00     0.042 C 
BRANCH  27  28
ATOM     28  C   UNL     1       4.624   1.769  -3.598  1.00  0.00     0.118 C 
BRANCH  28  29
ATOM     29  N   UNL     1       4.035   3.099  -3.518  1.00  0.00    -0.352 N 
ATOM     30  C   UNL     1       3.451   3.850  -4.514  1.00  0.00     0.251 C 
ATOM     31  H   UNL     1       4.059   3.519  -2.629  1.00  0.00     0.163 HD
ATOM     32  O   UNL     1       3.102   5.004  -4.285  1.00  0.00    -0.269 OA
BRANCH  30  33
ATOM     33  C   UNL     1       3.287   3.280  -5.870  1.00  0.00     0.039 A 
ATOM     34  C   UNL     1       3.713   4.025  -6.973  1.00  0.00     0.014 A 
ATOM     35  C   UNL     1       2.751   2.002  -6.053  1.00  0.00     0.014 A 
ATOM     36  C   UNL     1       3.691   3.453  -8.249  1.00  0.00     0.010 A 
ATOM     37  C   UNL     1       2.793   1.410  -7.313  1.00  0.00     0.010 A 
ATOM     38  C   UNL     1       3.279   2.122  -8.422  1.00  0.00    -0.014 A 
BRANCH  38  39
ATOM     39  C   UNL     1       3.372   1.438  -9.739  1.00  0.00     0.031 A 
ATOM     40  C   UNL     1       2.127   0.942 -10.423  1.00  0.00     0.074 A 
ATOM     41  C   UNL     1       4.582   1.176 -10.274  1.00  0.00     0.049 A 
ATOM     42  N   UNL     1       2.015   0.207 -11.499  1.00  0.00    -0.248 NA
ATOM     43  C   UNL     1       0.842   1.299  -9.801  1.00  0.00     0.031 C 
ATOM     44  C   UNL     1       5.869   1.577  -9.700  1.00  0.00     0.029 A 
ATOM     45  N   UNL     1       4.928   0.491 -11.413  1.00  0.00    -0.354 N 
ATOM     46  C   UNL     1       0.653  -0.009 -11.670  1.00  0.00     0.074 A 
ATOM     47  C   UNL     1      -0.019   0.643 -10.566  1.00  0.00     0.031 C 
ATOM     48  C   UNL     1       6.861   1.143 -10.495  1.00  0.00     0.029 A 
ATOM     49  C   UNL     1       6.287   0.393 -11.608  1.00  0.00     0.049 A 
ATOM     50  H   UNL     1       4.267   0.107 -12.033  1.00  0.00     0.167 HD
ATOM     51  C   UNL     1       0.017  -0.679 -12.661  1.00  0.00     0.031 A 
ATOM     52  C   UNL     1       6.995  -0.243 -12.562  1.00  0.00     0.031 A 
ATOM     53  C   UNL     1       0.684  -1.315 -13.765  1.00  0.00     0.049 A 
ATOM     54  C   UNL     1       6.268  -0.994 -13.644  1.00  0.00     0.074 A 
ATOM     55  C   UNL     1       0.122  -1.974 -14.845  1.00  0.00     0.029 A 
ATOM     56  N   UNL     1       2.059  -1.371 -13.935  1.00  0.00    -0.354 N 
ATOM     57  N   UNL     1       4.977  -1.147 -13.812  1.00  0.00    -0.248 NA
ATOM     58  C   UNL     1       7.093  -1.654 -14.667  1.00  0.00     0.031 C 
ATOM     59  C   UNL     1       1.158  -2.468 -15.644  1.00  0.00     0.029 A 
ATOM     60  C   UNL     1       2.364  -2.069 -15.091  1.00  0.00     0.049 A 
ATOM     61  H   UNL     1       2.721  -0.973 -13.324  1.00  0.00     0.167 HD
ATOM     62  C   UNL     1       4.834  -1.892 -14.978  1.00  0.00     0.074 A 
ATOM     63  C   UNL     1       6.168  -2.157 -15.474  1.00  0.00     0.031 C 
ATOM     64  C   UNL     1       3.697  -2.314 -15.582  1.00  0.00     0.031 A 
BRANCH  51  65
ATOM     65  C   UNL     1      -1.484  -0.768 -12.588  1.00  0.00    -0.014 A 
ATOM     66  C   UNL     1      -2.290   0.361 -12.821  1.00  0.00     0.010 A 
ATOM     67  C   UNL     1      -2.099  -2.005 -12.323  1.00  0.00     0.010 A 
ATOM     68  C   UNL     1      -3.682   0.264 -12.745  1.00  0.00     0.020 A 
ATOM     69  C   UNL     1      -3.491  -2.113 -12.274  1.00  0.00     0.020 A 
ATOM     70  C   UNL     1      -4.274  -0.972 -12.467  1.00  0.00     0.054 A 
BRANCH  70  71
ATOM     71  S   UNL     1      -6.083  -1.073 -12.390  1.00  0.00     0.124 S 
ATOM     72  O   UNL     1      -6.365  -0.433 -11.108  1.00  0.00    -0.237 OA
ATOM     73  O   UNL     1      -6.498  -0.321 -13.572  1.00  0.00    -0.237 OA
ATOM     74  O   UNL     1      -6.353  -2.508 -12.442  1.00  0.00    -0.744 OA
ENDBRANCH  70  71
ENDBRANCH  51  65
BRANCH  52  75
ATOM     75  C   UNL     1       8.483  -0.194 -12.538  1.00  0.00    -0.014 A 
ATOM     76  C   UNL     1       9.184   0.567 -13.489  1.00  0.00     0.010 A 
ATOM     77  C   UNL     1       9.205  -0.894 -11.555  1.00  0.00     0.010 A 
ATOM     78  C   UNL     1      10.581   0.615 -13.467  1.00  0.00     0.020 A 
ATOM     79  C   UNL     1      10.601  -0.828 -11.514  1.00  0.00     0.020 A 
ATOM     80  C   UNL     1      11.281  -0.082 -12.478  1.00  0.00     0.054 A 
BRANCH  80  81
ATOM     81  S   UNL     1      13.091   0.039 -12.435  1.00  0.00     0.124 S 
ATOM     82  O   UNL     1      13.478  -0.817 -13.552  1.00  0.00    -0.237 OA
ATOM     83  O   UNL     1      13.317   1.470 -12.626  1.00  0.00    -0.237 OA
ATOM     84  O   UNL     1      13.435  -0.466 -11.108  1.00  0.00    -0.744 OA
ENDBRANCH  80  81
ENDBRANCH  52  75
BRANCH  64  85
ATOM     85  C   UNL     1       3.830  -3.068 -16.877  1.00  0.00    -0.014 A 
ATOM     86  C   UNL     1       4.250  -4.409 -16.902  1.00  0.00     0.010 A 
ATOM     87  C   UNL     1       3.441  -2.447 -18.079  1.00  0.00     0.010 A 
ATOM     88  C   UNL     1       4.289  -5.113 -18.109  1.00  0.00     0.020 A 
ATOM     89  C   UNL     1       3.457  -3.155 -19.283  1.00  0.00     0.020 A 
ATOM     90  C   UNL     1       3.888  -4.483 -19.291  1.00  0.00     0.054 A 
BRANCH  90  91
ATOM     91  S   UNL     1       3.873  -5.441 -20.832  1.00  0.00     0.124 S 
ATOM     92  O   UNL     1       5.296  -5.526 -21.151  1.00  0.00    -0.237 OA
ATOM     93  O   UNL     1       3.245  -6.696 -20.424  1.00  0.00    -0.237 OA
ATOM     94  O   UNL     1       3.078  -4.621 -21.743  1.00  0.00    -0.744 OA
ENDBRANCH  90  91
ENDBRANCH  64  85
ENDBRANCH  38  39
ENDBRANCH  30  33
ENDBRANCH  28  29
ENDBRANCH  27  28
ENDBRANCH   1  27
TORSDOF 19
