REMARK SMILES Cc1ccc(S(=O)(=O)N2CCN(C(=O)[C@H]3CCCC[C@H]3C(=O)NCCCNC(=O)c3ccc(-c4c5nc(c(-c6ccc(S(=O)(=O)[O-])cc6)c6ccc([nH]6)c(-c6ccc(S(=O)(=O)[O-])cc6)c6nc(c(-c7ccc(S(=O)(=O)[O-])cc7)c7ccc4[nH]7)C=C6)C=C5)cc3)CC2)cc1C
REMARK SMILES IDX 25 1 24 2 23 3 21 4 22 5 20 7 15 8 16 9 17 10 19 11 18 12
REMARK SMILES IDX 13 13 9 14 10 15 91 16 11 17 90 18 12 19 14 20 6 21 7 22
REMARK SMILES IDX 8 23 5 24 1 25 2 26 3 27 93 28 4 29 92 30 94 31 26 32 27 33
REMARK SMILES IDX 28 34 29 36 30 37 31 38 89 39 32 40 88 41 33 42 34 43 35 44
REMARK SMILES IDX 82 45 36 46 87 47 81 48 83 49 37 50 86 51 80 52 79 53 38 55
REMARK SMILES IDX 68 56 49 57 67 58 50 59 53 60 66 61 84 62 51 63 52 64 65 66
REMARK SMILES IDX 85 67 54 68 39 69 40 70 48 71 41 72 47 73 42 74 43 75 44 76
REMARK SMILES IDX 45 77 46 78 69 79 70 80 78 81 71 82 77 83 72 84 73 85 74 86
REMARK SMILES IDX 75 87 76 88 55 89 56 90 64 91 57 92 63 93 58 94 59 95 60 96
REMARK SMILES IDX 61 97 62 98
REMARK H PARENT 23 6 27 35 83 54 53 65
REMARK Flexibility Score: inf
ROOT
ATOM      1  C   UNL     1      -5.199   8.103   2.789  1.00  0.00     0.042 C 
ENDROOT
BRANCH   1   2
ATOM      2  C   UNL     1      -5.010   7.852   1.292  1.00  0.00     0.117 C 
BRANCH   2   3
ATOM      3  N   UNL     1      -3.925   6.928   1.001  1.00  0.00    -0.356 N 
ATOM      4  C   UNL     1      -3.866   5.732   0.357  1.00  0.00     0.223 C 
ATOM      5  O   UNL     1      -2.771   5.157   0.360  1.00  0.00    -0.275 OA
ATOM      6  H   UNL     1      -3.051   7.231   1.339  1.00  0.00     0.163 HD
BRANCH   4   7
ATOM      7  C   UNL     1      -5.039   5.092  -0.398  1.00  0.00     0.091 C 
ATOM      8  C   UNL     1      -6.007   4.201   0.432  1.00  0.00     0.091 C 
ATOM      9  C   UNL     1      -7.207   3.724  -0.399  1.00  0.00     0.014 C 
ATOM     10  C   UNL     1      -7.851   4.834  -1.214  1.00  0.00     0.001 C 
ATOM     11  C   UNL     1      -5.675   6.047  -1.423  1.00  0.00     0.014 C 
ATOM     12  C   UNL     1      -6.838   5.424  -2.181  1.00  0.00     0.001 C 
BRANCH   8  13
ATOM     13  C   UNL     1      -6.309   4.710   1.840  1.00  0.00     0.226 C 
ATOM     14  N   UNL     1      -9.594   5.027   4.359  1.00  0.00    -0.194 NA
ATOM     15  C   UNL     1      -9.347   6.208   3.527  1.00  0.00     0.124 C 
ATOM     16  C   UNL     1      -9.493   3.750   3.641  1.00  0.00     0.124 C 
ATOM     17  C   UNL     1      -7.970   6.102   2.878  1.00  0.00     0.136 C 
ATOM     18  C   UNL     1      -8.127   3.611   2.960  1.00  0.00     0.136 C 
ATOM     19  N   UNL     1      -7.640   4.811   2.249  1.00  0.00    -0.340 N 
ATOM     20  O   UNL     1      -5.400   4.925   2.642  1.00  0.00    -0.275 OA
BRANCH  14  21
ATOM     21  S   UNL     1      -9.882   5.133   6.008  1.00  0.00     0.243 S 
ATOM     22  O   UNL     1     -10.539   3.903   6.401  1.00  0.00    -0.207 OA
ATOM     23  O   UNL     1     -10.466   6.432   6.249  1.00  0.00    -0.207 OA
BRANCH  21  24
ATOM     24  C   UNL     1      -8.306   5.137   6.841  1.00  0.00     0.082 A 
ATOM     25  C   UNL     1      -4.561   5.214   8.996  1.00  0.00     0.044 C 
ATOM     26  C   UNL     1      -5.882   5.177   8.277  1.00  0.00    -0.048 A 
ATOM     27  C   UNL     1      -5.894   4.995   6.889  1.00  0.00     0.005 A 
ATOM     28  C   UNL     1      -7.106   5.311   8.962  1.00  0.00    -0.047 A 
ATOM     29  C   UNL     1      -7.096   4.966   6.180  1.00  0.00     0.022 A 
ATOM     30  C   UNL     1      -8.309   5.317   8.229  1.00  0.00     0.025 A 
ATOM     31  C   UNL     1      -7.169   5.500  10.454  1.00  0.00     0.044 C 
ENDBRANCH  21  24
ENDBRANCH  14  21
ENDBRANCH   8  13
ENDBRANCH   4   7
ENDBRANCH   2   3
ENDBRANCH   1   2
BRANCH   1  32
ATOM     32  C   UNL     1      -4.074   8.866   3.467  1.00  0.00     0.118 C 
BRANCH  32  33
ATOM     33  N   UNL     1      -4.342  10.291   3.522  1.00  0.00    -0.352 N 
ATOM     34  C   UNL     1      -5.022  11.071   4.424  1.00  0.00     0.251 C 
ATOM     35  H   UNL     1      -3.962  10.796   2.766  1.00  0.00     0.163 HD
ATOM     36  O   UNL     1      -5.300  12.219   4.072  1.00  0.00    -0.269 OA
BRANCH  34  37
ATOM     37  C   UNL     1      -5.445  10.610   5.779  1.00  0.00     0.039 A 
ATOM     38  C   UNL     1      -6.546  11.250   6.368  1.00  0.00     0.014 A 
ATOM     39  C   UNL     1      -4.733   9.686   6.546  1.00  0.00     0.014 A 
ATOM     40  C   UNL     1      -6.914  10.981   7.694  1.00  0.00     0.010 A 
ATOM     41  C   UNL     1      -5.158   9.346   7.837  1.00  0.00     0.010 A 
ATOM     42  C   UNL     1      -6.223  10.022   8.447  1.00  0.00    -0.014 A 
BRANCH  42  43
ATOM     43  C   UNL     1      -6.538   9.784   9.886  1.00  0.00     0.031 A 
ATOM     44  C   UNL     1      -5.487  10.029  10.947  1.00  0.00     0.074 A 
ATOM     45  C   UNL     1      -7.745   9.306  10.253  1.00  0.00     0.049 A 
ATOM     46  N   UNL     1      -5.532   9.784  12.234  1.00  0.00    -0.248 NA
ATOM     47  C   UNL     1      -4.206  10.599  10.496  1.00  0.00     0.031 C 
ATOM     48  C   UNL     1      -8.839   8.968   9.341  1.00  0.00     0.029 A 
ATOM     49  N   UNL     1      -8.235   8.980  11.496  1.00  0.00    -0.354 N 
ATOM     50  C   UNL     1      -4.288  10.154  12.738  1.00  0.00     0.074 A 
ATOM     51  C   UNL     1      -3.489  10.581  11.611  1.00  0.00     0.031 C 
ATOM     52  C   UNL     1      -9.863   8.465  10.050  1.00  0.00     0.029 A 
ATOM     53  C   UNL     1      -9.489   8.415  11.461  1.00  0.00     0.049 A 
ATOM     54  H   UNL     1      -7.737   9.135  12.330  1.00  0.00     0.167 HD
ATOM     55  C   UNL     1      -3.854  10.172  14.023  1.00  0.00     0.031 A 
ATOM     56  C   UNL     1     -10.243   7.884  12.444  1.00  0.00     0.031 A 
ATOM     57  C   UNL     1      -4.653   9.785  15.155  1.00  0.00     0.049 A 
ATOM     58  C   UNL     1      -9.739   7.896  13.861  1.00  0.00     0.074 A 
ATOM     59  C   UNL     1      -4.331   9.853  16.500  1.00  0.00     0.029 A 
ATOM     60  N   UNL     1      -5.934   9.263  15.078  1.00  0.00    -0.354 N 
ATOM     61  N   UNL     1      -8.582   8.307  14.321  1.00  0.00    -0.248 NA
ATOM     62  C   UNL     1     -10.654   7.389  14.894  1.00  0.00     0.031 C 
ATOM     63  C   UNL     1      -5.403   9.335  17.235  1.00  0.00     0.029 A 
ATOM     64  C   UNL     1      -6.410   8.989  16.349  1.00  0.00     0.049 A 
ATOM     65  H   UNL     1      -6.432   9.109  14.242  1.00  0.00     0.167 HD
ATOM     66  C   UNL     1      -8.647   8.149  15.702  1.00  0.00     0.074 A 
ATOM     67  C   UNL     1      -9.953   7.599  16.000  1.00  0.00     0.031 C 
ATOM     68  C   UNL     1      -7.712   8.445  16.638  1.00  0.00     0.031 A 
BRANCH  55  69
ATOM     69  C   UNL     1      -2.445  10.648  14.278  1.00  0.00    -0.014 A 
ATOM     70  C   UNL     1      -2.098  12.002  14.113  1.00  0.00     0.010 A 
ATOM     71  C   UNL     1      -1.467   9.744  14.730  1.00  0.00     0.010 A 
ATOM     72  C   UNL     1      -0.790  12.433  14.347  1.00  0.00     0.020 A 
ATOM     73  C   UNL     1      -0.163  10.177  14.993  1.00  0.00     0.020 A 
ATOM     74  C   UNL     1       0.172  11.516  14.780  1.00  0.00     0.054 A 
BRANCH  74  75
ATOM     75  S   UNL     1       1.859  12.104  15.091  1.00  0.00     0.124 S 
ATOM     76  O   UNL     1       2.377  12.261  13.734  1.00  0.00    -0.237 OA
ATOM     77  O   UNL     1       1.638  13.348  15.825  1.00  0.00    -0.237 OA
ATOM     78  O   UNL     1       2.465  11.026  15.868  1.00  0.00    -0.744 OA
ENDBRANCH  74  75
ENDBRANCH  55  69
BRANCH  56  79
ATOM     79  C   UNL     1     -11.569   7.297  12.117  1.00  0.00    -0.014 A 
ATOM     80  C   UNL     1     -12.751   7.983  12.444  1.00  0.00     0.010 A 
ATOM     81  C   UNL     1     -11.655   6.054  11.463  1.00  0.00     0.010 A 
ATOM     82  C   UNL     1     -13.997   7.428  12.141  1.00  0.00     0.020 A 
ATOM     83  C   UNL     1     -12.900   5.508  11.135  1.00  0.00     0.020 A 
ATOM     84  C   UNL     1     -14.064   6.194  11.488  1.00  0.00     0.054 A 
BRANCH  84  85
ATOM     85  S   UNL     1     -15.695   5.517  11.072  1.00  0.00     0.124 S 
ATOM     86  O   UNL     1     -16.190   5.093  12.378  1.00  0.00    -0.237 OA
ATOM     87  O   UNL     1     -16.375   6.668  10.483  1.00  0.00    -0.237 OA
ATOM     88  O   UNL     1     -15.392   4.435  10.137  1.00  0.00    -0.744 OA
ENDBRANCH  84  85
ENDBRANCH  56  79
BRANCH  68  89
ATOM     89  C   UNL     1      -8.086   8.237  18.081  1.00  0.00    -0.014 A 
ATOM     90  C   UNL     1      -8.158   6.950  18.642  1.00  0.00     0.010 A 
ATOM     91  C   UNL     1      -8.331   9.356  18.898  1.00  0.00     0.010 A 
ATOM     92  C   UNL     1      -8.504   6.785  19.987  1.00  0.00     0.020 A 
ATOM     93  C   UNL     1      -8.653   9.196  20.248  1.00  0.00     0.020 A 
ATOM     94  C   UNL     1      -8.754   7.910  20.780  1.00  0.00     0.054 A 
BRANCH  94  95
ATOM     95  S   UNL     1      -9.171   7.674  22.530  1.00  0.00     0.124 S 
ATOM     96  O   UNL     1     -10.566   7.251  22.455  1.00  0.00    -0.237 OA
ATOM     97  O   UNL     1      -8.223   6.646  22.953  1.00  0.00    -0.237 OA
ATOM     98  O   UNL     1      -8.951   8.994  23.118  1.00  0.00    -0.744 OA
ENDBRANCH  94  95
ENDBRANCH  68  89
ENDBRANCH  42  43
ENDBRANCH  34  37
ENDBRANCH  32  33
ENDBRANCH   1  32
TORSDOF 16
