REMARK SMILES O=C(C[C@@H](C(=O)N(c1ccccc1)c1ccccc1)[NH+]1CCOCC1)NCCCNC(=O)c1ccc(-c2c3nc(c(-c4ccc(S(=O)(=O)[O-])cc4)c4ccc([nH]4)c(-c4ccc(S(=O)(=O)[O-])cc4)c4nc(c(-c5ccc(S(=O)(=O)[O-])cc5)c5ccc2[nH]5)C=C4)C=C3)cc1
REMARK SMILES IDX 28 1 27 2 26 3 1 4 2 5 3 7 4 8 5 9 6 10 7 11 8 12 9 13 13 14
REMARK SMILES IDX 10 15 12 16 11 17 14 18 15 19 19 20 16 21 18 22 17 23 20 24
REMARK SMILES IDX 21 25 25 26 22 28 24 29 23 30 29 31 30 32 31 33 32 35 33 36
REMARK SMILES IDX 34 37 92 38 35 39 91 40 36 41 37 42 38 43 85 44 39 45 90 46
REMARK SMILES IDX 84 47 86 48 40 49 89 50 83 51 82 52 41 54 71 55 52 56 70 57
REMARK SMILES IDX 53 58 56 59 69 60 87 61 54 62 55 63 68 65 88 66 57 67 42 68
REMARK SMILES IDX 43 69 51 70 44 71 50 72 45 73 46 74 47 75 48 76 49 77 72 78
REMARK SMILES IDX 73 79 81 80 74 81 80 82 75 83 76 84 77 85 78 86 79 87 58 88
REMARK SMILES IDX 59 89 67 90 60 91 66 92 61 93 62 94 63 95 64 96 65 97
REMARK H PARENT 26 6 20 27 30 34 86 53 56 64
REMARK Flexibility Score: inf
ROOT
ATOM      1  C   UNL     1       2.139   3.677  -1.044  1.00  0.00     0.042 C 
ENDROOT
BRANCH   1   2
ATOM      2  C   UNL     1       1.972   2.182  -0.810  1.00  0.00     0.117 C 
BRANCH   2   3
ATOM      3  N   UNL     1       2.889   1.579   0.150  1.00  0.00    -0.356 N 
ATOM      4  O   UNL     1       1.280   0.283   1.163  1.00  0.00    -0.275 OA
ATOM      5  C   UNL     1       2.463   0.574   1.000  1.00  0.00     0.226 C 
ATOM      6  H   UNL     1       3.821   1.891   0.195  1.00  0.00     0.163 HD
BRANCH   5   7
ATOM      7  C   UNL     1       3.559  -0.263   1.637  1.00  0.00     0.175 C 
BRANCH   7   8
ATOM      8  C   UNL     1       3.985  -1.407   0.684  1.00  0.00     0.284 C 
BRANCH   8   9
ATOM      9  C   UNL     1       4.724  -0.748  -0.490  1.00  0.00     0.290 C 
ATOM     10  O   UNL     1       5.729  -0.071  -0.191  1.00  0.00    -0.267 OA
ATOM     11  N   UNL     1       4.326  -0.843  -1.835  1.00  0.00    -0.276 N 
BRANCH  11  12
ATOM     12  C   UNL     1       2.986  -0.907  -2.418  1.00  0.00     0.049 A 
ATOM     13  C   UNL     1       2.787  -0.568  -3.780  1.00  0.00     0.027 A 
ATOM     14  C   UNL     1       1.804  -1.151  -1.704  1.00  0.00     0.027 A 
ATOM     15  C   UNL     1       1.513  -0.368  -4.339  1.00  0.00     0.002 A 
ATOM     16  C   UNL     1       0.524  -0.960  -2.257  1.00  0.00     0.002 A 
ATOM     17  C   UNL     1       0.377  -0.543  -3.567  1.00  0.00     0.000 A 
ENDBRANCH  11  12
BRANCH  11  18
ATOM     18  C   UNL     1       5.358  -0.423  -2.745  1.00  0.00     0.049 A 
ATOM     19  C   UNL     1       5.655   0.940  -2.877  1.00  0.00     0.027 A 
ATOM     20  C   UNL     1       6.163  -1.369  -3.385  1.00  0.00     0.027 A 
ATOM     21  C   UNL     1       6.730   1.362  -3.654  1.00  0.00     0.002 A 
ATOM     22  C   UNL     1       7.251  -0.943  -4.154  1.00  0.00     0.002 A 
ATOM     23  C   UNL     1       7.531   0.419  -4.290  1.00  0.00     0.000 A 
ENDBRANCH  11  18
ENDBRANCH   8   9
BRANCH   8  24
ATOM     24  N   UNL     1       4.788  -2.410   1.469  1.00  0.00    -0.320 N 
ATOM     25  C   UNL     1       6.261  -2.296   1.459  1.00  0.00     0.291 C 
ATOM     26  C   UNL     1       4.424  -3.812   1.181  1.00  0.00     0.291 C 
ATOM     27  H   UNL     1       4.504  -2.140   2.411  1.00  0.00     0.348 HD
ATOM     28  C   UNL     1       6.953  -2.946   0.240  1.00  0.00     0.221 C 
ATOM     29  C   UNL     1       5.099  -4.373  -0.076  1.00  0.00     0.221 C 
ATOM     30  O   UNL     1       6.524  -4.302   0.040  1.00  0.00    -0.370 OA
ENDBRANCH   8  24
ENDBRANCH   7   8
ENDBRANCH   5   7
ENDBRANCH   2   3
ENDBRANCH   1   2
BRANCH   1  31
ATOM     31  C   UNL     1       3.405   4.078  -1.792  1.00  0.00     0.118 C 
BRANCH  31  32
ATOM     32  N   UNL     1       3.504   3.575  -3.158  1.00  0.00    -0.352 N 
ATOM     33  C   UNL     1       4.286   4.030  -4.200  1.00  0.00     0.251 C 
ATOM     34  H   UNL     1       2.932   2.801  -3.365  1.00  0.00     0.163 HD
ATOM     35  O   UNL     1       4.233   3.459  -5.288  1.00  0.00    -0.269 OA
BRANCH  33  36
ATOM     36  C   UNL     1       5.131   5.240  -4.042  1.00  0.00     0.039 A 
ATOM     37  C   UNL     1       5.160   6.168  -5.089  1.00  0.00     0.014 A 
ATOM     38  C   UNL     1       5.830   5.510  -2.865  1.00  0.00     0.014 A 
ATOM     39  C   UNL     1       5.757   7.417  -4.896  1.00  0.00     0.010 A 
ATOM     40  C   UNL     1       6.343   6.785  -2.639  1.00  0.00     0.010 A 
ATOM     41  C   UNL     1       6.277   7.764  -3.639  1.00  0.00    -0.014 A 
BRANCH  41  42
ATOM     42  C   UNL     1       6.652   9.167  -3.322  1.00  0.00     0.031 A 
ATOM     43  C   UNL     1       8.056   9.524  -2.924  1.00  0.00     0.074 A 
ATOM     44  C   UNL     1       5.683  10.106  -3.300  1.00  0.00     0.049 A 
ATOM     45  N   UNL     1       8.541  10.689  -2.580  1.00  0.00    -0.248 NA
ATOM     46  C   UNL     1       9.036   8.427  -2.876  1.00  0.00     0.031 C 
ATOM     47  C   UNL     1       4.263   9.868  -3.584  1.00  0.00     0.029 A 
ATOM     48  N   UNL     1       5.738  11.449  -3.021  1.00  0.00    -0.354 N 
ATOM     49  C   UNL     1       9.875  10.466  -2.261  1.00  0.00     0.074 A 
ATOM     50  C   UNL     1      10.110   9.045  -2.404  1.00  0.00     0.031 C 
ATOM     51  C   UNL     1       3.594  11.028  -3.504  1.00  0.00     0.029 A 
ATOM     52  C   UNL     1       4.524  12.087  -3.129  1.00  0.00     0.049 A 
ATOM     53  H   UNL     1       6.569  11.912  -2.768  1.00  0.00     0.167 HD
ATOM     54  C   UNL     1      10.823  11.365  -1.902  1.00  0.00     0.031 A 
ATOM     55  C   UNL     1       4.192  13.380  -2.952  1.00  0.00     0.031 A 
ATOM     56  C   UNL     1      10.585  12.778  -1.769  1.00  0.00     0.049 A 
ATOM     57  C   UNL     1       5.269  14.364  -2.590  1.00  0.00     0.074 A 
ATOM     58  C   UNL     1      11.492  13.780  -1.470  1.00  0.00     0.029 A 
ATOM     59  N   UNL     1       9.351  13.390  -1.929  1.00  0.00    -0.354 N 
ATOM     60  N   UNL     1       6.544  14.144  -2.376  1.00  0.00    -0.248 NA
ATOM     61  C   UNL     1       4.866  15.770  -2.463  1.00  0.00     0.031 C 
ATOM     62  C   UNL     1      10.798  14.994  -1.412  1.00  0.00     0.029 A 
ATOM     63  C   UNL     1       9.469  14.754  -1.723  1.00  0.00     0.049 A 
ATOM     64  H   UNL     1       8.514  12.923  -2.156  1.00  0.00     0.167 HD
ATOM     65  C   UNL     1       7.102  15.389  -2.115  1.00  0.00     0.074 A 
ATOM     66  C   UNL     1       6.028  16.358  -2.212  1.00  0.00     0.031 C 
ATOM     67  C   UNL     1       8.389  15.703  -1.825  1.00  0.00     0.031 A 
BRANCH  54  68
ATOM     68  C   UNL     1      12.209  10.839  -1.635  1.00  0.00    -0.014 A 
ATOM     69  C   UNL     1      13.013  10.356  -2.685  1.00  0.00     0.010 A 
ATOM     70  C   UNL     1      12.726  10.847  -0.327  1.00  0.00     0.010 A 
ATOM     71  C   UNL     1      14.286   9.845  -2.425  1.00  0.00     0.020 A 
ATOM     72  C   UNL     1      14.011  10.361  -0.067  1.00  0.00     0.020 A 
ATOM     73  C   UNL     1      14.775   9.843  -1.115  1.00  0.00     0.054 A 
BRANCH  73  74
ATOM     74  S   UNL     1      16.434   9.178  -0.807  1.00  0.00     0.124 S 
ATOM     75  O   UNL     1      16.204   7.739  -0.912  1.00  0.00    -0.237 OA
ATOM     76  O   UNL     1      17.223   9.768  -1.885  1.00  0.00    -0.237 OA
ATOM     77  O   UNL     1      16.757   9.661   0.534  1.00  0.00    -0.744 OA
ENDBRANCH  73  74
ENDBRANCH  54  68
BRANCH  55  78
ATOM     78  C   UNL     1       2.787  13.822  -3.159  1.00  0.00    -0.014 A 
ATOM     79  C   UNL     1       2.440  14.571  -4.298  1.00  0.00     0.010 A 
ATOM     80  C   UNL     1       1.783  13.477  -2.236  1.00  0.00     0.010 A 
ATOM     81  C   UNL     1       1.120  14.983  -4.501  1.00  0.00     0.020 A 
ATOM     82  C   UNL     1       0.457  13.866  -2.449  1.00  0.00     0.020 A 
ATOM     83  C   UNL     1       0.136  14.627  -3.574  1.00  0.00     0.054 A 
BRANCH  83  84
ATOM     84  S   UNL     1      -1.581  15.126  -3.885  1.00  0.00     0.124 S 
ATOM     85  O   UNL     1      -1.551  16.544  -3.541  1.00  0.00    -0.237 OA
ATOM     86  O   UNL     1      -1.749  14.822  -5.303  1.00  0.00    -0.237 OA
ATOM     87  O   UNL     1      -2.351  14.277  -2.979  1.00  0.00    -0.744 OA
ENDBRANCH  83  84
ENDBRANCH  55  78
BRANCH  67  88
ATOM     88  C   UNL     1       8.713  17.157  -1.625  1.00  0.00    -0.014 A 
ATOM     89  C   UNL     1       8.325  17.836  -0.457  1.00  0.00     0.010 A 
ATOM     90  C   UNL     1       9.462  17.840  -2.601  1.00  0.00     0.010 A 
ATOM     91  C   UNL     1       8.653  19.183  -0.283  1.00  0.00     0.020 A 
ATOM     92  C   UNL     1       9.813  19.179  -2.419  1.00  0.00     0.020 A 
ATOM     93  C   UNL     1       9.394  19.846  -1.266  1.00  0.00     0.054 A 
BRANCH  93  94
ATOM     94  S   UNL     1       9.848  21.582  -0.998  1.00  0.00     0.124 S 
ATOM     95  O   UNL     1       8.591  22.270  -1.278  1.00  0.00    -0.237 OA
ATOM     96  O   UNL     1      10.273  21.592   0.399  1.00  0.00    -0.237 OA
ATOM     97  O   UNL     1      10.916  21.813  -1.969  1.00  0.00    -0.744 OA
ENDBRANCH  93  94
ENDBRANCH  67  88
ENDBRANCH  41  42
ENDBRANCH  33  36
ENDBRANCH  31  32
ENDBRANCH   1  31
TORSDOF 18
