REMARK SMILES Cc1ccc(NC(=O)C[N@H+]2CCC[C@@H](C(=O)NCCCNC(=O)c3ccc(-c4c5nc(c(-c6ccc(S(=O)(=O)[O-])cc6)c6ccc([nH]6)c(-c6ccc(S(=O)(=O)[O-])cc6)c6nc(c(-c7ccc(S(=O)(=O)[O-])cc7)c7ccc4[nH]7)C=C6)C=C5)cc3)C2)cc1F
REMARK SMILES IDX 19 1 18 2 17 3 15 4 16 5 14 7 10 8 11 9 84 10 12 12 13 13
REMARK SMILES IDX 9 14 7 15 6 16 8 18 5 19 1 20 2 21 3 22 86 23 4 24 85 25
REMARK SMILES IDX 87 26 20 27 21 28 22 29 23 31 24 32 25 33 83 34 26 35 82 36
REMARK SMILES IDX 27 37 28 38 29 39 76 40 30 41 81 42 75 43 77 44 31 45 80 46
REMARK SMILES IDX 74 47 73 48 32 50 62 51 43 52 61 53 44 54 47 55 60 56 78 57
REMARK SMILES IDX 45 58 46 59 59 61 79 62 48 63 33 64 34 65 42 66 35 67 41 68
REMARK SMILES IDX 36 69 37 70 38 71 39 72 40 73 63 74 64 75 72 76 65 77 71 78
REMARK SMILES IDX 66 79 67 80 68 81 69 82 70 83 49 84 50 85 58 86 51 87 57 88
REMARK SMILES IDX 52 89 53 90 54 91 55 92 56 93
REMARK H PARENT 17 6 10 11 6 17 21 30 77 49 47 60
REMARK Flexibility Score: inf
ROOT
ATOM      1  C   UNL     1       1.024   1.928  -2.060  1.00  0.00     0.042 C 
ENDROOT
BRANCH   1   2
ATOM      2  C   UNL     1      -0.102   0.906  -1.958  1.00  0.00     0.117 C 
BRANCH   2   3
ATOM      3  N   UNL     1      -0.856   0.753  -3.193  1.00  0.00    -0.356 N 
ATOM      4  C   UNL     1      -1.210  -0.394  -3.851  1.00  0.00     0.228 C 
ATOM      5  O   UNL     1      -1.943  -0.295  -4.836  1.00  0.00    -0.275 OA
ATOM      6  H   UNL     1      -1.154   1.592  -3.614  1.00  0.00     0.163 HD
BRANCH   4   7
ATOM      7  C   UNL     1      -0.713  -1.739  -3.335  1.00  0.00     0.133 C 
ATOM      8  N   UNL     1      -1.044  -3.433  -1.552  1.00  0.00    -0.326 N 
ATOM      9  C   UNL     1      -1.060  -4.515  -2.555  1.00  0.00     0.262 C 
ATOM     10  C   UNL     1      -1.562  -2.185  -2.136  1.00  0.00     0.276 C 
ATOM     11  H   UNL     1      -0.090  -3.201  -1.276  1.00  0.00     0.348 HD
ATOM     12  C   UNL     1      -0.287  -4.149  -3.825  1.00  0.00     0.062 C 
ATOM     13  C   UNL     1      -0.761  -2.824  -4.413  1.00  0.00     0.025 C 
BRANCH   8  14
ATOM     14  C   UNL     1      -1.693  -3.893  -0.293  1.00  0.00     0.363 C 
BRANCH  14  15
ATOM     15  C   UNL     1      -2.829  -3.034   0.251  1.00  0.00     0.279 C 
ATOM     16  N   UNL     1      -2.655  -1.837   0.881  1.00  0.00    -0.321 N 
ATOM     17  H   UNL     1      -3.506  -1.439   1.178  1.00  0.00     0.170 HD
ATOM     18  O   UNL     1      -4.001  -3.411   0.105  1.00  0.00    -0.268 OA
BRANCH  16  19
ATOM     19  C   UNL     1      -1.543  -1.039   1.206  1.00  0.00     0.044 A 
ATOM     20  C   UNL     1       1.658   1.772   1.958  1.00  0.00     0.047 C 
ATOM     21  C   UNL     1       0.533   0.809   1.735  1.00  0.00    -0.015 A 
ATOM     22  C   UNL     1      -0.800   1.215   1.796  1.00  0.00     0.008 A 
ATOM     23  C   UNL     1       0.804  -0.525   1.436  1.00  0.00     0.128 A 
ATOM     24  C   UNL     1      -1.825   0.295   1.546  1.00  0.00     0.026 A 
ATOM     25  C   UNL     1      -0.213  -1.443   1.173  1.00  0.00     0.065 A 
ATOM     26  F   UNL     1       2.076  -0.943   1.372  1.00  0.00    -0.207 F 
ENDBRANCH  16  19
ENDBRANCH  14  15
ENDBRANCH   8  14
ENDBRANCH   4   7
ENDBRANCH   2   3
ENDBRANCH   1   2
BRANCH   1  27
ATOM     27  C   UNL     1       0.577   3.388  -2.067  1.00  0.00     0.118 C 
BRANCH  27  28
ATOM     28  N   UNL     1      -0.105   3.808  -0.845  1.00  0.00    -0.352 N 
ATOM     29  C   UNL     1       0.245   4.690   0.152  1.00  0.00     0.251 C 
ATOM     30  H   UNL     1      -0.980   3.379  -0.709  1.00  0.00     0.163 HD
ATOM     31  O   UNL     1      -0.485   4.782   1.139  1.00  0.00    -0.269 OA
BRANCH  29  32
ATOM     32  C   UNL     1       1.496   5.482   0.095  1.00  0.00     0.039 A 
ATOM     33  C   UNL     1       2.244   5.652   1.268  1.00  0.00     0.014 A 
ATOM     34  C   UNL     1       1.939   6.072  -1.087  1.00  0.00     0.014 A 
ATOM     35  C   UNL     1       3.485   6.297   1.227  1.00  0.00     0.010 A 
ATOM     36  C   UNL     1       3.209   6.643  -1.146  1.00  0.00     0.010 A 
ATOM     37  C   UNL     1       4.009   6.740   0.004  1.00  0.00    -0.014 A 
BRANCH  37  38
ATOM     38  C   UNL     1       5.394   7.267  -0.131  1.00  0.00     0.031 A 
ATOM     39  C   UNL     1       5.624   8.657  -0.658  1.00  0.00     0.074 A 
ATOM     40  C   UNL     1       6.445   6.449   0.086  1.00  0.00     0.049 A 
ATOM     41  N   UNL     1       6.736   9.213  -1.065  1.00  0.00    -0.248 NA
ATOM     42  C   UNL     1       4.441   9.525  -0.771  1.00  0.00     0.031 C 
ATOM     43  C   UNL     1       6.365   5.073   0.583  1.00  0.00     0.029 A 
ATOM     44  N   UNL     1       7.790   6.647  -0.116  1.00  0.00    -0.354 N 
ATOM     45  C   UNL     1       6.384  10.480  -1.516  1.00  0.00     0.074 A 
ATOM     46  C   UNL     1       4.949  10.599  -1.359  1.00  0.00     0.031 C 
ATOM     47  C   UNL     1       7.601   4.554   0.646  1.00  0.00     0.029 A 
ATOM     48  C   UNL     1       8.556   5.533   0.140  1.00  0.00     0.049 A 
ATOM     49  H   UNL     1       8.169   7.505  -0.416  1.00  0.00     0.167 HD
ATOM     50  C   UNL     1       7.182  11.457  -2.010  1.00  0.00     0.031 A 
ATOM     51  C   UNL     1       9.872   5.306  -0.045  1.00  0.00     0.031 A 
ATOM     52  C   UNL     1       8.609  11.342  -2.148  1.00  0.00     0.049 A 
ATOM     53  C   UNL     1      10.732   6.393  -0.629  1.00  0.00     0.074 A 
ATOM     54  C   UNL     1       9.511  12.299  -2.579  1.00  0.00     0.029 A 
ATOM     55  N   UNL     1       9.344  10.201  -1.863  1.00  0.00    -0.354 N 
ATOM     56  N   UNL     1      10.388   7.600  -1.008  1.00  0.00    -0.248 NA
ATOM     57  C   UNL     1      12.158   6.085  -0.816  1.00  0.00     0.031 C 
ATOM     58  C   UNL     1      10.784  11.721  -2.605  1.00  0.00     0.029 A 
ATOM     59  C   UNL     1      10.683  10.420  -2.137  1.00  0.00     0.049 A 
ATOM     60  H   UNL     1       8.969   9.359  -1.516  1.00  0.00     0.167 HD
ATOM     61  C   UNL     1      11.557   8.202  -1.460  1.00  0.00     0.074 A 
ATOM     62  C   UNL     1      12.620   7.233  -1.294  1.00  0.00     0.031 C 
ATOM     63  C   UNL     1      11.732   9.446  -1.968  1.00  0.00     0.031 A 
BRANCH  50  64
ATOM     64  C   UNL     1       6.524  12.738  -2.452  1.00  0.00    -0.014 A 
ATOM     65  C   UNL     1       5.976  13.636  -1.518  1.00  0.00     0.010 A 
ATOM     66  C   UNL     1       6.492  13.070  -3.819  1.00  0.00     0.010 A 
ATOM     67  C   UNL     1       5.369  14.819  -1.946  1.00  0.00     0.020 A 
ATOM     68  C   UNL     1       5.911  14.267  -4.249  1.00  0.00     0.020 A 
ATOM     69  C   UNL     1       5.336  15.125  -3.310  1.00  0.00     0.054 A 
BRANCH  69  70
ATOM     70  S   UNL     1       4.556  16.676  -3.834  1.00  0.00     0.124 S 
ATOM     71  O   UNL     1       3.138  16.377  -3.645  1.00  0.00    -0.237 OA
ATOM     72  O   UNL     1       5.120  17.650  -2.903  1.00  0.00    -0.237 OA
ATOM     73  O   UNL     1       4.981  16.827  -5.223  1.00  0.00    -0.744 OA
ENDBRANCH  69  70
ENDBRANCH  50  64
BRANCH  51  74
ATOM     74  C   UNL     1      10.455   3.983   0.310  1.00  0.00    -0.014 A 
ATOM     75  C   UNL     1      11.303   3.858   1.424  1.00  0.00     0.010 A 
ATOM     76  C   UNL     1      10.152   2.839  -0.451  1.00  0.00     0.010 A 
ATOM     77  C   UNL     1      11.847   2.617   1.764  1.00  0.00     0.020 A 
ATOM     78  C   UNL     1      10.673   1.590  -0.097  1.00  0.00     0.020 A 
ATOM     79  C   UNL     1      11.526   1.489   1.003  1.00  0.00     0.054 A 
BRANCH  79  80
ATOM     80  S   UNL     1      12.197  -0.122   1.501  1.00  0.00     0.124 S 
ATOM     81  O   UNL     1      13.593  -0.008   1.093  1.00  0.00    -0.237 OA
ATOM     82  O   UNL     1      11.956  -0.132   2.942  1.00  0.00    -0.237 OA
ATOM     83  O   UNL     1      11.396  -1.075   0.737  1.00  0.00    -0.744 OA
ENDBRANCH  79  80
ENDBRANCH  51  74
BRANCH  63  84
ATOM     84  C   UNL     1      13.127   9.848  -2.365  1.00  0.00    -0.014 A 
ATOM     85  C   UNL     1      13.719   9.348  -3.537  1.00  0.00     0.010 A 
ATOM     86  C   UNL     1      13.821  10.802  -1.597  1.00  0.00     0.010 A 
ATOM     87  C   UNL     1      14.987   9.786  -3.930  1.00  0.00     0.020 A 
ATOM     88  C   UNL     1      15.078  11.261  -2.000  1.00  0.00     0.020 A 
ATOM     89  C   UNL     1      15.656  10.744  -3.161  1.00  0.00     0.054 A 
BRANCH  89  90
ATOM     90  S   UNL     1      17.267  11.351  -3.733  1.00  0.00     0.124 S 
ATOM     91  O   UNL     1      18.139  10.214  -3.449  1.00  0.00    -0.237 OA
ATOM     92  O   UNL     1      17.024  11.619  -5.148  1.00  0.00    -0.237 OA
ATOM     93  O   UNL     1      17.502  12.537  -2.912  1.00  0.00    -0.744 OA
ENDBRANCH  89  90
ENDBRANCH  63  84
ENDBRANCH  37  38
ENDBRANCH  29  32
ENDBRANCH  27  28
ENDBRANCH   1  27
TORSDOF 16
