REMARK SMILES C[C@@H]1SC[C@H](C(=O)NCCCNC(=O)c2ccc(-c3c4nc(c(-c5ccc(S(=O)(=O)[O-])cc5)c5ccc([nH]5)c(-c5ccc(S(=O)(=O)[O-])cc5)c5nc(c(-c6ccc(S(=O)(=O)[O-])cc6)c6ccc3[nH]6)C=C5)C=C4)cc2)N1C(=O)N(C)[C@@H](C)Cc1cccs1
REMARK SMILES IDX 9 1 8 2 6 3 7 4 5 6 1 7 2 8 3 9 75 10 4 11 76 12 77 13 78 14
REMARK SMILES IDX 79 15 80 16 81 17 82 18 83 19 84 20 87 21 85 22 86 23 10 24
REMARK SMILES IDX 11 25 12 26 13 27 14 29 15 30 16 31 74 32 17 33 73 34 18 35
REMARK SMILES IDX 19 36 20 37 67 38 21 39 72 40 66 41 68 42 22 43 71 44 65 45
REMARK SMILES IDX 64 46 23 48 53 49 34 50 52 51 35 52 38 53 51 54 69 55 36 56
REMARK SMILES IDX 37 57 50 59 70 60 39 61 24 62 25 63 33 64 26 65 32 66 27 67
REMARK SMILES IDX 28 68 29 69 30 70 31 71 54 72 55 73 63 74 56 75 62 76 57 77
REMARK SMILES IDX 58 78 59 79 60 80 61 81 40 82 41 83 49 84 42 85 48 86 43 87
REMARK SMILES IDX 44 88 45 89 46 90 47 91
REMARK H PARENT 8 5 12 28 68 47 38 58
REMARK Flexibility Score: inf
ROOT
ATOM      1  C   UNL     1      -2.475   2.734   0.392  1.00  0.00     0.117 C 
ENDROOT
BRANCH   1   2
ATOM      2  N   UNL     1      -3.089   2.760  -0.918  1.00  0.00    -0.354 N 
ATOM      3  C   UNL     1      -2.647   2.260  -2.103  1.00  0.00     0.243 C 
ATOM      4  O   UNL     1      -3.292   2.565  -3.114  1.00  0.00    -0.273 OA
ATOM      5  H   UNL     1      -3.963   3.211  -0.959  1.00  0.00     0.163 HD
BRANCH   3   6
ATOM      6  C   UNL     1      -1.288   1.537  -2.242  1.00  0.00     0.187 C 
ATOM      7  C   UNL     1       1.234   0.715   0.268  1.00  0.00     0.043 C 
ATOM      8  C   UNL     1       0.642   0.511  -1.127  1.00  0.00     0.142 C 
ATOM      9  S   UNL     1       1.312   1.810  -2.226  1.00  0.00    -0.135 SA
ATOM     10  N   UNL     1      -0.821   0.562  -1.216  1.00  0.00    -0.300 N 
ATOM     11  C   UNL     1      -0.260   2.655  -2.377  1.00  0.00     0.107 C 
BRANCH  10  12
ATOM     12  C   UNL     1      -1.772  -0.352  -0.815  1.00  0.00     0.321 C 
ATOM     13  O   UNL     1      -2.931  -0.198  -1.218  1.00  0.00    -0.248 OA
BRANCH  12  14
ATOM     14  N   UNL     1      -1.522  -1.395   0.049  1.00  0.00    -0.325 N 
ATOM     15  C   UNL     1      -0.248  -2.001   0.395  1.00  0.00     0.149 C 
BRANCH  14  16
ATOM     16  C   UNL     1      -2.699  -2.131   0.608  1.00  0.00     0.088 C 
ATOM     17  C   UNL     1      -3.595  -1.232   1.474  1.00  0.00     0.031 C 
BRANCH  16  18
ATOM     18  C   UNL     1      -3.528  -2.907  -0.451  1.00  0.00     0.071 C 
BRANCH  18  19
ATOM     19  C   UNL     1      -2.680  -3.842  -1.276  1.00  0.00     0.007 A 
ATOM     20  C   UNL     1      -1.831  -3.524  -2.319  1.00  0.00     0.015 A 
ATOM     21  S   UNL     1      -2.689  -5.527  -0.972  1.00  0.00    -0.149 S 
ATOM     22  C   UNL     1      -1.140  -4.658  -2.826  1.00  0.00     0.012 A 
ATOM     23  C   UNL     1      -1.531  -5.817  -2.196  1.00  0.00     0.065 A 
ENDBRANCH  18  19
ENDBRANCH  16  18
ENDBRANCH  14  16
ENDBRANCH  12  14
ENDBRANCH  10  12
ENDBRANCH   3   6
ENDBRANCH   1   2
BRANCH   1  24
ATOM     24  C   UNL     1      -2.313   4.139   0.950  1.00  0.00     0.042 C 
BRANCH  24  25
ATOM     25  C   UNL     1      -3.633   4.857   1.191  1.00  0.00     0.118 C 
BRANCH  25  26
ATOM     26  N   UNL     1      -4.441   4.207   2.214  1.00  0.00    -0.352 N 
ATOM     27  C   UNL     1      -4.857   4.683   3.431  1.00  0.00     0.251 C 
ATOM     28  H   UNL     1      -4.731   3.291   2.000  1.00  0.00     0.163 HD
ATOM     29  O   UNL     1      -5.346   3.907   4.253  1.00  0.00    -0.269 OA
BRANCH  27  30
ATOM     30  C   UNL     1      -4.702   6.115   3.762  1.00  0.00     0.039 A 
ATOM     31  C   UNL     1      -4.287   6.476   5.046  1.00  0.00     0.014 A 
ATOM     32  C   UNL     1      -4.977   7.103   2.812  1.00  0.00     0.014 A 
ATOM     33  C   UNL     1      -4.097   7.823   5.358  1.00  0.00     0.010 A 
ATOM     34  C   UNL     1      -4.691   8.435   3.094  1.00  0.00     0.010 A 
ATOM     35  C   UNL     1      -4.267   8.813   4.375  1.00  0.00    -0.014 A 
BRANCH  35  36
ATOM     36  C   UNL     1      -4.039  10.249   4.677  1.00  0.00     0.031 A 
ATOM     37  C   UNL     1      -5.175  11.232   4.564  1.00  0.00     0.074 A 
ATOM     38  C   UNL     1      -2.803  10.678   5.002  1.00  0.00     0.049 A 
ATOM     39  N   UNL     1      -5.165  12.528   4.743  1.00  0.00    -0.248 NA
ATOM     40  C   UNL     1      -6.489  10.693   4.171  1.00  0.00     0.031 C 
ATOM     41  C   UNL     1      -1.610   9.832   5.102  1.00  0.00     0.029 A 
ATOM     42  N   UNL     1      -2.343  11.934   5.307  1.00  0.00    -0.354 N 
ATOM     43  C   UNL     1      -6.459  12.958   4.468  1.00  0.00     0.074 A 
ATOM     44  C   UNL     1      -7.212  11.796   4.052  1.00  0.00     0.031 C 
ATOM     45  C   UNL     1      -0.566  10.588   5.478  1.00  0.00     0.029 A 
ATOM     46  C   UNL     1      -1.001  11.975   5.603  1.00  0.00     0.049 A 
ATOM     47  H   UNL     1      -2.920  12.732   5.313  1.00  0.00     0.167 HD
ATOM     48  C   UNL     1      -6.982  14.202   4.576  1.00  0.00     0.031 A 
ATOM     49  C   UNL     1      -0.208  13.012   5.935  1.00  0.00     0.031 A 
ATOM     50  C   UNL     1      -6.233  15.354   5.003  1.00  0.00     0.049 A 
ATOM     51  C   UNL     1      -0.810  14.387   6.040  1.00  0.00     0.074 A 
ATOM     52  C   UNL     1      -6.683  16.648   5.199  1.00  0.00     0.029 A 
ATOM     53  N   UNL     1      -4.879  15.351   5.301  1.00  0.00    -0.354 N 
ATOM     54  N   UNL     1      -2.052  14.761   5.841  1.00  0.00    -0.248 NA
ATOM     55  C   UNL     1       0.094  15.478   6.428  1.00  0.00     0.031 C 
ATOM     56  C   UNL     1      -5.588  17.440   5.559  1.00  0.00     0.029 A 
ATOM     57  C   UNL     1      -4.470  16.626   5.654  1.00  0.00     0.049 A 
ATOM     58  H   UNL     1      -4.294  14.560   5.266  1.00  0.00     0.167 HD
ATOM     59  C   UNL     1      -2.083  16.126   6.109  1.00  0.00     0.074 A 
ATOM     60  C   UNL     1      -0.741  16.505   6.502  1.00  0.00     0.031 C 
ATOM     61  C   UNL     1      -3.128  16.988   6.038  1.00  0.00     0.031 A 
BRANCH  48  62
ATOM     62  C   UNL     1      -8.436  14.380   4.220  1.00  0.00    -0.014 A 
ATOM     63  C   UNL     1      -9.455  13.824   5.016  1.00  0.00     0.010 A 
ATOM     64  C   UNL     1      -8.792  15.144   3.093  1.00  0.00     0.010 A 
ATOM     65  C   UNL     1     -10.798  13.990   4.668  1.00  0.00     0.020 A 
ATOM     66  C   UNL     1     -10.136  15.339   2.759  1.00  0.00     0.020 A 
ATOM     67  C   UNL     1     -11.129  14.746   3.540  1.00  0.00     0.054 A 
BRANCH  67  68
ATOM     68  S   UNL     1     -12.882  14.965   3.127  1.00  0.00     0.124 S 
ATOM     69  O   UNL     1     -13.247  13.633   2.648  1.00  0.00    -0.237 OA
ATOM     70  O   UNL     1     -13.466  15.353   4.408  1.00  0.00    -0.237 OA
ATOM     71  O   UNL     1     -12.871  16.011   2.108  1.00  0.00    -0.744 OA
ENDBRANCH  67  68
ENDBRANCH  48  62
BRANCH  49  72
ATOM     72  C   UNL     1       1.238  12.787   6.209  1.00  0.00    -0.014 A 
ATOM     73  C   UNL     1       1.749  12.925   7.512  1.00  0.00     0.010 A 
ATOM     74  C   UNL     1       2.113  12.427   5.168  1.00  0.00     0.010 A 
ATOM     75  C   UNL     1       3.110  12.728   7.765  1.00  0.00     0.020 A 
ATOM     76  C   UNL     1       3.469  12.199   5.422  1.00  0.00     0.020 A 
ATOM     77  C   UNL     1       3.961  12.363   6.718  1.00  0.00     0.054 A 
BRANCH  77  78
ATOM     78  S   UNL     1       5.715  12.066   7.079  1.00  0.00     0.124 S 
ATOM     79  O   UNL     1       6.209  13.419   7.316  1.00  0.00    -0.237 OA
ATOM     80  O   UNL     1       5.652  11.200   8.253  1.00  0.00    -0.237 OA
ATOM     81  O   UNL     1       6.209  11.422   5.864  1.00  0.00    -0.744 OA
ENDBRANCH  77  78
ENDBRANCH  49  72
BRANCH  61  82
ATOM     82  C   UNL     1      -2.871  18.420   6.426  1.00  0.00    -0.014 A 
ATOM     83  C   UNL     1      -2.093  19.270   5.619  1.00  0.00     0.010 A 
ATOM     84  C   UNL     1      -3.454  18.934   7.599  1.00  0.00     0.010 A 
ATOM     85  C   UNL     1      -1.868  20.595   6.001  1.00  0.00     0.020 A 
ATOM     86  C   UNL     1      -3.259  20.268   7.967  1.00  0.00     0.020 A 
ATOM     87  C   UNL     1      -2.451  21.085   7.174  1.00  0.00     0.054 A 
BRANCH  87  88
ATOM     88  S   UNL     1      -2.167  22.817   7.632  1.00  0.00     0.124 S 
ATOM     89  O   UNL     1      -0.776  22.789   8.074  1.00  0.00    -0.237 OA
ATOM     90  O   UNL     1      -2.416  23.524   6.378  1.00  0.00    -0.237 OA
ATOM     91  O   UNL     1      -3.151  23.063   8.685  1.00  0.00    -0.744 OA
ENDBRANCH  87  88
ENDBRANCH  61  82
ENDBRANCH  35  36
ENDBRANCH  27  30
ENDBRANCH  25  26
ENDBRANCH  24  25
ENDBRANCH   1  24
TORSDOF 18
