REMARK SMILES Cc1c(Cl)ccc2c1C=C(C(=O)NCCCNC(=O)c1ccc(-c3c4nc(c(-c5ccc(S(=O)(=O)[O-])cc5)c5ccc([nH]5)c(-c5ccc(S(=O)(=O)[O-])cc5)c5nc(c(-c6ccc(S(=O)(=O)[O-])cc6)c6ccc3[nH]6)C=C5)C=C4)cc1)[C@@H](C(F)(F)F)O2
REMARK SMILES IDX 16 1 15 2 14 3 13 4 11 5 12 6 10 8 1 9 2 10 3 11 8 12 4 13
REMARK SMILES IDX 5 14 7 15 9 16 6 17 85 18 80 19 81 20 82 21 83 22 84 23
REMARK SMILES IDX 17 24 18 25 19 27 20 28 21 29 79 30 22 31 78 32 23 33 24 34
REMARK SMILES IDX 25 35 72 36 26 37 77 38 71 39 73 40 27 41 76 42 70 43 69 44
REMARK SMILES IDX 28 46 58 47 39 48 57 49 40 50 43 51 56 52 74 53 41 54 42 55
REMARK SMILES IDX 55 57 75 58 44 59 29 60 30 61 38 62 31 63 37 64 32 65 33 66
REMARK SMILES IDX 34 67 35 68 36 69 59 70 60 71 68 72 61 73 67 74 62 75 63 76
REMARK SMILES IDX 64 77 65 78 66 79 45 80 46 81 54 82 47 83 53 84 48 85 49 86
REMARK SMILES IDX 50 87 51 88 52 89
REMARK H PARENT 13 7 17 26 73 45 43 56
REMARK Flexibility Score: inf
ROOT
ATOM      1  C   UNL     1      -2.125   4.275   7.656  1.00  0.00     0.118 C 
ENDROOT
BRANCH   1   2
ATOM      2  C   UNL     1      -1.890   2.813   7.290  1.00  0.00     0.042 C 
BRANCH   2   3
ATOM      3  C   UNL     1      -2.695   2.394   6.068  1.00  0.00     0.118 C 
BRANCH   3   4
ATOM      4  N   UNL     1      -2.110   2.906   4.836  1.00  0.00    -0.352 N 
ATOM      5  C   UNL     1      -1.438   2.412   3.772  1.00  0.00     0.251 C 
ATOM      6  O   UNL     1      -1.104   3.254   2.931  1.00  0.00    -0.270 OA
ATOM      7  H   UNL     1      -2.240   3.878   4.756  1.00  0.00     0.163 HD
BRANCH   5   8
ATOM      8  C   UNL     1      -1.108   0.974   3.549  1.00  0.00     0.067 C 
ATOM      9  C   UNL     1       0.926  -0.059  -0.180  1.00  0.00     0.047 C 
ATOM     10  C   UNL     1       0.582  -1.055   0.899  1.00  0.00    -0.021 A 
ATOM     11  C   UNL     1       0.897  -2.419   0.705  1.00  0.00     0.044 A 
ATOM     12  C   UNL     1      -0.013  -0.673   2.126  1.00  0.00     0.022 A 
ATOM     13  Cl  UNL     1       1.665  -2.983  -0.742  1.00  0.00    -0.084 Cl
ATOM     14  C   UNL     1       0.614  -3.377   1.680  1.00  0.00     0.024 A 
ATOM     15  C   UNL     1      -0.301  -1.657   3.085  1.00  0.00     0.128 A 
ATOM     16  C   UNL     1      -0.328   0.714   2.483  1.00  0.00     0.026 C 
ATOM     17  C   UNL     1       0.016  -2.995   2.872  1.00  0.00     0.048 A 
ATOM     18  O   UNL     1      -0.861  -1.379   4.300  1.00  0.00    -0.475 OA
ATOM     19  C   UNL     1      -1.621  -0.148   4.398  1.00  0.00     0.314 C 
BRANCH  19  20
ATOM     20  C   UNL     1      -3.113  -0.449   4.161  1.00  0.00     0.429 C 
ATOM     21  F   UNL     1      -3.618  -1.188   5.180  1.00  0.00    -0.167 F 
ATOM     22  F   UNL     1      -3.868   0.673   4.093  1.00  0.00    -0.167 F 
ATOM     23  F   UNL     1      -3.331  -1.135   3.017  1.00  0.00    -0.167 F 
ENDBRANCH  19  20
ENDBRANCH   5   8
ENDBRANCH   3   4
ENDBRANCH   2   3
ENDBRANCH   1   2
BRANCH   1  24
ATOM     24  N   UNL     1      -3.495   4.497   8.110  1.00  0.00    -0.352 N 
ATOM     25  C   UNL     1      -3.980   4.590   9.390  1.00  0.00     0.251 C 
ATOM     26  H   UNL     1      -4.166   4.594   7.396  1.00  0.00     0.163 HD
ATOM     27  O   UNL     1      -5.186   4.470   9.602  1.00  0.00    -0.269 OA
BRANCH  25  28
ATOM     28  C   UNL     1      -3.047   4.834  10.505  1.00  0.00     0.039 A 
ATOM     29  C   UNL     1      -3.164   4.091  11.682  1.00  0.00     0.014 A 
ATOM     30  C   UNL     1      -2.064   5.820  10.382  1.00  0.00     0.014 A 
ATOM     31  C   UNL     1      -2.253   4.301  12.718  1.00  0.00     0.010 A 
ATOM     32  C   UNL     1      -1.113   5.974  11.381  1.00  0.00     0.010 A 
ATOM     33  C   UNL     1      -1.210   5.228  12.564  1.00  0.00    -0.014 A 
BRANCH  33  34
ATOM     34  C   UNL     1      -0.235   5.481  13.649  1.00  0.00     0.031 A 
ATOM     35  C   UNL     1      -0.232   6.817  14.338  1.00  0.00     0.074 A 
ATOM     36  C   UNL     1       0.672   4.540  13.971  1.00  0.00     0.049 A 
ATOM     37  N   UNL     1       0.576   7.261  15.264  1.00  0.00    -0.248 NA
ATOM     38  C   UNL     1      -1.257   7.789  13.917  1.00  0.00     0.031 C 
ATOM     39  C   UNL     1       0.781   3.219  13.348  1.00  0.00     0.029 A 
ATOM     40  N   UNL     1       1.678   4.553  14.903  1.00  0.00    -0.354 N 
ATOM     41  C   UNL     1       0.164   8.561  15.528  1.00  0.00     0.074 A 
ATOM     42  C   UNL     1      -0.930   8.855  14.631  1.00  0.00     0.031 C 
ATOM     43  C   UNL     1       1.778   2.537  13.937  1.00  0.00     0.029 A 
ATOM     44  C   UNL     1       2.397   3.383  14.954  1.00  0.00     0.049 A 
ATOM     45  H   UNL     1       1.866   5.327  15.481  1.00  0.00     0.167 HD
ATOM     46  C   UNL     1       0.639   9.423  16.454  1.00  0.00     0.031 A 
ATOM     47  C   UNL     1       3.437   3.031  15.735  1.00  0.00     0.031 A 
ATOM     48  C   UNL     1       1.708   9.117  17.361  1.00  0.00     0.049 A 
ATOM     49  C   UNL     1       3.958   4.011  16.748  1.00  0.00     0.074 A 
ATOM     50  C   UNL     1       2.229   9.906  18.370  1.00  0.00     0.029 A 
ATOM     51  N   UNL     1       2.414   7.924  17.374  1.00  0.00    -0.354 N 
ATOM     52  N   UNL     1       3.533   5.224  17.007  1.00  0.00    -0.248 NA
ATOM     53  C   UNL     1       5.091   3.577  17.577  1.00  0.00     0.031 C 
ATOM     54  C   UNL     1       3.277   9.204  18.971  1.00  0.00     0.029 A 
ATOM     55  C   UNL     1       3.378   7.961  18.364  1.00  0.00     0.049 A 
ATOM     56  H   UNL     1       2.253   7.165  16.769  1.00  0.00     0.167 HD
ATOM     57  C   UNL     1       4.334   5.693  18.041  1.00  0.00     0.074 A 
ATOM     58  C   UNL     1       5.266   4.632  18.364  1.00  0.00     0.031 C 
ATOM     59  C   UNL     1       4.296   6.893  18.668  1.00  0.00     0.031 A 
BRANCH  46  60
ATOM     60  C   UNL     1      -0.010  10.775  16.547  1.00  0.00    -0.014 A 
ATOM     61  C   UNL     1      -1.287  10.919  17.118  1.00  0.00     0.010 A 
ATOM     62  C   UNL     1       0.685  11.919  16.116  1.00  0.00     0.010 A 
ATOM     63  C   UNL     1      -1.866  12.183  17.240  1.00  0.00     0.020 A 
ATOM     64  C   UNL     1       0.117  13.188  16.256  1.00  0.00     0.020 A 
ATOM     65  C   UNL     1      -1.157  13.311  16.814  1.00  0.00     0.054 A 
BRANCH  65  66
ATOM     66  S   UNL     1      -1.927  14.939  17.019  1.00  0.00     0.124 S 
ATOM     67  O   UNL     1      -3.126  14.816  16.194  1.00  0.00    -0.237 OA
ATOM     68  O   UNL     1      -2.159  14.997  18.460  1.00  0.00    -0.237 OA
ATOM     69  O   UNL     1      -0.920  15.868  16.512  1.00  0.00    -0.744 OA
ENDBRANCH  65  66
ENDBRANCH  46  60
BRANCH  47  70
ATOM     70  C   UNL     1       4.024   1.671  15.603  1.00  0.00    -0.014 A 
ATOM     71  C   UNL     1       3.735   0.682  16.559  1.00  0.00     0.010 A 
ATOM     72  C   UNL     1       4.823   1.342  14.494  1.00  0.00     0.010 A 
ATOM     73  C   UNL     1       4.229  -0.616  16.404  1.00  0.00     0.020 A 
ATOM     74  C   UNL     1       5.304   0.040  14.327  1.00  0.00     0.020 A 
ATOM     75  C   UNL     1       5.000  -0.932  15.282  1.00  0.00     0.054 A 
BRANCH  75  76
ATOM     76  S   UNL     1       5.568  -2.643  15.075  1.00  0.00     0.124 S 
ATOM     77  O   UNL     1       6.392  -2.841  16.263  1.00  0.00    -0.237 OA
ATOM     78  O   UNL     1       4.309  -3.382  15.047  1.00  0.00    -0.237 OA
ATOM     79  O   UNL     1       6.296  -2.613  13.808  1.00  0.00    -0.744 OA
ENDBRANCH  75  76
ENDBRANCH  47  70
BRANCH  59  80
ATOM     80  C   UNL     1       5.275   7.139  19.780  1.00  0.00    -0.014 A 
ATOM     81  C   UNL     1       6.606   7.487  19.499  1.00  0.00     0.010 A 
ATOM     82  C   UNL     1       4.820   7.159  21.112  1.00  0.00     0.010 A 
ATOM     83  C   UNL     1       7.467   7.858  20.533  1.00  0.00     0.020 A 
ATOM     84  C   UNL     1       5.673   7.548  22.146  1.00  0.00     0.020 A 
ATOM     85  C   UNL     1       6.991   7.899  21.849  1.00  0.00     0.054 A 
BRANCH  85  86
ATOM     86  S   UNL     1       8.113   8.466  23.156  1.00  0.00     0.124 S 
ATOM     87  O   UNL     1       9.176   7.465  23.105  1.00  0.00    -0.237 OA
ATOM     88  O   UNL     1       8.484   9.801  22.694  1.00  0.00    -0.237 OA
ATOM     89  O   UNL     1       7.288   8.433  24.362  1.00  0.00    -0.744 OA
ENDBRANCH  85  86
ENDBRANCH  59  80
ENDBRANCH  33  34
ENDBRANCH  25  28
ENDBRANCH   1  24
TORSDOF 14
