REMARK SMILES Cc1ccc(S(=O)(=O)n2cc(C(=O)C(=O)NCC(=O)NCC(=O)NCCCNC(=O)c3ccc(-c4c5nc(c(-c6ccc(S(=O)(=O)[O-])cc6)c6ccc([nH]6)c(-c6ccc(S(=O)(=O)[O-])cc6)c6nc(c(-c7ccc(S(=O)(=O)[O-])cc7)c7ccc4[nH]7)C=C6)C=C5)cc3)c3ccccc32)cc1
REMARK SMILES IDX 22 1 23 2 24 3 21 5 20 6 18 7 19 8 17 10 16 11 14 12 15 13
REMARK SMILES IDX 12 15 13 16 11 17 9 18 10 19 96 20 91 21 95 22 92 23 94 24
REMARK SMILES IDX 93 25 6 26 7 27 8 28 5 29 1 30 2 31 3 32 98 33 4 34 97 35
REMARK SMILES IDX 25 36 26 37 27 38 28 39 29 40 30 42 31 43 32 44 90 45 33 46
REMARK SMILES IDX 89 47 34 48 35 49 36 50 83 51 37 52 88 53 82 54 84 55 38 56
REMARK SMILES IDX 87 57 81 58 80 59 39 61 69 62 50 63 68 64 51 65 54 66 67 67
REMARK SMILES IDX 85 68 52 69 53 70 66 72 86 73 55 74 40 75 41 76 49 77 42 78
REMARK SMILES IDX 48 79 43 80 44 81 45 82 46 83 47 84 70 85 71 86 79 87 72 88
REMARK SMILES IDX 78 89 73 90 74 91 75 92 76 93 77 94 56 95 57 96 65 97 58 98
REMARK SMILES IDX 64 99 59 100 60 101 61 102 62 103 63 104
REMARK H PARENT 24 4 20 9 16 14 28 41 84 60 54 71
REMARK Flexibility Score: inf
ROOT
ATOM      1  C   UNL     1     -10.107   3.411   1.156  1.00  0.00     0.239 C 
ATOM      2  O   UNL     1     -10.609   2.830   0.192  1.00  0.00    -0.273 OA
ATOM      3  N   UNL     1     -10.131   2.801   2.381  1.00  0.00    -0.355 N 
ATOM      4  H   UNL     1     -10.725   2.020   2.466  1.00  0.00     0.163 HD
ENDROOT
BRANCH   1   5
ATOM      5  C   UNL     1      -9.352   4.741   0.965  1.00  0.00     0.216 C 
BRANCH   5   6
ATOM      6  N   UNL     1      -9.799   5.801   1.852  1.00  0.00    -0.346 N 
ATOM      7  C   UNL     1      -9.133   6.641   2.686  1.00  0.00     0.239 C 
ATOM      8  O   UNL     1      -9.808   7.512   3.247  1.00  0.00    -0.273 OA
ATOM      9  H   UNL     1     -10.774   5.936   1.849  1.00  0.00     0.164 HD
BRANCH   7  10
ATOM     10  C   UNL     1      -7.605   6.631   2.857  1.00  0.00     0.216 C 
BRANCH  10  11
ATOM     11  N   UNL     1      -6.981   5.408   3.357  1.00  0.00    -0.340 N 
ATOM     12  C   UNL     1      -6.139   4.490   2.762  1.00  0.00     0.292 C 
ATOM     13  O   UNL     1      -5.763   3.514   3.400  1.00  0.00    -0.265 OA
ATOM     14  H   UNL     1      -7.203   5.200   4.294  1.00  0.00     0.164 HD
BRANCH  12  15
ATOM     15  C   UNL     1      -5.682   4.666   1.305  1.00  0.00     0.252 C 
ATOM     16  O   UNL     1      -5.876   5.759   0.778  1.00  0.00    -0.283 OA
BRANCH  15  17
ATOM     17  C   UNL     1      -5.028   3.597   0.536  1.00  0.00     0.054 A 
ATOM     18  N   UNL     1      -4.152   1.661  -0.157  1.00  0.00    -0.240 N 
ATOM     19  C   UNL     1      -4.831   2.268   0.874  1.00  0.00     0.117 A 
ATOM     20  C   UNL     1      -3.889   2.554  -1.176  1.00  0.00     0.065 A 
ATOM     21  C   UNL     1      -4.436   3.774  -0.765  1.00  0.00     0.012 A 
ATOM     22  C   UNL     1      -3.201   2.431  -2.397  1.00  0.00     0.028 A 
ATOM     23  C   UNL     1      -4.302   4.894  -1.615  1.00  0.00     0.011 A 
ATOM     24  C   UNL     1      -3.061   3.567  -3.200  1.00  0.00     0.002 A 
ATOM     25  C   UNL     1      -3.609   4.784  -2.819  1.00  0.00     0.001 A 
BRANCH  18  26
ATOM     26  S   UNL     1      -3.592   0.050  -0.123  1.00  0.00     0.268 S 
ATOM     27  O   UNL     1      -3.905  -0.491  -1.429  1.00  0.00    -0.201 OA
ATOM     28  O   UNL     1      -4.115  -0.534   1.101  1.00  0.00    -0.201 OA
BRANCH  26  29
ATOM     29  C   UNL     1      -1.821   0.088   0.022  1.00  0.00     0.088 A 
ATOM     30  C   UNL     1       2.481  -0.045   0.026  1.00  0.00     0.044 C 
ATOM     31  C   UNL     1       0.981   0.005   0.044  1.00  0.00    -0.051 A 
ATOM     32  C   UNL     1       0.240  -1.180  -0.031  1.00  0.00     0.005 A 
ATOM     33  C   UNL     1       0.305   1.228   0.141  1.00  0.00     0.005 A 
ATOM     34  C   UNL     1      -1.155  -1.141  -0.048  1.00  0.00     0.022 A 
ATOM     35  C   UNL     1      -1.093   1.272   0.143  1.00  0.00     0.022 A 
ENDBRANCH  26  29
ENDBRANCH  18  26
ENDBRANCH  15  17
ENDBRANCH  12  15
ENDBRANCH  10  11
ENDBRANCH   7  10
ENDBRANCH   5   6
ENDBRANCH   1   5
BRANCH   3  36
ATOM     36  C   UNL     1      -9.384   3.170   3.569  1.00  0.00     0.117 C 
BRANCH  36  37
ATOM     37  C   UNL     1     -10.149   4.097   4.500  1.00  0.00     0.042 C 
BRANCH  37  38
ATOM     38  C   UNL     1     -10.912   3.322   5.545  1.00  0.00     0.118 C 
BRANCH  38  39
ATOM     39  N   UNL     1     -10.209   3.124   6.805  1.00  0.00    -0.352 N 
ATOM     40  C   UNL     1     -10.869   2.898   8.013  1.00  0.00     0.251 C 
ATOM     41  H   UNL     1      -9.225   3.151   6.804  1.00  0.00     0.163 HD
ATOM     42  O   UNL     1     -10.581   3.451   9.065  1.00  0.00    -0.269 OA
BRANCH  40  43
ATOM     43  C   UNL     1     -11.877   1.815   7.978  1.00  0.00     0.039 A 
ATOM     44  C   UNL     1     -11.595   0.612   8.635  1.00  0.00     0.014 A 
ATOM     45  C   UNL     1     -12.865   1.889   7.005  1.00  0.00     0.014 A 
ATOM     46  C   UNL     1     -12.152  -0.563   8.153  1.00  0.00     0.010 A 
ATOM     47  C   UNL     1     -13.229   0.730   6.390  1.00  0.00     0.010 A 
ATOM     48  C   UNL     1     -12.864  -0.490   6.965  1.00  0.00    -0.014 A 
BRANCH  48  49
ATOM     49  C   UNL     1     -13.453  -1.600   6.260  1.00  0.00     0.031 A 
ATOM     50  C   UNL     1     -14.896  -1.793   6.494  1.00  0.00     0.074 A 
ATOM     51  C   UNL     1     -12.736  -2.112   5.237  1.00  0.00     0.049 A 
ATOM     52  N   UNL     1     -15.558  -2.812   6.099  1.00  0.00    -0.248 NA
ATOM     53  C   UNL     1     -15.731  -0.829   7.228  1.00  0.00     0.031 C 
ATOM     54  C   UNL     1     -13.181  -2.876   4.080  1.00  0.00     0.029 A 
ATOM     55  N   UNL     1     -11.347  -2.191   5.170  1.00  0.00    -0.354 N 
ATOM     56  C   UNL     1     -16.895  -2.486   6.193  1.00  0.00     0.074 A 
ATOM     57  C   UNL     1     -16.962  -1.294   6.991  1.00  0.00     0.031 C 
ATOM     58  C   UNL     1     -12.138  -3.576   3.593  1.00  0.00     0.029 A 
ATOM     59  C   UNL     1     -11.025  -3.390   4.516  1.00  0.00     0.049 A 
ATOM     60  H   UNL     1     -10.708  -1.527   5.517  1.00  0.00     0.167 HD
ATOM     61  C   UNL     1     -17.770  -3.183   5.424  1.00  0.00     0.031 A 
ATOM     62  C   UNL     1     -10.459  -4.397   5.254  1.00  0.00     0.031 A 
ATOM     63  C   UNL     1     -17.059  -4.237   4.710  1.00  0.00     0.049 A 
ATOM     64  C   UNL     1     -11.426  -5.551   5.453  1.00  0.00     0.074 A 
ATOM     65  C   UNL     1     -16.517  -4.301   3.437  1.00  0.00     0.029 A 
ATOM     66  N   UNL     1     -16.441  -5.227   5.458  1.00  0.00    -0.354 N 
ATOM     67  N   UNL     1     -12.729  -5.439   5.412  1.00  0.00    -0.248 NA
ATOM     68  C   UNL     1     -10.997  -6.937   5.614  1.00  0.00     0.031 C 
ATOM     69  C   UNL     1     -15.494  -5.290   3.457  1.00  0.00     0.029 A 
ATOM     70  C   UNL     1     -15.430  -5.824   4.733  1.00  0.00     0.049 A 
ATOM     71  H   UNL     1     -16.688  -5.470   6.380  1.00  0.00     0.167 HD
ATOM     72  C   UNL     1     -13.305  -6.683   5.461  1.00  0.00     0.074 A 
ATOM     73  C   UNL     1     -12.176  -7.586   5.607  1.00  0.00     0.031 C 
ATOM     74  C   UNL     1     -14.651  -6.893   5.340  1.00  0.00     0.031 A 
BRANCH  61  75
ATOM     75  C   UNL     1     -19.178  -2.771   5.106  1.00  0.00    -0.014 A 
ATOM     76  C   UNL     1     -19.726  -3.201   3.880  1.00  0.00     0.010 A 
ATOM     77  C   UNL     1     -20.010  -1.988   5.929  1.00  0.00     0.010 A 
ATOM     78  C   UNL     1     -21.021  -2.867   3.481  1.00  0.00     0.020 A 
ATOM     79  C   UNL     1     -21.313  -1.632   5.534  1.00  0.00     0.020 A 
ATOM     80  C   UNL     1     -21.812  -2.083   4.312  1.00  0.00     0.054 A 
BRANCH  80  81
ATOM     81  S   UNL     1     -23.500  -1.709   3.775  1.00  0.00     0.124 S 
ATOM     82  O   UNL     1     -23.279  -1.011   2.510  1.00  0.00    -0.237 OA
ATOM     83  O   UNL     1     -24.094  -3.038   3.662  1.00  0.00    -0.237 OA
ATOM     84  O   UNL     1     -24.033  -0.880   4.853  1.00  0.00    -0.744 OA
ENDBRANCH  80  81
ENDBRANCH  61  75
BRANCH  62  85
ATOM     85  C   UNL     1      -9.454  -3.863   6.239  1.00  0.00    -0.014 A 
ATOM     86  C   UNL     1      -8.299  -3.255   5.685  1.00  0.00     0.010 A 
ATOM     87  C   UNL     1      -9.844  -3.481   7.536  1.00  0.00     0.010 A 
ATOM     88  C   UNL     1      -7.710  -2.139   6.293  1.00  0.00     0.020 A 
ATOM     89  C   UNL     1      -9.231  -2.377   8.162  1.00  0.00     0.020 A 
ATOM     90  C   UNL     1      -8.236  -1.660   7.491  1.00  0.00     0.054 A 
BRANCH  90  91
ATOM     91  S   UNL     1      -7.734   0.004   8.047  1.00  0.00     0.124 S 
ATOM     92  O   UNL     1      -6.283  -0.119   8.136  1.00  0.00    -0.237 OA
ATOM     93  O   UNL     1      -8.232   0.866   6.969  1.00  0.00    -0.237 OA
ATOM     94  O   UNL     1      -8.423   0.157   9.324  1.00  0.00    -0.744 OA
ENDBRANCH  90  91
ENDBRANCH  62  85
BRANCH  74  95
ATOM     95  C   UNL     1     -15.398  -8.155   5.721  1.00  0.00    -0.014 A 
ATOM     96  C   UNL     1     -14.850  -9.194   6.482  1.00  0.00     0.010 A 
ATOM     97  C   UNL     1     -16.785  -8.250   5.426  1.00  0.00     0.010 A 
ATOM     98  C   UNL     1     -15.621 -10.297   6.867  1.00  0.00     0.020 A 
ATOM     99  C   UNL     1     -17.581  -9.304   5.870  1.00  0.00     0.020 A 
ATOM    100  C   UNL     1     -16.981 -10.344   6.560  1.00  0.00     0.054 A 
BRANCH 100 101
ATOM    101  S   UNL     1     -17.958 -11.762   7.100  1.00  0.00     0.124 S 
ATOM    102  O   UNL     1     -17.584 -12.772   6.115  1.00  0.00    -0.237 OA
ATOM    103  O   UNL     1     -17.464 -11.994   8.456  1.00  0.00    -0.237 OA
ATOM    104  O   UNL     1     -19.337 -11.287   7.019  1.00  0.00    -0.744 OA
ENDBRANCH 100 101
ENDBRANCH  74  95
ENDBRANCH  48  49
ENDBRANCH  40  43
ENDBRANCH  38  39
ENDBRANCH  37  38
ENDBRANCH  36  37
ENDBRANCH   3  36
TORSDOF 20
