REMARK SMILES CC(=O)N1CCN(C(=O)c2ccc(=O)n(CCC(=O)NCCCNC(=O)c3ccc(-c4c5nc(c(-c6ccc(S(=O)(=O)[O-])cc6)c6ccc([nH]6)c(-c6ccc(S(=O)(=O)[O-])cc6)c6nc(c(-c7ccc(S(=O)(=O)[O-])cc7)c7ccc4[nH]7)C=C6)C=C5)cc3)n2)CC1
REMARK SMILES IDX 22 1 21 2 20 3 18 4 19 5 17 7 16 8 15 9 10 10 11 11 87 12
REMARK SMILES IDX 12 13 13 14 14 15 8 16 1 17 2 18 3 19 4 20 5 21 89 22 6 23
REMARK SMILES IDX 88 24 7 25 9 26 23 27 24 28 25 29 26 31 27 32 28 33 86 34
REMARK SMILES IDX 29 35 85 36 30 37 31 38 32 39 79 40 33 41 84 42 78 43 80 44
REMARK SMILES IDX 34 45 83 46 77 47 76 48 35 50 65 51 46 52 64 53 47 54 50 55
REMARK SMILES IDX 63 56 81 57 48 58 49 59 62 61 82 62 51 63 36 64 37 65 45 66
REMARK SMILES IDX 38 67 44 68 39 69 40 70 41 71 42 72 43 73 66 74 67 75 75 76
REMARK SMILES IDX 68 77 74 78 69 79 70 80 71 81 72 82 73 83 52 84 53 85 61 86
REMARK SMILES IDX 54 87 60 88 55 89 56 90 57 91 58 92 59 93
REMARK H PARENT 20 6 24 30 80 49 50 60
REMARK Flexibility Score: inf
ROOT
ATOM      1  C   UNL     1       6.774   9.102  -2.776  1.00  0.00     0.042 C 
ENDROOT
BRANCH   1   2
ATOM      2  C   UNL     1       6.524   8.728  -4.241  1.00  0.00     0.117 C 
BRANCH   2   3
ATOM      3  N   UNL     1       7.577   7.855  -4.741  1.00  0.00    -0.356 N 
ATOM      4  C   UNL     1       7.533   6.650  -5.365  1.00  0.00     0.221 C 
ATOM      5  O   UNL     1       8.600   6.139  -5.720  1.00  0.00    -0.275 OA
ATOM      6  H   UNL     1       8.488   8.202  -4.601  1.00  0.00     0.163 HD
BRANCH   4   7
ATOM      7  C   UNL     1       6.227   5.943  -5.624  1.00  0.00     0.124 C 
BRANCH   7   8
ATOM      8  C   UNL     1       6.004   4.840  -4.592  1.00  0.00     0.158 C 
BRANCH   8   9
ATOM      9  N   UNL     1       4.892   5.164  -3.701  1.00  0.00    -0.229 N 
ATOM     10  C   UNL     1       2.631   5.151  -3.406  1.00  0.00     0.149 A 
ATOM     11  C   UNL     1       2.704   6.030  -2.226  1.00  0.00     0.042 A 
ATOM     12  N   UNL     1       3.639   4.776  -4.130  1.00  0.00    -0.164 NA
ATOM     13  C   UNL     1       3.931   6.284  -1.770  1.00  0.00     0.076 A 
ATOM     14  C   UNL     1       5.129   5.788  -2.484  1.00  0.00     0.266 A 
ATOM     15  O   UNL     1       6.239   5.995  -2.004  1.00  0.00    -0.268 OA
BRANCH  10  16
ATOM     16  C   UNL     1       1.261   4.593  -3.736  1.00  0.00     0.274 C 
ATOM     17  C   UNL     1       0.562  -0.778  -0.291  1.00  0.00     0.114 C 
ATOM     18  C   UNL     1      -0.101  -0.357  -1.579  1.00  0.00     0.219 C 
ATOM     19  O   UNL     1      -1.012  -1.025  -2.070  1.00  0.00    -0.275 OA
ATOM     20  N   UNL     1       0.380   0.790  -2.191  1.00  0.00    -0.339 N 
ATOM     21  C   UNL     1      -0.345   1.349  -3.337  1.00  0.00     0.141 C 
ATOM     22  C   UNL     1       1.678   1.403  -1.912  1.00  0.00     0.141 C 
ATOM     23  C   UNL     1      -0.450   2.880  -3.247  1.00  0.00     0.141 C 
ATOM     24  C   UNL     1       1.589   2.931  -1.845  1.00  0.00     0.141 C 
ATOM     25  N   UNL     1       0.855   3.495  -2.989  1.00  0.00    -0.334 N 
ATOM     26  O   UNL     1       0.615   5.139  -4.621  1.00  0.00    -0.267 OA
ENDBRANCH  10  16
ENDBRANCH   8   9
ENDBRANCH   7   8
ENDBRANCH   4   7
ENDBRANCH   2   3
ENDBRANCH   1   2
BRANCH   1  27
ATOM     27  C   UNL     1       6.302  10.504  -2.391  1.00  0.00     0.118 C 
BRANCH  27  28
ATOM     28  N   UNL     1       4.878  10.701  -2.580  1.00  0.00    -0.352 N 
ATOM     29  C   UNL     1       3.797  10.682  -1.739  1.00  0.00     0.251 C 
ATOM     30  H   UNL     1       4.636  10.889  -3.516  1.00  0.00     0.163 HD
ATOM     31  O   UNL     1       2.727  11.053  -2.228  1.00  0.00    -0.269 OA
BRANCH  29  32
ATOM     32  C   UNL     1       3.814  10.242  -0.310  1.00  0.00     0.039 A 
ATOM     33  C   UNL     1       4.787   9.429   0.274  1.00  0.00     0.014 A 
ATOM     34  C   UNL     1       2.701  10.602   0.474  1.00  0.00     0.014 A 
ATOM     35  C   UNL     1       4.641   8.968   1.591  1.00  0.00     0.010 A 
ATOM     36  C   UNL     1       2.558  10.156   1.794  1.00  0.00     0.010 A 
ATOM     37  C   UNL     1       3.522   9.317   2.358  1.00  0.00    -0.014 A 
BRANCH  37  38
ATOM     38  C   UNL     1       3.379   8.805   3.742  1.00  0.00     0.031 A 
ATOM     39  C   UNL     1       2.492   7.630   4.042  1.00  0.00     0.074 A 
ATOM     40  C   UNL     1       4.078   9.378   4.738  1.00  0.00     0.049 A 
ATOM     41  N   UNL     1       2.338   6.989   5.173  1.00  0.00    -0.248 NA
ATOM     42  C   UNL     1       1.677   7.108   2.935  1.00  0.00     0.031 C 
ATOM     43  C   UNL     1       4.965  10.532   4.588  1.00  0.00     0.029 A 
ATOM     44  N   UNL     1       4.166   9.053   6.068  1.00  0.00    -0.354 N 
ATOM     45  C   UNL     1       1.419   5.981   4.916  1.00  0.00     0.074 A 
ATOM     46  C   UNL     1       1.030   6.110   3.526  1.00  0.00     0.031 C 
ATOM     47  C   UNL     1       5.535  10.798   5.775  1.00  0.00     0.029 A 
ATOM     48  C   UNL     1       5.049   9.839   6.766  1.00  0.00     0.049 A 
ATOM     49  H   UNL     1       3.646   8.327   6.482  1.00  0.00     0.167 HD
ATOM     50  C   UNL     1       0.947   5.029   5.755  1.00  0.00     0.031 A 
ATOM     51  C   UNL     1       5.446   9.785   8.052  1.00  0.00     0.031 A 
ATOM     52  C   UNL     1       1.310   4.894   7.138  1.00  0.00     0.049 A 
ATOM     53  C   UNL     1       4.907   8.725   8.966  1.00  0.00     0.074 A 
ATOM     54  C   UNL     1       0.878   3.946   8.051  1.00  0.00     0.029 A 
ATOM     55  N   UNL     1       2.186   5.728   7.812  1.00  0.00    -0.354 N 
ATOM     56  N   UNL     1       4.060   7.763   8.693  1.00  0.00    -0.248 NA
ATOM     57  C   UNL     1       5.383   8.739  10.357  1.00  0.00     0.031 C 
ATOM     58  C   UNL     1       1.482   4.218   9.284  1.00  0.00     0.029 A 
ATOM     59  C   UNL     1       2.304   5.322   9.130  1.00  0.00     0.049 A 
ATOM     60  H   UNL     1       2.656   6.495   7.412  1.00  0.00     0.167 HD
ATOM     61  C   UNL     1       3.907   7.051   9.877  1.00  0.00     0.074 A 
ATOM     62  C   UNL     1       4.751   7.688  10.867  1.00  0.00     0.031 C 
ATOM     63  C   UNL     1       3.136   5.963  10.114  1.00  0.00     0.031 A 
BRANCH  50  64
ATOM     64  C   UNL     1      -0.017   4.033   5.185  1.00  0.00    -0.014 A 
ATOM     65  C   UNL     1      -1.398   4.184   5.393  1.00  0.00     0.010 A 
ATOM     66  C   UNL     1       0.463   2.915   4.480  1.00  0.00     0.010 A 
ATOM     67  C   UNL     1      -2.293   3.237   4.889  1.00  0.00     0.020 A 
ATOM     68  C   UNL     1      -0.429   1.972   3.969  1.00  0.00     0.020 A 
ATOM     69  C   UNL     1      -1.801   2.137   4.182  1.00  0.00     0.054 A 
BRANCH  69  70
ATOM     70  S   UNL     1      -2.958   0.940   3.463  1.00  0.00     0.124 S 
ATOM     71  O   UNL     1      -3.102  -0.032   4.540  1.00  0.00    -0.237 OA
ATOM     72  O   UNL     1      -4.138   1.754   3.180  1.00  0.00    -0.237 OA
ATOM     73  O   UNL     1      -2.239   0.471   2.279  1.00  0.00    -0.744 OA
ENDBRANCH  69  70
ENDBRANCH  50  64
BRANCH  51  74
ATOM     74  C   UNL     1       6.462  10.756   8.524  1.00  0.00    -0.014 A 
ATOM     75  C   UNL     1       6.084  12.059   8.889  1.00  0.00     0.010 A 
ATOM     76  C   UNL     1       7.820  10.399   8.529  1.00  0.00     0.010 A 
ATOM     77  C   UNL     1       7.056  13.005   9.221  1.00  0.00     0.020 A 
ATOM     78  C   UNL     1       8.794  11.341   8.868  1.00  0.00     0.020 A 
ATOM     79  C   UNL     1       8.406  12.645   9.189  1.00  0.00     0.054 A 
BRANCH  79  80
ATOM     80  S   UNL     1       9.673  13.884   9.574  1.00  0.00     0.124 S 
ATOM     81  O   UNL     1       9.957  14.438   8.253  1.00  0.00    -0.237 OA
ATOM     82  O   UNL     1       8.987  14.784  10.498  1.00  0.00    -0.237 OA
ATOM     83  O   UNL     1      10.745  13.089  10.166  1.00  0.00    -0.744 OA
ENDBRANCH  79  80
ENDBRANCH  51  74
BRANCH  63  84
ATOM     84  C   UNL     1       3.154   5.378  11.496  1.00  0.00    -0.014 A 
ATOM     85  C   UNL     1       3.911   4.223  11.758  1.00  0.00     0.010 A 
ATOM     86  C   UNL     1       2.347   5.921  12.510  1.00  0.00     0.010 A 
ATOM     87  C   UNL     1       3.852   3.609  13.012  1.00  0.00     0.020 A 
ATOM     88  C   UNL     1       2.293   5.315  13.769  1.00  0.00     0.020 A 
ATOM     89  C   UNL     1       3.033   4.152  14.006  1.00  0.00     0.054 A 
BRANCH  89  90
ATOM     90  S   UNL     1       2.952   3.352  15.633  1.00  0.00     0.124 S 
ATOM     91  O   UNL     1       1.861   2.398  15.450  1.00  0.00    -0.237 OA
ATOM     92  O   UNL     1       4.282   2.765  15.781  1.00  0.00    -0.237 OA
ATOM     93  O   UNL     1       2.668   4.464  16.538  1.00  0.00    -0.744 OA
ENDBRANCH  89  90
ENDBRANCH  63  84
ENDBRANCH  37  38
ENDBRANCH  29  32
ENDBRANCH  27  28
ENDBRANCH   1  27
TORSDOF 16
