REMARK SMILES O=C(NCCCNC(=O)C1CCN(C(=O)c2cc(S(=O)(=O)N3CCOCC3)c(Cl)cc2Cl)CC1)c1ccc(-c2c3nc(c(-c4ccc(S(=O)(=O)[O-])cc4)c4ccc([nH]4)c(-c4ccc(S(=O)(=O)[O-])cc4)c4nc(c(-c5ccc(S(=O)(=O)[O-])cc5)c5ccc2[nH]5)C=C4)C=C3)cc1
REMARK SMILES IDX 5 1 4 2 3 3 1 4 2 5 35 7 36 8 94 9 37 10 93 11 38 12 39 13
REMARK SMILES IDX 40 14 87 15 41 16 92 17 86 18 88 19 42 20 91 21 85 22 84 23
REMARK SMILES IDX 43 25 73 26 54 27 72 28 55 29 58 30 71 31 89 32 56 33 57 34
REMARK SMILES IDX 70 36 90 37 59 38 44 39 45 40 53 41 46 42 52 43 47 44 48 45
REMARK SMILES IDX 49 46 50 47 51 48 74 49 75 50 83 51 76 52 82 53 77 54 78 55
REMARK SMILES IDX 79 56 80 57 81 58 60 59 61 60 69 61 62 62 68 63 63 64 64 65
REMARK SMILES IDX 65 66 66 67 67 68 6 69 7 70 8 71 9 73 10 74 11 75 34 76
REMARK SMILES IDX 12 77 33 78 13 79 14 80 15 81 16 82 17 83 31 84 18 85 30 86
REMARK SMILES IDX 32 87 28 88 29 89 19 90 20 91 21 92 22 93 23 94 27 95 24 96
REMARK SMILES IDX 26 97 25 98
REMARK H PARENT 3 6 88 24 58 35 7 72
REMARK Flexibility Score: inf
ROOT
ATOM      1  C   UNL     1       5.009   2.503   0.049  1.00  0.00     0.042 C 
ENDROOT
BRANCH   1   2
ATOM      2  C   UNL     1       4.623   1.145   0.619  1.00  0.00     0.118 C 
BRANCH   2   3
ATOM      3  N   UNL     1       3.189   0.899   0.574  1.00  0.00    -0.352 N 
ATOM      4  O   UNL     1       1.263  -0.000  -0.160  1.00  0.00    -0.269 OA
ATOM      5  C   UNL     1       2.487  -0.068  -0.104  1.00  0.00     0.251 C 
ATOM      6  H   UNL     1       2.641   1.518   1.108  1.00  0.00     0.163 HD
BRANCH   5   7
ATOM      7  C   UNL     1       3.204  -1.173  -0.776  1.00  0.00     0.039 A 
ATOM      8  C   UNL     1       4.268  -1.821  -0.144  1.00  0.00     0.014 A 
ATOM      9  C   UNL     1       2.783  -1.591  -2.042  1.00  0.00     0.014 A 
ATOM     10  C   UNL     1       4.992  -2.792  -0.825  1.00  0.00     0.010 A 
ATOM     11  C   UNL     1       3.454  -2.633  -2.689  1.00  0.00     0.010 A 
ATOM     12  C   UNL     1       4.574  -3.231  -2.091  1.00  0.00    -0.014 A 
BRANCH  12  13
ATOM     13  C   UNL     1       5.244  -4.405  -2.703  1.00  0.00     0.031 A 
ATOM     14  C   UNL     1       6.025  -4.288  -3.982  1.00  0.00     0.074 A 
ATOM     15  C   UNL     1       5.140  -5.591  -2.071  1.00  0.00     0.049 A 
ATOM     16  N   UNL     1       6.670  -5.223  -4.631  1.00  0.00    -0.248 NA
ATOM     17  C   UNL     1       6.088  -2.963  -4.619  1.00  0.00     0.031 C 
ATOM     18  C   UNL     1       4.388  -5.823  -0.832  1.00  0.00     0.029 A 
ATOM     19  N   UNL     1       5.669  -6.820  -2.368  1.00  0.00    -0.354 N 
ATOM     20  C   UNL     1       7.197  -4.610  -5.761  1.00  0.00     0.074 A 
ATOM     21  C   UNL     1       6.788  -3.222  -5.717  1.00  0.00     0.031 C 
ATOM     22  C   UNL     1       4.534  -7.101  -0.458  1.00  0.00     0.029 A 
ATOM     23  C   UNL     1       5.330  -7.796  -1.461  1.00  0.00     0.049 A 
ATOM     24  H   UNL     1       6.237  -6.987  -3.154  1.00  0.00     0.167 HD
ATOM     25  C   UNL     1       7.951  -5.161  -6.743  1.00  0.00     0.031 A 
ATOM     26  C   UNL     1       5.601  -9.114  -1.448  1.00  0.00     0.031 A 
ATOM     27  C   UNL     1       8.360  -6.542  -6.769  1.00  0.00     0.049 A 
ATOM     28  C   UNL     1       6.414  -9.696  -2.567  1.00  0.00     0.074 A 
ATOM     29  C   UNL     1       9.181  -7.176  -7.688  1.00  0.00     0.029 A 
ATOM     30  N   UNL     1       7.973  -7.505  -5.850  1.00  0.00    -0.354 N 
ATOM     31  N   UNL     1       6.961  -9.083  -3.588  1.00  0.00    -0.248 NA
ATOM     32  C   UNL     1       6.642 -11.146  -2.535  1.00  0.00     0.031 C 
ATOM     33  C   UNL     1       9.241  -8.533  -7.358  1.00  0.00     0.029 A 
ATOM     34  C   UNL     1       8.502  -8.735  -6.203  1.00  0.00     0.049 A 
ATOM     35  H   UNL     1       7.407  -7.338  -5.062  1.00  0.00     0.167 HD
ATOM     36  C   UNL     1       7.601 -10.074  -4.322  1.00  0.00     0.074 A 
ATOM     37  C   UNL     1       7.401 -11.319  -3.608  1.00  0.00     0.031 C 
ATOM     38  C   UNL     1       8.283  -9.965  -5.487  1.00  0.00     0.031 A 
BRANCH  25  39
ATOM     39  C   UNL     1       8.375  -4.288  -7.894  1.00  0.00    -0.014 A 
ATOM     40  C   UNL     1       9.411  -3.349  -7.753  1.00  0.00     0.010 A 
ATOM     41  C   UNL     1       7.807  -4.496  -9.165  1.00  0.00     0.010 A 
ATOM     42  C   UNL     1       9.864  -2.627  -8.862  1.00  0.00     0.020 A 
ATOM     43  C   UNL     1       8.271  -3.790 -10.279  1.00  0.00     0.020 A 
ATOM     44  C   UNL     1       9.294  -2.855 -10.119  1.00  0.00     0.054 A 
BRANCH  44  45
ATOM     45  S   UNL     1       9.952  -1.954 -11.550  1.00  0.00     0.124 S 
ATOM     46  O   UNL     1       9.445  -0.604 -11.315  1.00  0.00    -0.237 OA
ATOM     47  O   UNL     1      11.395  -2.117 -11.397  1.00  0.00    -0.237 OA
ATOM     48  O   UNL     1       9.367  -2.646 -12.696  1.00  0.00    -0.744 OA
ENDBRANCH  44  45
ENDBRANCH  25  39
BRANCH  26  49
ATOM     49  C   UNL     1       5.045  -9.977  -0.372  1.00  0.00    -0.014 A 
ATOM     50  C   UNL     1       5.887 -10.579   0.578  1.00  0.00     0.010 A 
ATOM     51  C   UNL     1       3.658 -10.201  -0.298  1.00  0.00     0.010 A 
ATOM     52  C   UNL     1       5.354 -11.415   1.563  1.00  0.00     0.020 A 
ATOM     53  C   UNL     1       3.118 -11.009   0.704  1.00  0.00     0.020 A 
ATOM     54  C   UNL     1       3.973 -11.627   1.617  1.00  0.00     0.054 A 
BRANCH  54  55
ATOM     55  S   UNL     1       3.296 -12.697   2.916  1.00  0.00     0.124 S 
ATOM     56  O   UNL     1       3.608 -14.027   2.402  1.00  0.00    -0.237 OA
ATOM     57  O   UNL     1       4.049 -12.281   4.096  1.00  0.00    -0.237 OA
ATOM     58  O   UNL     1       1.877 -12.349   2.937  1.00  0.00    -0.744 OA
ENDBRANCH  54  55
ENDBRANCH  26  49
BRANCH  38  59
ATOM     59  C   UNL     1       8.864 -11.228  -6.058  1.00  0.00    -0.014 A 
ATOM     60  C   UNL     1       8.036 -12.195  -6.655  1.00  0.00     0.010 A 
ATOM     61  C   UNL     1      10.255 -11.433  -6.031  1.00  0.00     0.010 A 
ATOM     62  C   UNL     1       8.587 -13.362  -7.189  1.00  0.00     0.020 A 
ATOM     63  C   UNL     1      10.812 -12.586  -6.589  1.00  0.00     0.020 A 
ATOM     64  C   UNL     1       9.972 -13.550  -7.152  1.00  0.00     0.054 A 
BRANCH  64  65
ATOM     65  S   UNL     1      10.668 -15.053  -7.891  1.00  0.00     0.124 S 
ATOM     66  O   UNL     1      10.327 -16.065  -6.896  1.00  0.00    -0.237 OA
ATOM     67  O   UNL     1       9.949 -15.150  -9.159  1.00  0.00    -0.237 OA
ATOM     68  O   UNL     1      12.092 -14.751  -8.011  1.00  0.00    -0.744 OA
ENDBRANCH  64  65
ENDBRANCH  38  59
ENDBRANCH  12  13
ENDBRANCH   5   7
ENDBRANCH   2   3
ENDBRANCH   1   2
BRANCH   1  69
ATOM     69  C   UNL     1       4.434   3.686   0.812  1.00  0.00     0.117 C 
BRANCH  69  70
ATOM     70  N   UNL     1       4.802   3.663   2.217  1.00  0.00    -0.356 N 
ATOM     71  C   UNL     1       5.699   4.414   2.910  1.00  0.00     0.223 C 
ATOM     72  H   UNL     1       4.323   2.994   2.756  1.00  0.00     0.163 HD
ATOM     73  O   UNL     1       5.940   4.079   4.069  1.00  0.00    -0.275 OA
BRANCH  71  74
ATOM     74  C   UNL     1       6.348   5.629   2.253  1.00  0.00     0.082 C 
ATOM     75  C   UNL     1       7.454   6.225   3.147  1.00  0.00     0.035 C 
ATOM     76  C   UNL     1       5.318   6.720   1.937  1.00  0.00     0.035 C 
ATOM     77  C   UNL     1       6.907   6.941   4.393  1.00  0.00     0.120 C 
ATOM     78  C   UNL     1       4.786   7.362   3.206  1.00  0.00     0.120 C 
ATOM     79  N   UNL     1       5.867   7.899   4.032  1.00  0.00    -0.339 N 
ATOM     80  C   UNL     1       5.908   9.183   4.575  1.00  0.00     0.255 C 
ATOM     81  O   UNL     1       6.621   9.541   5.504  1.00  0.00    -0.269 OA
BRANCH  80  82
ATOM     82  C   UNL     1       5.114  10.211   3.880  1.00  0.00     0.060 A 
ATOM     83  C   UNL     1       3.729  10.278   4.085  1.00  0.00     0.038 A 
ATOM     84  C   UNL     1       5.725  10.946   2.862  1.00  0.00     0.055 A 
ATOM     85  C   UNL     1       2.932  10.944   3.141  1.00  0.00     0.102 A 
ATOM     86  C   UNL     1       4.931  11.646   1.962  1.00  0.00     0.043 A 
ATOM     87  Cl  UNL     1       7.429  10.941   2.590  1.00  0.00    -0.083 Cl
ATOM     88  C   UNL     1       3.535  11.582   2.050  1.00  0.00     0.062 A 
ATOM     89  Cl  UNL     1       2.708  12.190   0.669  1.00  0.00    -0.083 Cl
BRANCH  85  90
ATOM     90  S   UNL     1       1.169  10.769   3.308  1.00  0.00     0.244 S 
ATOM     91  O   UNL     1       0.799   9.709   2.400  1.00  0.00    -0.207 OA
ATOM     92  O   UNL     1       0.884  10.686   4.726  1.00  0.00    -0.207 OA
BRANCH  90  93
ATOM     93  N   UNL     1       0.548  12.220   2.769  1.00  0.00    -0.193 NA
ATOM     94  C   UNL     1      -0.643  12.232   1.887  1.00  0.00     0.131 C 
ATOM     95  C   UNL     1       0.615  13.426   3.618  1.00  0.00     0.131 C 
ATOM     96  C   UNL     1      -0.587  13.504   1.023  1.00  0.00     0.177 C 
ATOM     97  C   UNL     1       0.681  14.640   2.684  1.00  0.00     0.177 C 
ATOM     98  O   UNL     1      -0.472  14.694   1.825  1.00  0.00    -0.379 OA
ENDBRANCH  90  93
ENDBRANCH  85  90
ENDBRANCH  80  82
ENDBRANCH  71  74
ENDBRANCH  69  70
ENDBRANCH   1  69
TORSDOF 16
