REMARK SMILES C#CCN(CC(=O)NCCCNC(=O)c1ccc(-c2c3nc(c(-c4ccc(S(=O)(=O)[O-])cc4)c4ccc([nH]4)c(-c4ccc(S(=O)(=O)[O-])cc4)c4nc(c(-c5ccc(S(=O)(=O)[O-])cc5)c5ccc2[nH]5)C=C4)C=C3)cc1)C(=O)CCOc1ccc(C)cc1
REMARK SMILES IDX 6 1 7 2 8 3 5 5 4 6 3 7 2 8 1 9 75 10 76 11 77 12 78 13
REMARK SMILES IDX 79 14 80 15 81 16 86 17 82 18 85 19 83 20 84 21 9 22 10 23
REMARK SMILES IDX 11 24 12 25 13 26 14 28 15 29 16 30 74 31 17 32 73 33 18 34
REMARK SMILES IDX 19 35 20 36 67 37 21 38 72 39 66 40 68 41 22 42 71 43 65 44
REMARK SMILES IDX 64 45 23 47 53 48 34 49 52 50 35 51 38 52 51 53 69 54 36 55
REMARK SMILES IDX 37 56 50 58 70 59 39 60 24 61 25 62 33 63 26 64 32 65 27 66
REMARK SMILES IDX 28 67 29 68 30 69 31 70 54 71 55 72 63 73 56 74 62 75 57 76
REMARK SMILES IDX 58 77 59 78 60 79 61 80 40 81 41 82 49 83 42 84 48 85 43 86
REMARK SMILES IDX 44 87 45 88 46 89 47 90
REMARK H PARENT 8 4 12 27 68 46 38 57
REMARK Flexibility Score: inf
ROOT
ATOM      1  C   UNL     1      -4.997  -1.142   1.585  1.00  0.00     0.239 C 
ATOM      2  O   UNL     1      -5.310  -2.143   2.232  1.00  0.00    -0.273 OA
ATOM      3  N   UNL     1      -5.862  -0.709   0.627  1.00  0.00    -0.354 N 
ATOM      4  H   UNL     1      -6.793  -1.017   0.713  1.00  0.00     0.163 HD
ENDROOT
BRANCH   1   5
ATOM      5  C   UNL     1      -3.672  -0.397   1.812  1.00  0.00     0.220 C 
BRANCH   5   6
ATOM      6  N   UNL     1      -2.527  -0.918   1.055  1.00  0.00    -0.322 N 
BRANCH   6   7
ATOM      7  C   UNL     1      -1.909  -0.052  -0.001  1.00  0.00     0.209 C 
BRANCH   7   8
ATOM      8  C   UNL     1      -0.390  -0.052  -0.001  1.00  0.00    -0.085 C 
ATOM      9  C   UNL     1       0.914  -0.052  -0.001  1.00  0.00     0.006 C 
ENDBRANCH   7   8
ENDBRANCH   6   7
BRANCH   6  10
ATOM     10  C   UNL     1      -1.984  -2.173   1.346  1.00  0.00     0.227 C 
ATOM     11  O   UNL     1      -1.287  -2.779   0.530  1.00  0.00    -0.275 OA
BRANCH  10  12
ATOM     12  C   UNL     1      -2.140  -2.739   2.771  1.00  0.00     0.141 C 
BRANCH  12  13
ATOM     13  C   UNL     1      -0.949  -2.408   3.708  1.00  0.00     0.239 C 
BRANCH  13  14
ATOM     14  O   UNL     1      -1.134  -1.337   4.684  1.00  0.00    -0.493 OA
BRANCH  14  15
ATOM     15  C   UNL     1      -0.844  -0.050   4.320  1.00  0.00     0.119 A 
ATOM     16  C   UNL     1      -0.697   0.972   5.253  1.00  0.00     0.046 A 
ATOM     17  C   UNL     1      -0.735   0.325   3.010  1.00  0.00     0.046 A 
ATOM     18  C   UNL     1      -0.529   2.322   4.834  1.00  0.00     0.007 A 
ATOM     19  C   UNL     1      -0.734   1.646   2.582  1.00  0.00     0.007 A 
ATOM     20  C   UNL     1      -0.604   2.672   3.483  1.00  0.00    -0.051 A 
ATOM     21  C   UNL     1      -0.473   4.053   2.918  1.00  0.00     0.044 C 
ENDBRANCH  14  15
ENDBRANCH  13  14
ENDBRANCH  12  13
ENDBRANCH  10  12
ENDBRANCH   6  10
ENDBRANCH   5   6
ENDBRANCH   1   5
BRANCH   3  22
ATOM     22  C   UNL     1      -5.575   0.149  -0.500  1.00  0.00     0.117 C 
BRANCH  22  23
ATOM     23  C   UNL     1      -5.280  -0.683  -1.742  1.00  0.00     0.042 C 
BRANCH  23  24
ATOM     24  C   UNL     1      -6.447  -1.573  -2.161  1.00  0.00     0.118 C 
BRANCH  24  25
ATOM     25  N   UNL     1      -7.672  -0.807  -2.365  1.00  0.00    -0.352 N 
ATOM     26  C   UNL     1      -8.362  -0.571  -3.529  1.00  0.00     0.251 C 
ATOM     27  H   UNL     1      -8.059  -0.404  -1.555  1.00  0.00     0.163 HD
ATOM     28  O   UNL     1      -9.205   0.314  -3.581  1.00  0.00    -0.269 OA
BRANCH  26  29
ATOM     29  C   UNL     1      -8.060  -1.401  -4.710  1.00  0.00     0.039 A 
ATOM     30  C   UNL     1      -7.837  -0.787  -5.943  1.00  0.00     0.014 A 
ATOM     31  C   UNL     1      -7.965  -2.788  -4.570  1.00  0.00     0.014 A 
ATOM     32  C   UNL     1      -7.436  -1.567  -7.028  1.00  0.00     0.010 A 
ATOM     33  C   UNL     1      -7.492  -3.549  -5.628  1.00  0.00     0.010 A 
ATOM     34  C   UNL     1      -7.218  -2.945  -6.864  1.00  0.00    -0.014 A 
BRANCH  34  35
ATOM     35  C   UNL     1      -6.683  -3.786  -7.960  1.00  0.00     0.031 A 
ATOM     36  C   UNL     1      -7.514  -4.908  -8.512  1.00  0.00     0.074 A 
ATOM     37  C   UNL     1      -5.414  -3.600  -8.374  1.00  0.00     0.049 A 
ATOM     38  N   UNL     1      -7.183  -5.827  -9.380  1.00  0.00    -0.248 NA
ATOM     39  C   UNL     1      -8.891  -5.029  -8.001  1.00  0.00     0.031 C 
ATOM     40  C   UNL     1      -4.501  -2.567  -7.875  1.00  0.00     0.029 A 
ATOM     41  N   UNL     1      -4.665  -4.286  -9.296  1.00  0.00    -0.354 N 
ATOM     42  C   UNL     1      -8.298  -6.647  -9.503  1.00  0.00     0.074 A 
ATOM     43  C   UNL     1      -9.299  -6.144  -8.589  1.00  0.00     0.031 C 
ATOM     44  C   UNL     1      -3.323  -2.678  -8.510  1.00  0.00     0.029 A 
ATOM     45  C   UNL     1      -3.379  -3.816  -9.420  1.00  0.00     0.049 A 
ATOM     46  H   UNL     1      -5.015  -5.043  -9.818  1.00  0.00     0.167 HD
ATOM     47  C   UNL     1      -8.476  -7.712 -10.319  1.00  0.00     0.031 A 
ATOM     48  C   UNL     1      -2.353  -4.265 -10.169  1.00  0.00     0.031 A 
ATOM     49  C   UNL     1      -7.474  -8.198 -11.229  1.00  0.00     0.049 A 
ATOM     50  C   UNL     1      -2.565  -5.470 -11.042  1.00  0.00     0.074 A 
ATOM     51  C   UNL     1      -7.573  -9.227 -12.148  1.00  0.00     0.029 A 
ATOM     52  N   UNL     1      -6.186  -7.693 -11.328  1.00  0.00    -0.354 N 
ATOM     53  N   UNL     1      -3.653  -6.184 -11.207  1.00  0.00    -0.248 NA
ATOM     54  C   UNL     1      -1.413  -5.932 -11.828  1.00  0.00     0.031 C 
ATOM     55  C   UNL     1      -6.327  -9.382 -12.762  1.00  0.00     0.029 A 
ATOM     56  C   UNL     1      -5.467  -8.413 -12.266  1.00  0.00     0.049 A 
ATOM     57  H   UNL     1      -5.834  -6.934 -10.808  1.00  0.00     0.167 HD
ATOM     58  C   UNL     1      -3.320  -7.173 -12.125  1.00  0.00     0.074 A 
ATOM     59  C   UNL     1      -1.937  -6.951 -12.496  1.00  0.00     0.031 C 
ATOM     60  C   UNL     1      -4.088  -8.178 -12.614  1.00  0.00     0.031 A 
BRANCH  47  61
ATOM     61  C   UNL     1      -9.800  -8.425 -10.257  1.00  0.00    -0.014 A 
ATOM     62  C   UNL     1     -10.975  -7.818 -10.738  1.00  0.00     0.010 A 
ATOM     63  C   UNL     1      -9.867  -9.734  -9.746  1.00  0.00     0.010 A 
ATOM     64  C   UNL     1     -12.198  -8.490 -10.671  1.00  0.00     0.020 A 
ATOM     65  C   UNL     1     -11.085 -10.421  -9.703  1.00  0.00     0.020 A 
ATOM     66  C   UNL     1     -12.245  -9.787 -10.151  1.00  0.00     0.054 A 
BRANCH  66  67
ATOM     67  S   UNL     1     -13.844 -10.642 -10.100  1.00  0.00     0.124 S 
ATOM     68  O   UNL     1     -14.530  -9.932  -9.023  1.00  0.00    -0.237 OA
ATOM     69  O   UNL     1     -14.374 -10.410 -11.441  1.00  0.00    -0.237 OA
ATOM     70  O   UNL     1     -13.488 -12.027  -9.804  1.00  0.00    -0.744 OA
ENDBRANCH  66  67
ENDBRANCH  47  61
BRANCH  48  71
ATOM     71  C   UNL     1      -1.037  -3.572 -10.119  1.00  0.00    -0.014 A 
ATOM     72  C   UNL     1      -0.584  -2.825 -11.220  1.00  0.00     0.010 A 
ATOM     73  C   UNL     1      -0.238  -3.636  -8.962  1.00  0.00     0.010 A 
ATOM     74  C   UNL     1       0.647  -2.165 -11.171  1.00  0.00     0.020 A 
ATOM     75  C   UNL     1       0.982  -2.955  -8.899  1.00  0.00     0.020 A 
ATOM     76  C   UNL     1       1.421  -2.231 -10.009  1.00  0.00     0.054 A 
BRANCH  76  77
ATOM     77  S   UNL     1       2.988  -1.319  -9.949  1.00  0.00     0.124 S 
ATOM     78  O   UNL     1       3.842  -2.124 -10.817  1.00  0.00    -0.237 OA
ATOM     79  O   UNL     1       2.610  -0.008 -10.473  1.00  0.00    -0.237 OA
ATOM     80  O   UNL     1       3.340  -1.335  -8.531  1.00  0.00    -0.744 OA
ENDBRANCH  76  77
ENDBRANCH  48  71
BRANCH  60  81
ATOM     81  C   UNL     1      -3.455  -9.114 -13.607  1.00  0.00    -0.014 A 
ATOM     82  C   UNL     1      -2.524 -10.081 -13.192  1.00  0.00     0.010 A 
ATOM     83  C   UNL     1      -3.860  -9.080 -14.954  1.00  0.00     0.010 A 
ATOM     84  C   UNL     1      -1.998 -10.993 -14.110  1.00  0.00     0.020 A 
ATOM     85  C   UNL     1      -3.357 -10.007 -15.869  1.00  0.00     0.020 A 
ATOM     86  C   UNL     1      -2.424 -10.954 -15.442  1.00  0.00     0.054 A 
BRANCH  86  87
ATOM     87  S   UNL     1      -1.783 -12.198 -16.596  1.00  0.00     0.124 S 
ATOM     88  O   UNL     1      -0.405 -11.755 -16.787  1.00  0.00    -0.237 OA
ATOM     89  O   UNL     1      -1.945 -13.442 -15.847  1.00  0.00    -0.237 OA
ATOM     90  O   UNL     1      -2.648 -12.065 -17.765  1.00  0.00    -0.744 OA
ENDBRANCH  86  87
ENDBRANCH  60  81
ENDBRANCH  34  35
ENDBRANCH  26  29
ENDBRANCH  24  25
ENDBRANCH  23  24
ENDBRANCH  22  23
ENDBRANCH   3  22
TORSDOF 21
