REMARK SMILES CCc1ccc2[nH]c(C(=O)c3cc(C)ccn3)c(CC(=O)NCCCNC(=O)c3ccc(-c4c5nc(c(-c6ccc(S(=O)(=O)[O-])cc6)c6ccc([nH]6)c(-c6ccc(S(=O)(=O)[O-])cc6)c6nc(c(-c7ccc(S(=O)(=O)[O-])cc7)c7ccc4[nH]7)C=C6)C=C5)cc3)c2c1
REMARK SMILES IDX 24 1 23 2 22 3 20 4 21 5 19 7 18 8 3 9 4 10 90 11 5 12 89 13
REMARK SMILES IDX 6 14 7 15 8 16 2 18 1 19 9 20 10 21 11 22 12 23 17 24 13 25
REMARK SMILES IDX 16 26 14 27 15 28 25 29 26 30 27 31 28 33 29 34 30 35 88 36
REMARK SMILES IDX 31 37 87 38 32 39 33 40 34 41 81 42 35 43 86 44 80 45 82 46
REMARK SMILES IDX 36 47 85 48 79 49 78 50 37 52 67 53 48 54 66 55 49 56 52 57
REMARK SMILES IDX 65 58 83 59 50 60 51 61 64 63 84 64 53 65 38 66 39 67 47 68
REMARK SMILES IDX 40 69 46 70 41 71 42 72 43 73 44 74 45 75 68 76 69 77 77 78
REMARK SMILES IDX 70 79 76 80 71 81 72 82 73 83 74 84 75 85 54 86 55 87 63 88
REMARK SMILES IDX 56 89 62 90 57 91 58 92 59 93 60 94 61 95
REMARK H PARENT 22 6 7 17 26 32 82 51 52 62
REMARK Flexibility Score: inf
ROOT
ATOM      1  C   UNL     1      -2.281   3.354   4.185  1.00  0.00     0.042 C 
ENDROOT
BRANCH   1   2
ATOM      2  C   UNL     1      -2.512   3.785   2.740  1.00  0.00     0.117 C 
BRANCH   2   3
ATOM      3  N   UNL     1      -2.429   5.218   2.549  1.00  0.00    -0.356 N 
ATOM      4  C   UNL     1      -1.448   5.967   1.964  1.00  0.00     0.224 C 
ATOM      5  O   UNL     1      -1.726   7.143   1.710  1.00  0.00    -0.275 OA
ATOM      6  H   UNL     1      -3.196   5.730   2.892  1.00  0.00     0.163 HD
BRANCH   4   7
ATOM      7  C   UNL     1      -0.128   5.347   1.520  1.00  0.00     0.138 C 
BRANCH   7   8
ATOM      8  C   UNL     1       0.679   4.700   2.615  1.00  0.00    -0.002 A 
ATOM      9  C   UNL     1       1.125   0.893   2.272  1.00  0.00    -0.048 A 
ATOM     10  C   UNL     1       1.818   0.737   3.477  1.00  0.00     0.006 A 
ATOM     11  C   UNL     1       0.716   2.179   1.881  1.00  0.00     0.014 A 
ATOM     12  C   UNL     1       2.119   1.831   4.297  1.00  0.00     0.027 A 
ATOM     13  C   UNL     1       0.994   3.300   2.695  1.00  0.00     0.004 A 
ATOM     14  C   UNL     1       1.692   3.096   3.879  1.00  0.00     0.046 A 
ATOM     15  N   UNL     1       1.823   4.321   4.486  1.00  0.00    -0.352 N 
ATOM     16  C   UNL     1       1.302   5.327   3.697  1.00  0.00     0.093 A 
ATOM     17  H   UNL     1       2.234   4.463   5.369  1.00  0.00     0.167 HD
BRANCH   9  18
ATOM     18  C   UNL     1       0.760  -0.315   1.441  1.00  0.00     0.032 C 
ATOM     19  C   UNL     1       1.257  -0.240   0.003  1.00  0.00     0.009 C 
ENDBRANCH   9  18
BRANCH  16  20
ATOM     20  C   UNL     1       1.389   6.755   3.990  1.00  0.00     0.227 C 
ATOM     21  O   UNL     1       0.947   7.624   3.237  1.00  0.00    -0.285 OA
BRANCH  20  22
ATOM     22  C   UNL     1       2.107   7.209   5.210  1.00  0.00     0.113 A 
ATOM     23  C   UNL     1       3.479   6.997   5.324  1.00  0.00     0.036 A 
ATOM     24  N   UNL     1       1.361   7.853   6.141  1.00  0.00    -0.253 NA
ATOM     25  C   UNL     1       4.129   7.466   6.468  1.00  0.00    -0.047 A 
ATOM     26  C   UNL     1       2.018   8.319   7.223  1.00  0.00     0.112 A 
ATOM     27  C   UNL     1       5.604   7.281   6.655  1.00  0.00     0.044 C 
ATOM     28  C   UNL     1       3.380   8.152   7.428  1.00  0.00     0.023 A 
ENDBRANCH  20  22
ENDBRANCH  16  20
ENDBRANCH   7   8
ENDBRANCH   4   7
ENDBRANCH   2   3
ENDBRANCH   1   2
BRANCH   1  29
ATOM     29  C   UNL     1      -3.354   3.820   5.167  1.00  0.00     0.118 C 
BRANCH  29  30
ATOM     30  N   UNL     1      -4.668   3.264   4.875  1.00  0.00    -0.352 N 
ATOM     31  C   UNL     1      -5.533   2.546   5.662  1.00  0.00     0.251 C 
ATOM     32  H   UNL     1      -4.990   3.432   3.960  1.00  0.00     0.163 HD
ATOM     33  O   UNL     1      -6.523   2.036   5.141  1.00  0.00    -0.269 OA
BRANCH  31  34
ATOM     34  C   UNL     1      -5.291   2.361   7.112  1.00  0.00     0.039 A 
ATOM     35  C   UNL     1      -5.601   1.122   7.685  1.00  0.00     0.014 A 
ATOM     36  C   UNL     1      -4.829   3.400   7.925  1.00  0.00     0.014 A 
ATOM     37  C   UNL     1      -5.398   0.908   9.051  1.00  0.00     0.010 A 
ATOM     38  C   UNL     1      -4.571   3.169   9.277  1.00  0.00     0.010 A 
ATOM     39  C   UNL     1      -4.855   1.923   9.855  1.00  0.00    -0.014 A 
BRANCH  39  40
ATOM     40  C   UNL     1      -4.579   1.693  11.297  1.00  0.00     0.031 A 
ATOM     41  C   UNL     1      -5.352   2.439  12.351  1.00  0.00     0.074 A 
ATOM     42  C   UNL     1      -3.594   0.848  11.659  1.00  0.00     0.049 A 
ATOM     43  N   UNL     1      -5.209   2.412  13.652  1.00  0.00    -0.248 NA
ATOM     44  C   UNL     1      -6.410   3.347  11.881  1.00  0.00     0.031 C 
ATOM     45  C   UNL     1      -2.748   0.086  10.737  1.00  0.00     0.029 A 
ATOM     46  N   UNL     1      -3.133   0.493  12.903  1.00  0.00    -0.354 N 
ATOM     47  C   UNL     1      -6.142   3.311  14.155  1.00  0.00     0.074 A 
ATOM     48  C   UNL     1      -6.822   3.892  13.017  1.00  0.00     0.031 C 
ATOM     49  C   UNL     1      -1.888  -0.662  11.447  1.00  0.00     0.029 A 
ATOM     50  C   UNL     1      -2.097  -0.409  12.870  1.00  0.00     0.049 A 
ATOM     51  H   UNL     1      -3.510   0.851  13.739  1.00  0.00     0.167 HD
ATOM     52  C   UNL     1      -6.418   3.617  15.446  1.00  0.00     0.031 A 
ATOM     53  C   UNL     1      -1.389  -0.969  13.870  1.00  0.00     0.031 A 
ATOM     54  C   UNL     1      -5.754   3.031  16.580  1.00  0.00     0.049 A 
ATOM     55  C   UNL     1      -1.721  -0.623  15.293  1.00  0.00     0.074 A 
ATOM     56  C   UNL     1      -5.994   3.249  17.926  1.00  0.00     0.029 A 
ATOM     57  N   UNL     1      -4.723   2.107  16.503  1.00  0.00    -0.354 N 
ATOM     58  N   UNL     1      -2.632   0.203  15.748  1.00  0.00    -0.248 NA
ATOM     59  C   UNL     1      -0.935  -1.294  16.338  1.00  0.00     0.031 C 
ATOM     60  C   UNL     1      -5.086   2.478  18.663  1.00  0.00     0.029 A 
ATOM     61  C   UNL     1      -4.309   1.752  17.775  1.00  0.00     0.049 A 
ATOM     62  H   UNL     1      -4.342   1.756  15.666  1.00  0.00     0.167 HD
ATOM     63  C   UNL     1      -2.543   0.136  17.134  1.00  0.00     0.074 A 
ATOM     64  C   UNL     1      -1.498  -0.820  17.442  1.00  0.00     0.031 C 
ATOM     65  C   UNL     1      -3.265   0.804  18.066  1.00  0.00     0.031 A 
BRANCH  52  66
ATOM     66  C   UNL     1      -7.487   4.647  15.695  1.00  0.00    -0.014 A 
ATOM     67  C   UNL     1      -8.845   4.342  15.494  1.00  0.00     0.010 A 
ATOM     68  C   UNL     1      -7.133   5.928  16.154  1.00  0.00     0.010 A 
ATOM     69  C   UNL     1      -9.827   5.314  15.703  1.00  0.00     0.020 A 
ATOM     70  C   UNL     1      -8.114   6.896  16.387  1.00  0.00     0.020 A 
ATOM     71  C   UNL     1      -9.454   6.589  16.139  1.00  0.00     0.054 A 
BRANCH  71  72
ATOM     72  S   UNL     1     -10.745   7.834  16.408  1.00  0.00     0.124 S 
ATOM     73  O   UNL     1     -11.037   8.262  15.042  1.00  0.00    -0.237 OA
ATOM     74  O   UNL     1     -11.802   7.070  17.066  1.00  0.00    -0.237 OA
ATOM     75  O   UNL     1     -10.090   8.834  17.249  1.00  0.00    -0.744 OA
ENDBRANCH  71  72
ENDBRANCH  52  66
BRANCH  53  76
ATOM     76  C   UNL     1      -0.306  -1.936  13.554  1.00  0.00    -0.014 A 
ATOM     77  C   UNL     1      -0.502  -3.313  13.761  1.00  0.00     0.010 A 
ATOM     78  C   UNL     1       0.916  -1.488  13.022  1.00  0.00     0.010 A 
ATOM     79  C   UNL     1       0.511  -4.225  13.451  1.00  0.00     0.020 A 
ATOM     80  C   UNL     1       1.923  -2.399  12.692  1.00  0.00     0.020 A 
ATOM     81  C   UNL     1       1.717  -3.762  12.917  1.00  0.00     0.054 A 
BRANCH  81  82
ATOM     82  S   UNL     1       2.995  -4.964  12.457  1.00  0.00     0.124 S 
ATOM     83  O   UNL     1       3.598  -5.275  13.749  1.00  0.00    -0.237 OA
ATOM     84  O   UNL     1       2.218  -6.039  11.845  1.00  0.00    -0.237 OA
ATOM     85  O   UNL     1       3.844  -4.217  11.531  1.00  0.00    -0.744 OA
ENDBRANCH  81  82
ENDBRANCH  53  76
BRANCH  65  86
ATOM     86  C   UNL     1      -2.967   0.504  19.509  1.00  0.00    -0.014 A 
ATOM     87  C   UNL     1      -1.814   1.012  20.132  1.00  0.00     0.010 A 
ATOM     88  C   UNL     1      -3.871  -0.269  20.259  1.00  0.00     0.010 A 
ATOM     89  C   UNL     1      -1.554   0.726  21.475  1.00  0.00     0.020 A 
ATOM     90  C   UNL     1      -3.624  -0.540  21.608  1.00  0.00     0.020 A 
ATOM     91  C   UNL     1      -2.458  -0.053  22.203  1.00  0.00     0.054 A 
BRANCH  91  92
ATOM     92  S   UNL     1      -2.120  -0.387  23.954  1.00  0.00     0.124 S 
ATOM     93  O   UNL     1      -1.129  -1.456  23.872  1.00  0.00    -0.237 OA
ATOM     94  O   UNL     1      -1.620   0.898  24.438  1.00  0.00    -0.237 OA
ATOM     95  O   UNL     1      -3.422  -0.781  24.487  1.00  0.00    -0.744 OA
ENDBRANCH  91  92
ENDBRANCH  65  86
ENDBRANCH  39  40
ENDBRANCH  31  34
ENDBRANCH  29  30
ENDBRANCH   1  29
TORSDOF 17
