REMARK SMILES Cc1nonc1C[C@@]1(C(=O)NCCCNC(=O)c2ccc(-c3c4nc(c(-c5ccc(S(=O)(=O)[O-])cc5)c5ccc([nH]5)c(-c5ccc(S(=O)(=O)[O-])cc5)c5nc(c(-c6ccc(S(=O)(=O)[O-])cc6)c6ccc3[nH]6)C=C5)C=C4)cc2)CCC[NH2+]C1
REMARK SMILES IDX 13 1 12 2 11 3 9 4 10 5 8 7 78 8 82 9 79 10 81 11 80 12 7 15
REMARK SMILES IDX 6 16 1 17 2 18 3 19 4 20 5 21 14 22 15 23 16 24 17 26 18 27
REMARK SMILES IDX 19 28 77 29 20 30 76 31 21 32 22 33 23 34 70 35 24 36 75 37
REMARK SMILES IDX 69 38 71 39 25 40 74 41 68 42 67 43 26 45 56 46 37 47 55 48
REMARK SMILES IDX 38 49 41 50 54 51 72 52 39 53 40 54 53 56 73 57 42 58 27 59
REMARK SMILES IDX 28 60 36 61 29 62 35 63 30 64 31 65 32 66 33 67 34 68 57 69
REMARK SMILES IDX 58 70 66 71 59 72 65 73 60 74 61 75 62 76 63 77 64 78 43 79
REMARK SMILES IDX 44 80 52 81 45 82 51 83 46 84 47 85 48 86 49 87 50 88
REMARK H PARENT 11 6 81 13 81 14 15 25 71 44 41 55
REMARK Flexibility Score: inf
ROOT
ATOM      1  C   UNL     1       3.276   4.552   0.325  1.00  0.00     0.042 C 
ENDROOT
BRANCH   1   2
ATOM      2  C   UNL     1       2.649   3.418  -0.475  1.00  0.00     0.117 C 
BRANCH   2   3
ATOM      3  N   UNL     1       1.522   2.837   0.225  1.00  0.00    -0.355 N 
ATOM      4  C   UNL     1       0.186   2.787  -0.008  1.00  0.00     0.232 C 
ATOM      5  O   UNL     1      -0.474   2.270   0.901  1.00  0.00    -0.274 OA
ATOM      6  H   UNL     1       1.783   2.376   1.055  1.00  0.00     0.163 HD
BRANCH   4   7
ATOM      7  C   UNL     1      -0.478   3.311  -1.300  1.00  0.00     0.104 C 
ATOM      8  C   UNL     1      -2.014   3.031  -1.251  1.00  0.00     0.029 C 
ATOM      9  C   UNL     1       0.081   2.564  -2.543  1.00  0.00     0.277 C 
ATOM     10  C   UNL     1      -2.366   1.549  -1.413  1.00  0.00     0.063 C 
ATOM     11  N   UNL     1      -0.248   1.139  -2.598  1.00  0.00    -0.345 N 
ATOM     12  C   UNL     1      -1.692   0.931  -2.630  1.00  0.00     0.260 C 
ATOM     13  H   UNL     1       0.165   0.735  -3.438  1.00  0.00     0.346 HD
ATOM     14  H   UNL     1       0.124   0.690  -1.762  1.00  0.00     0.346 HD
BRANCH   7  15
ATOM     15  C   UNL     1      -0.244   4.837  -1.504  1.00  0.00     0.085 C 
BRANCH  15  16
ATOM     16  C   UNL     1      -0.466   5.766  -0.356  1.00  0.00     0.109 A 
ATOM     17  C   UNL     1       1.119   7.790  -0.900  1.00  0.00     0.073 C 
ATOM     18  C   UNL     1       0.119   7.031  -0.119  1.00  0.00     0.105 A 
ATOM     19  N   UNL     1      -0.384   7.550   1.003  1.00  0.00    -0.055 NA
ATOM     20  O   UNL     1      -1.295   6.608   1.460  1.00  0.00    -0.244 OA
ATOM     21  N   UNL     1      -1.358   5.518   0.603  1.00  0.00    -0.055 NA
ENDBRANCH  15  16
ENDBRANCH   7  15
ENDBRANCH   4   7
ENDBRANCH   2   3
ENDBRANCH   1   2
BRANCH   1  22
ATOM     22  C   UNL     1       3.897   4.106   1.643  1.00  0.00     0.118 C 
BRANCH  22  23
ATOM     23  N   UNL     1       5.032   3.213   1.451  1.00  0.00    -0.352 N 
ATOM     24  C   UNL     1       6.343   3.365   1.829  1.00  0.00     0.251 C 
ATOM     25  H   UNL     1       4.828   2.373   0.979  1.00  0.00     0.163 HD
ATOM     26  O   UNL     1       7.191   2.587   1.397  1.00  0.00    -0.269 OA
BRANCH  24  27
ATOM     27  C   UNL     1       6.739   4.471   2.727  1.00  0.00     0.039 A 
ATOM     28  C   UNL     1       7.913   5.177   2.454  1.00  0.00     0.014 A 
ATOM     29  C   UNL     1       5.962   4.811   3.838  1.00  0.00     0.014 A 
ATOM     30  C   UNL     1       8.268   6.266   3.253  1.00  0.00     0.010 A 
ATOM     31  C   UNL     1       6.269   5.949   4.578  1.00  0.00     0.010 A 
ATOM     32  C   UNL     1       7.427   6.688   4.297  1.00  0.00    -0.014 A 
BRANCH  32  33
ATOM     33  C   UNL     1       7.738   7.901   5.096  1.00  0.00     0.031 A 
ATOM     34  C   UNL     1       7.984   7.793   6.578  1.00  0.00     0.074 A 
ATOM     35  C   UNL     1       7.738   9.110   4.498  1.00  0.00     0.049 A 
ATOM     36  N   UNL     1       8.219   8.745   7.445  1.00  0.00    -0.248 NA
ATOM     37  C   UNL     1       7.936   6.445   7.166  1.00  0.00     0.031 C 
ATOM     38  C   UNL     1       7.474   9.353   3.078  1.00  0.00     0.029 A 
ATOM     39  N   UNL     1       7.963  10.364   5.011  1.00  0.00    -0.354 N 
ATOM     40  C   UNL     1       8.332   8.114   8.678  1.00  0.00     0.074 A 
ATOM     41  C   UNL     1       8.087   6.706   8.456  1.00  0.00     0.031 C 
ATOM     42  C   UNL     1       7.581  10.668   2.828  1.00  0.00     0.029 A 
ATOM     43  C   UNL     1       7.872  11.368   4.075  1.00  0.00     0.049 A 
ATOM     44  H   UNL     1       8.169  10.529   5.959  1.00  0.00     0.167 HD
ATOM     45  C   UNL     1       8.631   8.654   9.884  1.00  0.00     0.031 A 
ATOM     46  C   UNL     1       7.999  12.703   4.204  1.00  0.00     0.031 A 
ATOM     47  C   UNL     1       8.877  10.056  10.101  1.00  0.00     0.049 A 
ATOM     48  C   UNL     1       8.310  13.282   5.558  1.00  0.00     0.074 A 
ATOM     49  C   UNL     1       9.240  10.693  11.274  1.00  0.00     0.029 A 
ATOM     50  N   UNL     1       8.778  11.038   9.127  1.00  0.00    -0.354 N 
ATOM     51  N   UNL     1       8.484  12.659   6.699  1.00  0.00    -0.248 NA
ATOM     52  C   UNL     1       8.454  14.742   5.638  1.00  0.00     0.031 C 
ATOM     53  C   UNL     1       9.300  12.068  11.024  1.00  0.00     0.029 A 
ATOM     54  C   UNL     1       9.044  12.280   9.678  1.00  0.00     0.049 A 
ATOM     55  H   UNL     1       8.551  10.877   8.182  1.00  0.00     0.167 HD
ATOM     56  C   UNL     1       8.786  13.650   7.628  1.00  0.00     0.074 A 
ATOM     57  C   UNL     1       8.788  14.908   6.910  1.00  0.00     0.031 C 
ATOM     58  C   UNL     1       9.041  13.527   8.954  1.00  0.00     0.031 A 
BRANCH  45  59
ATOM     59  C   UNL     1       8.701   7.724  11.069  1.00  0.00    -0.014 A 
ATOM     60  C   UNL     1       9.728   6.768  11.186  1.00  0.00     0.010 A 
ATOM     61  C   UNL     1       7.754   7.836  12.103  1.00  0.00     0.010 A 
ATOM     62  C   UNL     1       9.780   5.916  12.292  1.00  0.00     0.020 A 
ATOM     63  C   UNL     1       7.822   7.007  13.227  1.00  0.00     0.020 A 
ATOM     64  C   UNL     1       8.826   6.040  13.305  1.00  0.00     0.054 A 
BRANCH  64  65
ATOM     65  S   UNL     1       8.937   4.938  14.741  1.00  0.00     0.124 S 
ATOM     66  O   UNL     1       8.540   3.654  14.166  1.00  0.00    -0.237 OA
ATOM     67  O   UNL     1      10.343   5.047  15.120  1.00  0.00    -0.237 OA
ATOM     68  O   UNL     1       7.990   5.511  15.694  1.00  0.00    -0.744 OA
ENDBRANCH  64  65
ENDBRANCH  45  59
BRANCH  46  69
ATOM     69  C   UNL     1       7.840  13.584   3.013  1.00  0.00    -0.014 A 
ATOM     70  C   UNL     1       8.944  14.270   2.476  1.00  0.00     0.010 A 
ATOM     71  C   UNL     1       6.582  13.732   2.401  1.00  0.00     0.010 A 
ATOM     72  C   UNL     1       8.790  15.100   1.362  1.00  0.00     0.020 A 
ATOM     73  C   UNL     1       6.429  14.536   1.268  1.00  0.00     0.020 A 
ATOM     74  C   UNL     1       7.533  15.224   0.762  1.00  0.00     0.054 A 
BRANCH  74  75
ATOM     75  S   UNL     1       7.369  16.264  -0.716  1.00  0.00     0.124 S 
ATOM     76  O   UNL     1       7.496  17.607  -0.160  1.00  0.00    -0.237 OA
ATOM     77  O   UNL     1       8.484  15.812  -1.544  1.00  0.00    -0.237 OA
ATOM     78  O   UNL     1       6.044  15.920  -1.229  1.00  0.00    -0.744 OA
ENDBRANCH  74  75
ENDBRANCH  46  69
BRANCH  58  79
ATOM     79  C   UNL     1       9.384  14.781   9.715  1.00  0.00    -0.014 A 
ATOM     80  C   UNL     1       8.415  15.763   9.985  1.00  0.00     0.010 A 
ATOM     81  C   UNL     1      10.688  14.950  10.217  1.00  0.00     0.010 A 
ATOM     82  C   UNL     1       8.753  16.908  10.713  1.00  0.00     0.020 A 
ATOM     83  C   UNL     1      11.022  16.076  10.973  1.00  0.00     0.020 A 
ATOM     84  C   UNL     1      10.055  17.056  11.204  1.00  0.00     0.054 A 
BRANCH  84  85
ATOM     85  S   UNL     1      10.455  18.529  12.183  1.00  0.00     0.124 S 
ATOM     86  O   UNL     1      10.463  19.577  11.167  1.00  0.00    -0.237 OA
ATOM     87  O   UNL     1       9.351  18.588  13.138  1.00  0.00    -0.237 OA
ATOM     88  O   UNL     1      11.758  18.216  12.765  1.00  0.00    -0.744 OA
ENDBRANCH  84  85
ENDBRANCH  58  79
ENDBRANCH  32  33
ENDBRANCH  24  27
ENDBRANCH  22  23
ENDBRANCH   1  22
TORSDOF 15
