REMARK SMILES CCC[C@]1(C(=O)NCCCNC(=O)c2ccc(-c3c4nc(c(-c5ccc(S(=O)(=O)[O-])cc5)c5ccc([nH]5)c(-c5ccc(S(=O)(=O)[O-])cc5)c5nc(c(-c6ccc(S(=O)(=O)[O-])cc6)c6ccc3[nH]6)C=C5)C=C4)cc2)CCCN(C(=O)N[C@H]2CCOC2)C1
REMARK SMILES IDX 9 1 8 2 7 3 5 4 6 5 4 7 74 8 86 9 75 10 77 11 76 12 3 13
REMARK SMILES IDX 2 14 1 15 78 16 79 17 80 18 81 20 82 21 85 22 83 23 84 24
REMARK SMILES IDX 10 25 11 26 12 27 13 29 14 30 15 31 73 32 16 33 72 34 17 35
REMARK SMILES IDX 18 36 19 37 66 38 20 39 71 40 65 41 67 42 21 43 70 44 64 45
REMARK SMILES IDX 63 46 22 48 52 49 33 50 51 51 34 52 37 53 50 54 68 55 35 56
REMARK SMILES IDX 36 57 49 59 69 60 38 61 23 62 24 63 32 64 25 65 31 66 26 67
REMARK SMILES IDX 27 68 28 69 29 70 30 71 53 72 54 73 62 74 55 75 61 76 56 77
REMARK SMILES IDX 57 78 58 79 59 80 60 81 39 82 40 83 48 84 41 85 47 86 42 87
REMARK SMILES IDX 43 88 44 89 45 90 46 91
REMARK H PARENT 7 6 80 19 11 28 67 47 37 58
REMARK Flexibility Score: inf
ROOT
ATOM      1  C   UNL     1      -5.042   9.233   6.234  1.00  0.00     0.042 C 
ENDROOT
BRANCH   1   2
ATOM      2  C   UNL     1      -4.534   8.211   7.243  1.00  0.00     0.117 C 
BRANCH   2   3
ATOM      3  N   UNL     1      -5.574   7.721   8.137  1.00  0.00    -0.355 N 
ATOM      4  C   UNL     1      -6.203   6.517   8.262  1.00  0.00     0.228 C 
ATOM      5  O   UNL     1      -7.138   6.494   9.067  1.00  0.00    -0.274 OA
ATOM      6  H   UNL     1      -5.887   8.395   8.782  1.00  0.00     0.163 HD
BRANCH   4   7
ATOM      7  C   UNL     1      -5.830   5.285   7.405  1.00  0.00     0.067 C 
ATOM      8  C   UNL     1      -6.212   5.663   5.936  1.00  0.00     0.020 C 
ATOM      9  C   UNL     1      -4.330   4.921   7.580  1.00  0.00     0.138 C 
ATOM     10  C   UNL     1      -5.466   4.888   4.860  1.00  0.00     0.023 C 
ATOM     11  N   UNL     1      -3.812   4.120   6.460  1.00  0.00    -0.324 N 
ATOM     12  C   UNL     1      -3.987   4.784   5.185  1.00  0.00     0.121 C 
BRANCH   7  13
ATOM     13  C   UNL     1      -6.728   4.051   7.786  1.00  0.00     0.018 C 
BRANCH  13  14
ATOM     14  C   UNL     1      -6.393   3.213   9.032  1.00  0.00    -0.002 C 
ATOM     15  C   UNL     1      -6.364   3.955  10.356  1.00  0.00     0.004 C 
ENDBRANCH  13  14
ENDBRANCH   7  13
BRANCH  11  16
ATOM     16  C   UNL     1      -3.286   2.897   6.731  1.00  0.00     0.317 C 
ATOM     17  O   UNL     1      -3.143   2.499   7.894  1.00  0.00    -0.249 OA
ATOM     18  N   UNL     1      -2.893   2.002   5.817  1.00  0.00    -0.333 N 
ATOM     19  H   UNL     1      -2.650   1.163   6.271  1.00  0.00     0.165 HD
BRANCH  18  20
ATOM     20  C   UNL     1      -2.700   1.837   4.378  1.00  0.00     0.112 C 
ATOM     21  C   UNL     1      -3.927   1.909   3.502  1.00  0.00     0.056 C 
ATOM     22  C   UNL     1      -1.652   2.730   3.739  1.00  0.00     0.185 C 
ATOM     23  C   UNL     1      -3.527   2.786   2.332  1.00  0.00     0.162 C 
ATOM     24  O   UNL     1      -2.158   3.171   2.476  1.00  0.00    -0.379 OA
ENDBRANCH  18  20
ENDBRANCH  11  16
ENDBRANCH   4   7
ENDBRANCH   2   3
ENDBRANCH   1   2
BRANCH   1  25
ATOM     25  C   UNL     1      -5.566  10.512   6.858  1.00  0.00     0.118 C 
BRANCH  25  26
ATOM     26  N   UNL     1      -4.524  11.252   7.553  1.00  0.00    -0.352 N 
ATOM     27  C   UNL     1      -3.972  12.473   7.262  1.00  0.00     0.251 C 
ATOM     28  H   UNL     1      -4.160  10.810   8.354  1.00  0.00     0.163 HD
ATOM     29  O   UNL     1      -2.939  12.820   7.836  1.00  0.00    -0.269 OA
BRANCH  27  30
ATOM     30  C   UNL     1      -4.597  13.360   6.257  1.00  0.00     0.039 A 
ATOM     31  C   UNL     1      -3.780  14.097   5.397  1.00  0.00     0.014 A 
ATOM     32  C   UNL     1      -5.986  13.485   6.175  1.00  0.00     0.014 A 
ATOM     33  C   UNL     1      -4.357  14.915   4.423  1.00  0.00     0.010 A 
ATOM     34  C   UNL     1      -6.559  14.215   5.140  1.00  0.00     0.010 A 
ATOM     35  C   UNL     1      -5.752  14.957   4.266  1.00  0.00    -0.014 A 
BRANCH  35  36
ATOM     36  C   UNL     1      -6.393  15.799   3.224  1.00  0.00     0.031 A 
ATOM     37  C   UNL     1      -7.328  16.910   3.627  1.00  0.00     0.074 A 
ATOM     38  C   UNL     1      -6.183  15.529   1.920  1.00  0.00     0.049 A 
ATOM     39  N   UNL     1      -8.034  17.709   2.870  1.00  0.00    -0.248 NA
ATOM     40  C   UNL     1      -7.516  17.134   5.071  1.00  0.00     0.031 C 
ATOM     41  C   UNL     1      -5.331  14.456   1.401  1.00  0.00     0.029 A 
ATOM     42  N   UNL     1      -6.676  16.134   0.791  1.00  0.00    -0.354 N 
ATOM     43  C   UNL     1      -8.762  18.511   3.742  1.00  0.00     0.074 A 
ATOM     44  C   UNL     1      -8.457  18.065   5.082  1.00  0.00     0.031 C 
ATOM     45  C   UNL     1      -5.337  14.499   0.059  1.00  0.00     0.029 A 
ATOM     46  C   UNL     1      -6.226  15.569  -0.380  1.00  0.00     0.049 A 
ATOM     47  H   UNL     1      -7.293  16.900   0.817  1.00  0.00     0.167 HD
ATOM     48  C   UNL     1      -9.591  19.543   3.456  1.00  0.00     0.031 A 
ATOM     49  C   UNL     1      -6.504  15.874  -1.662  1.00  0.00     0.031 A 
ATOM     50  C   UNL     1      -9.878  19.994   2.121  1.00  0.00     0.049 A 
ATOM     51  C   UNL     1      -7.438  17.017  -1.956  1.00  0.00     0.074 A 
ATOM     52  C   UNL     1     -10.660  21.065   1.725  1.00  0.00     0.029 A 
ATOM     53  N   UNL     1      -9.394  19.402   0.964  1.00  0.00    -0.354 N 
ATOM     54  N   UNL     1      -8.066  17.805  -1.115  1.00  0.00    -0.248 NA
ATOM     55  C   UNL     1      -7.689  17.322  -3.371  1.00  0.00     0.031 C 
ATOM     56  C   UNL     1     -10.695  21.085   0.327  1.00  0.00     0.029 A 
ATOM     57  C   UNL     1      -9.880  20.069  -0.147  1.00  0.00     0.049 A 
ATOM     58  H   UNL     1      -8.793  18.622   0.937  1.00  0.00     0.167 HD
ATOM     59  C   UNL     1      -8.762  18.718  -1.901  1.00  0.00     0.074 A 
ATOM     60  C   UNL     1      -8.464  18.393  -3.281  1.00  0.00     0.031 C 
ATOM     61  C   UNL     1      -9.571  19.735  -1.515  1.00  0.00     0.031 A 
BRANCH  48  62
ATOM     62  C   UNL     1     -10.249  20.252   4.611  1.00  0.00    -0.014 A 
ATOM     63  C   UNL     1      -9.500  21.036   5.508  1.00  0.00     0.010 A 
ATOM     64  C   UNL     1     -11.643  20.166   4.781  1.00  0.00     0.010 A 
ATOM     65  C   UNL     1     -10.125  21.685   6.576  1.00  0.00     0.020 A 
ATOM     66  C   UNL     1     -12.277  20.841   5.829  1.00  0.00     0.020 A 
ATOM     67  C   UNL     1     -11.511  21.582   6.730  1.00  0.00     0.054 A 
BRANCH  67  68
ATOM     68  S   UNL     1     -12.297  22.459   8.109  1.00  0.00     0.124 S 
ATOM     69  O   UNL     1     -11.858  21.669   9.257  1.00  0.00    -0.237 OA
ATOM     70  O   UNL     1     -11.719  23.796   8.009  1.00  0.00    -0.237 OA
ATOM     71  O   UNL     1     -13.724  22.376   7.806  1.00  0.00    -0.744 OA
ENDBRANCH  67  68
ENDBRANCH  48  62
BRANCH  49  72
ATOM     72  C   UNL     1      -5.880  15.093  -2.766  1.00  0.00    -0.014 A 
ATOM     73  C   UNL     1      -4.915  15.682  -3.603  1.00  0.00     0.010 A 
ATOM     74  C   UNL     1      -6.243  13.751  -2.983  1.00  0.00     0.010 A 
ATOM     75  C   UNL     1      -4.343  14.952  -4.649  1.00  0.00     0.020 A 
ATOM     76  C   UNL     1      -5.651  13.008  -4.008  1.00  0.00     0.020 A 
ATOM     77  C   UNL     1      -4.713  13.618  -4.843  1.00  0.00     0.054 A 
BRANCH  77  78
ATOM     78  S   UNL     1      -3.925  12.677  -6.180  1.00  0.00     0.124 S 
ATOM     79  O   UNL     1      -4.540  13.263  -7.367  1.00  0.00    -0.237 OA
ATOM     80  O   UNL     1      -2.509  12.979  -5.984  1.00  0.00    -0.237 OA
ATOM     81  O   UNL     1      -4.305  11.295  -5.895  1.00  0.00    -0.744 OA
ENDBRANCH  77  78
ENDBRANCH  49  72
BRANCH  61  82
ATOM     82  C   UNL     1     -10.162  20.602  -2.595  1.00  0.00    -0.014 A 
ATOM     83  C   UNL     1     -11.171  20.125  -3.449  1.00  0.00     0.010 A 
ATOM     84  C   UNL     1      -9.736  21.939  -2.716  1.00  0.00     0.010 A 
ATOM     85  C   UNL     1     -11.721  20.959  -4.426  1.00  0.00     0.020 A 
ATOM     86  C   UNL     1     -10.306  22.785  -3.670  1.00  0.00     0.020 A 
ATOM     87  C   UNL     1     -11.285  22.284  -4.529  1.00  0.00     0.054 A 
BRANCH  87  88
ATOM     88  S   UNL     1     -12.048  23.358  -5.776  1.00  0.00     0.124 S 
ATOM     89  O   UNL     1     -11.479  22.836  -7.016  1.00  0.00    -0.237 OA
ATOM     90  O   UNL     1     -13.474  23.108  -5.584  1.00  0.00    -0.237 OA
ATOM     91  O   UNL     1     -11.600  24.698  -5.401  1.00  0.00    -0.744 OA
ENDBRANCH  87  88
ENDBRANCH  61  82
ENDBRANCH  35  36
ENDBRANCH  27  30
ENDBRANCH  25  26
ENDBRANCH   1  25
TORSDOF 17
