REMARK SMILES O=C(NCCCNC(=O)c1cnc(-c2ccccc2Cl)nc1)c1ccc(-c2c3nc(c(-c4ccc(S(=O)(=O)[O-])cc4)c4ccc([nH]4)c(-c4ccc(S(=O)(=O)[O-])cc4)c4nc(c(-c5ccc(S(=O)(=O)[O-])cc5)c5ccc2[nH]5)C=C4)C=C3)cc1
REMARK SMILES IDX 4 1 3 2 1 3 2 4 23 6 24 7 82 8 25 9 81 10 26 11 27 12 28 13
REMARK SMILES IDX 75 14 29 15 80 16 74 17 76 18 30 19 79 20 73 21 72 22 31 24
REMARK SMILES IDX 61 25 42 26 60 27 43 28 46 29 59 30 77 31 44 32 45 33 58 35
REMARK SMILES IDX 78 36 47 37 32 38 33 39 41 40 34 41 40 42 35 43 36 44 37 45
REMARK SMILES IDX 38 46 39 47 62 48 63 49 71 50 64 51 70 52 65 53 66 54 67 55
REMARK SMILES IDX 68 56 69 57 48 58 49 59 57 60 50 61 56 62 51 63 52 64 53 65
REMARK SMILES IDX 54 66 55 67 5 68 6 69 7 70 8 71 9 73 10 74 11 75 22 76 12 77
REMARK SMILES IDX 21 78 13 79 14 80 15 81 19 82 16 83 18 84 20 85 17 86
REMARK H PARENT 3 5 76 23 46 34 7 72
REMARK Flexibility Score: inf
ROOT
ATOM      1  C   UNL     1       4.529  -1.252  -0.401  1.00  0.00     0.118 C 
ENDROOT
BRANCH   1   2
ATOM      2  N   UNL     1       3.106  -0.953  -0.502  1.00  0.00    -0.352 N 
ATOM      3  O   UNL     1       1.161   0.097  -0.112  1.00  0.00    -0.269 OA
ATOM      4  C   UNL     1       2.389   0.146  -0.094  1.00  0.00     0.251 C 
ATOM      5  H   UNL     1       2.570  -1.655  -0.936  1.00  0.00     0.163 HD
BRANCH   4   6
ATOM      6  C   UNL     1       3.074   1.369   0.381  1.00  0.00     0.039 A 
ATOM      7  C   UNL     1       4.218   1.850  -0.256  1.00  0.00     0.014 A 
ATOM      8  C   UNL     1       2.537   2.071   1.466  1.00  0.00     0.014 A 
ATOM      9  C   UNL     1       4.914   2.926   0.285  1.00  0.00     0.010 A 
ATOM     10  C   UNL     1       3.187   3.210   1.952  1.00  0.00     0.010 A 
ATOM     11  C   UNL     1       4.405   3.623   1.392  1.00  0.00    -0.014 A 
BRANCH  11  12
ATOM     12  C   UNL     1       5.148   4.798   1.917  1.00  0.00     0.031 A 
ATOM     13  C   UNL     1       5.740   4.788   3.301  1.00  0.00     0.074 A 
ATOM     14  C   UNL     1       5.325   5.869   1.118  1.00  0.00     0.049 A 
ATOM     15  N   UNL     1       6.466   5.705   3.892  1.00  0.00    -0.248 NA
ATOM     16  C   UNL     1       5.479   3.604   4.134  1.00  0.00     0.031 C 
ATOM     17  C   UNL     1       4.797   6.002  -0.242  1.00  0.00     0.029 A 
ATOM     18  N   UNL     1       6.020   7.034   1.319  1.00  0.00    -0.354 N 
ATOM     19  C   UNL     1       6.725   5.223   5.170  1.00  0.00     0.074 A 
ATOM     20  C   UNL     1       6.060   3.941   5.277  1.00  0.00     0.031 C 
ATOM     21  C   UNL     1       5.240   7.150  -0.776  1.00  0.00     0.029 A 
ATOM     22  C   UNL     1       6.031   7.862   0.222  1.00  0.00     0.049 A 
ATOM     23  H   UNL     1       6.468   7.256   2.167  1.00  0.00     0.167 HD
ATOM     24  C   UNL     1       7.452   5.792   6.162  1.00  0.00     0.031 A 
ATOM     25  C   UNL     1       6.611   9.062   0.033  1.00  0.00     0.031 A 
ATOM     26  C   UNL     1       8.117   7.064   6.052  1.00  0.00     0.049 A 
ATOM     27  C   UNL     1       7.403   9.676   1.149  1.00  0.00     0.074 A 
ATOM     28  C   UNL     1       8.905   7.709   6.990  1.00  0.00     0.029 A 
ATOM     29  N   UNL     1       8.071   7.888   4.937  1.00  0.00    -0.354 N 
ATOM     30  N   UNL     1       7.658   9.190   2.340  1.00  0.00    -0.248 NA
ATOM     31  C   UNL     1       7.986  11.000   0.895  1.00  0.00     0.031 C 
ATOM     32  C   UNL     1       9.299   8.943   6.458  1.00  0.00     0.029 A 
ATOM     33  C   UNL     1       8.799   9.044   5.170  1.00  0.00     0.049 A 
ATOM     34  H   UNL     1       7.592   7.682   4.102  1.00  0.00     0.167 HD
ATOM     35  C   UNL     1       8.449  10.141   2.973  1.00  0.00     0.074 A 
ATOM     36  C   UNL     1       8.640  11.223   2.027  1.00  0.00     0.031 C 
ATOM     37  C   UNL     1       8.973  10.117   4.223  1.00  0.00     0.031 A 
BRANCH  24  38
ATOM     38  C   UNL     1       7.529   5.053   7.473  1.00  0.00    -0.014 A 
ATOM     39  C   UNL     1       8.286   3.876   7.608  1.00  0.00     0.010 A 
ATOM     40  C   UNL     1       6.840   5.554   8.593  1.00  0.00     0.010 A 
ATOM     41  C   UNL     1       8.308   3.183   8.822  1.00  0.00     0.020 A 
ATOM     42  C   UNL     1       6.879   4.878   9.816  1.00  0.00     0.020 A 
ATOM     43  C   UNL     1       7.594   3.683   9.916  1.00  0.00     0.054 A 
BRANCH  43  44
ATOM     44  S   UNL     1       7.623   2.760  11.477  1.00  0.00     0.124 S 
ATOM     45  O   UNL     1       6.707   1.658  11.191  1.00  0.00    -0.237 OA
ATOM     46  O   UNL     1       9.030   2.387  11.607  1.00  0.00    -0.237 OA
ATOM     47  O   UNL     1       7.146   3.728  12.461  1.00  0.00    -0.744 OA
ENDBRANCH  43  44
ENDBRANCH  24  38
BRANCH  25  48
ATOM     48  C   UNL     1       6.470   9.743  -1.281  1.00  0.00    -0.014 A 
ATOM     49  C   UNL     1       7.560   9.816  -2.165  1.00  0.00     0.010 A 
ATOM     50  C   UNL     1       5.227  10.271  -1.678  1.00  0.00     0.010 A 
ATOM     51  C   UNL     1       7.410  10.405  -3.424  1.00  0.00     0.020 A 
ATOM     52  C   UNL     1       5.068  10.837  -2.945  1.00  0.00     0.020 A 
ATOM     53  C   UNL     1       6.163  10.906  -3.808  1.00  0.00     0.054 A 
BRANCH  53  54
ATOM     54  S   UNL     1       5.969  11.587  -5.478  1.00  0.00     0.124 S 
ATOM     55  O   UNL     1       6.612  12.891  -5.350  1.00  0.00    -0.237 OA
ATOM     56  O   UNL     1       6.676  10.610  -6.304  1.00  0.00    -0.237 OA
ATOM     57  O   UNL     1       4.521  11.617  -5.668  1.00  0.00    -0.744 OA
ENDBRANCH  53  54
ENDBRANCH  25  48
BRANCH  37  58
ATOM     58  C   UNL     1       9.828  11.285   4.630  1.00  0.00    -0.014 A 
ATOM     59  C   UNL     1       9.259  12.534   4.933  1.00  0.00     0.010 A 
ATOM     60  C   UNL     1      11.220  11.119   4.740  1.00  0.00     0.010 A 
ATOM     61  C   UNL     1      10.072  13.608   5.307  1.00  0.00     0.020 A 
ATOM     62  C   UNL     1      12.034  12.183   5.136  1.00  0.00     0.020 A 
ATOM     63  C   UNL     1      11.455  13.426   5.402  1.00  0.00     0.054 A 
BRANCH  63  64
ATOM     64  S   UNL     1      12.490  14.823   5.919  1.00  0.00     0.124 S 
ATOM     65  O   UNL     1      12.549  15.624   4.700  1.00  0.00    -0.237 OA
ATOM     66  O   UNL     1      11.723  15.405   7.017  1.00  0.00    -0.237 OA
ATOM     67  O   UNL     1      13.749  14.193   6.312  1.00  0.00    -0.744 OA
ENDBRANCH  63  64
ENDBRANCH  37  58
ENDBRANCH  11  12
ENDBRANCH   4   6
ENDBRANCH   1   2
BRANCH   1  68
ATOM     68  C   UNL     1       4.822  -2.406   0.551  1.00  0.00     0.042 C 
BRANCH  68  69
ATOM     69  C   UNL     1       4.221  -3.736   0.114  1.00  0.00     0.118 C 
BRANCH  69  70
ATOM     70  N   UNL     1       4.804  -4.228  -1.131  1.00  0.00    -0.352 N 
ATOM     71  C   UNL     1       5.736  -5.216  -1.327  1.00  0.00     0.254 C 
ATOM     72  H   UNL     1       4.480  -3.787  -1.950  1.00  0.00     0.163 HD
ATOM     73  O   UNL     1       6.264  -5.377  -2.422  1.00  0.00    -0.269 OA
BRANCH  71  74
ATOM     74  C   UNL     1       6.116  -6.082  -0.216  1.00  0.00     0.076 A 
ATOM     75  C   UNL     1       5.194  -6.795   0.513  1.00  0.00     0.129 A 
ATOM     76  C   UNL     1       7.428  -6.236   0.158  1.00  0.00     0.129 A 
ATOM     77  N   UNL     1       5.510  -7.506   1.613  1.00  0.00    -0.236 NA
ATOM     78  N   UNL     1       7.802  -6.947   1.245  1.00  0.00    -0.236 NA
ATOM     79  C   UNL     1       6.813  -7.506   1.971  1.00  0.00     0.160 A 
BRANCH  79  80
ATOM     80  C   UNL     1       7.139  -8.134   3.256  1.00  0.00     0.038 A 
ATOM     81  C   UNL     1       6.516  -9.353   3.603  1.00  0.00     0.013 A 
ATOM     82  C   UNL     1       8.001  -7.556   4.209  1.00  0.00     0.052 A 
ATOM     83  C   UNL     1       6.744  -9.973   4.834  1.00  0.00     0.001 A 
ATOM     84  C   UNL     1       8.231  -8.182   5.442  1.00  0.00     0.021 A 
ATOM     85  Cl  UNL     1       8.766  -6.017   3.983  1.00  0.00    -0.084 Cl
ATOM     86  C   UNL     1       7.605  -9.387   5.754  1.00  0.00     0.002 A 
ENDBRANCH  79  80
ENDBRANCH  71  74
ENDBRANCH  69  70
ENDBRANCH  68  69
ENDBRANCH   1  68
TORSDOF 14
