REMARK SMILES C=CC[C@]1(C(=O)NCCCNC(=O)c2ccc(-c3c4nc(c(-c5ccc(S(=O)(=O)[O-])cc5)c5ccc([nH]5)c(-c5ccc(S(=O)(=O)[O-])cc5)c5nc(c(-c6ccc(S(=O)(=O)[O-])cc6)c6ccc3[nH]6)C=C5)C=C4)cc2)c2ccccc2C(=O)N1Cc1ccc([N+](=O)[O-])cc1
REMARK SMILES IDX 9 1 8 2 7 3 5 4 6 5 4 7 74 8 82 9 75 10 79 11 80 12 76 13
REMARK SMILES IDX 78 14 81 15 77 16 3 17 2 18 1 19 83 20 84 21 85 22 92 23
REMARK SMILES IDX 86 24 91 25 87 26 88 27 89 28 90 29 10 30 11 31 12 32 13 34
REMARK SMILES IDX 14 35 15 36 73 37 16 38 72 39 17 40 18 41 19 42 66 43 20 44
REMARK SMILES IDX 71 45 65 46 67 47 21 48 70 49 64 50 63 51 22 53 52 54 33 55
REMARK SMILES IDX 51 56 34 57 37 58 50 59 68 60 35 61 36 62 49 64 69 65 38 66
REMARK SMILES IDX 23 67 24 68 32 69 25 70 31 71 26 72 27 73 28 74 29 75 30 76
REMARK SMILES IDX 53 77 54 78 62 79 55 80 61 81 56 82 57 83 58 84 59 85 60 86
REMARK SMILES IDX 39 87 40 88 48 89 41 90 47 91 42 92 43 93 44 94 45 95 46 96
REMARK H PARENT 7 6 11 33 67 52 37 63
REMARK Flexibility Score: inf
ROOT
ATOM      1  C   UNL     1      -0.050   0.904   2.975  1.00  0.00     0.042 C 
ENDROOT
BRANCH   1   2
ATOM      2  C   UNL     1      -0.223   1.953   1.900  1.00  0.00     0.117 C 
BRANCH   2   3
ATOM      3  N   UNL     1       0.192   1.538   0.576  1.00  0.00    -0.354 N 
ATOM      4  C   UNL     1      -0.373   1.769  -0.643  1.00  0.00     0.251 C 
ATOM      5  O   UNL     1       0.384   1.572  -1.601  1.00  0.00    -0.272 OA
ATOM      6  H   UNL     1       1.018   1.003   0.553  1.00  0.00     0.163 HD
BRANCH   4   7
ATOM      7  C   UNL     1      -1.819   2.364  -0.812  1.00  0.00     0.151 C 
ATOM      8  C   UNL     1      -1.677   3.885  -0.594  1.00  0.00     0.000 A 
ATOM      9  N   UNL     1      -2.198   2.351  -2.273  1.00  0.00    -0.315 N 
ATOM     10  C   UNL     1      -1.420   4.630   0.555  1.00  0.00     0.007 A 
ATOM     11  C   UNL     1      -1.744   4.554  -1.812  1.00  0.00     0.046 A 
ATOM     12  C   UNL     1      -2.099   3.599  -2.861  1.00  0.00     0.255 C 
ATOM     13  C   UNL     1      -1.159   6.001   0.453  1.00  0.00     0.000 A 
ATOM     14  C   UNL     1      -1.534   5.921  -1.936  1.00  0.00     0.014 A 
ATOM     15  O   UNL     1      -2.334   3.915  -4.016  1.00  0.00    -0.269 OA
ATOM     16  C   UNL     1      -1.212   6.644  -0.787  1.00  0.00     0.001 A 
BRANCH   7  17
ATOM     17  C   UNL     1      -2.976   1.770   0.056  1.00  0.00     0.070 C 
BRANCH  17  18
ATOM     18  C   UNL     1      -3.153   0.301   0.398  1.00  0.00    -0.031 C 
ATOM     19  C   UNL     1      -2.259  -0.662   0.658  1.00  0.00     0.004 C 
ENDBRANCH  17  18
ENDBRANCH   7  17
BRANCH   9  20
ATOM     20  C   UNL     1      -2.684   1.194  -3.023  1.00  0.00     0.157 C 
BRANCH  20  21
ATOM     21  C   UNL     1      -1.626   0.214  -3.474  1.00  0.00    -0.028 A 
ATOM     22  C   UNL     1      -1.006   0.327  -4.728  1.00  0.00     0.012 A 
ATOM     23  C   UNL     1      -1.235  -0.834  -2.632  1.00  0.00     0.012 A 
ATOM     24  C   UNL     1       0.011  -0.562  -5.102  1.00  0.00     0.086 A 
ATOM     25  C   UNL     1      -0.190  -1.693  -2.964  1.00  0.00     0.086 A 
ATOM     26  C   UNL     1       0.436  -1.546  -4.200  1.00  0.00     0.269 A 
BRANCH  26  27
ATOM     27  N   UNL     1       1.548  -2.433  -4.548  1.00  0.00     0.062 N 
ATOM     28  O   UNL     1       1.876  -2.506  -5.741  1.00  0.00    -0.258 OA
ATOM     29  O   UNL     1       2.090  -3.066  -3.629  1.00  0.00    -0.258 OA
ENDBRANCH  26  27
ENDBRANCH  20  21
ENDBRANCH   9  20
ENDBRANCH   4   7
ENDBRANCH   2   3
ENDBRANCH   1   2
BRANCH   1  30
ATOM     30  C   UNL     1       1.327   0.281   2.964  1.00  0.00     0.118 C 
BRANCH  30  31
ATOM     31  N   UNL     1       2.365   1.291   3.147  1.00  0.00    -0.352 N 
ATOM     32  C   UNL     1       3.002   1.659   4.309  1.00  0.00     0.251 C 
ATOM     33  H   UNL     1       2.644   1.771   2.334  1.00  0.00     0.163 HD
ATOM     34  O   UNL     1       3.570   2.741   4.391  1.00  0.00    -0.269 OA
BRANCH  32  35
ATOM     35  C   UNL     1       2.965   0.727   5.450  1.00  0.00     0.039 A 
ATOM     36  C   UNL     1       2.744   1.204   6.742  1.00  0.00     0.014 A 
ATOM     37  C   UNL     1       3.099  -0.641   5.209  1.00  0.00     0.014 A 
ATOM     38  C   UNL     1       2.596   0.288   7.784  1.00  0.00     0.010 A 
ATOM     39  C   UNL     1       2.795  -1.543   6.210  1.00  0.00     0.010 A 
ATOM     40  C   UNL     1       2.584  -1.091   7.518  1.00  0.00    -0.014 A 
BRANCH  40  41
ATOM     41  C   UNL     1       2.420  -2.099   8.590  1.00  0.00     0.031 A 
ATOM     42  C   UNL     1       3.502  -3.124   8.809  1.00  0.00     0.074 A 
ATOM     43  C   UNL     1       1.278  -2.140   9.303  1.00  0.00     0.049 A 
ATOM     44  N   UNL     1       3.524  -4.136   9.636  1.00  0.00    -0.248 NA
ATOM     45  C   UNL     1       4.698  -3.029   7.952  1.00  0.00     0.031 C 
ATOM     46  C   UNL     1       0.135  -1.240   9.131  1.00  0.00     0.029 A 
ATOM     47  N   UNL     1       0.889  -2.980  10.313  1.00  0.00    -0.354 N 
ATOM     48  C   UNL     1       4.716  -4.804   9.378  1.00  0.00     0.074 A 
ATOM     49  C   UNL     1       5.346  -4.138   8.263  1.00  0.00     0.031 C 
ATOM     50  C   UNL     1      -0.808  -1.550  10.034  1.00  0.00     0.029 A 
ATOM     51  C   UNL     1      -0.359  -2.697  10.815  1.00  0.00     0.049 A 
ATOM     52  H   UNL     1       1.450  -3.717  10.648  1.00  0.00     0.167 HD
ATOM     53  C   UNL     1       5.260  -5.855  10.035  1.00  0.00     0.031 A 
ATOM     54  C   UNL     1      -1.062  -3.298  11.794  1.00  0.00     0.031 A 
ATOM     55  C   UNL     1       4.630  -6.497  11.155  1.00  0.00     0.049 A 
ATOM     56  C   UNL     1      -0.441  -4.460  12.519  1.00  0.00     0.074 A 
ATOM     57  C   UNL     1       5.110  -7.530  11.937  1.00  0.00     0.029 A 
ATOM     58  N   UNL     1       3.377  -6.164  11.650  1.00  0.00    -0.354 N 
ATOM     59  N   UNL     1       0.723  -5.031  12.314  1.00  0.00    -0.248 NA
ATOM     60  C   UNL     1      -1.219  -5.048  13.616  1.00  0.00     0.031 C 
ATOM     61  C   UNL     1       4.120  -7.863  12.868  1.00  0.00     0.029 A 
ATOM     62  C   UNL     1       3.054  -6.990  12.711  1.00  0.00     0.049 A 
ATOM     63  H   UNL     1       2.802  -5.446  11.297  1.00  0.00     0.167 HD
ATOM     64  C   UNL     1       0.828  -6.032  13.272  1.00  0.00     0.074 A 
ATOM     65  C   UNL     1      -0.384  -5.975  14.066  1.00  0.00     0.031 C 
ATOM     66  C   UNL     1       1.835  -6.918  13.479  1.00  0.00     0.031 A 
BRANCH  53  67
ATOM     67  C   UNL     1       6.592  -6.363   9.544  1.00  0.00    -0.014 A 
ATOM     68  C   UNL     1       7.753  -5.569   9.627  1.00  0.00     0.010 A 
ATOM     69  C   UNL     1       6.686  -7.648   8.981  1.00  0.00     0.010 A 
ATOM     70  C   UNL     1       8.963  -6.023   9.098  1.00  0.00     0.020 A 
ATOM     71  C   UNL     1       7.905  -8.122   8.486  1.00  0.00     0.020 A 
ATOM     72  C   UNL     1       9.030  -7.296   8.525  1.00  0.00     0.054 A 
BRANCH  72  73
ATOM     73  S   UNL     1      10.614  -7.858   7.845  1.00  0.00     0.124 S 
ATOM     74  O   UNL     1      10.731  -7.038   6.641  1.00  0.00    -0.237 OA
ATOM     75  O   UNL     1      11.553  -7.538   8.916  1.00  0.00    -0.237 OA
ATOM     76  O   UNL     1      10.403  -9.284   7.608  1.00  0.00    -0.744 OA
ENDBRANCH  72  73
ENDBRANCH  53  67
BRANCH  54  77
ATOM     77  C   UNL     1      -2.412  -2.784  12.150  1.00  0.00    -0.014 A 
ATOM     78  C   UNL     1      -2.623  -2.097  13.358  1.00  0.00     0.010 A 
ATOM     79  C   UNL     1      -3.486  -2.929  11.251  1.00  0.00     0.010 A 
ATOM     80  C   UNL     1      -3.881  -1.566  13.661  1.00  0.00     0.020 A 
ATOM     81  C   UNL     1      -4.736  -2.375  11.537  1.00  0.00     0.020 A 
ATOM     82  C   UNL     1      -4.927  -1.700  12.744  1.00  0.00     0.054 A 
BRANCH  82  83
ATOM     83  S   UNL     1      -6.526  -0.928  13.120  1.00  0.00     0.124 S 
ATOM     84  O   UNL     1      -7.028  -1.776  14.196  1.00  0.00    -0.237 OA
ATOM     85  O   UNL     1      -6.136   0.425  13.509  1.00  0.00    -0.237 OA
ATOM     86  O   UNL     1      -7.255  -1.018  11.857  1.00  0.00    -0.744 OA
ENDBRANCH  82  83
ENDBRANCH  54  77
BRANCH  66  87
ATOM     87  C   UNL     1       1.683  -7.881  14.626  1.00  0.00    -0.014 A 
ATOM     88  C   UNL     1       0.756  -8.936  14.576  1.00  0.00     0.010 A 
ATOM     89  C   UNL     1       2.530  -7.762  15.743  1.00  0.00     0.010 A 
ATOM     90  C   UNL     1       0.656  -9.837  15.639  1.00  0.00     0.020 A 
ATOM     91  C   UNL     1       2.456  -8.680  16.792  1.00  0.00     0.020 A 
ATOM     92  C   UNL     1       1.509  -9.704  16.739  1.00  0.00     0.054 A 
BRANCH  92  93
ATOM     93  S   UNL     1       1.389 -10.914  18.084  1.00  0.00     0.124 S 
ATOM     94  O   UNL     1       0.123 -10.547  18.710  1.00  0.00    -0.237 OA
ATOM     95  O   UNL     1       1.391 -12.188  17.368  1.00  0.00    -0.237 OA
ATOM     96  O   UNL     1       2.581 -10.657  18.889  1.00  0.00    -0.744 OA
ENDBRANCH  92  93
ENDBRANCH  66  87
ENDBRANCH  40  41
ENDBRANCH  32  35
ENDBRANCH  30  31
ENDBRANCH   1  30
TORSDOF 18
