REMARK SMILES C=CCS(=O)(=O)N[C@H](CC(N)=O)C(=O)NCCCNC(=O)c1ccc(-c2c3nc(c(-c4ccc(S(=O)(=O)[O-])cc4)c4ccc([nH]4)c(-c4ccc(S(=O)(=O)[O-])cc4)c4nc(c(-c5ccc(S(=O)(=O)[O-])cc5)c5ccc2[nH]5)C=C4)C=C3)cc1
REMARK SMILES IDX 16 1 15 2 13 3 14 4 8 6 7 7 4 9 5 10 6 11 3 12 2 13 1 14
REMARK SMILES IDX 9 15 10 16 11 17 12 18 17 21 18 22 19 23 20 24 21 26 22 27
REMARK SMILES IDX 23 28 81 29 24 30 80 31 25 32 26 33 27 34 74 35 28 36 79 37
REMARK SMILES IDX 73 38 75 39 29 40 78 41 72 42 71 43 30 45 60 46 41 47 59 48
REMARK SMILES IDX 42 49 45 50 58 51 76 52 43 53 44 54 57 56 77 57 46 58 31 59
REMARK SMILES IDX 32 60 40 61 33 62 39 63 34 64 35 65 36 66 37 67 38 68 61 69
REMARK SMILES IDX 62 70 70 71 63 72 69 73 64 74 65 75 66 76 67 77 68 78 47 79
REMARK SMILES IDX 48 80 56 81 49 82 55 83 50 84 51 85 52 86 53 87 54 88
REMARK H PARENT 15 5 7 8 11 19 11 20 19 25 75 44 45 55
REMARK Flexibility Score: inf
ROOT
ATOM      1  C   UNL     1      -0.527  -2.390   5.779  1.00  0.00     0.117 C 
ENDROOT
BRANCH   1   2
ATOM      2  N   UNL     1      -0.013  -3.038   4.586  1.00  0.00    -0.355 N 
ATOM      3  C   UNL     1       0.338  -2.537   3.380  1.00  0.00     0.238 C 
ATOM      4  O   UNL     1       0.692  -3.345   2.514  1.00  0.00    -0.273 OA
ATOM      5  H   UNL     1       0.101  -4.012   4.670  1.00  0.00     0.163 HD
BRANCH   3   6
ATOM      6  C   UNL     1       0.293  -1.051   3.062  1.00  0.00     0.168 C 
BRANCH   6   7
ATOM      7  N   UNL     1       0.870  -0.063   4.003  1.00  0.00    -0.202 NA
ATOM      8  H   UNL     1       0.993   0.794   3.463  1.00  0.00     0.141 HD
BRANCH   7   9
ATOM      9  S   UNL     1       2.308  -0.285   4.835  1.00  0.00     0.215 S 
ATOM     10  O   UNL     1       2.223  -1.488   5.629  1.00  0.00    -0.212 OA
ATOM     11  O   UNL     1       2.511   0.985   5.502  1.00  0.00    -0.212 OA
BRANCH   9  12
ATOM     12  C   UNL     1       3.632  -0.481   3.625  1.00  0.00     0.180 C 
BRANCH  12  13
ATOM     13  C   UNL     1       3.501  -1.765   2.862  1.00  0.00    -0.017 C 
ATOM     14  C   UNL     1       3.571  -1.857   1.528  1.00  0.00     0.005 C 
ENDBRANCH  12  13
ENDBRANCH   9  12
ENDBRANCH   7   9
ENDBRANCH   6   7
BRANCH   6  15
ATOM     15  C   UNL     1      -1.080  -0.602   2.539  1.00  0.00     0.129 C 
BRANCH  15  16
ATOM     16  C   UNL     1      -2.254  -0.922   3.426  1.00  0.00     0.219 C 
ATOM     17  N   UNL     1      -2.612   0.038   4.324  1.00  0.00    -0.370 N 
ATOM     18  O   UNL     1      -2.868  -1.979   3.362  1.00  0.00    -0.275 OA
ATOM     19  H   UNL     1      -2.110   0.884   4.366  1.00  0.00     0.159 HD
ATOM     20  H   UNL     1      -3.371  -0.115   4.931  1.00  0.00     0.159 HD
ENDBRANCH  15  16
ENDBRANCH   6  15
ENDBRANCH   3   6
ENDBRANCH   1   2
BRANCH   1  21
ATOM     21  C   UNL     1      -1.772  -3.092   6.285  1.00  0.00     0.042 C 
BRANCH  21  22
ATOM     22  C   UNL     1      -1.455  -4.473   6.832  1.00  0.00     0.118 C 
BRANCH  22  23
ATOM     23  N   UNL     1      -0.717  -4.410   8.089  1.00  0.00    -0.352 N 
ATOM     24  C   UNL     1      -1.127  -4.783   9.345  1.00  0.00     0.251 C 
ATOM     25  H   UNL     1       0.198  -4.051   8.028  1.00  0.00     0.163 HD
ATOM     26  O   UNL     1      -0.485  -4.451  10.335  1.00  0.00    -0.269 OA
BRANCH  24  27
ATOM     27  C   UNL     1      -2.368  -5.570   9.483  1.00  0.00     0.039 A 
ATOM     28  C   UNL     1      -3.297  -5.219  10.463  1.00  0.00     0.014 A 
ATOM     29  C   UNL     1      -2.630  -6.623   8.603  1.00  0.00     0.014 A 
ATOM     30  C   UNL     1      -4.520  -5.889  10.514  1.00  0.00     0.010 A 
ATOM     31  C   UNL     1      -3.892  -7.197   8.575  1.00  0.00     0.010 A 
ATOM     32  C   UNL     1      -4.843  -6.855   9.546  1.00  0.00    -0.014 A 
BRANCH  32  33
ATOM     33  C   UNL     1      -6.153  -7.550   9.550  1.00  0.00     0.031 A 
ATOM     34  C   UNL     1      -6.202  -9.049   9.697  1.00  0.00     0.074 A 
ATOM     35  C   UNL     1      -7.288  -6.846   9.366  1.00  0.00     0.049 A 
ATOM     36  N   UNL     1      -7.239  -9.845   9.679  1.00  0.00    -0.248 NA
ATOM     37  C   UNL     1      -4.914  -9.749   9.855  1.00  0.00     0.031 C 
ATOM     38  C   UNL     1      -7.365  -5.397   9.161  1.00  0.00     0.029 A 
ATOM     39  N   UNL     1      -8.597  -7.254   9.323  1.00  0.00    -0.354 N 
ATOM     40  C   UNL     1      -6.727 -11.132   9.801  1.00  0.00     0.074 A 
ATOM     41  C   UNL     1      -5.287 -11.018   9.824  1.00  0.00     0.031 C 
ATOM     42  C   UNL     1      -8.653  -5.034   9.057  1.00  0.00     0.029 A 
ATOM     43  C   UNL     1      -9.491  -6.226   9.137  1.00  0.00     0.049 A 
ATOM     44  H   UNL     1      -8.870  -8.195   9.416  1.00  0.00     0.167 HD
ATOM     45  C   UNL     1      -7.395 -12.304   9.914  1.00  0.00     0.031 A 
ATOM     46  C   UNL     1     -10.835  -6.243   9.038  1.00  0.00     0.031 A 
ATOM     47  C   UNL     1      -8.829 -12.408   9.907  1.00  0.00     0.049 A 
ATOM     48  C   UNL     1     -11.556  -7.558   9.155  1.00  0.00     0.074 A 
ATOM     49  C   UNL     1      -9.609 -13.538  10.073  1.00  0.00     0.029 A 
ATOM     50  N   UNL     1      -9.698 -11.343   9.722  1.00  0.00    -0.354 N 
ATOM     51  N   UNL     1     -11.057  -8.757   9.344  1.00  0.00    -0.248 NA
ATOM     52  C   UNL     1     -13.021  -7.522   9.056  1.00  0.00     0.031 C 
ATOM     53  C   UNL     1     -10.948 -13.166   9.926  1.00  0.00     0.029 A 
ATOM     54  C   UNL     1     -11.006 -11.793   9.741  1.00  0.00     0.049 A 
ATOM     55  H   UNL     1      -9.424 -10.406   9.596  1.00  0.00     0.167 HD
ATOM     56  C   UNL     1     -12.150  -9.614   9.417  1.00  0.00     0.074 A 
ATOM     57  C   UNL     1     -13.334  -8.793   9.270  1.00  0.00     0.031 C 
ATOM     58  C   UNL     1     -12.172 -10.959   9.592  1.00  0.00     0.031 A 
BRANCH  45  59
ATOM     59  C   UNL     1      -6.579 -13.563  10.052  1.00  0.00    -0.014 A 
ATOM     60  C   UNL     1      -5.813 -13.813  11.206  1.00  0.00     0.010 A 
ATOM     61  C   UNL     1      -6.603 -14.527   9.028  1.00  0.00     0.010 A 
ATOM     62  C   UNL     1      -5.054 -14.981  11.315  1.00  0.00     0.020 A 
ATOM     63  C   UNL     1      -5.873 -15.713   9.148  1.00  0.00     0.020 A 
ATOM     64  C   UNL     1      -5.090 -15.925  10.284  1.00  0.00     0.054 A 
BRANCH  64  65
ATOM     65  S   UNL     1      -4.119 -17.446  10.468  1.00  0.00     0.124 S 
ATOM     66  O   UNL     1      -2.752 -16.950  10.324  1.00  0.00    -0.237 OA
ATOM     67  O   UNL     1      -4.485 -17.898  11.808  1.00  0.00    -0.237 OA
ATOM     68  O   UNL     1      -4.591 -18.294   9.376  1.00  0.00    -0.744 OA
ENDBRANCH  64  65
ENDBRANCH  45  59
BRANCH  46  69
ATOM     69  C   UNL     1     -11.583  -4.971   8.831  1.00  0.00    -0.014 A 
ATOM     70  C   UNL     1     -12.405  -4.450   9.847  1.00  0.00     0.010 A 
ATOM     71  C   UNL     1     -11.468  -4.266   7.619  1.00  0.00     0.010 A 
ATOM     72  C   UNL     1     -13.113  -3.261   9.646  1.00  0.00     0.020 A 
ATOM     73  C   UNL     1     -12.150  -3.061   7.426  1.00  0.00     0.020 A 
ATOM     74  C   UNL     1     -12.978  -2.572   8.438  1.00  0.00     0.054 A 
BRANCH  74  75
ATOM     75  S   UNL     1     -13.869  -1.006   8.219  1.00  0.00     0.124 S 
ATOM     76  O   UNL     1     -15.251  -1.457   8.092  1.00  0.00    -0.237 OA
ATOM     77  O   UNL     1     -13.547  -0.287   9.450  1.00  0.00    -0.237 OA
ATOM     78  O   UNL     1     -13.279  -0.443   7.007  1.00  0.00    -0.744 OA
ENDBRANCH  74  75
ENDBRANCH  46  69
BRANCH  58  79
ATOM     79  C   UNL     1     -13.520 -11.626   9.671  1.00  0.00    -0.014 A 
ATOM     80  C   UNL     1     -14.344 -11.750   8.539  1.00  0.00     0.010 A 
ATOM     81  C   UNL     1     -13.940 -12.191  10.890  1.00  0.00     0.010 A 
ATOM     82  C   UNL     1     -15.579 -12.398   8.633  1.00  0.00     0.020 A 
ATOM     83  C   UNL     1     -15.158 -12.868  10.980  1.00  0.00     0.020 A 
ATOM     84  C   UNL     1     -15.976 -12.954   9.853  1.00  0.00     0.054 A 
BRANCH  84  85
ATOM     85  S   UNL     1     -17.563 -13.828   9.935  1.00  0.00     0.124 S 
ATOM     86  O   UNL     1     -18.520 -12.729   9.846  1.00  0.00    -0.237 OA
ATOM     87  O   UNL     1     -17.504 -14.707   8.770  1.00  0.00    -0.237 OA
ATOM     88  O   UNL     1     -17.517 -14.511  11.227  1.00  0.00    -0.744 OA
ENDBRANCH  84  85
ENDBRANCH  58  79
ENDBRANCH  32  33
ENDBRANCH  24  27
ENDBRANCH  22  23
ENDBRANCH  21  22
ENDBRANCH   1  21
TORSDOF 19
