REMARK SMILES Cc1nnc(SCC(=O)Nc2cccc(C(=O)NCCCNC(=O)c3ccc(-c4c5nc(c(-c6ccc(S(=O)(=O)[O-])cc6)c6ccc([nH]6)c(-c6ccc(S(=O)(=O)[O-])cc6)c6nc(c(-c7ccc(S(=O)(=O)[O-])cc7)c7ccc4[nH]7)C=C6)C=C5)cc3)c2)n1-c1ccccc1
REMARK SMILES IDX 19 1 18 2 16 3 17 4 15 6 11 7 12 8 85 9 13 10 14 11 10 12
REMARK SMILES IDX 8 13 9 14 7 16 6 17 5 18 1 19 2 20 3 21 86 22 4 23 87 24
REMARK SMILES IDX 88 25 92 26 89 27 91 28 90 29 20 30 21 31 22 32 23 33 24 35
REMARK SMILES IDX 25 36 26 37 84 38 27 39 83 40 28 41 29 42 30 43 77 44 31 45
REMARK SMILES IDX 82 46 76 47 78 48 32 49 81 50 75 51 74 52 33 54 63 55 44 56
REMARK SMILES IDX 62 57 45 58 48 59 61 60 79 61 46 62 47 63 60 65 80 66 49 67
REMARK SMILES IDX 34 68 35 69 43 70 36 71 42 72 37 73 38 74 39 75 40 76 41 77
REMARK SMILES IDX 64 78 65 79 73 80 66 81 72 82 67 83 68 84 69 85 70 86 71 87
REMARK SMILES IDX 50 88 51 89 59 90 52 91 58 92 53 93 54 94 55 95 56 96 57 97
REMARK H PARENT 18 5 10 15 22 34 78 53 48 64
REMARK Flexibility Score: inf
ROOT
ATOM      1  C   UNL     1      -0.959  -3.316   5.873  1.00  0.00     0.118 C 
ENDROOT
BRANCH   1   2
ATOM      2  N   UNL     1      -0.546  -3.798   7.175  1.00  0.00    -0.352 N 
ATOM      3  C   UNL     1       0.117  -3.250   8.235  1.00  0.00     0.251 C 
ATOM      4  O   UNL     1       0.270  -3.984   9.214  1.00  0.00    -0.269 OA
ATOM      5  H   UNL     1      -0.803  -4.736   7.331  1.00  0.00     0.163 HD
BRANCH   3   6
ATOM      6  C   UNL     1       0.654  -1.856   8.304  1.00  0.00     0.041 A 
ATOM      7  C   UNL     1       1.238   0.340   7.457  1.00  0.00     0.041 A 
ATOM      8  C   UNL     1       1.863   0.655   8.665  1.00  0.00     0.026 A 
ATOM      9  C   UNL     1       0.660  -0.916   7.268  1.00  0.00     0.040 A 
ATOM     10  C   UNL     1       1.841  -0.249   9.716  1.00  0.00     0.003 A 
ATOM     11  C   UNL     1       1.238  -1.491   9.534  1.00  0.00     0.014 A 
BRANCH   7  12
ATOM     12  N   UNL     1       1.292   1.318   6.466  1.00  0.00    -0.325 N 
ATOM     13  C   UNL     1       0.396   1.746   5.541  1.00  0.00     0.234 C 
ATOM     14  O   UNL     1       0.766   2.753   4.928  1.00  0.00    -0.274 OA
ATOM     15  H   UNL     1       2.153   1.793   6.430  1.00  0.00     0.169 HD
BRANCH  13  16
ATOM     16  C   UNL     1      -1.033   1.269   5.459  1.00  0.00     0.178 C 
BRANCH  16  17
ATOM     17  S   UNL     1      -1.604   0.112   4.221  1.00  0.00    -0.076 SA
BRANCH  17  18
ATOM     18  C   UNL     1      -0.452  -0.213   2.976  1.00  0.00     0.196 A 
ATOM     19  C   UNL     1       1.161   0.147  -0.266  1.00  0.00     0.090 C 
ATOM     20  C   UNL     1       0.551  -0.247   1.020  1.00  0.00     0.135 A 
ATOM     21  N   UNL     1       0.594  -1.461   1.522  1.00  0.00    -0.134 NA
ATOM     22  N   UNL     1      -0.136   0.575   1.892  1.00  0.00    -0.274 N 
ATOM     23  N   UNL     1      -0.059  -1.435   2.715  1.00  0.00    -0.123 NA
BRANCH  22  24
ATOM     24  C   UNL     1      -0.557   1.887   1.685  1.00  0.00     0.049 A 
ATOM     25  C   UNL     1       0.192   2.901   2.270  1.00  0.00     0.027 A 
ATOM     26  C   UNL     1      -1.853   2.102   1.220  1.00  0.00     0.027 A 
ATOM     27  C   UNL     1      -0.416   4.126   2.515  1.00  0.00     0.002 A 
ATOM     28  C   UNL     1      -2.435   3.348   1.425  1.00  0.00     0.002 A 
ATOM     29  C   UNL     1      -1.732   4.344   2.108  1.00  0.00     0.000 A 
ENDBRANCH  22  24
ENDBRANCH  17  18
ENDBRANCH  16  17
ENDBRANCH  13  16
ENDBRANCH   7  12
ENDBRANCH   3   6
ENDBRANCH   1   2
BRANCH   1  30
ATOM     30  C   UNL     1       0.172  -3.421   4.854  1.00  0.00     0.042 C 
BRANCH  30  31
ATOM     31  C   UNL     1      -0.210  -4.200   3.598  1.00  0.00     0.118 C 
BRANCH  31  32
ATOM     32  N   UNL     1      -1.466  -3.790   2.938  1.00  0.00    -0.352 N 
ATOM     33  C   UNL     1      -2.223  -4.479   1.993  1.00  0.00     0.251 C 
ATOM     34  H   UNL     1      -1.816  -2.908   3.202  1.00  0.00     0.163 HD
ATOM     35  O   UNL     1      -3.032  -3.918   1.274  1.00  0.00    -0.269 OA
BRANCH  33  36
ATOM     36  C   UNL     1      -2.001  -5.933   1.884  1.00  0.00     0.039 A 
ATOM     37  C   UNL     1      -1.771  -6.578   0.663  1.00  0.00     0.014 A 
ATOM     38  C   UNL     1      -1.808  -6.586   3.086  1.00  0.00     0.014 A 
ATOM     39  C   UNL     1      -1.199  -7.851   0.683  1.00  0.00     0.010 A 
ATOM     40  C   UNL     1      -0.979  -7.667   3.084  1.00  0.00     0.010 A 
ATOM     41  C   UNL     1      -0.757  -8.370   1.908  1.00  0.00    -0.014 A 
BRANCH  41  42
ATOM     42  C   UNL     1       0.034  -9.590   2.029  1.00  0.00     0.031 A 
ATOM     43  C   UNL     1       1.256  -9.641   1.183  1.00  0.00     0.074 A 
ATOM     44  C   UNL     1      -0.172 -10.470   3.038  1.00  0.00     0.049 A 
ATOM     45  N   UNL     1       1.455 -10.368   0.135  1.00  0.00    -0.248 NA
ATOM     46  C   UNL     1       2.331  -8.668   1.439  1.00  0.00     0.031 C 
ATOM     47  C   UNL     1      -1.121 -10.372   4.162  1.00  0.00     0.029 A 
ATOM     48  N   UNL     1       0.533 -11.583   3.361  1.00  0.00    -0.354 N 
ATOM     49  C   UNL     1       2.772 -10.134  -0.249  1.00  0.00     0.074 A 
ATOM     50  C   UNL     1       3.175  -8.933   0.438  1.00  0.00     0.031 C 
ATOM     51  C   UNL     1      -0.749 -11.211   5.152  1.00  0.00     0.029 A 
ATOM     52  C   UNL     1       0.318 -12.053   4.653  1.00  0.00     0.049 A 
ATOM     53  H   UNL     1       1.148 -12.024   2.731  1.00  0.00     0.167 HD
ATOM     54  C   UNL     1       3.510 -11.094  -0.877  1.00  0.00     0.031 A 
ATOM     55  C   UNL     1       0.977 -13.061   5.277  1.00  0.00     0.031 A 
ATOM     56  C   UNL     1       2.682 -12.202  -1.290  1.00  0.00     0.049 A 
ATOM     57  C   UNL     1       1.601 -13.878   4.208  1.00  0.00     0.074 A 
ATOM     58  C   UNL     1       1.580 -12.343  -2.109  1.00  0.00     0.029 A 
ATOM     59  N   UNL     1       2.702 -13.318  -0.483  1.00  0.00    -0.354 N 
ATOM     60  N   UNL     1       0.911 -14.543   3.323  1.00  0.00    -0.248 NA
ATOM     61  C   UNL     1       2.969 -13.568   3.826  1.00  0.00     0.031 C 
ATOM     62  C   UNL     1       0.737 -13.270  -1.427  1.00  0.00     0.029 A 
ATOM     63  C   UNL     1       1.405 -13.714  -0.283  1.00  0.00     0.049 A 
ATOM     64  H   UNL     1       3.505 -13.754  -0.115  1.00  0.00     0.167 HD
ATOM     65  C   UNL     1       1.586 -14.345   2.125  1.00  0.00     0.074 A 
ATOM     66  C   UNL     1       2.897 -13.826   2.516  1.00  0.00     0.031 C 
ATOM     67  C   UNL     1       0.923 -14.347   0.929  1.00  0.00     0.031 A 
BRANCH  54  68
ATOM     68  C   UNL     1       5.009 -11.245  -0.746  1.00  0.00    -0.014 A 
ATOM     69  C   UNL     1       5.649 -12.270  -1.474  1.00  0.00     0.010 A 
ATOM     70  C   UNL     1       5.768 -10.609   0.257  1.00  0.00     0.010 A 
ATOM     71  C   UNL     1       6.947 -12.691  -1.157  1.00  0.00     0.020 A 
ATOM     72  C   UNL     1       7.079 -10.991   0.553  1.00  0.00     0.020 A 
ATOM     73  C   UNL     1       7.647 -12.055  -0.132  1.00  0.00     0.054 A 
BRANCH  73  74
ATOM     74  S   UNL     1       9.280 -12.673   0.341  1.00  0.00     0.124 S 
ATOM     75  O   UNL     1       8.958 -13.990   0.881  1.00  0.00    -0.237 OA
ATOM     76  O   UNL     1       9.994 -12.667  -0.933  1.00  0.00    -0.237 OA
ATOM     77  O   UNL     1       9.748 -11.691   1.316  1.00  0.00    -0.744 OA
ENDBRANCH  73  74
ENDBRANCH  54  68
BRANCH  55  78
ATOM     78  C   UNL     1       1.339 -13.180   6.712  1.00  0.00    -0.014 A 
ATOM     79  C   UNL     1       1.778 -14.404   7.250  1.00  0.00     0.010 A 
ATOM     80  C   UNL     1       1.528 -12.019   7.490  1.00  0.00     0.010 A 
ATOM     81  C   UNL     1       2.444 -14.454   8.488  1.00  0.00     0.020 A 
ATOM     82  C   UNL     1       2.187 -12.062   8.727  1.00  0.00     0.020 A 
ATOM     83  C   UNL     1       2.665 -13.278   9.209  1.00  0.00     0.054 A 
BRANCH  83  84
ATOM     84  S   UNL     1       3.692 -13.327  10.710  1.00  0.00     0.124 S 
ATOM     85  O   UNL     1       2.828 -14.026  11.657  1.00  0.00    -0.237 OA
ATOM     86  O   UNL     1       4.870 -14.066  10.267  1.00  0.00    -0.237 OA
ATOM     87  O   UNL     1       3.929 -11.916  11.012  1.00  0.00    -0.744 OA
ENDBRANCH  83  84
ENDBRANCH  55  78
BRANCH  67  88
ATOM     88  C   UNL     1      -0.504 -14.851   0.892  1.00  0.00    -0.014 A 
ATOM     89  C   UNL     1      -1.576 -14.253   1.585  1.00  0.00     0.010 A 
ATOM     90  C   UNL     1      -0.793 -15.883  -0.018  1.00  0.00     0.010 A 
ATOM     91  C   UNL     1      -2.896 -14.695   1.387  1.00  0.00     0.020 A 
ATOM     92  C   UNL     1      -2.103 -16.314  -0.234  1.00  0.00     0.020 A 
ATOM     93  C   UNL     1      -3.149 -15.726   0.477  1.00  0.00     0.054 A 
BRANCH  93  94
ATOM     94  S   UNL     1      -4.856 -16.274   0.190  1.00  0.00     0.124 S 
ATOM     95  O   UNL     1      -5.202 -16.916   1.455  1.00  0.00    -0.237 OA
ATOM     96  O   UNL     1      -5.558 -15.024  -0.093  1.00  0.00    -0.237 OA
ATOM     97  O   UNL     1      -4.744 -17.181  -0.952  1.00  0.00    -0.744 OA
ENDBRANCH  93  94
ENDBRANCH  67  88
ENDBRANCH  41  42
ENDBRANCH  33  36
ENDBRANCH  31  32
ENDBRANCH  30  31
ENDBRANCH   1  30
TORSDOF 18
