REMARK SMILES O=C(NCCCNC(=O)[C@]1(NC(=O)C2CCN(C(=O)C3CC3)CC2)CCCc2ccccc21)c1ccc(-c2c3nc(c(-c4ccc(S(=O)(=O)[O-])cc4)c4ccc([nH]4)c(-c4ccc(S(=O)(=O)[O-])cc4)c4nc(c(-c5ccc(S(=O)(=O)[O-])cc5)c5ccc2[nH]5)C=C4)C=C3)cc1
REMARK SMILES IDX 5 1 4 2 3 3 1 4 2 5 34 7 35 8 93 9 36 10 92 11 37 12 38 13
REMARK SMILES IDX 39 14 86 15 40 16 91 17 85 18 87 19 41 20 90 21 84 22 83 23
REMARK SMILES IDX 42 25 72 26 53 27 71 28 54 29 57 30 70 31 88 32 55 33 56 34
REMARK SMILES IDX 69 36 89 37 58 38 43 39 44 40 52 41 45 42 51 43 46 44 47 45
REMARK SMILES IDX 48 46 49 47 50 48 73 49 74 50 82 51 75 52 81 53 76 54 77 55
REMARK SMILES IDX 78 56 79 57 80 58 59 59 60 60 68 61 61 62 67 63 62 64 63 65
REMARK SMILES IDX 64 66 65 67 66 68 6 69 7 70 8 71 9 73 10 74 25 75 33 76
REMARK SMILES IDX 26 77 28 78 32 79 27 80 29 81 31 82 30 83 11 84 12 85 13 87
REMARK SMILES IDX 14 88 15 89 24 90 16 91 23 92 17 93 18 94 19 95 20 96 21 97
REMARK SMILES IDX 22 98
REMARK H PARENT 3 6 87 24 57 35 7 72 11 86
REMARK Flexibility Score: inf
ROOT
ATOM      1  C   UNL     1       5.622  -2.610  -0.342  1.00  0.00     0.042 C 
ENDROOT
BRANCH   1   2
ATOM      2  C   UNL     1       5.110  -0.694  -1.104  1.00  0.00     0.118 C 
BRANCH   2   3
ATOM      3  N   UNL     1       3.662   0.124  -1.167  1.00  0.00    -0.352 N 
ATOM      4  O   UNL     1       1.666   1.063  -0.804  1.00  0.00    -0.269 OA
ATOM      5  C   UNL     1       2.835   0.945  -0.433  1.00  0.00     0.251 C 
ATOM      6  H   UNL     1       3.247  -0.036  -2.046  1.00  0.00     0.163 HD
BRANCH   5   7
ATOM      7  C   UNL     1       3.266   1.668   0.771  1.00  0.00     0.039 A 
ATOM      8  C   UNL     1       4.492   2.305   0.752  1.00  0.00     0.014 A 
ATOM      9  C   UNL     1       2.410   1.818   1.881  1.00  0.00     0.014 A 
ATOM     10  C   UNL     1       4.917   2.982   1.886  1.00  0.00     0.010 A 
ATOM     11  C   UNL     1       2.823   2.552   3.009  1.00  0.00     0.010 A 
ATOM     12  C   UNL     1       4.102   3.116   3.037  1.00  0.00    -0.014 A 
BRANCH  12  13
ATOM     13  C   UNL     1       4.704   3.852   4.189  1.00  0.00     0.031 A 
ATOM     14  C   UNL     1       5.149   3.163   5.452  1.00  0.00     0.074 A 
ATOM     15  C   UNL     1       5.142   5.102   3.945  1.00  0.00     0.049 A 
ATOM     16  N   UNL     1       6.202   3.417   6.190  1.00  0.00    -0.248 NA
ATOM     17  C   UNL     1       4.346   2.033   5.936  1.00  0.00     0.031 C 
ATOM     18  C   UNL     1       4.797   5.887   2.758  1.00  0.00     0.029 A 
ATOM     19  N   UNL     1       6.059   5.870   4.610  1.00  0.00    -0.354 N 
ATOM     20  C   UNL     1       6.263   2.398   7.134  1.00  0.00     0.074 A 
ATOM     21  C   UNL     1       5.101   1.564   6.925  1.00  0.00     0.031 C 
ATOM     22  C   UNL     1       5.581   6.971   2.716  1.00  0.00     0.029 A 
ATOM     23  C   UNL     1       6.417   7.000   3.914  1.00  0.00     0.049 A 
ATOM     24  H   UNL     1       6.425   5.638   5.495  1.00  0.00     0.167 HD
ATOM     25  C   UNL     1       7.196   2.187   8.095  1.00  0.00     0.031 A 
ATOM     26  C   UNL     1       7.310   7.964   4.203  1.00  0.00     0.031 A 
ATOM     27  C   UNL     1       8.197   3.153   8.467  1.00  0.00     0.049 A 
ATOM     28  C   UNL     1       8.138   7.841   5.444  1.00  0.00     0.074 A 
ATOM     29  C   UNL     1       9.117   3.085   9.500  1.00  0.00     0.029 A 
ATOM     30  N   UNL     1       8.340   4.404   7.889  1.00  0.00    -0.354 N 
ATOM     31  N   UNL     1       8.265   6.813   6.248  1.00  0.00    -0.248 NA
ATOM     32  C   UNL     1       8.923   9.018   5.830  1.00  0.00     0.031 C 
ATOM     33  C   UNL     1       9.722   4.342   9.627  1.00  0.00     0.029 A 
ATOM     34  C   UNL     1       9.250   5.159   8.612  1.00  0.00     0.049 A 
ATOM     35  H   UNL     1       7.865   4.712   7.083  1.00  0.00     0.167 HD
ATOM     36  C   UNL     1       9.145   7.221   7.244  1.00  0.00     0.074 A 
ATOM     37  C   UNL     1       9.535   8.580   6.922  1.00  0.00     0.031 C 
ATOM     38  C   UNL     1       9.589   6.530   8.323  1.00  0.00     0.031 A 
BRANCH  25  39
ATOM     39  C   UNL     1       7.126   0.909   8.889  1.00  0.00    -0.014 A 
ATOM     40  C   UNL     1       7.676  -0.284   8.384  1.00  0.00     0.010 A 
ATOM     41  C   UNL     1       6.612   0.924  10.197  1.00  0.00     0.010 A 
ATOM     42  C   UNL     1       7.707  -1.441   9.175  1.00  0.00     0.020 A 
ATOM     43  C   UNL     1       6.648  -0.226  10.992  1.00  0.00     0.020 A 
ATOM     44  C   UNL     1       7.190  -1.404  10.474  1.00  0.00     0.054 A 
BRANCH  44  45
ATOM     45  S   UNL     1       7.264  -2.908  11.490  1.00  0.00     0.124 S 
ATOM     46  O   UNL     1       6.313  -3.782  10.807  1.00  0.00    -0.237 OA
ATOM     47  O   UNL     1       8.666  -3.300  11.382  1.00  0.00    -0.237 OA
ATOM     48  O   UNL     1       6.847  -2.454  12.815  1.00  0.00    -0.744 OA
ENDBRANCH  44  45
ENDBRANCH  25  39
BRANCH  26  49
ATOM     49  C   UNL     1       7.356   9.172   3.339  1.00  0.00    -0.014 A 
ATOM     50  C   UNL     1       8.484   9.507   2.575  1.00  0.00     0.010 A 
ATOM     51  C   UNL     1       6.199   9.972   3.244  1.00  0.00     0.010 A 
ATOM     52  C   UNL     1       8.443  10.611   1.714  1.00  0.00     0.020 A 
ATOM     53  C   UNL     1       6.141  11.045   2.360  1.00  0.00     0.020 A 
ATOM     54  C   UNL     1       7.267  11.363   1.603  1.00  0.00     0.054 A 
BRANCH  54  55
ATOM     55  S   UNL     1       7.187  12.726   0.411  1.00  0.00     0.124 S 
ATOM     56  O   UNL     1       7.906  13.784   1.114  1.00  0.00    -0.237 OA
ATOM     57  O   UNL     1       7.862  12.169  -0.758  1.00  0.00    -0.237 OA
ATOM     58  O   UNL     1       5.752  12.947   0.244  1.00  0.00    -0.744 OA
ENDBRANCH  54  55
ENDBRANCH  26  49
BRANCH  38  59
ATOM     59  C   UNL     1      10.540   7.246   9.244  1.00  0.00    -0.014 A 
ATOM     60  C   UNL     1      10.106   8.313  10.053  1.00  0.00     0.010 A 
ATOM     61  C   UNL     1      11.889   6.852   9.295  1.00  0.00     0.010 A 
ATOM     62  C   UNL     1      11.018   9.013  10.847  1.00  0.00     0.020 A 
ATOM     63  C   UNL     1      12.797   7.529  10.112  1.00  0.00     0.020 A 
ATOM     64  C   UNL     1      12.360   8.623  10.863  1.00  0.00     0.054 A 
BRANCH  64  65
ATOM     65  S   UNL     1      13.531   9.555  11.886  1.00  0.00     0.124 S 
ATOM     66  O   UNL     1      13.712  10.775  11.104  1.00  0.00    -0.237 OA
ATOM     67  O   UNL     1      12.804   9.717  13.143  1.00  0.00    -0.237 OA
ATOM     68  O   UNL     1      14.700   8.682  11.958  1.00  0.00    -0.744 OA
ENDBRANCH  64  65
ENDBRANCH  38  59
ENDBRANCH  12  13
ENDBRANCH   5   7
ENDBRANCH   2   3
ENDBRANCH   1   2
BRANCH   1  69
ATOM     69  C   UNL     1       4.777  -4.271  -0.545  1.00  0.00     0.117 C 
BRANCH  69  70
ATOM     70  N   UNL     1       4.095  -4.746  -1.889  1.00  0.00    -0.354 N 
ATOM     71  C   UNL     1       4.534  -5.088  -3.175  1.00  0.00     0.250 C 
ATOM     72  H   UNL     1       3.117  -4.821  -1.800  1.00  0.00     0.163 HD
ATOM     73  O   UNL     1       3.771  -4.948  -4.131  1.00  0.00    -0.272 OA
BRANCH  71  74
ATOM     74  C   UNL     1       5.843  -5.907  -3.250  1.00  0.00     0.145 C 
ATOM     75  C   UNL     1       6.783  -5.788  -4.479  1.00  0.00     0.044 C 
ATOM     76  C   UNL     1       5.357  -7.371  -3.049  1.00  0.00    -0.010 A 
ATOM     77  C   UNL     1       6.453  -6.628  -5.692  1.00  0.00     0.008 C 
ATOM     78  C   UNL     1       5.334  -8.253  -4.158  1.00  0.00    -0.042 A 
ATOM     79  C   UNL     1       4.545  -7.705  -1.944  1.00  0.00     0.007 A 
ATOM     80  C   UNL     1       6.276  -8.083  -5.317  1.00  0.00     0.036 C 
ATOM     81  C   UNL     1       4.414  -9.315  -4.203  1.00  0.00     0.004 A 
ATOM     82  C   UNL     1       3.600  -8.734  -2.023  1.00  0.00     0.000 A 
ATOM     83  C   UNL     1       3.513  -9.517  -3.165  1.00  0.00     0.000 A 
BRANCH  74  84
ATOM     84  N   UNL     1       6.568  -5.248  -2.190  1.00  0.00    -0.338 N 
ATOM     85  C   UNL     1       6.854  -3.914  -2.374  1.00  0.00     0.224 C 
ATOM     86  H   UNL     1       6.845  -5.728  -1.376  1.00  0.00     0.164 HD
ATOM     87  O   UNL     1       8.071  -3.730  -2.510  1.00  0.00    -0.275 OA
BRANCH  85  88
ATOM     88  C   UNL     1       5.726  -2.574  -2.403  1.00  0.00     0.082 C 
ATOM     89  C   UNL     1       7.087  -1.386  -1.778  1.00  0.00     0.035 C 
ATOM     90  C   UNL     1       3.958  -2.312  -1.471  1.00  0.00     0.035 C 
ATOM     91  C   UNL     1       7.117  -0.921   0.004  1.00  0.00     0.120 C 
ATOM     92  C   UNL     1       3.990  -1.642   0.424  1.00  0.00     0.120 C 
ATOM     93  N   UNL     1       5.598  -0.838   0.962  1.00  0.00    -0.342 N 
ATOM     94  C   UNL     1       5.949  -0.221   2.162  1.00  0.00     0.225 C 
ATOM     95  O   UNL     1       7.062   0.289   2.294  1.00  0.00    -0.275 OA
BRANCH  94  96
ATOM     96  C   UNL     1       5.078  -0.135   3.328  1.00  0.00     0.079 C 
ATOM     97  C   UNL     1       3.920  -0.964   3.754  1.00  0.00     0.014 C 
ATOM     98  C   UNL     1       5.263  -1.206   4.377  1.00  0.00     0.014 C 
ENDBRANCH  94  96
ENDBRANCH  85  88
ENDBRANCH  74  84
ENDBRANCH  71  74
ENDBRANCH  69  70
ENDBRANCH   1  69
TORSDOF 16
