REMARK SMILES Nn1c(S[C@@H](C(=O)NCCCNC(=O)c2ccc(-c3c4nc(c(-c5ccc(S(=O)(=O)[O-])cc5)c5ccc([nH]5)c(-c5ccc(S(=O)(=O)[O-])cc5)c5nc(c(-c6ccc(S(=O)(=O)[O-])cc6)c6ccc3[nH]6)C=C5)C=C4)cc2)c2ccccc2)nc2ccc(Br)cc2c1=O
REMARK SMILES IDX 10 1 9 2 8 3 6 4 7 5 5 7 4 8 3 9 2 10 89 11 81 12 88 13
REMARK SMILES IDX 90 14 82 15 87 16 83 17 85 18 84 19 86 20 1 21 75 24 76 25
REMARK SMILES IDX 80 26 77 27 79 28 78 29 11 30 12 31 13 32 14 34 15 35 16 36
REMARK SMILES IDX 74 37 17 38 73 39 18 40 19 41 20 42 67 43 21 44 72 45 66 46
REMARK SMILES IDX 68 47 22 48 71 49 65 50 64 51 23 53 53 54 34 55 52 56 35 57
REMARK SMILES IDX 38 58 51 59 69 60 36 61 37 62 50 64 70 65 39 66 24 67 25 68
REMARK SMILES IDX 33 69 26 70 32 71 27 72 28 73 29 74 30 75 31 76 54 77 55 78
REMARK SMILES IDX 63 79 56 80 62 81 57 82 58 83 59 84 60 85 61 86 40 87 41 88
REMARK SMILES IDX 49 89 42 90 48 91 43 92 44 93 45 94 46 95 47 96
REMARK H PARENT 8 6 1 22 1 23 12 33 68 52 38 63
REMARK Flexibility Score: inf
ROOT
ATOM      1  C   UNL     1       4.961   2.494   1.240  1.00  0.00     0.042 C 
ENDROOT
BRANCH   1   2
ATOM      2  C   UNL     1       5.124   1.690  -0.048  1.00  0.00     0.117 C 
BRANCH   2   3
ATOM      3  N   UNL     1       4.460   0.400   0.011  1.00  0.00    -0.355 N 
ATOM      4  C   UNL     1       3.293  -0.054  -0.545  1.00  0.00     0.238 C 
ATOM      5  O   UNL     1       3.029  -1.227  -0.256  1.00  0.00    -0.273 OA
ATOM      6  H   UNL     1       4.936  -0.272   0.550  1.00  0.00     0.163 HD
BRANCH   4   7
ATOM      7  C   UNL     1       2.442   0.847  -1.487  1.00  0.00     0.174 C 
BRANCH   7   8
ATOM      8  S   UNL     1       1.846   2.306  -0.582  1.00  0.00    -0.068 SA
BRANCH   8   9
ATOM      9  C   UNL     1       0.538   1.958   0.523  1.00  0.00     0.191 A 
ATOM     10  N   UNL     1       0.029   0.699   0.833  1.00  0.00    -0.202 N 
ATOM     11  C   UNL     1      -1.022   0.525   1.738  1.00  0.00     0.280 A 
ATOM     12  N   UNL     1       0.069   3.039   1.068  1.00  0.00    -0.222 NA
ATOM     13  C   UNL     1      -1.565   1.744   2.345  1.00  0.00     0.069 A 
ATOM     14  O   UNL     1      -1.509  -0.572   2.013  1.00  0.00    -0.267 OA
ATOM     15  C   UNL     1      -0.990   2.957   1.975  1.00  0.00     0.079 A 
ATOM     16  C   UNL     1      -2.639   1.683   3.239  1.00  0.00     0.031 A 
ATOM     17  C   UNL     1      -1.506   4.134   2.521  1.00  0.00     0.030 A 
ATOM     18  C   UNL     1      -3.146   2.866   3.764  1.00  0.00     0.018 A 
ATOM     19  C   UNL     1      -2.584   4.093   3.412  1.00  0.00     0.018 A 
ATOM     20  Br  UNL     1      -4.617   2.808   4.947  1.00  0.00    -0.051 Br
BRANCH  10  21
ATOM     21  N   UNL     1       0.472  -0.478   0.223  1.00  0.00    -0.334 N 
ATOM     22  H   UNL     1       1.210  -0.448  -0.429  1.00  0.00     0.178 HD
ATOM     23  H   UNL     1       0.047  -1.338   0.445  1.00  0.00     0.178 HD
ENDBRANCH  10  21
ENDBRANCH   8   9
ENDBRANCH   7   8
BRANCH   7  24
ATOM     24  C   UNL     1       1.411   0.204  -2.433  1.00  0.00    -0.025 A 
ATOM     25  C   UNL     1       1.403  -1.173  -2.720  1.00  0.00     0.005 A 
ATOM     26  C   UNL     1       0.433   0.993  -3.077  1.00  0.00     0.005 A 
ATOM     27  C   UNL     1       0.393  -1.749  -3.499  1.00  0.00     0.000 A 
ATOM     28  C   UNL     1      -0.572   0.420  -3.861  1.00  0.00     0.000 A 
ATOM     29  C   UNL     1      -0.605  -0.956  -4.053  1.00  0.00     0.000 A 
ENDBRANCH   7  24
ENDBRANCH   4   7
ENDBRANCH   2   3
ENDBRANCH   1   2
BRANCH   1  30
ATOM     30  C   UNL     1       5.420   1.780   2.506  1.00  0.00     0.118 C 
BRANCH  30  31
ATOM     31  N   UNL     1       6.841   1.461   2.509  1.00  0.00    -0.352 N 
ATOM     32  C   UNL     1       7.853   1.872   3.347  1.00  0.00     0.251 C 
ATOM     33  H   UNL     1       7.125   0.849   1.792  1.00  0.00     0.163 HD
ATOM     34  O   UNL     1       9.012   1.591   3.065  1.00  0.00    -0.269 OA
BRANCH  32  35
ATOM     35  C   UNL     1       7.558   2.673   4.560  1.00  0.00     0.039 A 
ATOM     36  C   UNL     1       6.450   2.398   5.357  1.00  0.00     0.014 A 
ATOM     37  C   UNL     1       8.422   3.716   4.915  1.00  0.00     0.014 A 
ATOM     38  C   UNL     1       6.096   3.275   6.377  1.00  0.00     0.010 A 
ATOM     39  C   UNL     1       8.125   4.530   6.016  1.00  0.00     0.010 A 
ATOM     40  C   UNL     1       6.929   4.352   6.726  1.00  0.00    -0.014 A 
BRANCH  40  41
ATOM     41  C   UNL     1       6.522   5.245   7.847  1.00  0.00     0.031 A 
ATOM     42  C   UNL     1       6.244   6.710   7.621  1.00  0.00     0.074 A 
ATOM     43  C   UNL     1       6.319   4.707   9.067  1.00  0.00     0.049 A 
ATOM     44  N   UNL     1       5.759   7.590   8.461  1.00  0.00    -0.248 NA
ATOM     45  C   UNL     1       6.549   7.264   6.292  1.00  0.00     0.031 C 
ATOM     46  C   UNL     1       6.565   3.305   9.414  1.00  0.00     0.029 A 
ATOM     47  N   UNL     1       5.819   5.250  10.225  1.00  0.00    -0.354 N 
ATOM     48  C   UNL     1       5.703   8.794   7.768  1.00  0.00     0.074 A 
ATOM     49  C   UNL     1       6.250   8.546   6.453  1.00  0.00     0.031 C 
ATOM     50  C   UNL     1       6.135   3.079  10.662  1.00  0.00     0.029 A 
ATOM     51  C   UNL     1       5.652   4.331  11.236  1.00  0.00     0.049 A 
ATOM     52  H   UNL     1       5.601   6.205  10.323  1.00  0.00     0.167 HD
ATOM     53  C   UNL     1       5.218   9.989   8.181  1.00  0.00     0.031 A 
ATOM     54  C   UNL     1       5.163   4.466  12.485  1.00  0.00     0.031 A 
ATOM     55  C   UNL     1       4.664  10.227   9.492  1.00  0.00     0.049 A 
ATOM     56  C   UNL     1       4.657   5.809  12.928  1.00  0.00     0.074 A 
ATOM     57  C   UNL     1       4.121  11.399   9.990  1.00  0.00     0.029 A 
ATOM     58  N   UNL     1       4.578   9.286  10.508  1.00  0.00    -0.354 N 
ATOM     59  N   UNL     1       4.573   6.923  12.240  1.00  0.00    -0.248 NA
ATOM     60  C   UNL     1       4.171   5.914  14.310  1.00  0.00     0.031 C 
ATOM     61  C   UNL     1       3.779  11.190  11.328  1.00  0.00     0.029 A 
ATOM     62  C   UNL     1       4.027   9.863  11.642  1.00  0.00     0.049 A 
ATOM     63  H   UNL     1       4.867   8.348  10.435  1.00  0.00     0.167 HD
ATOM     64  C   UNL     1       4.026   7.862  13.106  1.00  0.00     0.074 A 
ATOM     65  C   UNL     1       3.756   7.173  14.352  1.00  0.00     0.031 C 
ATOM     66  C   UNL     1       3.782   9.179  12.889  1.00  0.00     0.031 A 
BRANCH  53  67
ATOM     67  C   UNL     1       5.237  11.148   7.213  1.00  0.00    -0.014 A 
ATOM     68  C   UNL     1       6.014  12.288   7.497  1.00  0.00     0.010 A 
ATOM     69  C   UNL     1       4.387  11.168   6.092  1.00  0.00     0.010 A 
ATOM     70  C   UNL     1       5.909  13.437   6.708  1.00  0.00     0.020 A 
ATOM     71  C   UNL     1       4.303  12.305   5.281  1.00  0.00     0.020 A 
ATOM     72  C   UNL     1       5.044  13.442   5.611  1.00  0.00     0.054 A 
BRANCH  72  73
ATOM     73  S   UNL     1       4.884  14.959   4.629  1.00  0.00     0.124 S 
ATOM     74  O   UNL     1       4.129  15.829   5.525  1.00  0.00    -0.237 OA
ATOM     75  O   UNL     1       6.276  15.340   4.402  1.00  0.00    -0.237 OA
ATOM     76  O   UNL     1       4.166  14.519   3.434  1.00  0.00    -0.744 OA
ENDBRANCH  72  73
ENDBRANCH  53  67
BRANCH  54  77
ATOM     77  C   UNL     1       5.109   3.272  13.376  1.00  0.00    -0.014 A 
ATOM     78  C   UNL     1       6.298   2.634  13.780  1.00  0.00     0.010 A 
ATOM     79  C   UNL     1       3.875   2.707  13.744  1.00  0.00     0.010 A 
ATOM     80  C   UNL     1       6.255   1.419  14.466  1.00  0.00     0.020 A 
ATOM     81  C   UNL     1       3.829   1.510  14.467  1.00  0.00     0.020 A 
ATOM     82  C   UNL     1       5.019   0.856  14.791  1.00  0.00     0.054 A 
BRANCH  82  83
ATOM     83  S   UNL     1       4.992  -0.759  15.616  1.00  0.00     0.124 S 
ATOM     84  O   UNL     1       5.358  -1.657  14.524  1.00  0.00    -0.237 OA
ATOM     85  O   UNL     1       5.998  -0.599  16.663  1.00  0.00    -0.237 OA
ATOM     86  O   UNL     1       3.616  -0.879  16.090  1.00  0.00    -0.744 OA
ENDBRANCH  82  83
ENDBRANCH  54  77
BRANCH  66  87
ATOM     87  C   UNL     1       3.219   9.987  14.033  1.00  0.00    -0.014 A 
ATOM     88  C   UNL     1       1.939  10.562  13.929  1.00  0.00     0.010 A 
ATOM     89  C   UNL     1       3.995  10.255  15.176  1.00  0.00     0.010 A 
ATOM     90  C   UNL     1       1.455  11.407  14.932  1.00  0.00     0.020 A 
ATOM     91  C   UNL     1       3.499  11.068  16.200  1.00  0.00     0.020 A 
ATOM     92  C   UNL     1       2.240  11.657  16.060  1.00  0.00     0.054 A 
BRANCH  92  93
ATOM     93  S   UNL     1       1.593  12.752  17.352  1.00  0.00     0.124 S 
ATOM     94  O   UNL     1       1.751  14.071  16.745  1.00  0.00    -0.237 OA
ATOM     95  O   UNL     1       0.216  12.290  17.506  1.00  0.00    -0.237 OA
ATOM     96  O   UNL     1       2.462  12.484  18.496  1.00  0.00    -0.744 OA
ENDBRANCH  92  93
ENDBRANCH  66  87
ENDBRANCH  40  41
ENDBRANCH  32  35
ENDBRANCH  30  31
ENDBRANCH   1  30
TORSDOF 17
