REMARK SMILES O=C(NCCCNC(=O)c1sccc1S(=O)(=O)Nc1ccccc1N1CCCCC1)c1ccc(-c2c3nc(c(-c4ccc(S(=O)(=O)[O-])cc4)c4ccc([nH]4)c(-c4ccc(S(=O)(=O)[O-])cc4)c4nc(c(-c5ccc(S(=O)(=O)[O-])cc5)c5ccc2[nH]5)C=C4)C=C3)cc1
REMARK SMILES IDX 5 1 4 2 3 3 1 4 2 5 31 7 32 8 90 9 33 10 89 11 34 12 35 13
REMARK SMILES IDX 36 14 83 15 37 16 88 17 82 18 84 19 38 20 87 21 81 22 80 23
REMARK SMILES IDX 39 25 69 26 50 27 68 28 51 29 54 30 67 31 85 32 52 33 53 34
REMARK SMILES IDX 66 36 86 37 55 38 40 39 41 40 49 41 42 42 48 43 43 44 44 45
REMARK SMILES IDX 45 46 46 47 47 48 70 49 71 50 79 51 72 52 78 53 73 54 74 55
REMARK SMILES IDX 75 56 76 57 77 58 56 59 57 60 65 61 58 62 64 63 59 64 60 65
REMARK SMILES IDX 61 66 62 67 63 68 6 69 7 70 8 71 9 73 10 74 11 75 14 76
REMARK SMILES IDX 12 77 13 78 15 79 16 80 17 81 18 82 19 84 20 85 24 86 21 87
REMARK SMILES IDX 23 88 22 89 25 90 26 91 30 92 27 93 29 94 28 95
REMARK H PARENT 3 6 84 24 54 35 7 72 18 83
REMARK Flexibility Score: inf
ROOT
ATOM      1  C   UNL     1       5.273  -0.175   1.792  1.00  0.00     0.042 C 
ENDROOT
BRANCH   1   2
ATOM      2  C   UNL     1       4.782  -0.598   0.413  1.00  0.00     0.118 C 
BRANCH   2   3
ATOM      3  N   UNL     1       3.329  -0.716   0.335  1.00  0.00    -0.352 N 
ATOM      4  O   UNL     1       1.207  -0.077  -0.094  1.00  0.00    -0.269 OA
ATOM      5  C   UNL     1       2.406   0.133  -0.227  1.00  0.00     0.251 C 
ATOM      6  H   UNL     1       2.954  -1.527   0.748  1.00  0.00     0.163 HD
BRANCH   5   7
ATOM      7  C   UNL     1       2.892   1.327  -0.940  1.00  0.00     0.039 A 
ATOM      8  C   UNL     1       3.899   1.201  -1.896  1.00  0.00     0.014 A 
ATOM      9  C   UNL     1       2.411   2.582  -0.568  1.00  0.00     0.014 A 
ATOM     10  C   UNL     1       4.582   2.333  -2.311  1.00  0.00     0.010 A 
ATOM     11  C   UNL     1       3.016   3.724  -1.092  1.00  0.00     0.010 A 
ATOM     12  C   UNL     1       4.139   3.608  -1.926  1.00  0.00    -0.014 A 
BRANCH  12  13
ATOM     13  C   UNL     1       4.835   4.811  -2.443  1.00  0.00     0.031 A 
ATOM     14  C   UNL     1       5.480   5.796  -1.507  1.00  0.00     0.074 A 
ATOM     15  C   UNL     1       4.878   5.004  -3.775  1.00  0.00     0.049 A 
ATOM     16  N   UNL     1       6.046   6.941  -1.785  1.00  0.00    -0.248 NA
ATOM     17  C   UNL     1       5.480   5.459  -0.074  1.00  0.00     0.031 C 
ATOM     18  C   UNL     1       4.301   4.102  -4.777  1.00  0.00     0.029 A 
ATOM     19  N   UNL     1       5.433   6.012  -4.518  1.00  0.00    -0.354 N 
ATOM     20  C   UNL     1       6.431   7.484  -0.564  1.00  0.00     0.074 A 
ATOM     21  C   UNL     1       6.026   6.544   0.459  1.00  0.00     0.031 C 
ATOM     22  C   UNL     1       4.565   4.576  -6.001  1.00  0.00     0.029 A 
ATOM     23  C   UNL     1       5.245   5.857  -5.870  1.00  0.00     0.049 A 
ATOM     24  H   UNL     1       5.917   6.772  -4.122  1.00  0.00     0.167 HD
ATOM     25  C   UNL     1       7.058   8.661  -0.323  1.00  0.00     0.031 A 
ATOM     26  C   UNL     1       5.545   6.673  -6.896  1.00  0.00     0.031 A 
ATOM     27  C   UNL     1       7.457   9.582  -1.357  1.00  0.00     0.049 A 
ATOM     28  C   UNL     1       6.208   7.983  -6.604  1.00  0.00     0.074 A 
ATOM     29  C   UNL     1       8.114  10.793  -1.226  1.00  0.00     0.029 A 
ATOM     30  N   UNL     1       7.232   9.395  -2.714  1.00  0.00    -0.354 N 
ATOM     31  N   UNL     1       6.560   8.482  -5.443  1.00  0.00    -0.248 NA
ATOM     32  C   UNL     1       6.513   8.841  -7.754  1.00  0.00     0.031 C 
ATOM     33  C   UNL     1       8.244  11.359  -2.498  1.00  0.00     0.029 A 
ATOM     34  C   UNL     1       7.721  10.475  -3.429  1.00  0.00     0.049 A 
ATOM     35  H   UNL     1       6.791   8.609  -3.110  1.00  0.00     0.167 HD
ATOM     36  C   UNL     1       7.148   9.707  -5.723  1.00  0.00     0.074 A 
ATOM     37  C   UNL     1       7.112   9.868  -7.164  1.00  0.00     0.031 C 
ATOM     38  C   UNL     1       7.674  10.614  -4.864  1.00  0.00     0.031 A 
BRANCH  25  39
ATOM     39  C   UNL     1       7.302   9.041   1.115  1.00  0.00    -0.014 A 
ATOM     40  C   UNL     1       8.254   8.370   1.904  1.00  0.00     0.010 A 
ATOM     41  C   UNL     1       6.574  10.103   1.684  1.00  0.00     0.010 A 
ATOM     42  C   UNL     1       8.433   8.717   3.248  1.00  0.00     0.020 A 
ATOM     43  C   UNL     1       6.769  10.471   3.019  1.00  0.00     0.020 A 
ATOM     44  C   UNL     1       7.681   9.759   3.799  1.00  0.00     0.054 A 
BRANCH  44  45
ATOM     45  S   UNL     1       7.919  10.179   5.548  1.00  0.00     0.124 S 
ATOM     46  O   UNL     1       7.232   9.076   6.217  1.00  0.00    -0.237 OA
ATOM     47  O   UNL     1       9.373  10.184   5.684  1.00  0.00    -0.237 OA
ATOM     48  O   UNL     1       7.279  11.485   5.682  1.00  0.00    -0.744 OA
ENDBRANCH  44  45
ENDBRANCH  25  39
BRANCH  26  49
ATOM     49  C   UNL     1       5.182   6.258  -8.276  1.00  0.00    -0.014 A 
ATOM     50  C   UNL     1       6.171   5.835  -9.177  1.00  0.00     0.010 A 
ATOM     51  C   UNL     1       3.828   6.190  -8.658  1.00  0.00     0.010 A 
ATOM     52  C   UNL     1       5.814   5.341 -10.435  1.00  0.00     0.020 A 
ATOM     53  C   UNL     1       3.466   5.672  -9.903  1.00  0.00     0.020 A 
ATOM     54  C   UNL     1       4.462   5.254 -10.786  1.00  0.00     0.054 A 
BRANCH  54  55
ATOM     55  S   UNL     1       4.019   4.518 -12.383  1.00  0.00     0.124 S 
ATOM     56  O   UNL     1       4.370   5.583 -13.316  1.00  0.00    -0.237 OA
ATOM     57  O   UNL     1       4.868   3.329 -12.430  1.00  0.00    -0.237 OA
ATOM     58  O   UNL     1       2.590   4.245 -12.249  1.00  0.00    -0.744 OA
ENDBRANCH  54  55
ENDBRANCH  26  49
BRANCH  38  59
ATOM     59  C   UNL     1       8.293  11.846  -5.463  1.00  0.00    -0.014 A 
ATOM     60  C   UNL     1       7.499  12.884  -5.979  1.00  0.00     0.010 A 
ATOM     61  C   UNL     1       9.692  11.990  -5.446  1.00  0.00     0.010 A 
ATOM     62  C   UNL     1       8.097  14.040  -6.487  1.00  0.00     0.020 A 
ATOM     63  C   UNL     1      10.292  13.153  -5.930  1.00  0.00     0.020 A 
ATOM     64  C   UNL     1       9.490  14.168  -6.457  1.00  0.00     0.054 A 
BRANCH  64  65
ATOM     65  S   UNL     1      10.240  15.704  -7.062  1.00  0.00     0.124 S 
ATOM     66  O   UNL     1      10.108  15.556  -8.509  1.00  0.00    -0.237 OA
ATOM     67  O   UNL     1       9.398  16.733  -6.456  1.00  0.00    -0.237 OA
ATOM     68  O   UNL     1      11.607  15.646  -6.551  1.00  0.00    -0.744 OA
ENDBRANCH  64  65
ENDBRANCH  38  59
ENDBRANCH  12  13
ENDBRANCH   5   7
ENDBRANCH   2   3
ENDBRANCH   1   2
BRANCH   1  69
ATOM     69  C   UNL     1       5.210  -1.323   2.781  1.00  0.00     0.118 C 
BRANCH  69  70
ATOM     70  N   UNL     1       6.131  -2.382   2.433  1.00  0.00    -0.351 N 
ATOM     71  C   UNL     1       6.737  -3.313   3.224  1.00  0.00     0.262 C 
ATOM     72  H   UNL     1       6.357  -2.440   1.477  1.00  0.00     0.163 HD
ATOM     73  O   UNL     1       7.599  -4.009   2.684  1.00  0.00    -0.268 OA
BRANCH  71  74
ATOM     74  C   UNL     1       6.428  -3.390   4.630  1.00  0.00     0.112 A 
ATOM     75  S   UNL     1       7.825  -3.309   5.654  1.00  0.00    -0.137 S 
ATOM     76  C   UNL     1       5.271  -3.574   5.371  1.00  0.00     0.111 A 
ATOM     77  C   UNL     1       6.901  -3.446   7.069  1.00  0.00     0.067 A 
ATOM     78  C   UNL     1       5.564  -3.569   6.787  1.00  0.00     0.035 A 
BRANCH  76  79
ATOM     79  S   UNL     1       3.613  -3.700   4.870  1.00  0.00     0.263 S 
ATOM     80  O   UNL     1       2.997  -4.458   5.945  1.00  0.00    -0.201 OA
ATOM     81  O   UNL     1       3.223  -2.311   4.727  1.00  0.00    -0.201 OA
BRANCH  79  82
ATOM     82  N   UNL     1       3.124  -4.450   3.459  1.00  0.00    -0.277 N 
ATOM     83  H   UNL     1       2.156  -4.561   3.317  1.00  0.00     0.180 HD
BRANCH  82  84
ATOM     84  C   UNL     1       3.995  -4.943   2.445  1.00  0.00     0.072 A 
ATOM     85  C   UNL     1       3.832  -4.406   1.157  1.00  0.00     0.029 A 
ATOM     86  C   UNL     1       4.933  -5.969   2.682  1.00  0.00     0.061 A 
ATOM     87  C   UNL     1       4.655  -4.804   0.108  1.00  0.00     0.002 A 
ATOM     88  C   UNL     1       5.763  -6.338   1.607  1.00  0.00     0.028 A 
ATOM     89  C   UNL     1       5.636  -5.759   0.339  1.00  0.00     0.002 A 
BRANCH  86  90
ATOM     90  N   UNL     1       5.020  -6.654   3.882  1.00  0.00    -0.370 N 
ATOM     91  C   UNL     1       6.295  -6.819   4.573  1.00  0.00     0.116 C 
ATOM     92  C   UNL     1       3.822  -7.263   4.458  1.00  0.00     0.116 C 
ATOM     93  C   UNL     1       6.541  -8.281   4.924  1.00  0.00     0.021 C 
ATOM     94  C   UNL     1       4.085  -8.731   4.782  1.00  0.00     0.021 C 
ATOM     95  C   UNL     1       5.336  -8.881   5.642  1.00  0.00     0.004 C 
ENDBRANCH  86  90
ENDBRANCH  82  84
ENDBRANCH  79  82
ENDBRANCH  76  79
ENDBRANCH  71  74
ENDBRANCH  69  70
ENDBRANCH   1  69
TORSDOF 17
