REMARK SMILES C=CC[N@@H+](CC(=O)NCCCNC(=O)c1ccc(-c2c3nc(c(-c4ccc(S(=O)(=O)[O-])cc4)c4ccc([nH]4)c(-c4ccc(S(=O)(=O)[O-])cc4)c4nc(c(-c5ccc(S(=O)(=O)[O-])cc5)c5ccc2[nH]5)C=C4)C=C3)cc1)[C@@H]1CC[N@@H+](C(C)C)C1
REMARK SMILES IDX 10 1 9 2 8 3 6 4 7 5 5 7 4 8 3 10 2 11 1 12 75 13 76 14
REMARK SMILES IDX 82 15 77 16 78 17 79 19 80 20 81 21 11 22 12 23 13 24 14 26
REMARK SMILES IDX 15 27 16 28 74 29 17 30 73 31 18 32 19 33 20 34 67 35 21 36
REMARK SMILES IDX 72 37 66 38 68 39 22 40 71 41 65 42 64 43 23 45 53 46 34 47
REMARK SMILES IDX 52 48 35 49 38 50 51 51 69 52 36 53 37 54 50 56 70 57 39 58
REMARK SMILES IDX 24 59 25 60 33 61 26 62 32 63 27 64 28 65 29 66 30 67 31 68
REMARK SMILES IDX 54 69 55 70 63 71 56 72 62 73 57 74 58 75 59 76 60 77 61 78
REMARK SMILES IDX 40 79 41 80 49 81 42 82 48 83 43 84 44 85 45 86 46 87 47 88
REMARK H PARENT 8 6 4 9 78 18 12 25 68 44 38 55
REMARK Flexibility Score: inf
ROOT
ATOM      1  C   UNL     1      -2.128  -1.213  -1.447  1.00  0.00     0.042 C 
ENDROOT
BRANCH   1   2
ATOM      2  C   UNL     1      -3.344  -0.312  -1.205  1.00  0.00     0.118 C 
BRANCH   2   3
ATOM      3  N   UNL     1      -3.765  -0.331   0.188  1.00  0.00    -0.351 N 
ATOM      4  C   UNL     1      -3.622   0.584   1.191  1.00  0.00     0.275 C 
ATOM      5  O   UNL     1      -4.038   0.252   2.307  1.00  0.00    -0.269 OA
ATOM      6  H   UNL     1      -4.240  -1.151   0.455  1.00  0.00     0.163 HD
BRANCH   4   7
ATOM      7  C   UNL     1      -3.008   1.976   0.972  1.00  0.00     0.364 C 
BRANCH   7   8
ATOM      8  N   UNL     1      -1.528   2.093   1.139  1.00  0.00    -0.317 N 
ATOM      9  H   UNL     1      -1.256   3.060   1.317  1.00  0.00     0.349 HD
BRANCH   8  10
ATOM     10  C   UNL     1      -0.861   1.783  -0.118  1.00  0.00     0.291 C 
BRANCH  10  11
ATOM     11  C   UNL     1       0.602   2.041  -0.269  1.00  0.00     0.025 C 
ATOM     12  C   UNL     1       1.447   1.125  -0.769  1.00  0.00     0.010 C 
ENDBRANCH  10  11
ENDBRANCH   8  10
BRANCH   8  13
ATOM     13  C   UNL     1      -1.036   1.465   2.388  1.00  0.00     0.246 C 
ATOM     14  C   UNL     1       0.318   1.970   2.896  1.00  0.00     0.132 C 
ATOM     15  C   UNL     1      -0.910  -0.072   2.485  1.00  0.00     0.328 C 
ATOM     16  C   UNL     1       1.284   0.803   2.779  1.00  0.00     0.269 C 
ATOM     17  N   UNL     1       0.485  -0.417   2.753  1.00  0.00    -0.328 N 
ATOM     18  H   UNL     1       0.791  -0.996   1.972  1.00  0.00     0.348 HD
BRANCH  17  19
ATOM     19  C   UNL     1       0.752  -1.367   3.838  1.00  0.00     0.177 C 
ATOM     20  C   UNL     1       0.497  -0.814   5.245  1.00  0.00     0.075 C 
ATOM     21  C   UNL     1      -0.015  -2.683   3.644  1.00  0.00     0.075 C 
ENDBRANCH  17  19
ENDBRANCH   8  13
ENDBRANCH   7   8
ENDBRANCH   4   7
ENDBRANCH   2   3
ENDBRANCH   1   2
BRANCH   1  22
ATOM     22  C   UNL     1      -2.430  -2.704  -1.487  1.00  0.00     0.118 C 
BRANCH  22  23
ATOM     23  N   UNL     1      -2.816  -3.150  -2.813  1.00  0.00    -0.352 N 
ATOM     24  C   UNL     1      -2.104  -3.812  -3.786  1.00  0.00     0.251 C 
ATOM     25  H   UNL     1      -3.746  -2.942  -3.058  1.00  0.00     0.163 HD
ATOM     26  O   UNL     1      -2.590  -3.870  -4.915  1.00  0.00    -0.269 OA
BRANCH  24  27
ATOM     27  C   UNL     1      -0.779  -4.439  -3.529  1.00  0.00     0.039 A 
ATOM     28  C   UNL     1       0.151  -4.474  -4.576  1.00  0.00     0.014 A 
ATOM     29  C   UNL     1      -0.461  -5.074  -2.326  1.00  0.00     0.014 A 
ATOM     30  C   UNL     1       1.391  -5.104  -4.407  1.00  0.00     0.010 A 
ATOM     31  C   UNL     1       0.810  -5.624  -2.127  1.00  0.00     0.010 A 
ATOM     32  C   UNL     1       1.744  -5.669  -3.172  1.00  0.00    -0.014 A 
BRANCH  32  33
ATOM     33  C   UNL     1       3.058  -6.342  -2.974  1.00  0.00     0.031 A 
ATOM     34  C   UNL     1       3.120  -7.814  -2.645  1.00  0.00     0.074 A 
ATOM     35  C   UNL     1       4.201  -5.630  -3.046  1.00  0.00     0.049 A 
ATOM     36  N   UNL     1       4.166  -8.561  -2.391  1.00  0.00    -0.248 NA
ATOM     37  C   UNL     1       1.840  -8.536  -2.568  1.00  0.00     0.031 C 
ATOM     38  C   UNL     1       4.289  -4.194  -3.320  1.00  0.00     0.029 A 
ATOM     39  N   UNL     1       5.510  -6.018  -2.890  1.00  0.00    -0.354 N 
ATOM     40  C   UNL     1       3.669  -9.828  -2.100  1.00  0.00     0.074 A 
ATOM     41  C   UNL     1       2.227  -9.738  -2.167  1.00  0.00     0.031 C 
ATOM     42  C   UNL     1       5.581  -3.828  -3.337  1.00  0.00     0.029 A 
ATOM     43  C   UNL     1       6.412  -4.990  -3.038  1.00  0.00     0.049 A 
ATOM     44  H   UNL     1       5.777  -6.944  -2.691  1.00  0.00     0.167 HD
ATOM     45  C   UNL     1       4.346 -10.968  -1.820  1.00  0.00     0.031 A 
ATOM     46  C   UNL     1       7.757  -4.978  -2.940  1.00  0.00     0.031 A 
ATOM     47  C   UNL     1       5.781 -11.069  -1.777  1.00  0.00     0.049 A 
ATOM     48  C   UNL     1       8.489  -6.257  -2.639  1.00  0.00     0.074 A 
ATOM     49  C   UNL     1       6.558 -12.195  -1.565  1.00  0.00     0.029 A 
ATOM     50  N   UNL     1       6.655 -10.008  -1.952  1.00  0.00    -0.354 N 
ATOM     51  N   UNL     1       8.000  -7.455  -2.428  1.00  0.00    -0.248 NA
ATOM     52  C   UNL     1       9.956  -6.183  -2.577  1.00  0.00     0.031 C 
ATOM     53  C   UNL     1       7.902 -11.806  -1.568  1.00  0.00     0.029 A 
ATOM     54  C   UNL     1       7.963 -10.447  -1.832  1.00  0.00     0.049 A 
ATOM     55  H   UNL     1       6.386  -9.078  -2.134  1.00  0.00     0.167 HD
ATOM     56  C   UNL     1       9.100  -8.282  -2.229  1.00  0.00     0.074 A 
ATOM     57  C   UNL     1      10.279  -7.451  -2.360  1.00  0.00     0.031 C 
ATOM     58  C   UNL     1       9.129  -9.611  -1.963  1.00  0.00     0.031 A 
BRANCH  45  59
ATOM     59  C   UNL     1       3.536 -12.206  -1.531  1.00  0.00    -0.014 A 
ATOM     60  C   UNL     1       2.827 -12.865  -2.551  1.00  0.00     0.010 A 
ATOM     61  C   UNL     1       3.513 -12.738  -0.229  1.00  0.00     0.010 A 
ATOM     62  C   UNL     1       2.071 -14.005  -2.265  1.00  0.00     0.020 A 
ATOM     63  C   UNL     1       2.781 -13.894   0.056  1.00  0.00     0.020 A 
ATOM     64  C   UNL     1       2.048 -14.509  -0.961  1.00  0.00     0.054 A 
BRANCH  64  65
ATOM     65  S   UNL     1       1.068 -15.998  -0.620  1.00  0.00     0.124 S 
ATOM     66  O   UNL     1      -0.294 -15.470  -0.633  1.00  0.00    -0.237 OA
ATOM     67  O   UNL     1       1.412 -16.873  -1.737  1.00  0.00    -0.237 OA
ATOM     68  O   UNL     1       1.553 -16.439   0.686  1.00  0.00    -0.744 OA
ENDBRANCH  64  65
ENDBRANCH  45  59
BRANCH  46  69
ATOM     69  C   UNL     1       8.501  -3.705  -3.144  1.00  0.00    -0.014 A 
ATOM     70  C   UNL     1       9.256  -3.499  -4.312  1.00  0.00     0.010 A 
ATOM     71  C   UNL     1       8.440  -2.683  -2.180  1.00  0.00     0.010 A 
ATOM     72  C   UNL     1       9.947  -2.300  -4.507  1.00  0.00     0.020 A 
ATOM     73  C   UNL     1       9.109  -1.472  -2.383  1.00  0.00     0.020 A 
ATOM     74  C   UNL     1       9.867  -1.292  -3.541  1.00  0.00     0.054 A 
BRANCH  74  75
ATOM     75  S   UNL     1      10.718   0.282  -3.843  1.00  0.00     0.124 S 
ATOM     76  O   UNL     1      12.109  -0.070  -3.577  1.00  0.00    -0.237 OA
ATOM     77  O   UNL     1      10.391   0.557  -5.240  1.00  0.00    -0.237 OA
ATOM     78  O   UNL     1      10.105   1.191  -2.878  1.00  0.00    -0.744 OA
ENDBRANCH  74  75
ENDBRANCH  46  69
BRANCH  58  79
ATOM     79  C   UNL     1      10.479 -10.262  -1.822  1.00  0.00    -0.014 A 
ATOM     80  C   UNL     1      11.270 -10.056  -0.678  1.00  0.00     0.010 A 
ATOM     81  C   UNL     1      10.937 -11.134  -2.826  1.00  0.00     0.010 A 
ATOM     82  C   UNL     1      12.509 -10.690  -0.554  1.00  0.00     0.020 A 
ATOM     83  C   UNL     1      12.165 -11.789  -2.695  1.00  0.00     0.020 A 
ATOM     84  C   UNL     1      12.950 -11.552  -1.565  1.00  0.00     0.054 A 
BRANCH  84  85
ATOM     85  S   UNL     1      14.542 -12.398  -1.361  1.00  0.00     0.124 S 
ATOM     86  O   UNL     1      15.493 -11.326  -1.644  1.00  0.00    -0.237 OA
ATOM     87  O   UNL     1      14.494 -12.845   0.029  1.00  0.00    -0.237 OA
ATOM     88  O   UNL     1      14.494 -13.467  -2.356  1.00  0.00    -0.744 OA
ENDBRANCH  84  85
ENDBRANCH  58  79
ENDBRANCH  32  33
ENDBRANCH  24  27
ENDBRANCH  22  23
ENDBRANCH   1  22
TORSDOF 18
