REMARK SMILES O=C(Cc1ccn(C(F)F)c(=O)c1)NCCCNC(=O)c1ccc(-c2c3nc(c(-c4ccc(S(=O)(=O)[O-])cc4)c4ccc([nH]4)c(-c4ccc(S(=O)(=O)[O-])cc4)c4nc(c(-c5ccc(S(=O)(=O)[O-])cc5)c5ccc2[nH]5)C=C4)C=C3)cc1
REMARK SMILES IDX 16 1 15 2 14 3 1 4 2 5 3 7 4 8 5 9 13 10 6 11 11 12 7 13
REMARK SMILES IDX 12 14 8 15 9 16 10 17 17 18 18 19 19 20 20 22 21 23 22 24
REMARK SMILES IDX 80 25 23 26 79 27 24 28 25 29 26 30 73 31 27 32 78 33 72 34
REMARK SMILES IDX 74 35 28 36 77 37 71 38 70 39 29 41 59 42 40 43 58 44 41 45
REMARK SMILES IDX 44 46 57 47 75 48 42 49 43 50 56 52 76 53 45 54 30 55 31 56
REMARK SMILES IDX 39 57 32 58 38 59 33 60 34 61 35 62 36 63 37 64 60 65 61 66
REMARK SMILES IDX 69 67 62 68 68 69 63 70 64 71 65 72 66 73 67 74 46 75 47 76
REMARK SMILES IDX 55 77 48 78 54 79 49 80 50 81 51 82 52 83 53 84
REMARK H PARENT 14 6 18 21 74 40 44 51
REMARK Flexibility Score: inf
ROOT
ATOM      1  C   UNL     1       2.212   3.220  -1.304  1.00  0.00     0.042 C 
ENDROOT
BRANCH   1   2
ATOM      2  C   UNL     1       2.046   1.727  -1.550  1.00  0.00     0.117 C 
BRANCH   2   3
ATOM      3  N   UNL     1       2.743   0.910  -0.576  1.00  0.00    -0.356 N 
ATOM      4  O   UNL     1       1.104  -0.696  -0.402  1.00  0.00    -0.275 OA
ATOM      5  C   UNL     1       2.228  -0.290  -0.125  1.00  0.00     0.224 C 
ATOM      6  H   UNL     1       3.609   1.220  -0.226  1.00  0.00     0.163 HD
BRANCH   5   7
ATOM      7  C   UNL     1       3.220  -1.119   0.683  1.00  0.00     0.135 C 
BRANCH   7   8
ATOM      8  C   UNL     1       3.889  -2.105  -0.241  1.00  0.00    -0.032 A 
ATOM      9  C   UNL     1       4.882  -1.609  -1.175  1.00  0.00     0.022 A 
ATOM     10  C   UNL     1       3.580  -3.413  -0.248  1.00  0.00     0.076 A 
ATOM     11  C   UNL     1       5.414  -2.424  -2.092  1.00  0.00     0.095 A 
ATOM     12  C   UNL     1       4.200  -4.343  -1.235  1.00  0.00     0.255 A 
ATOM     13  N   UNL     1       5.069  -3.761  -2.145  1.00  0.00    -0.258 N 
ATOM     14  O   UNL     1       3.902  -5.532  -1.190  1.00  0.00    -0.269 OA
BRANCH  13  15
ATOM     15  C   UNL     1       5.633  -4.618  -3.154  1.00  0.00     0.451 C 
ATOM     16  F   UNL     1       6.406  -5.584  -2.600  1.00  0.00    -0.185 F 
ATOM     17  F   UNL     1       4.663  -5.224  -3.882  1.00  0.00    -0.185 F 
ENDBRANCH  13  15
ENDBRANCH   7   8
ENDBRANCH   5   7
ENDBRANCH   2   3
ENDBRANCH   1   2
BRANCH   1  18
ATOM     18  C   UNL     1       3.647   3.732  -1.352  1.00  0.00     0.118 C 
BRANCH  18  19
ATOM     19  N   UNL     1       4.277   3.645  -2.663  1.00  0.00    -0.352 N 
ATOM     20  C   UNL     1       5.130   4.548  -3.263  1.00  0.00     0.251 C 
ATOM     21  H   UNL     1       4.066   2.839  -3.187  1.00  0.00     0.163 HD
ATOM     22  O   UNL     1       5.518   4.355  -4.412  1.00  0.00    -0.269 OA
BRANCH  20  23
ATOM     23  C   UNL     1       5.533   5.772  -2.532  1.00  0.00     0.039 A 
ATOM     24  C   UNL     1       5.959   5.701  -1.205  1.00  0.00     0.014 A 
ATOM     25  C   UNL     1       5.424   7.013  -3.166  1.00  0.00     0.014 A 
ATOM     26  C   UNL     1       6.094   6.870  -0.463  1.00  0.00     0.010 A 
ATOM     27  C   UNL     1       5.644   8.189  -2.438  1.00  0.00     0.010 A 
ATOM     28  C   UNL     1       5.923   8.129  -1.065  1.00  0.00    -0.014 A 
BRANCH  28  29
ATOM     29  C   UNL     1       6.021   9.354  -0.225  1.00  0.00     0.031 A 
ATOM     30  C   UNL     1       4.817  10.230   0.012  1.00  0.00     0.074 A 
ATOM     31  C   UNL     1       7.181   9.629   0.405  1.00  0.00     0.049 A 
ATOM     32  N   UNL     1       4.706  11.276   0.792  1.00  0.00    -0.248 NA
ATOM     33  C   UNL     1       3.581   9.896  -0.714  1.00  0.00     0.031 C 
ATOM     34  C   UNL     1       8.412   8.848   0.272  1.00  0.00     0.029 A 
ATOM     35  N   UNL     1       7.505  10.607   1.313  1.00  0.00    -0.354 N 
ATOM     36  C   UNL     1       3.398  11.726   0.647  1.00  0.00     0.074 A 
ATOM     37  C   UNL     1       2.761  10.863  -0.322  1.00  0.00     0.031 C 
ATOM     38  C   UNL     1       9.330   9.327   1.123  1.00  0.00     0.029 A 
ATOM     39  C   UNL     1       8.779  10.487   1.819  1.00  0.00     0.049 A 
ATOM     40  H   UNL     1       6.885  11.325   1.577  1.00  0.00     0.167 HD
ATOM     41  C   UNL     1       2.780  12.755   1.274  1.00  0.00     0.031 A 
ATOM     42  C   UNL     1       9.437  11.219   2.741  1.00  0.00     0.031 A 
ATOM     43  C   UNL     1       3.411  13.606   2.249  1.00  0.00     0.049 A 
ATOM     44  C   UNL     1       8.742  12.376   3.397  1.00  0.00     0.074 A 
ATOM     45  C   UNL     1       2.856  14.668   2.943  1.00  0.00     0.029 A 
ATOM     46  N   UNL     1       4.725  13.494   2.675  1.00  0.00    -0.354 N 
ATOM     47  N   UNL     1       7.504  12.781   3.244  1.00  0.00    -0.248 NA
ATOM     48  C   UNL     1       9.526  13.175   4.349  1.00  0.00     0.031 C 
ATOM     49  C   UNL     1       3.848  15.232   3.748  1.00  0.00     0.029 A 
ATOM     50  C   UNL     1       5.004  14.481   3.606  1.00  0.00     0.049 A 
ATOM     51  H   UNL     1       5.364  12.814   2.363  1.00  0.00     0.167 HD
ATOM     52  C   UNL     1       7.359  13.879   4.083  1.00  0.00     0.074 A 
ATOM     53  C   UNL     1       8.627  14.063   4.758  1.00  0.00     0.031 C 
ATOM     54  C   UNL     1       6.270  14.663   4.271  1.00  0.00     0.031 A 
BRANCH  41  55
ATOM     55  C   UNL     1       1.337  13.032   0.942  1.00  0.00    -0.014 A 
ATOM     56  C   UNL     1       0.993  14.209   0.250  1.00  0.00     0.010 A 
ATOM     57  C   UNL     1       0.313  12.194   1.417  1.00  0.00     0.010 A 
ATOM     58  C   UNL     1      -0.348  14.557   0.063  1.00  0.00     0.020 A 
ATOM     59  C   UNL     1      -1.029  12.526   1.210  1.00  0.00     0.020 A 
ATOM     60  C   UNL     1      -1.351  13.717   0.553  1.00  0.00     0.054 A 
BRANCH  60  61
ATOM     61  S   UNL     1      -3.087  14.190   0.316  1.00  0.00     0.124 S 
ATOM     62  O   UNL     1      -3.272  15.208   1.344  1.00  0.00    -0.237 OA
ATOM     63  O   UNL     1      -3.102  14.673  -1.063  1.00  0.00    -0.237 OA
ATOM     64  O   UNL     1      -3.811  12.939   0.534  1.00  0.00    -0.744 OA
ENDBRANCH  60  61
ENDBRANCH  41  55
BRANCH  42  65
ATOM     65  C   UNL     1      10.828  10.835   3.105  1.00  0.00    -0.014 A 
ATOM     66  C   UNL     1      11.870  10.971   2.170  1.00  0.00     0.010 A 
ATOM     67  C   UNL     1      11.097  10.237   4.348  1.00  0.00     0.010 A 
ATOM     68  C   UNL     1      13.140  10.457   2.443  1.00  0.00     0.020 A 
ATOM     69  C   UNL     1      12.375   9.748   4.637  1.00  0.00     0.020 A 
ATOM     70  C   UNL     1      13.378   9.832   3.669  1.00  0.00     0.054 A 
BRANCH  70  71
ATOM     71  S   UNL     1      15.013   9.109   3.977  1.00  0.00     0.124 S 
ATOM     72  O   UNL     1      14.929   7.856   3.232  1.00  0.00    -0.237 OA
ATOM     73  O   UNL     1      15.918  10.112   3.421  1.00  0.00    -0.237 OA
ATOM     74  O   UNL     1      15.056   8.973   5.431  1.00  0.00    -0.744 OA
ENDBRANCH  70  71
ENDBRANCH  42  65
BRANCH  54  75
ATOM     75  C   UNL     1       6.375  15.809   5.240  1.00  0.00    -0.014 A 
ATOM     76  C   UNL     1       5.652  15.771   6.447  1.00  0.00     0.010 A 
ATOM     77  C   UNL     1       7.073  16.980   4.895  1.00  0.00     0.010 A 
ATOM     78  C   UNL     1       5.593  16.895   7.274  1.00  0.00     0.020 A 
ATOM     79  C   UNL     1       7.037  18.098   5.733  1.00  0.00     0.020 A 
ATOM     80  C   UNL     1       6.275  18.057   6.904  1.00  0.00     0.054 A 
BRANCH  80  81
ATOM     81  S   UNL     1       6.155  19.521   7.968  1.00  0.00     0.124 S 
ATOM     82  O   UNL     1       4.839  20.047   7.618  1.00  0.00    -0.237 OA
ATOM     83  O   UNL     1       6.270  18.955   9.310  1.00  0.00    -0.237 OA
ATOM     84  O   UNL     1       7.288  20.342   7.548  1.00  0.00    -0.744 OA
ENDBRANCH  80  81
ENDBRANCH  54  75
ENDBRANCH  28  29
ENDBRANCH  20  23
ENDBRANCH  18  19
ENDBRANCH   1  18
TORSDOF 15
