REMARK SMILES CCc1cccc(CC)c1N1/C(=[NH+]/C(=O)CCCC(=O)NCCCNC(=O)c2ccc(-c3c4nc(c(-c5ccc(S(=O)(=O)[O-])cc5)c5ccc([nH]5)c(-c5ccc(S(=O)(=O)[O-])cc5)c5nc(c(-c6ccc(S(=O)(=O)[O-])cc6)c6ccc3[nH]6)C=C5)C=C4)cc2)S[C@@H]2CS(=O)(=O)C[C@@H]21
REMARK SMILES IDX 22 1 21 2 19 3 20 4 18 6 17 7 16 8 14 9 11 10 12 11 95 12
REMARK SMILES IDX 13 13 88 14 89 15 94 16 90 18 91 19 15 20 92 21 93 22 10 23
REMARK SMILES IDX 3 24 4 25 5 26 7 27 6 28 2 29 1 30 8 31 9 32 23 33 24 34
REMARK SMILES IDX 25 35 26 36 27 38 28 39 29 40 87 41 30 42 86 43 31 44 32 45
REMARK SMILES IDX 33 46 80 47 34 48 85 49 79 50 81 51 35 52 84 53 78 54 77 55
REMARK SMILES IDX 36 57 66 58 47 59 65 60 48 61 51 62 64 63 82 64 49 65 50 66
REMARK SMILES IDX 63 68 83 69 52 70 37 71 38 72 46 73 39 74 45 75 40 76 41 77
REMARK SMILES IDX 42 78 43 79 44 80 67 81 68 82 76 83 69 84 75 85 70 86 71 87
REMARK SMILES IDX 72 88 73 89 74 90 53 91 54 92 62 93 55 94 61 95 56 96 57 97
REMARK SMILES IDX 58 98 59 99 60 100
REMARK H PARENT 21 5 13 17 25 37 81 56 51 67
REMARK Flexibility Score: inf
ROOT
ATOM      1  C   UNL     1       3.411   4.562   2.597  1.00  0.00     0.117 C 
ENDROOT
BRANCH   1   2
ATOM      2  N   UNL     1       4.459   3.574   2.466  1.00  0.00    -0.356 N 
ATOM      3  C   UNL     1       4.375   2.217   2.539  1.00  0.00     0.220 C 
ATOM      4  O   UNL     1       5.418   1.563   2.483  1.00  0.00    -0.275 OA
ATOM      5  H   UNL     1       5.361   3.933   2.302  1.00  0.00     0.163 HD
BRANCH   3   6
ATOM      6  C   UNL     1       3.027   1.531   2.619  1.00  0.00     0.100 C 
BRANCH   6   7
ATOM      7  C   UNL     1       2.454   1.287   4.016  1.00  0.00     0.022 C 
BRANCH   7   8
ATOM      8  C   UNL     1       1.645   2.391   4.701  1.00  0.00     0.128 C 
BRANCH   8   9
ATOM      9  C   UNL     1       0.331   2.830   4.063  1.00  0.00     0.307 C 
ATOM     10  N   UNL     1      -0.659   3.805   0.669  1.00  0.00    -0.216 N 
ATOM     11  C   UNL     1      -0.497   3.741   2.058  1.00  0.00     0.319 C 
ATOM     12  C   UNL     1      -1.987   4.284   0.208  1.00  0.00     0.212 C 
ATOM     13  N   UNL     1       0.386   3.065   2.711  1.00  0.00    -0.204 N 
ATOM     14  S   UNL     1      -1.806   4.686   2.799  1.00  0.00    -0.029 SA
ATOM     15  C   UNL     1      -2.907   4.246   1.442  1.00  0.00     0.120 C 
ATOM     16  C   UNL     1      -2.648   3.437  -0.877  1.00  0.00     0.188 C 
ATOM     17  H   UNL     1       1.147   2.694   2.209  1.00  0.00     0.316 HD
ATOM     18  C   UNL     1      -3.401   2.816   1.605  1.00  0.00     0.156 C 
ATOM     19  S   UNL     1      -3.781   2.336  -0.057  1.00  0.00     0.155 S 
ATOM     20  O   UNL     1      -0.677   2.894   4.761  1.00  0.00    -0.247 OA
ATOM     21  O   UNL     1      -3.370   0.968  -0.267  1.00  0.00    -0.229 OA
ATOM     22  O   UNL     1      -5.128   2.787  -0.350  1.00  0.00    -0.229 OA
BRANCH  10  23
ATOM     23  C   UNL     1       0.326   3.524  -0.312  1.00  0.00     0.134 A 
ATOM     24  C   UNL     1       0.754   2.179  -0.549  1.00  0.00    -0.001 A 
ATOM     25  C   UNL     1       1.631   1.913  -1.621  1.00  0.00     0.008 A 
ATOM     26  C   UNL     1       2.060   2.914  -2.478  1.00  0.00     0.001 A 
ATOM     27  C   UNL     1       0.821   4.556  -1.172  1.00  0.00    -0.001 A 
ATOM     28  C   UNL     1       1.646   4.218  -2.264  1.00  0.00     0.008 A 
BRANCH  24  29
ATOM     29  C   UNL     1       0.193   1.007   0.243  1.00  0.00     0.036 C 
ATOM     30  C   UNL     1       0.863  -0.353   0.064  1.00  0.00     0.009 C 
ENDBRANCH  24  29
BRANCH  27  31
ATOM     31  C   UNL     1       0.473   6.029  -1.019  1.00  0.00     0.036 C 
ATOM     32  C   UNL     1       1.663   6.986  -1.100  1.00  0.00     0.009 C 
ENDBRANCH  27  31
ENDBRANCH  10  23
ENDBRANCH   8   9
ENDBRANCH   7   8
ENDBRANCH   6   7
ENDBRANCH   3   6
ENDBRANCH   1   2
BRANCH   1  33
ATOM     33  C   UNL     1       3.469   5.238   3.958  1.00  0.00     0.042 C 
BRANCH  33  34
ATOM     34  C   UNL     1       4.407   6.423   3.985  1.00  0.00     0.118 C 
BRANCH  34  35
ATOM     35  N   UNL     1       3.867   7.558   3.257  1.00  0.00    -0.352 N 
ATOM     36  C   UNL     1       3.685   8.854   3.672  1.00  0.00     0.251 C 
ATOM     37  H   UNL     1       3.590   7.371   2.330  1.00  0.00     0.163 HD
ATOM     38  O   UNL     1       3.028   9.620   2.973  1.00  0.00    -0.269 OA
BRANCH  36  39
ATOM     39  C   UNL     1       4.257   9.314   4.959  1.00  0.00     0.039 A 
ATOM     40  C   UNL     1       3.540  10.238   5.723  1.00  0.00     0.014 A 
ATOM     41  C   UNL     1       5.498   8.856   5.410  1.00  0.00     0.014 A 
ATOM     42  C   UNL     1       4.054  10.671   6.947  1.00  0.00     0.010 A 
ATOM     43  C   UNL     1       5.948   9.193   6.681  1.00  0.00     0.010 A 
ATOM     44  C   UNL     1       5.251  10.134   7.448  1.00  0.00    -0.014 A 
BRANCH  44  45
ATOM     45  C   UNL     1       5.817  10.587   8.744  1.00  0.00     0.031 A 
ATOM     46  C   UNL     1       7.174  11.245   8.782  1.00  0.00     0.074 A 
ATOM     47  C   UNL     1       5.131  10.376   9.885  1.00  0.00     0.049 A 
ATOM     48  N   UNL     1       7.843  11.696   9.812  1.00  0.00    -0.248 NA
ATOM     49  C   UNL     1       7.888  11.390   7.501  1.00  0.00     0.031 C 
ATOM     50  C   UNL     1       3.833   9.703   9.982  1.00  0.00     0.029 A 
ATOM     51  N   UNL     1       5.428  10.711  11.181  1.00  0.00    -0.354 N 
ATOM     52  C   UNL     1       9.054  12.155   9.306  1.00  0.00     0.074 A 
ATOM     53  C   UNL     1       9.058  11.871   7.890  1.00  0.00     0.031 C 
ATOM     54  C   UNL     1       3.427   9.713  11.262  1.00  0.00     0.029 A 
ATOM     55  C   UNL     1       4.451  10.353  12.081  1.00  0.00     0.049 A 
ATOM     56  H   UNL     1       6.261  11.165  11.443  1.00  0.00     0.167 HD
ATOM     57  C   UNL     1      10.062  12.784   9.955  1.00  0.00     0.031 A 
ATOM     58  C   UNL     1       4.388  10.522  13.416  1.00  0.00     0.031 A 
ATOM     59  C   UNL     1      10.044  13.083  11.362  1.00  0.00     0.049 A 
ATOM     60  C   UNL     1       5.517  11.232  14.113  1.00  0.00     0.074 A 
ATOM     61  C   UNL     1      10.987  13.768  12.108  1.00  0.00     0.029 A 
ATOM     62  N   UNL     1       9.031  12.716  12.234  1.00  0.00    -0.354 N 
ATOM     63  N   UNL     1       6.623  11.722  13.604  1.00  0.00    -0.248 NA
ATOM     64  C   UNL     1       5.378  11.431  15.561  1.00  0.00     0.031 C 
ATOM     65  C   UNL     1      10.572  13.763  13.443  1.00  0.00     0.029 A 
ATOM     66  C   UNL     1       9.335  13.141  13.516  1.00  0.00     0.049 A 
ATOM     67  H   UNL     1       8.216  12.226  11.980  1.00  0.00     0.167 HD
ATOM     68  C   UNL     1       7.296  12.318  14.666  1.00  0.00     0.074 A 
ATOM     69  C   UNL     1       6.462  12.143  15.838  1.00  0.00     0.031 C 
ATOM     70  C   UNL     1       8.493  12.956  14.671  1.00  0.00     0.031 A 
BRANCH  57  71
ATOM     71  C   UNL     1      11.270  13.189   9.148  1.00  0.00    -0.014 A 
ATOM     72  C   UNL     1      11.192  14.201   8.173  1.00  0.00     0.010 A 
ATOM     73  C   UNL     1      12.514  12.580   9.399  1.00  0.00     0.010 A 
ATOM     74  C   UNL     1      12.323  14.568   7.439  1.00  0.00     0.020 A 
ATOM     75  C   UNL     1      13.655  12.968   8.691  1.00  0.00     0.020 A 
ATOM     76  C   UNL     1      13.549  13.950   7.704  1.00  0.00     0.054 A 
BRANCH  76  77
ATOM     77  S   UNL     1      15.007  14.474   6.761  1.00  0.00     0.124 S 
ATOM     78  O   UNL     1      14.720  13.930   5.436  1.00  0.00    -0.237 OA
ATOM     79  O   UNL     1      14.949  15.929   6.868  1.00  0.00    -0.237 OA
ATOM     80  O   UNL     1      16.121  13.843   7.465  1.00  0.00    -0.744 OA
ENDBRANCH  76  77
ENDBRANCH  57  71
BRANCH  58  81
ATOM     81  C   UNL     1       3.204  10.031  14.176  1.00  0.00    -0.014 A 
ATOM     82  C   UNL     1       2.304  10.935  14.769  1.00  0.00     0.010 A 
ATOM     83  C   UNL     1       2.968   8.650  14.308  1.00  0.00     0.010 A 
ATOM     84  C   UNL     1       1.210  10.469  15.504  1.00  0.00     0.020 A 
ATOM     85  C   UNL     1       1.857   8.180  15.014  1.00  0.00     0.020 A 
ATOM     86  C   UNL     1       0.993   9.093  15.620  1.00  0.00     0.054 A 
BRANCH  86  87
ATOM     87  S   UNL     1      -0.453   8.511  16.548  1.00  0.00     0.124 S 
ATOM     88  O   UNL     1      -0.072   8.812  17.924  1.00  0.00    -0.237 OA
ATOM     89  O   UNL     1      -1.531   9.328  15.995  1.00  0.00    -0.237 OA
ATOM     90  O   UNL     1      -0.524   7.090  16.214  1.00  0.00    -0.744 OA
ENDBRANCH  86  87
ENDBRANCH  58  81
BRANCH  70  91
ATOM     91  C   UNL     1       8.948  13.557  15.975  1.00  0.00    -0.014 A 
ATOM     92  C   UNL     1       9.332  12.754  17.064  1.00  0.00     0.010 A 
ATOM     93  C   UNL     1       9.020  14.957  16.098  1.00  0.00     0.010 A 
ATOM     94  C   UNL     1       9.724  13.341  18.270  1.00  0.00     0.020 A 
ATOM     95  C   UNL     1       9.447  15.548  17.289  1.00  0.00     0.020 A 
ATOM     96  C   UNL     1       9.775  14.735  18.375  1.00  0.00     0.054 A 
BRANCH  96  97
ATOM     97  S   UNL     1      10.298  15.473  19.947  1.00  0.00     0.124 S 
ATOM     98  O   UNL     1       9.138  15.226  20.799  1.00  0.00    -0.237 OA
ATOM     99  O   UNL     1      11.496  14.705  20.278  1.00  0.00    -0.237 OA
ATOM    100  O   UNL     1      10.536  16.875  19.610  1.00  0.00    -0.744 OA
ENDBRANCH  96  97
ENDBRANCH  70  91
ENDBRANCH  44  45
ENDBRANCH  36  39
ENDBRANCH  34  35
ENDBRANCH  33  34
ENDBRANCH   1  33
TORSDOF 19
