REMARK SMILES COc1ccc2[nH]cc([C@H](C(=O)NCCCNC(=O)c3ccc(-c4c5nc(c(-c6ccc(S(=O)(=O)[O-])cc6)c6ccc([nH]6)c(-c6ccc(S(=O)(=O)[O-])cc6)c6nc(c(-c7ccc(S(=O)(=O)[O-])cc7)c7ccc4[nH]7)C=C6)C=C5)cc3)[NH+]3CC[NH+](Cc4cccc5ccccc45)CC3)c2c1
REMARK SMILES IDX 15 1 14 2 13 3 11 4 12 5 10 7 9 8 3 9 4 10 98 11 5 12 97 13
REMARK SMILES IDX 6 14 7 15 8 16 2 18 1 19 80 20 81 21 96 22 82 24 95 25 83 26
REMARK SMILES IDX 84 28 85 29 86 30 94 31 87 32 89 33 93 34 88 35 90 36 92 37
REMARK SMILES IDX 91 38 16 39 17 40 18 41 19 43 20 44 21 45 79 46 22 47 78 48
REMARK SMILES IDX 23 49 24 50 25 51 72 52 26 53 77 54 71 55 73 56 27 57 76 58
REMARK SMILES IDX 70 59 69 60 28 62 58 63 39 64 57 65 40 66 43 67 56 68 74 69
REMARK SMILES IDX 41 70 42 71 55 73 75 74 44 75 29 76 30 77 38 78 31 79 37 80
REMARK SMILES IDX 32 81 33 82 34 83 35 84 36 85 59 86 60 87 68 88 61 89 67 90
REMARK SMILES IDX 62 91 63 92 64 93 65 94 66 95 45 96 46 97 54 98 47 99 53 100
REMARK SMILES IDX 48 101 49 102 50 103 51 104 52 105
REMARK H PARENT 13 6 7 17 80 23 83 27 17 42 73 61 43 72
REMARK Flexibility Score: inf
ROOT
ATOM      1  C   UNL     1      -1.174   2.811  -0.082  1.00  0.00     0.042 C 
ENDROOT
BRANCH   1   2
ATOM      2  C   UNL     1      -1.488   4.127  -0.772  1.00  0.00     0.118 C 
BRANCH   2   3
ATOM      3  N   UNL     1      -0.447   4.423  -1.734  1.00  0.00    -0.351 N 
ATOM      4  C   UNL     1      -0.515   4.456  -3.093  1.00  0.00     0.283 C 
ATOM      5  O   UNL     1       0.567   4.433  -3.680  1.00  0.00    -0.268 OA
ATOM      6  H   UNL     1       0.435   4.630  -1.350  1.00  0.00     0.163 HD
BRANCH   4   7
ATOM      7  C   UNL     1      -1.898   4.545  -3.772  1.00  0.00     0.308 C 
BRANCH   7   8
ATOM      8  C   UNL     1      -2.700   5.750  -3.276  1.00  0.00     0.045 A 
ATOM      9  C   UNL     1      -0.720   8.786  -2.005  1.00  0.00     0.119 A 
ATOM     10  C   UNL     1      -1.822   9.560  -1.662  1.00  0.00     0.048 A 
ATOM     11  C   UNL     1      -0.887   7.527  -2.575  1.00  0.00     0.057 A 
ATOM     12  C   UNL     1      -3.122   9.082  -1.871  1.00  0.00     0.030 A 
ATOM     13  C   UNL     1      -2.184   6.997  -2.758  1.00  0.00     0.013 A 
ATOM     14  C   UNL     1      -3.272   7.800  -2.420  1.00  0.00     0.046 A 
ATOM     15  N   UNL     1      -4.407   7.100  -2.757  1.00  0.00    -0.361 N 
ATOM     16  C   UNL     1      -4.080   5.871  -3.264  1.00  0.00     0.094 A 
ATOM     17  H   UNL     1      -5.326   7.436  -2.650  1.00  0.00     0.166 HD
BRANCH   9  18
ATOM     18  O   UNL     1       0.565   9.243  -1.890  1.00  0.00    -0.497 OA
ATOM     19  C   UNL     1       0.924   9.479  -0.530  1.00  0.00     0.278 C 
ENDBRANCH   9  18
ENDBRANCH   7   8
BRANCH   7  20
ATOM     20  N   UNL     1      -1.835   4.578  -5.241  1.00  0.00    -0.312 N 
ATOM     21  C   UNL     1      -1.365   5.822  -5.844  1.00  0.00     0.325 C 
ATOM     22  C   UNL     1      -1.308   3.375  -5.898  1.00  0.00     0.325 C 
ATOM     23  H   UNL     1      -2.831   4.563  -5.458  1.00  0.00     0.349 HD
ATOM     24  C   UNL     1       0.055   5.859  -6.428  1.00  0.00     0.324 C 
ATOM     25  C   UNL     1       0.085   3.463  -6.596  1.00  0.00     0.324 C 
ATOM     26  N   UNL     1       0.426   4.724  -7.269  1.00  0.00    -0.322 N 
ATOM     27  H   UNL     1       1.442   4.713  -7.361  1.00  0.00     0.348 HD
BRANCH  26  28
ATOM     28  C   UNL     1       0.096   4.856  -8.696  1.00  0.00     0.300 C 
BRANCH  28  29
ATOM     29  C   UNL     1      -1.303   4.451  -9.128  1.00  0.00     0.014 A 
ATOM     30  C   UNL     1      -1.495   3.100  -9.477  1.00  0.00     0.010 A 
ATOM     31  C   UNL     1      -2.426   5.322  -9.050  1.00  0.00    -0.010 A 
ATOM     32  C   UNL     1      -2.771   2.569  -9.591  1.00  0.00     0.001 A 
ATOM     33  C   UNL     1      -3.717   4.741  -9.046  1.00  0.00    -0.018 A 
ATOM     34  C   UNL     1      -2.344   6.731  -8.913  1.00  0.00     0.009 A 
ATOM     35  C   UNL     1      -3.872   3.373  -9.319  1.00  0.00     0.009 A 
ATOM     36  C   UNL     1      -4.836   5.529  -8.732  1.00  0.00     0.009 A 
ATOM     37  C   UNL     1      -3.473   7.508  -8.637  1.00  0.00     0.001 A 
ATOM     38  C   UNL     1      -4.713   6.899  -8.506  1.00  0.00     0.001 A 
ENDBRANCH  28  29
ENDBRANCH  26  28
ENDBRANCH   7  20
ENDBRANCH   4   7
ENDBRANCH   2   3
ENDBRANCH   1   2
BRANCH   1  39
ATOM     39  C   UNL     1       0.258   2.740   0.433  1.00  0.00     0.118 C 
BRANCH  39  40
ATOM     40  N   UNL     1       0.599   3.872   1.288  1.00  0.00    -0.352 N 
ATOM     41  C   UNL     1       1.089   3.855   2.572  1.00  0.00     0.251 C 
ATOM     42  H   UNL     1       0.461   4.763   0.893  1.00  0.00     0.163 HD
ATOM     43  O   UNL     1       1.141   4.872   3.239  1.00  0.00    -0.269 OA
BRANCH  41  44
ATOM     44  C   UNL     1       1.522   2.557   3.118  1.00  0.00     0.039 A 
ATOM     45  C   UNL     1       1.011   2.130   4.342  1.00  0.00     0.014 A 
ATOM     46  C   UNL     1       2.364   1.738   2.361  1.00  0.00     0.014 A 
ATOM     47  C   UNL     1       1.307   0.842   4.786  1.00  0.00     0.010 A 
ATOM     48  C   UNL     1       2.573   0.426   2.756  1.00  0.00     0.010 A 
ATOM     49  C   UNL     1       2.062  -0.028   3.981  1.00  0.00    -0.014 A 
BRANCH  49  50
ATOM     50  C   UNL     1       2.364  -1.412   4.416  1.00  0.00     0.031 A 
ATOM     51  C   UNL     1       3.795  -1.824   4.631  1.00  0.00     0.074 A 
ATOM     52  C   UNL     1       1.365  -2.305   4.556  1.00  0.00     0.049 A 
ATOM     53  N   UNL     1       4.275  -2.996   4.954  1.00  0.00    -0.248 NA
ATOM     54  C   UNL     1       4.825  -0.791   4.424  1.00  0.00     0.031 C 
ATOM     55  C   UNL     1      -0.058  -2.033   4.329  1.00  0.00     0.029 A 
ATOM     56  N   UNL     1       1.394  -3.627   4.922  1.00  0.00    -0.354 N 
ATOM     57  C   UNL     1       5.656  -2.845   4.968  1.00  0.00     0.074 A 
ATOM     58  C   UNL     1       5.941  -1.489   4.560  1.00  0.00     0.031 C 
ATOM     59  C   UNL     1      -0.765  -3.143   4.594  1.00  0.00     0.029 A 
ATOM     60  C   UNL     1       0.152  -4.215   4.967  1.00  0.00     0.049 A 
ATOM     61  H   UNL     1       2.226  -4.108   5.133  1.00  0.00     0.167 HD
ATOM     62  C   UNL     1       6.603  -3.747   5.316  1.00  0.00     0.031 A 
ATOM     63  C   UNL     1      -0.205  -5.478   5.271  1.00  0.00     0.031 A 
ATOM     64  C   UNL     1       6.310  -5.089   5.738  1.00  0.00     0.049 A 
ATOM     65  C   UNL     1       0.865  -6.464   5.654  1.00  0.00     0.074 A 
ATOM     66  C   UNL     1       7.189  -6.067   6.166  1.00  0.00     0.029 A 
ATOM     67  N   UNL     1       5.038  -5.642   5.786  1.00  0.00    -0.354 N 
ATOM     68  N   UNL     1       2.163  -6.284   5.726  1.00  0.00    -0.248 NA
ATOM     69  C   UNL     1       0.422  -7.817   6.012  1.00  0.00     0.031 C 
ATOM     70  C   UNL     1       6.455  -7.229   6.421  1.00  0.00     0.029 A 
ATOM     71  C   UNL     1       5.111  -6.955   6.217  1.00  0.00     0.049 A 
ATOM     72  H   UNL     1       4.207  -5.170   5.549  1.00  0.00     0.167 HD
ATOM     73  C   UNL     1       2.688  -7.493   6.172  1.00  0.00     0.074 A 
ATOM     74  C   UNL     1       1.566  -8.389   6.363  1.00  0.00     0.031 C 
ATOM     75  C   UNL     1       3.981  -7.829   6.405  1.00  0.00     0.031 A 
BRANCH  62  76
ATOM     76  C   UNL     1       8.042  -3.306   5.251  1.00  0.00    -0.014 A 
ATOM     77  C   UNL     1       8.549  -2.341   6.141  1.00  0.00     0.010 A 
ATOM     78  C   UNL     1       8.908  -3.885   4.306  1.00  0.00     0.010 A 
ATOM     79  C   UNL     1       9.883  -1.932   6.058  1.00  0.00     0.020 A 
ATOM     80  C   UNL     1      10.251  -3.504   4.242  1.00  0.00     0.020 A 
ATOM     81  C   UNL     1      10.725  -2.517   5.108  1.00  0.00     0.054 A 
BRANCH  81  82
ATOM     82  S   UNL     1      12.458  -1.987   5.044  1.00  0.00     0.124 S 
ATOM     83  O   UNL     1      12.342  -0.646   4.475  1.00  0.00    -0.237 OA
ATOM     84  O   UNL     1      12.861  -2.041   6.447  1.00  0.00    -0.237 OA
ATOM     85  O   UNL     1      13.092  -2.978   4.178  1.00  0.00    -0.744 OA
ENDBRANCH  81  82
ENDBRANCH  62  76
BRANCH  63  86
ATOM     86  C   UNL     1      -1.641  -5.872   5.248  1.00  0.00    -0.014 A 
ATOM     87  C   UNL     1      -2.324  -6.159   6.443  1.00  0.00     0.010 A 
ATOM     88  C   UNL     1      -2.338  -5.952   4.029  1.00  0.00     0.010 A 
ATOM     89  C   UNL     1      -3.669  -6.540   6.419  1.00  0.00     0.020 A 
ATOM     90  C   UNL     1      -3.691  -6.303   4.002  1.00  0.00     0.020 A 
ATOM     91  C   UNL     1      -4.345  -6.607   5.197  1.00  0.00     0.054 A 
BRANCH  91  92
ATOM     92  S   UNL     1      -6.103  -7.057   5.194  1.00  0.00     0.124 S 
ATOM     93  O   UNL     1      -6.053  -8.482   5.505  1.00  0.00    -0.237 OA
ATOM     94  O   UNL     1      -6.649  -6.197   6.241  1.00  0.00    -0.237 OA
ATOM     95  O   UNL     1      -6.537  -6.726   3.838  1.00  0.00    -0.744 OA
ENDBRANCH  91  92
ENDBRANCH  63  86
BRANCH  75  96
ATOM     96  C   UNL     1       4.253  -9.210   6.942  1.00  0.00    -0.014 A 
ATOM     97  C   UNL     1       4.104 -10.353   6.137  1.00  0.00     0.010 A 
ATOM     98  C   UNL     1       4.722  -9.354   8.261  1.00  0.00     0.010 A 
ATOM     99  C   UNL     1       4.387 -11.620   6.654  1.00  0.00     0.020 A 
ATOM    100  C   UNL     1       5.037 -10.616   8.770  1.00  0.00     0.020 A 
ATOM    101  C   UNL     1       4.853 -11.743   7.967  1.00  0.00     0.054 A 
BRANCH 101 102
ATOM    102  S   UNL     1       5.253 -13.394   8.600  1.00  0.00     0.124 S 
ATOM    103  O   UNL     1       3.927 -13.979   8.781  1.00  0.00    -0.237 OA
ATOM    104  O   UNL     1       6.051 -13.967   7.519  1.00  0.00    -0.237 OA
ATOM    105  O   UNL     1       5.988 -13.124   9.834  1.00  0.00    -0.744 OA
ENDBRANCH 101 102
ENDBRANCH  75  96
ENDBRANCH  49  50
ENDBRANCH  41  44
ENDBRANCH  39  40
ENDBRANCH   1  39
TORSDOF 18
