REMARK SMILES CC1=C[C@H](C)[C@@H](C(=O)NCCCNC(=O)c2ccc(-c3c4nc(c(-c5ccc(S(=O)(=O)[O-])cc5)c5ccc([nH]5)c(-c5ccc(S(=O)(=O)[O-])cc5)c5nc(c(-c6ccc(S(=O)(=O)[O-])cc6)c6ccc3[nH]6)C=C5)C=C4)cc2)[C@H](C(=O)Nc2cccnc2)C1
REMARK SMILES IDX 11 1 10 2 9 3 7 4 8 5 6 7 1 8 2 9 3 10 86 11 4 12 76 13 5 14
REMARK SMILES IDX 77 15 78 16 79 17 80 19 81 20 85 21 82 22 84 23 83 24 12 25
REMARK SMILES IDX 13 26 14 27 15 29 16 30 17 31 75 32 18 33 74 34 19 35 20 36
REMARK SMILES IDX 21 37 68 38 22 39 73 40 67 41 69 42 23 43 72 44 66 45 65 46
REMARK SMILES IDX 24 48 54 49 35 50 53 51 36 52 39 53 52 54 70 55 37 56 38 57
REMARK SMILES IDX 51 59 71 60 40 61 25 62 26 63 34 64 27 65 33 66 28 67 29 68
REMARK SMILES IDX 30 69 31 70 32 71 55 72 56 73 64 74 57 75 63 76 58 77 59 78
REMARK SMILES IDX 60 79 61 80 62 81 41 82 42 83 50 84 43 85 49 86 44 87 45 88
REMARK SMILES IDX 46 89 47 90 48 91
REMARK H PARENT 9 6 79 18 13 28 69 47 39 58
REMARK Flexibility Score: inf
ROOT
ATOM      1  C   UNL     1       3.103   0.764   3.668  1.00  0.00     0.042 C 
ENDROOT
BRANCH   1   2
ATOM      2  C   UNL     1       2.743  -0.700   3.771  1.00  0.00     0.117 C 
BRANCH   2   3
ATOM      3  N   UNL     1       1.998  -1.025   4.968  1.00  0.00    -0.356 N 
ATOM      4  C   UNL     1       0.769  -1.596   5.115  1.00  0.00     0.224 C 
ATOM      5  O   UNL     1       0.421  -1.897   6.260  1.00  0.00    -0.275 OA
ATOM      6  H   UNL     1       2.451  -0.797   5.812  1.00  0.00     0.163 HD
BRANCH   4   7
ATOM      7  C   UNL     1      -0.164  -1.868   3.924  1.00  0.00     0.098 C 
ATOM      8  C   UNL     1       0.863  -0.413  -0.168  1.00  0.00     0.039 C 
ATOM      9  C   UNL     1       0.439  -0.965   1.165  1.00  0.00    -0.076 C 
ATOM     10  C   UNL     1       0.693  -2.243   1.510  1.00  0.00    -0.024 C 
ATOM     11  C   UNL     1      -0.174   0.033   2.109  1.00  0.00     0.044 C 
ATOM     12  C   UNL     1       0.537  -2.806   2.906  1.00  0.00     0.022 C 
ATOM     13  C   UNL     1      -0.769  -0.547   3.395  1.00  0.00     0.096 C 
ATOM     14  C   UNL     1      -0.023  -4.238   2.951  1.00  0.00     0.013 C 
BRANCH  13  15
ATOM     15  C   UNL     1      -2.316  -0.489   3.450  1.00  0.00     0.228 C 
ATOM     16  O   UNL     1      -2.875  -0.197   4.514  1.00  0.00    -0.274 OA
ATOM     17  N   UNL     1      -3.111  -0.613   2.343  1.00  0.00    -0.324 N 
ATOM     18  H   UNL     1      -3.979  -0.152   2.398  1.00  0.00     0.169 HD
BRANCH  17  19
ATOM     19  C   UNL     1      -2.875  -1.294   1.145  1.00  0.00     0.059 A 
ATOM     20  C   UNL     1      -2.396  -2.594   1.141  1.00  0.00     0.029 A 
ATOM     21  C   UNL     1      -3.161  -0.716  -0.084  1.00  0.00     0.137 A 
ATOM     22  C   UNL     1      -2.073  -3.215  -0.062  1.00  0.00     0.022 A 
ATOM     23  N   UNL     1      -2.865  -1.292  -1.276  1.00  0.00    -0.263 NA
ATOM     24  C   UNL     1      -2.292  -2.514  -1.234  1.00  0.00     0.111 A 
ENDBRANCH  17  19
ENDBRANCH  13  15
ENDBRANCH   4   7
ENDBRANCH   2   3
ENDBRANCH   1   2
BRANCH   1  25
ATOM     25  C   UNL     1       4.392   1.070   4.394  1.00  0.00     0.118 C 
BRANCH  25  26
ATOM     26  N   UNL     1       5.540   0.413   3.772  1.00  0.00    -0.352 N 
ATOM     27  C   UNL     1       6.691   0.960   3.266  1.00  0.00     0.251 C 
ATOM     28  H   UNL     1       5.478  -0.567   3.707  1.00  0.00     0.163 HD
ATOM     29  O   UNL     1       7.453   0.268   2.594  1.00  0.00    -0.269 OA
BRANCH  27  30
ATOM     30  C   UNL     1       6.989   2.382   3.518  1.00  0.00     0.039 A 
ATOM     31  C   UNL     1       7.551   3.156   2.503  1.00  0.00     0.014 A 
ATOM     32  C   UNL     1       6.683   2.953   4.755  1.00  0.00     0.014 A 
ATOM     33  C   UNL     1       7.752   4.519   2.718  1.00  0.00     0.010 A 
ATOM     34  C   UNL     1       6.750   4.326   4.914  1.00  0.00     0.010 A 
ATOM     35  C   UNL     1       7.322   5.119   3.913  1.00  0.00    -0.014 A 
BRANCH  35  36
ATOM     36  C   UNL     1       7.512   6.564   4.170  1.00  0.00     0.031 A 
ATOM     37  C   UNL     1       8.349   7.005   5.342  1.00  0.00     0.074 A 
ATOM     38  C   UNL     1       6.893   7.469   3.388  1.00  0.00     0.049 A 
ATOM     39  N   UNL     1       8.605   8.217   5.762  1.00  0.00    -0.248 NA
ATOM     40  C   UNL     1       8.946   5.946   6.176  1.00  0.00     0.031 C 
ATOM     41  C   UNL     1       6.014   7.157   2.257  1.00  0.00     0.029 A 
ATOM     42  N   UNL     1       6.911   8.839   3.425  1.00  0.00    -0.354 N 
ATOM     43  C   UNL     1       9.370   8.061   6.912  1.00  0.00     0.074 A 
ATOM     44  C   UNL     1       9.472   6.644   7.170  1.00  0.00     0.031 C 
ATOM     45  C   UNL     1       5.619   8.302   1.679  1.00  0.00     0.029 A 
ATOM     46  C   UNL     1       6.175   9.427   2.424  1.00  0.00     0.049 A 
ATOM     47  H   UNL     1       7.404   9.354   4.104  1.00  0.00     0.167 HD
ATOM     48  C   UNL     1       9.966   9.011   7.670  1.00  0.00     0.031 A 
ATOM     49  C   UNL     1       5.974  10.727   2.138  1.00  0.00     0.031 A 
ATOM     50  C   UNL     1       9.874  10.419   7.394  1.00  0.00     0.049 A 
ATOM     51  C   UNL     1       6.643  11.768   2.994  1.00  0.00     0.074 A 
ATOM     52  C   UNL     1      10.481  11.467   8.060  1.00  0.00     0.029 A 
ATOM     53  N   UNL     1       9.124  10.973   6.367  1.00  0.00    -0.354 N 
ATOM     54  N   UNL     1       7.422  11.601   4.037  1.00  0.00    -0.248 NA
ATOM     55  C   UNL     1       6.419  13.171   2.624  1.00  0.00     0.031 C 
ATOM     56  C   UNL     1      10.052  12.661   7.471  1.00  0.00     0.029 A 
ATOM     57  C   UNL     1       9.234  12.352   6.395  1.00  0.00     0.049 A 
ATOM     58  H   UNL     1       8.594  10.462   5.715  1.00  0.00     0.167 HD
ATOM     59  C   UNL     1       7.806  12.878   4.430  1.00  0.00     0.074 A 
ATOM     60  C   UNL     1       7.186  13.803   3.502  1.00  0.00     0.031 C 
ATOM     61  C   UNL     1       8.604  13.253   5.462  1.00  0.00     0.031 A 
BRANCH  48  62
ATOM     62  C   UNL     1      10.761   8.550   8.864  1.00  0.00    -0.014 A 
ATOM     63  C   UNL     1      11.949   7.810   8.710  1.00  0.00     0.010 A 
ATOM     64  C   UNL     1      10.321   8.869  10.161  1.00  0.00     0.010 A 
ATOM     65  C   UNL     1      12.651   7.353   9.827  1.00  0.00     0.020 A 
ATOM     66  C   UNL     1      11.040   8.444  11.283  1.00  0.00     0.020 A 
ATOM     67  C   UNL     1      12.190   7.671  11.108  1.00  0.00     0.054 A 
BRANCH  67  68
ATOM     68  S   UNL     1      13.129   7.075  12.540  1.00  0.00     0.124 S 
ATOM     69  O   UNL     1      12.836   5.644  12.517  1.00  0.00    -0.237 OA
ATOM     70  O   UNL     1      14.501   7.441  12.196  1.00  0.00    -0.237 OA
ATOM     71  O   UNL     1      12.554   7.811  13.663  1.00  0.00    -0.744 OA
ENDBRANCH  67  68
ENDBRANCH  48  62
BRANCH  49  72
ATOM     72  C   UNL     1       5.133  11.110   0.971  1.00  0.00    -0.014 A 
ATOM     73  C   UNL     1       5.716  11.683  -0.172  1.00  0.00     0.010 A 
ATOM     74  C   UNL     1       3.745  10.877   0.985  1.00  0.00     0.010 A 
ATOM     75  C   UNL     1       4.927  12.033  -1.272  1.00  0.00     0.020 A 
ATOM     76  C   UNL     1       2.957  11.197  -0.124  1.00  0.00     0.020 A 
ATOM     77  C   UNL     1       3.553  11.782  -1.242  1.00  0.00     0.054 A 
BRANCH  77  78
ATOM     78  S   UNL     1       2.559  12.191  -2.704  1.00  0.00     0.124 S 
ATOM     79  O   UNL     1       2.546  13.650  -2.665  1.00  0.00    -0.237 OA
ATOM     80  O   UNL     1       3.334  11.593  -3.788  1.00  0.00    -0.237 OA
ATOM     81  O   UNL     1       1.275  11.546  -2.437  1.00  0.00    -0.744 OA
ENDBRANCH  77  78
ENDBRANCH  49  72
BRANCH  61  82
ATOM     82  C   UNL     1       8.883  14.724   5.619  1.00  0.00    -0.014 A 
ATOM     83  C   UNL     1       7.887  15.619   6.046  1.00  0.00     0.010 A 
ATOM     84  C   UNL     1      10.185  15.206   5.385  1.00  0.00     0.010 A 
ATOM     85  C   UNL     1       8.177  16.977   6.197  1.00  0.00     0.020 A 
ATOM     86  C   UNL     1      10.487  16.557   5.568  1.00  0.00     0.020 A 
ATOM     87  C   UNL     1       9.476  17.437   5.957  1.00  0.00     0.054 A 
BRANCH  87  88
ATOM     88  S   UNL     1       9.835  19.198   6.195  1.00  0.00     0.124 S 
ATOM     89  O   UNL     1       9.160  19.803   5.051  1.00  0.00    -0.237 OA
ATOM     90  O   UNL     1       9.234  19.473   7.498  1.00  0.00    -0.237 OA
ATOM     91  O   UNL     1      11.295  19.262   6.163  1.00  0.00    -0.744 OA
ENDBRANCH  87  88
ENDBRANCH  61  82
ENDBRANCH  35  36
ENDBRANCH  27  30
ENDBRANCH  25  26
ENDBRANCH   1  25
TORSDOF 15
