REMARK SMILES Cc1cccc(N2CCN(c3ncc(NC(=O)c4ccccc4F)cc3C(=O)NCCCNC(=O)c3ccc(-c4c5nc(c(-c6ccc(S(=O)(=O)[O-])cc6)c6ccc([nH]6)c(-c6ccc(S(=O)(=O)[O-])cc6)c6nc(c(-c7ccc(S(=O)(=O)[O-])cc7)c7ccc4[nH]7)C=C6)C=C5)cc3)C[C@@H]2C)c1
REMARK SMILES IDX 31 1 30 2 29 3 27 4 28 5 26 7 11 8 12 9 13 10 25 11 14 12
REMARK SMILES IDX 10 13 7 14 8 15 97 16 9 17 96 18 98 19 6 20 1 21 2 22 3 23
REMARK SMILES IDX 99 24 4 25 5 26 15 27 16 28 17 30 18 31 19 32 23 33 20 34
REMARK SMILES IDX 22 35 24 36 21 37 32 38 33 39 34 40 35 42 36 43 37 44 95 45
REMARK SMILES IDX 38 46 94 47 39 48 40 49 41 50 88 51 42 52 93 53 87 54 89 55
REMARK SMILES IDX 43 56 92 57 86 58 85 59 44 61 74 62 55 63 73 64 56 65 59 66
REMARK SMILES IDX 72 67 90 68 57 69 58 70 71 72 91 73 60 74 45 75 46 76 54 77
REMARK SMILES IDX 47 78 53 79 48 80 49 81 50 82 51 83 52 84 75 85 76 86 84 87
REMARK SMILES IDX 77 88 83 89 78 90 79 91 80 92 81 93 82 94 61 95 62 96 70 97
REMARK SMILES IDX 63 98 69 99 64 100 65 101 66 102 67 103 68 104
REMARK H PARENT 29 6 15 29 33 41 89 60 59 71
REMARK Flexibility Score: inf
ROOT
ATOM      1  C   UNL     1      -7.383   7.451  -2.913  1.00  0.00     0.042 C 
ENDROOT
BRANCH   1   2
ATOM      2  C   UNL     1      -7.175   6.058  -2.308  1.00  0.00     0.118 C 
BRANCH   2   3
ATOM      3  N   UNL     1      -5.771   5.689  -2.368  1.00  0.00    -0.352 N 
ATOM      4  C   UNL     1      -4.717   6.005  -1.546  1.00  0.00     0.255 C 
ATOM      5  O   UNL     1      -3.599   5.998  -2.057  1.00  0.00    -0.269 OA
ATOM      6  H   UNL     1      -5.534   5.112  -3.130  1.00  0.00     0.163 HD
BRANCH   4   7
ATOM      7  C   UNL     1      -4.881   6.407  -0.122  1.00  0.00     0.084 A 
ATOM      8  C   UNL     1      -4.137   5.819   0.923  1.00  0.00     0.141 A 
ATOM      9  N   UNL     1      -4.279   6.261   2.208  1.00  0.00    -0.236 NA
ATOM     10  C   UNL     1      -5.139   7.275   2.469  1.00  0.00     0.139 A 
ATOM     11  C   UNL     1      -5.776   7.437   0.200  1.00  0.00     0.045 A 
ATOM     12  C   UNL     1      -5.918   7.886   1.505  1.00  0.00     0.060 A 
BRANCH   8  13
ATOM     13  N   UNL     1      -3.350   4.694   0.760  1.00  0.00    -0.352 N 
ATOM     14  N   UNL     1      -1.748   2.335   0.497  1.00  0.00    -0.365 N 
ATOM     15  C   UNL     1      -2.977   2.319   1.316  1.00  0.00     0.138 C 
ATOM     16  C   UNL     1      -1.672   3.400  -0.550  1.00  0.00     0.098 C 
ATOM     17  C   UNL     1      -3.322   3.722   1.862  1.00  0.00     0.139 C 
ATOM     18  C   UNL     1      -2.047   4.782   0.070  1.00  0.00     0.142 C 
ATOM     19  C   UNL     1      -2.575   3.047  -1.740  1.00  0.00     0.033 C 
BRANCH  14  20
ATOM     20  C   UNL     1      -1.068   1.145   0.268  1.00  0.00     0.037 A 
ATOM     21  C   UNL     1       2.550  -0.016  -0.168  1.00  0.00     0.044 C 
ATOM     22  C   UNL     1       1.054  -0.039  -0.072  1.00  0.00    -0.049 A 
ATOM     23  C   UNL     1       0.367  -1.253  -0.147  1.00  0.00     0.003 A 
ATOM     24  C   UNL     1       0.328   1.146   0.126  1.00  0.00     0.029 A 
ATOM     25  C   UNL     1      -1.019  -1.277  -0.029  1.00  0.00     0.002 A 
ATOM     26  C   UNL     1      -1.725  -0.090   0.183  1.00  0.00     0.026 A 
ENDBRANCH  14  20
ENDBRANCH   8  13
BRANCH  12  27
ATOM     27  N   UNL     1      -6.874   8.887   1.752  1.00  0.00    -0.320 N 
ATOM     28  C   UNL     1      -6.933   9.834   2.745  1.00  0.00     0.258 C 
ATOM     29  H   UNL     1      -7.620   8.914   1.110  1.00  0.00     0.170 HD
ATOM     30  O   UNL     1      -8.007  10.362   3.033  1.00  0.00    -0.269 OA
BRANCH  28  31
ATOM     31  C   UNL     1      -5.709  10.325   3.413  1.00  0.00     0.075 A 
ATOM     32  C   UNL     1      -5.789  10.705   4.760  1.00  0.00     0.017 A 
ATOM     33  C   UNL     1      -4.520  10.539   2.714  1.00  0.00     0.135 A 
ATOM     34  C   UNL     1      -4.670  11.240   5.403  1.00  0.00     0.001 A 
ATOM     35  C   UNL     1      -3.398  11.051   3.359  1.00  0.00     0.040 A 
ATOM     36  F   UNL     1      -4.431  10.298   1.399  1.00  0.00    -0.206 F 
ATOM     37  C   UNL     1      -3.471  11.400   4.706  1.00  0.00     0.003 A 
ENDBRANCH  28  31
ENDBRANCH  12  27
ENDBRANCH   4   7
ENDBRANCH   2   3
ENDBRANCH   1   2
BRANCH   1  38
ATOM     38  C   UNL     1      -7.359   7.452  -4.438  1.00  0.00     0.118 C 
BRANCH  38  39
ATOM     39  N   UNL     1      -8.442   8.254  -4.997  1.00  0.00    -0.352 N 
ATOM     40  C   UNL     1      -8.604   8.659  -6.310  1.00  0.00     0.251 C 
ATOM     41  H   UNL     1      -9.140   8.541  -4.365  1.00  0.00     0.163 HD
ATOM     42  O   UNL     1      -9.533   9.361  -6.694  1.00  0.00    -0.269 OA
BRANCH  40  43
ATOM     43  C   UNL     1      -7.651   8.096  -7.273  1.00  0.00     0.039 A 
ATOM     44  C   UNL     1      -8.088   6.989  -8.007  1.00  0.00     0.014 A 
ATOM     45  C   UNL     1      -6.302   8.418  -7.148  1.00  0.00     0.014 A 
ATOM     46  C   UNL     1      -7.146   6.083  -8.472  1.00  0.00     0.010 A 
ATOM     47  C   UNL     1      -5.371   7.477  -7.545  1.00  0.00     0.010 A 
ATOM     48  C   UNL     1      -5.803   6.286  -8.145  1.00  0.00    -0.014 A 
BRANCH  48  49
ATOM     49  C   UNL     1      -4.807   5.240  -8.327  1.00  0.00     0.031 A 
ATOM     50  C   UNL     1      -3.969   5.255  -9.541  1.00  0.00     0.074 A 
ATOM     51  C   UNL     1      -4.700   4.231  -7.435  1.00  0.00     0.049 A 
ATOM     52  N   UNL     1      -3.504   4.206 -10.132  1.00  0.00    -0.248 NA
ATOM     53  C   UNL     1      -3.668   6.499 -10.240  1.00  0.00     0.031 C 
ATOM     54  C   UNL     1      -3.677   3.190  -7.414  1.00  0.00     0.029 A 
ATOM     55  N   UNL     1      -5.662   3.786  -6.520  1.00  0.00    -0.354 N 
ATOM     56  C   UNL     1      -2.602   4.643 -11.077  1.00  0.00     0.074 A 
ATOM     57  C   UNL     1      -2.834   6.065 -11.186  1.00  0.00     0.031 C 
ATOM     58  C   UNL     1      -4.192   2.106  -6.813  1.00  0.00     0.029 A 
ATOM     59  C   UNL     1      -5.594   2.386  -6.542  1.00  0.00     0.049 A 
ATOM     60  H   UNL     1      -6.262   4.343  -5.973  1.00  0.00     0.167 HD
ATOM     61  C   UNL     1      -1.636   3.797 -11.539  1.00  0.00     0.031 A 
ATOM     62  C   UNL     1      -6.638   1.582  -6.890  1.00  0.00     0.031 A 
ATOM     63  C   UNL     1      -1.833   2.432 -11.050  1.00  0.00     0.049 A 
ATOM     64  C   UNL     1      -6.317   0.669  -8.055  1.00  0.00     0.074 A 
ATOM     65  C   UNL     1      -1.236   1.693 -10.041  1.00  0.00     0.029 A 
ATOM     66  N   UNL     1      -2.982   1.735 -11.414  1.00  0.00    -0.354 N 
ATOM     67  N   UNL     1      -5.307   0.840  -8.864  1.00  0.00    -0.248 NA
ATOM     68  C   UNL     1      -7.125  -0.491  -8.416  1.00  0.00     0.031 C 
ATOM     69  C   UNL     1      -2.082   0.592  -9.740  1.00  0.00     0.029 A 
ATOM     70  C   UNL     1      -3.175   0.643 -10.587  1.00  0.00     0.049 A 
ATOM     71  H   UNL     1      -3.576   1.985 -12.159  1.00  0.00     0.167 HD
ATOM     72  C   UNL     1      -5.293  -0.157  -9.807  1.00  0.00     0.074 A 
ATOM     73  C   UNL     1      -6.453  -0.969  -9.479  1.00  0.00     0.031 C 
ATOM     74  C   UNL     1      -4.327  -0.234 -10.773  1.00  0.00     0.031 A 
BRANCH  61  75
ATOM     75  C   UNL     1      -0.335   4.325 -12.120  1.00  0.00    -0.014 A 
ATOM     76  C   UNL     1       0.870   3.626 -11.903  1.00  0.00     0.010 A 
ATOM     77  C   UNL     1      -0.215   5.558 -12.791  1.00  0.00     0.010 A 
ATOM     78  C   UNL     1       2.123   4.189 -12.201  1.00  0.00     0.020 A 
ATOM     79  C   UNL     1       1.028   6.156 -13.050  1.00  0.00     0.020 A 
ATOM     80  C   UNL     1       2.195   5.474 -12.734  1.00  0.00     0.054 A 
BRANCH  80  81
ATOM     81  S   UNL     1       3.814   6.250 -12.983  1.00  0.00     0.124 S 
ATOM     82  O   UNL     1       4.445   6.101 -11.674  1.00  0.00    -0.237 OA
ATOM     83  O   UNL     1       4.386   5.440 -14.055  1.00  0.00    -0.237 OA
ATOM     84  O   UNL     1       3.486   7.626 -13.353  1.00  0.00    -0.744 OA
ENDBRANCH  80  81
ENDBRANCH  61  75
BRANCH  62  85
ATOM     85  C   UNL     1      -7.988   2.101  -6.539  1.00  0.00    -0.014 A 
ATOM     86  C   UNL     1      -8.349   2.112  -5.176  1.00  0.00     0.010 A 
ATOM     87  C   UNL     1      -8.733   2.881  -7.439  1.00  0.00     0.010 A 
ATOM     88  C   UNL     1      -9.345   2.972  -4.702  1.00  0.00     0.020 A 
ATOM     89  C   UNL     1      -9.730   3.752  -6.965  1.00  0.00     0.020 A 
ATOM     90  C   UNL     1      -9.990   3.827  -5.593  1.00  0.00     0.054 A 
BRANCH  90  91
ATOM     91  S   UNL     1     -11.089   5.105  -4.910  1.00  0.00     0.124 S 
ATOM     92  O   UNL     1     -11.994   4.327  -4.069  1.00  0.00    -0.237 OA
ATOM     93  O   UNL     1     -10.150   5.960  -4.184  1.00  0.00    -0.237 OA
ATOM     94  O   UNL     1     -11.689   5.704  -6.097  1.00  0.00    -0.744 OA
ENDBRANCH  90  91
ENDBRANCH  62  85
BRANCH  74  95
ATOM     95  C   UNL     1      -4.300  -1.191 -11.949  1.00  0.00    -0.014 A 
ATOM     96  C   UNL     1      -5.421  -1.863 -12.461  1.00  0.00     0.010 A 
ATOM     97  C   UNL     1      -3.089  -1.344 -12.671  1.00  0.00     0.010 A 
ATOM     98  C   UNL     1      -5.329  -2.682 -13.598  1.00  0.00     0.020 A 
ATOM     99  C   UNL     1      -2.995  -2.120 -13.830  1.00  0.00     0.020 A 
ATOM    100  C   UNL     1      -4.116  -2.805 -14.277  1.00  0.00     0.054 A 
BRANCH 100 101
ATOM    101  S   UNL     1      -4.026  -3.786 -15.796  1.00  0.00     0.124 S 
ATOM    102  O   UNL     1      -3.705  -5.114 -15.280  1.00  0.00    -0.237 OA
ATOM    103  O   UNL     1      -5.365  -3.642 -16.362  1.00  0.00    -0.237 OA
ATOM    104  O   UNL     1      -2.963  -3.136 -16.559  1.00  0.00    -0.744 OA
ENDBRANCH 100 101
ENDBRANCH  74  95
ENDBRANCH  48  49
ENDBRANCH  40  43
ENDBRANCH  38  39
ENDBRANCH   1  38
TORSDOF 17
