REMARK SMILES COc1ccc(OCc2cccs2)c(C(=O)NCCCNC(=O)c2ccc(-c3c4nc(c(-c5ccc(S(=O)(=O)[O-])cc5)c5ccc([nH]5)c(-c5ccc(S(=O)(=O)[O-])cc5)c5nc(c(-c6ccc(S(=O)(=O)[O-])cc6)c6ccc3[nH]6)C=C5)C=C4)cc2)c1
REMARK SMILES IDX 19 1 18 2 17 3 15 4 16 5 14 7 3 8 4 9 84 10 5 11 6 12 2 13
REMARK SMILES IDX 1 14 7 15 8 16 9 17 10 18 13 19 11 20 12 21 20 22 21 23
REMARK SMILES IDX 22 24 23 26 24 27 25 28 83 29 26 30 82 31 27 32 28 33 29 34
REMARK SMILES IDX 76 35 30 36 81 37 75 38 77 39 31 40 80 41 74 42 73 43 32 45
REMARK SMILES IDX 62 46 43 47 61 48 44 49 47 50 60 51 78 52 45 53 46 54 59 56
REMARK SMILES IDX 79 57 48 58 33 59 34 60 42 61 35 62 41 63 36 64 37 65 38 66
REMARK SMILES IDX 39 67 40 68 63 69 64 70 72 71 65 72 71 73 66 74 67 75 68 76
REMARK SMILES IDX 69 77 70 78 49 79 50 80 58 81 51 82 57 83 52 84 53 85 54 86
REMARK SMILES IDX 55 87 56 88
REMARK H PARENT 17 6 21 25 77 44 47 55
REMARK Flexibility Score: inf
ROOT
ATOM      1  C   UNL     1       5.367   0.110   0.985  1.00  0.00     0.042 C 
ENDROOT
BRANCH   1   2
ATOM      2  C   UNL     1       4.763  -1.129   1.641  1.00  0.00     0.118 C 
BRANCH   2   3
ATOM      3  N   UNL     1       4.891  -1.011   3.087  1.00  0.00    -0.352 N 
ATOM      4  C   UNL     1       3.990  -0.741   4.083  1.00  0.00     0.255 C 
ATOM      5  O   UNL     1       4.431  -0.400   5.178  1.00  0.00    -0.269 OA
ATOM      6  H   UNL     1       5.809  -1.152   3.413  1.00  0.00     0.163 HD
BRANCH   4   7
ATOM      7  C   UNL     1       2.528  -0.886   3.901  1.00  0.00     0.085 A 
ATOM      8  C   UNL     1       0.532  -0.204   2.674  1.00  0.00     0.119 A 
ATOM      9  C   UNL     1      -0.262  -0.724   3.686  1.00  0.00     0.050 A 
ATOM     10  C   UNL     1       1.918  -0.218   2.820  1.00  0.00     0.064 A 
ATOM     11  C   UNL     1       0.331  -1.377   4.766  1.00  0.00     0.051 A 
ATOM     12  C   UNL     1       1.724  -1.530   4.856  1.00  0.00     0.132 A 
BRANCH   8  13
ATOM     13  O   UNL     1      -0.133   0.363   1.622  1.00  0.00    -0.497 OA
ATOM     14  C   UNL     1       0.498   0.194   0.354  1.00  0.00     0.278 C 
ENDBRANCH   8  13
BRANCH  12  15
ATOM     15  O   UNL     1       2.059  -2.309   5.926  1.00  0.00    -0.487 OA
BRANCH  15  16
ATOM     16  C   UNL     1       3.270  -3.062   6.021  1.00  0.00     0.276 C 
BRANCH  16  17
ATOM     17  C   UNL     1       3.300  -4.217   5.056  1.00  0.00     0.042 A 
ATOM     18  C   UNL     1       3.527  -4.218   3.693  1.00  0.00     0.019 A 
ATOM     19  S   UNL     1       3.161  -5.827   5.644  1.00  0.00    -0.145 S 
ATOM     20  C   UNL     1       3.646  -5.524   3.144  1.00  0.00     0.012 A 
ATOM     21  C   UNL     1       3.481  -6.495   4.103  1.00  0.00     0.065 A 
ENDBRANCH  16  17
ENDBRANCH  15  16
ENDBRANCH  12  15
ENDBRANCH   4   7
ENDBRANCH   2   3
ENDBRANCH   1   2
BRANCH   1  22
ATOM     22  C   UNL     1       6.893   0.085   1.022  1.00  0.00     0.118 C 
BRANCH  22  23
ATOM     23  N   UNL     1       7.433  -0.879   0.071  1.00  0.00    -0.352 N 
ATOM     24  C   UNL     1       8.211  -0.653  -1.041  1.00  0.00     0.251 C 
ATOM     25  H   UNL     1       7.211  -1.822   0.249  1.00  0.00     0.163 HD
ATOM     26  O   UNL     1       8.346  -1.528  -1.884  1.00  0.00    -0.269 OA
BRANCH  24  27
ATOM     27  C   UNL     1       8.868   0.661  -1.203  1.00  0.00     0.039 A 
ATOM     28  C   UNL     1       8.852   1.289  -2.449  1.00  0.00     0.014 A 
ATOM     29  C   UNL     1       9.489   1.272  -0.110  1.00  0.00     0.014 A 
ATOM     30  C   UNL     1       9.409   2.562  -2.582  1.00  0.00     0.010 A 
ATOM     31  C   UNL     1       9.951   2.576  -0.222  1.00  0.00     0.010 A 
ATOM     32  C   UNL     1       9.931   3.230  -1.462  1.00  0.00    -0.014 A 
BRANCH  32  33
ATOM     33  C   UNL     1      10.484   4.604  -1.562  1.00  0.00     0.031 A 
ATOM     34  C   UNL     1      11.930   4.854  -1.219  1.00  0.00     0.074 A 
ATOM     35  C   UNL     1       9.674   5.629  -1.889  1.00  0.00     0.049 A 
ATOM     36  N   UNL     1      12.582   5.987  -1.172  1.00  0.00    -0.248 NA
ATOM     37  C   UNL     1      12.740   3.681  -0.847  1.00  0.00     0.031 C 
ATOM     38  C   UNL     1       8.244   5.518  -2.194  1.00  0.00     0.029 A 
ATOM     39  N   UNL     1       9.934   6.970  -2.015  1.00  0.00    -0.354 N 
ATOM     40  C   UNL     1      13.865   5.665  -0.745  1.00  0.00     0.074 A 
ATOM     41  C   UNL     1      13.883   4.244  -0.485  1.00  0.00     0.031 C 
ATOM     42  C   UNL     1       7.765   6.733  -2.507  1.00  0.00     0.029 A 
ATOM     43  C   UNL     1       8.837   7.714  -2.382  1.00  0.00     0.049 A 
ATOM     44  H   UNL     1      10.823   7.363  -1.859  1.00  0.00     0.167 HD
ATOM     45  C   UNL     1      14.941   6.475  -0.606  1.00  0.00     0.031 A 
ATOM     46  C   UNL     1       8.709   9.039  -2.589  1.00  0.00     0.031 A 
ATOM     47  C   UNL     1      14.920   7.886  -0.885  1.00  0.00     0.049 A 
ATOM     48  C   UNL     1       9.917   9.920  -2.427  1.00  0.00     0.074 A 
ATOM     49  C   UNL     1      15.967   8.788  -0.836  1.00  0.00     0.029 A 
ATOM     50  N   UNL     1      13.793   8.598  -1.267  1.00  0.00    -0.354 N 
ATOM     51  N   UNL     1      11.140   9.587  -2.088  1.00  0.00    -0.248 NA
ATOM     52  C   UNL     1       9.731  11.354  -2.687  1.00  0.00     0.031 C 
ATOM     53  C   UNL     1      15.461  10.057  -1.137  1.00  0.00     0.029 A 
ATOM     54  C   UNL     1      14.113   9.934  -1.435  1.00  0.00     0.049 A 
ATOM     55  H   UNL     1      12.898   8.211  -1.399  1.00  0.00     0.167 HD
ATOM     56  C   UNL     1      11.877  10.766  -2.121  1.00  0.00     0.074 A 
ATOM     57  C   UNL     1      10.965  11.816  -2.529  1.00  0.00     0.031 C 
ATOM     58  C   UNL     1      13.189  10.963  -1.840  1.00  0.00     0.031 A 
BRANCH  45  59
ATOM     59  C   UNL     1      16.227   5.850  -0.132  1.00  0.00    -0.014 A 
ATOM     60  C   UNL     1      16.936   4.942  -0.941  1.00  0.00     0.010 A 
ATOM     61  C   UNL     1      16.750   6.192   1.128  1.00  0.00     0.010 A 
ATOM     62  C   UNL     1      18.116   4.352  -0.480  1.00  0.00     0.020 A 
ATOM     63  C   UNL     1      17.948   5.629   1.580  1.00  0.00     0.020 A 
ATOM     64  C   UNL     1      18.613   4.698   0.779  1.00  0.00     0.054 A 
BRANCH  64  65
ATOM     65  S   UNL     1      20.158   3.932   1.342  1.00  0.00     0.124 S 
ATOM     66  O   UNL     1      19.730   2.563   1.621  1.00  0.00    -0.237 OA
ATOM     67  O   UNL     1      21.034   4.092   0.185  1.00  0.00    -0.237 OA
ATOM     68  O   UNL     1      20.529   4.720   2.515  1.00  0.00    -0.744 OA
ENDBRANCH  64  65
ENDBRANCH  45  59
BRANCH  46  69
ATOM     69  C   UNL     1       7.393   9.606  -2.995  1.00  0.00    -0.014 A 
ATOM     70  C   UNL     1       7.204  10.108  -4.295  1.00  0.00     0.010 A 
ATOM     71  C   UNL     1       6.315   9.631  -2.091  1.00  0.00     0.010 A 
ATOM     72  C   UNL     1       5.969  10.641  -4.678  1.00  0.00     0.020 A 
ATOM     73  C   UNL     1       5.071  10.136  -2.479  1.00  0.00     0.020 A 
ATOM     74  C   UNL     1       4.909  10.648  -3.767  1.00  0.00     0.054 A 
BRANCH  74  75
ATOM     75  S   UNL     1       3.301  11.297  -4.304  1.00  0.00     0.124 S 
ATOM     76  O   UNL     1       3.557  12.732  -4.363  1.00  0.00    -0.237 OA
ATOM     77  O   UNL     1       3.108  10.633  -5.590  1.00  0.00    -0.237 OA
ATOM     78  O   UNL     1       2.389  10.865  -3.246  1.00  0.00    -0.744 OA
ENDBRANCH  74  75
ENDBRANCH  46  69
BRANCH  58  79
ATOM     79  C   UNL     1      13.727  12.360  -1.997  1.00  0.00    -0.014 A 
ATOM     80  C   UNL     1      13.384  13.380  -1.092  1.00  0.00     0.010 A 
ATOM     81  C   UNL     1      14.637  12.638  -3.034  1.00  0.00     0.010 A 
ATOM     82  C   UNL     1      13.918  14.662  -1.241  1.00  0.00     0.020 A 
ATOM     83  C   UNL     1      15.196  13.911  -3.167  1.00  0.00     0.020 A 
ATOM     84  C   UNL     1      14.821  14.919  -2.278  1.00  0.00     0.054 A 
BRANCH  84  85
ATOM     85  S   UNL     1      15.533  16.580  -2.422  1.00  0.00     0.124 S 
ATOM     86  O   UNL     1      14.400  17.354  -2.923  1.00  0.00    -0.237 OA
ATOM     87  O   UNL     1      15.938  16.875  -1.049  1.00  0.00    -0.237 OA
ATOM     88  O   UNL     1      16.634  16.405  -3.366  1.00  0.00    -0.744 OA
ENDBRANCH  84  85
ENDBRANCH  58  79
ENDBRANCH  32  33
ENDBRANCH  24  27
ENDBRANCH  22  23
ENDBRANCH   1  22
TORSDOF 17
