REMARK SMILES O=C(NCCCNC(=O)c1ccc(-c2c3nc(c(-c4ccc(S(=O)(=O)[O-])cc4)c4ccc([nH]4)c(-c4ccc(S(=O)(=O)[O-])cc4)c4nc(c(-c5ccc(S(=O)(=O)[O-])cc5)c5ccc2[nH]5)C=C4)C=C3)cc1)C1=Cc2cc(Cl)cc(C#Cc3ccccc3)c2O[C@@H]1C(F)(F)F
REMARK SMILES IDX 5 1 4 2 3 3 1 4 2 5 70 7 71 8 88 9 72 10 87 11 73 12 86 13
REMARK SMILES IDX 74 14 77 15 75 16 76 17 89 18 90 19 91 20 92 21 78 22 79 23
REMARK SMILES IDX 80 24 81 25 85 26 82 27 84 28 83 29 6 30 7 31 8 32 9 34
REMARK SMILES IDX 10 35 11 36 69 37 12 38 68 39 13 40 14 41 15 42 62 43 16 44
REMARK SMILES IDX 67 45 61 46 63 47 17 48 66 49 60 50 59 51 18 53 48 54 29 55
REMARK SMILES IDX 47 56 30 57 33 58 46 59 64 60 31 61 32 62 45 64 65 65 34 66
REMARK SMILES IDX 19 67 20 68 28 69 21 70 27 71 22 72 23 73 24 74 25 75 26 76
REMARK SMILES IDX 49 77 50 78 58 79 51 80 57 81 52 82 53 83 54 84 55 85 56 86
REMARK SMILES IDX 35 87 36 88 44 89 37 90 43 91 38 92 39 93 40 94 41 95 42 96
REMARK H PARENT 3 6 7 33 63 52 33 63
REMARK Flexibility Score: inf
ROOT
ATOM      1  C   UNL     1       4.139   0.627  -3.267  1.00  0.00     0.042 C 
ENDROOT
BRANCH   1   2
ATOM      2  C   UNL     1       3.674   0.681  -1.832  1.00  0.00     0.118 C 
BRANCH   2   3
ATOM      3  N   UNL     1       2.486  -0.071  -1.500  1.00  0.00    -0.352 N 
ATOM      4  O   UNL     1       1.042  -1.089  -0.114  1.00  0.00    -0.270 OA
ATOM      5  C   UNL     1       2.195  -0.716  -0.329  1.00  0.00     0.251 C 
ATOM      6  H   UNL     1       1.800  -0.126  -2.205  1.00  0.00     0.163 HD
BRANCH   5   7
ATOM      7  C   UNL     1       3.206  -0.873   0.765  1.00  0.00     0.067 C 
ATOM      8  C   UNL     1       4.466  -1.302   0.558  1.00  0.00     0.025 C 
ATOM      9  C   UNL     1       2.966   0.101   1.890  1.00  0.00     0.314 C 
ATOM     10  C   UNL     1       5.465  -0.196   0.691  1.00  0.00     0.020 A 
ATOM     11  O   UNL     1       3.835   1.262   1.777  1.00  0.00    -0.474 OA
ATOM     12  C   UNL     1       6.662  -0.342  -0.029  1.00  0.00     0.032 A 
ATOM     13  C   UNL     1       5.018   1.085   1.090  1.00  0.00     0.143 A 
ATOM     14  C   UNL     1       7.337   0.796  -0.466  1.00  0.00     0.043 A 
ATOM     15  C   UNL     1       5.681   2.221   0.593  1.00  0.00     0.069 A 
ATOM     16  Cl  UNL     1       8.676   0.631  -1.534  1.00  0.00    -0.084 Cl
ATOM     17  C   UNL     1       6.839   2.067  -0.184  1.00  0.00     0.041 A 
BRANCH   9  18
ATOM     18  C   UNL     1       3.061  -0.609   3.251  1.00  0.00     0.429 C 
ATOM     19  F   UNL     1       2.689   0.205   4.267  1.00  0.00    -0.167 F 
ATOM     20  F   UNL     1       2.243  -1.691   3.300  1.00  0.00    -0.167 F 
ATOM     21  F   UNL     1       4.311  -1.049   3.526  1.00  0.00    -0.167 F 
ENDBRANCH   9  18
BRANCH  15  22
ATOM     22  C   UNL     1       5.076   3.527   0.600  1.00  0.00    -0.058 C 
ATOM     23  C   UNL     1       4.611   4.622   0.436  1.00  0.00    -0.062 C 
BRANCH  23  24
ATOM     24  C   UNL     1       4.116   5.947   0.189  1.00  0.00     0.025 A 
ATOM     25  C   UNL     1       4.880   6.856  -0.550  1.00  0.00     0.017 A 
ATOM     26  C   UNL     1       2.885   6.348   0.713  1.00  0.00     0.017 A 
ATOM     27  C   UNL     1       4.442   8.174  -0.713  1.00  0.00     0.001 A 
ATOM     28  C   UNL     1       2.445   7.664   0.544  1.00  0.00     0.001 A 
ATOM     29  C   UNL     1       3.231   8.581  -0.154  1.00  0.00     0.000 A 
ENDBRANCH  23  24
ENDBRANCH  15  22
ENDBRANCH   5   7
ENDBRANCH   2   3
ENDBRANCH   1   2
BRANCH   1  30
ATOM     30  C   UNL     1       3.853   1.910  -4.017  1.00  0.00     0.118 C 
BRANCH  30  31
ATOM     31  N   UNL     1       4.571   3.079  -3.494  1.00  0.00    -0.352 N 
ATOM     32  C   UNL     1       5.595   3.834  -4.027  1.00  0.00     0.251 C 
ATOM     33  H   UNL     1       4.268   3.377  -2.605  1.00  0.00     0.163 HD
ATOM     34  O   UNL     1       6.133   4.703  -3.346  1.00  0.00    -0.269 OA
BRANCH  32  35
ATOM     35  C   UNL     1       6.080   3.555  -5.396  1.00  0.00     0.039 A 
ATOM     36  C   UNL     1       7.452   3.554  -5.661  1.00  0.00     0.014 A 
ATOM     37  C   UNL     1       5.182   3.202  -6.397  1.00  0.00     0.014 A 
ATOM     38  C   UNL     1       7.916   3.044  -6.877  1.00  0.00     0.010 A 
ATOM     39  C   UNL     1       5.645   2.541  -7.522  1.00  0.00     0.010 A 
ATOM     40  C   UNL     1       7.020   2.447  -7.777  1.00  0.00    -0.014 A 
BRANCH  40  41
ATOM     41  C   UNL     1       7.466   1.708  -8.987  1.00  0.00     0.031 A 
ATOM     42  C   UNL     1       6.919   2.098 -10.337  1.00  0.00     0.074 A 
ATOM     43  C   UNL     1       8.263   0.626  -8.862  1.00  0.00     0.049 A 
ATOM     44  N   UNL     1       7.042   1.484 -11.485  1.00  0.00    -0.248 NA
ATOM     45  C   UNL     1       6.090   3.316 -10.397  1.00  0.00     0.031 C 
ATOM     46  C   UNL     1       8.825   0.118  -7.606  1.00  0.00     0.029 A 
ATOM     47  N   UNL     1       8.732  -0.256  -9.806  1.00  0.00    -0.354 N 
ATOM     48  C   UNL     1       6.295   2.229 -12.390  1.00  0.00     0.074 A 
ATOM     49  C   UNL     1       5.659   3.292 -11.648  1.00  0.00     0.031 C 
ATOM     50  C   UNL     1       9.590  -0.955  -7.863  1.00  0.00     0.029 A 
ATOM     51  C   UNL     1       9.523  -1.256  -9.288  1.00  0.00     0.049 A 
ATOM     52  H   UNL     1       8.521  -0.179 -10.764  1.00  0.00     0.167 HD
ATOM     53  C   UNL     1       6.177   2.067 -13.728  1.00  0.00     0.031 A 
ATOM     54  C   UNL     1      10.112  -2.309  -9.889  1.00  0.00     0.031 A 
ATOM     55  C   UNL     1       6.829   1.021 -14.466  1.00  0.00     0.049 A 
ATOM     56  C   UNL     1       9.918  -2.498 -11.371  1.00  0.00     0.074 A 
ATOM     57  C   UNL     1       6.811   0.793 -15.830  1.00  0.00     0.029 A 
ATOM     58  N   UNL     1       7.622   0.033 -13.902  1.00  0.00    -0.354 N 
ATOM     59  N   UNL     1       9.261  -1.743 -12.220  1.00  0.00    -0.248 NA
ATOM     60  C   UNL     1      10.543  -3.682 -11.978  1.00  0.00     0.031 C 
ATOM     61  C   UNL     1       7.544  -0.369 -16.085  1.00  0.00     0.029 A 
ATOM     62  C   UNL     1       8.074  -0.825 -14.888  1.00  0.00     0.049 A 
ATOM     63  H   UNL     1       7.832  -0.046 -12.944  1.00  0.00     0.167 HD
ATOM     64  C   UNL     1       9.421  -2.345 -13.463  1.00  0.00     0.074 A 
ATOM     65  C   UNL     1      10.254  -3.511 -13.260  1.00  0.00     0.031 C 
ATOM     66  C   UNL     1       8.918  -1.971 -14.665  1.00  0.00     0.031 A 
BRANCH  53  67
ATOM     67  C   UNL     1       5.330   3.057 -14.483  1.00  0.00    -0.014 A 
ATOM     68  C   UNL     1       5.739   4.397 -14.620  1.00  0.00     0.010 A 
ATOM     69  C   UNL     1       4.146   2.636 -15.114  1.00  0.00     0.010 A 
ATOM     70  C   UNL     1       4.967   5.303 -15.350  1.00  0.00     0.020 A 
ATOM     71  C   UNL     1       3.387   3.532 -15.874  1.00  0.00     0.020 A 
ATOM     72  C   UNL     1       3.798   4.863 -15.977  1.00  0.00     0.054 A 
BRANCH  72  73
ATOM     73  S   UNL     1       2.850   6.052 -16.963  1.00  0.00     0.124 S 
ATOM     74  O   UNL     1       2.321   6.944 -15.934  1.00  0.00    -0.237 OA
ATOM     75  O   UNL     1       3.872   6.632 -17.831  1.00  0.00    -0.237 OA
ATOM     76  O   UNL     1       1.854   5.227 -17.642  1.00  0.00    -0.744 OA
ENDBRANCH  72  73
ENDBRANCH  53  67
BRANCH  54  77
ATOM     77  C   UNL     1      10.934  -3.275  -9.104  1.00  0.00    -0.014 A 
ATOM     78  C   UNL     1      12.315  -3.399  -9.349  1.00  0.00     0.010 A 
ATOM     79  C   UNL     1      10.341  -4.102  -8.133  1.00  0.00     0.010 A 
ATOM     80  C   UNL     1      13.074  -4.357  -8.672  1.00  0.00     0.020 A 
ATOM     81  C   UNL     1      11.104  -5.037  -7.426  1.00  0.00     0.020 A 
ATOM     82  C   UNL     1      12.463  -5.173  -7.716  1.00  0.00     0.054 A 
BRANCH  82  83
ATOM     83  S   UNL     1      13.471  -6.406  -6.847  1.00  0.00     0.124 S 
ATOM     84  O   UNL     1      13.732  -7.381  -7.902  1.00  0.00    -0.237 OA
ATOM     85  O   UNL     1      14.622  -5.620  -6.411  1.00  0.00    -0.237 OA
ATOM     86  O   UNL     1      12.595  -6.867  -5.772  1.00  0.00    -0.744 OA
ENDBRANCH  82  83
ENDBRANCH  54  77
BRANCH  66  87
ATOM     87  C   UNL     1       9.276  -2.808 -15.863  1.00  0.00    -0.014 A 
ATOM     88  C   UNL     1       8.724  -4.088 -16.044  1.00  0.00     0.010 A 
ATOM     89  C   UNL     1      10.101  -2.267 -16.866  1.00  0.00     0.010 A 
ATOM     90  C   UNL     1       9.001  -4.817 -17.202  1.00  0.00     0.020 A 
ATOM     91  C   UNL     1      10.353  -2.978 -18.041  1.00  0.00     0.020 A 
ATOM     92  C   UNL     1       9.805  -4.253 -18.198  1.00  0.00     0.054 A 
BRANCH  92  93
ATOM     93  S   UNL     1      10.073  -5.188 -19.728  1.00  0.00     0.124 S 
ATOM     94  O   UNL     1      10.920  -6.286 -19.270  1.00  0.00    -0.237 OA
ATOM     95  O   UNL     1       8.714  -5.560 -20.114  1.00  0.00    -0.237 OA
ATOM     96  O   UNL     1      10.726  -4.226 -20.614  1.00  0.00    -0.744 OA
ENDBRANCH  92  93
ENDBRANCH  66  87
ENDBRANCH  40  41
ENDBRANCH  32  35
ENDBRANCH  30  31
ENDBRANCH   1  30
TORSDOF 16
