REMARK SMILES O=C(NCCCNC(=O)c1cccn2c(=O)c3ccc(Cl)cc3nc12)c1ccc(-c2c3nc(c(-c4ccc(S(=O)(=O)[O-])cc4)c4ccc([nH]4)c(-c4ccc(S(=O)(=O)[O-])cc4)c4nc(c(-c5ccc(S(=O)(=O)[O-])cc5)c5ccc2[nH]5)C=C4)C=C3)cc1
REMARK SMILES IDX 1 1 2 2 3 3 26 5 27 6 85 7 28 8 84 9 29 10 30 11 31 12 78 13
REMARK SMILES IDX 32 14 83 15 77 16 79 17 33 18 82 19 76 20 75 21 34 23 64 24
REMARK SMILES IDX 45 25 63 26 46 27 49 28 62 29 80 30 47 31 48 32 61 34 81 35
REMARK SMILES IDX 50 36 35 37 36 38 44 39 37 40 43 41 38 42 39 43 40 44 41 45
REMARK SMILES IDX 42 46 65 47 66 48 74 49 67 50 73 51 68 52 69 53 70 54 71 55
REMARK SMILES IDX 72 56 51 57 52 58 60 59 53 60 59 61 54 62 55 63 56 64 57 65
REMARK SMILES IDX 58 66 4 67 5 68 6 69 7 70 8 71 9 73 10 74 11 75 25 76 12 77
REMARK SMILES IDX 14 78 24 79 13 80 15 81 23 82 16 83 17 84 22 85 18 86 20 87
REMARK SMILES IDX 19 88 21 89
REMARK H PARENT 3 4 79 22 49 33 7 72
REMARK Flexibility Score: inf
ROOT
ATOM      1  O   UNL     1       1.273  -0.202  -0.095  1.00  0.00    -0.269 OA
ATOM      2  C   UNL     1       2.500  -0.089  -0.034  1.00  0.00     0.251 C 
ATOM      3  N   UNL     1       3.262  -0.899  -0.835  1.00  0.00    -0.352 N 
ATOM      4  H   UNL     1       2.748  -1.393  -1.515  1.00  0.00     0.163 HD
ENDROOT
BRANCH   2   5
ATOM      5  C   UNL     1       3.097   0.903   0.892  1.00  0.00     0.039 A 
ATOM      6  C   UNL     1       2.411   1.208   2.074  1.00  0.00     0.014 A 
ATOM      7  C   UNL     1       4.260   1.610   0.579  1.00  0.00     0.014 A 
ATOM      8  C   UNL     1       2.895   2.199   2.935  1.00  0.00     0.010 A 
ATOM      9  C   UNL     1       4.798   2.523   1.486  1.00  0.00     0.010 A 
ATOM     10  C   UNL     1       4.099   2.862   2.651  1.00  0.00    -0.014 A 
BRANCH  10  11
ATOM     11  C   UNL     1       4.581   3.985   3.500  1.00  0.00     0.031 A 
ATOM     12  C   UNL     1       4.677   5.373   2.914  1.00  0.00     0.074 A 
ATOM     13  C   UNL     1       4.935   3.770   4.783  1.00  0.00     0.049 A 
ATOM     14  N   UNL     1       5.098   6.477   3.476  1.00  0.00    -0.248 NA
ATOM     15  C   UNL     1       4.269   5.542   1.507  1.00  0.00     0.031 C 
ATOM     16  C   UNL     1       4.899   2.475   5.465  1.00  0.00     0.029 A 
ATOM     17  N   UNL     1       5.379   4.641   5.748  1.00  0.00    -0.354 N 
ATOM     18  C   UNL     1       5.024   7.456   2.491  1.00  0.00     0.074 A 
ATOM     19  C   UNL     1       4.575   6.811   1.280  1.00  0.00     0.031 C 
ATOM     20  C   UNL     1       5.250   2.646   6.750  1.00  0.00     0.029 A 
ATOM     21  C   UNL     1       5.575   4.053   6.977  1.00  0.00     0.049 A 
ATOM     22  H   UNL     1       5.541   5.597   5.578  1.00  0.00     0.167 HD
ATOM     23  C   UNL     1       5.271   8.782   2.593  1.00  0.00     0.031 A 
ATOM     24  C   UNL     1       5.955   4.585   8.157  1.00  0.00     0.031 A 
ATOM     25  C   UNL     1       5.661   9.435   3.813  1.00  0.00     0.049 A 
ATOM     26  C   UNL     1       6.212   6.066   8.248  1.00  0.00     0.074 A 
ATOM     27  C   UNL     1       5.895  10.782   4.024  1.00  0.00     0.029 A 
ATOM     28  N   UNL     1       5.846   8.799   5.029  1.00  0.00    -0.354 N 
ATOM     29  N   UNL     1       6.116   6.976   7.309  1.00  0.00    -0.248 NA
ATOM     30  C   UNL     1       6.611   6.596   9.561  1.00  0.00     0.031 C 
ATOM     31  C   UNL     1       6.264  10.956   5.358  1.00  0.00     0.029 A 
ATOM     32  C   UNL     1       6.195   9.726   5.994  1.00  0.00     0.049 A 
ATOM     33  H   UNL     1       5.744   7.832   5.184  1.00  0.00     0.167 HD
ATOM     34  C   UNL     1       6.401   8.190   7.926  1.00  0.00     0.074 A 
ATOM     35  C   UNL     1       6.671   7.900   9.318  1.00  0.00     0.031 C 
ATOM     36  C   UNL     1       6.431   9.431   7.384  1.00  0.00     0.031 A 
BRANCH  23  37
ATOM     37  C   UNL     1       5.094   9.641   1.368  1.00  0.00    -0.014 A 
ATOM     38  C   UNL     1       6.210  10.271   0.787  1.00  0.00     0.010 A 
ATOM     39  C   UNL     1       3.809   9.929   0.873  1.00  0.00     0.010 A 
ATOM     40  C   UNL     1       6.042  11.203  -0.240  1.00  0.00     0.020 A 
ATOM     41  C   UNL     1       3.640  10.837  -0.176  1.00  0.00     0.020 A 
ATOM     42  C   UNL     1       4.756  11.489  -0.706  1.00  0.00     0.054 A 
BRANCH  42  43
ATOM     43  S   UNL     1       4.553  12.733  -2.010  1.00  0.00     0.124 S 
ATOM     44  O   UNL     1       4.740  13.981  -1.276  1.00  0.00    -0.237 OA
ATOM     45  O   UNL     1       5.616  12.388  -2.951  1.00  0.00    -0.237 OA
ATOM     46  O   UNL     1       3.198  12.493  -2.502  1.00  0.00    -0.744 OA
ENDBRANCH  42  43
ENDBRANCH  23  37
BRANCH  24  47
ATOM     47  C   UNL     1       6.034   3.716   9.364  1.00  0.00    -0.014 A 
ATOM     48  C   UNL     1       7.028   2.727   9.478  1.00  0.00     0.010 A 
ATOM     49  C   UNL     1       5.076   3.840  10.386  1.00  0.00     0.010 A 
ATOM     50  C   UNL     1       7.039   1.854  10.570  1.00  0.00     0.020 A 
ATOM     51  C   UNL     1       5.100   2.987  11.495  1.00  0.00     0.020 A 
ATOM     52  C   UNL     1       6.067   1.983  11.566  1.00  0.00     0.054 A 
BRANCH  52  53
ATOM     53  S   UNL     1       6.083   0.821  12.960  1.00  0.00     0.124 S 
ATOM     54  O   UNL     1       5.503  -0.376  12.356  1.00  0.00    -0.237 OA
ATOM     55  O   UNL     1       7.503   0.735  13.289  1.00  0.00    -0.237 OA
ATOM     56  O   UNL     1       5.252   1.481  13.964  1.00  0.00    -0.744 OA
ENDBRANCH  52  53
ENDBRANCH  24  47
BRANCH  36  57
ATOM     57  C   UNL     1       6.718  10.603   8.284  1.00  0.00    -0.014 A 
ATOM     58  C   UNL     1       5.703  11.548   8.527  1.00  0.00     0.010 A 
ATOM     59  C   UNL     1       8.016  10.853   8.761  1.00  0.00     0.010 A 
ATOM     60  C   UNL     1       5.986  12.738   9.200  1.00  0.00     0.020 A 
ATOM     61  C   UNL     1       8.297  12.031   9.459  1.00  0.00     0.020 A 
ATOM     62  C   UNL     1       7.287  12.978   9.650  1.00  0.00     0.054 A 
BRANCH  62  63
ATOM     63  S   UNL     1       7.648  14.544  10.490  1.00  0.00     0.124 S 
ATOM     64  O   UNL     1       7.756  15.475   9.370  1.00  0.00    -0.237 OA
ATOM     65  O   UNL     1       6.482  14.727  11.350  1.00  0.00    -0.237 OA
ATOM     66  O   UNL     1       8.897  14.271  11.198  1.00  0.00    -0.744 OA
ENDBRANCH  62  63
ENDBRANCH  36  57
ENDBRANCH  10  11
ENDBRANCH   2   5
BRANCH   3  67
ATOM     67  C   UNL     1       4.693  -1.163  -0.864  1.00  0.00     0.118 C 
BRANCH  67  68
ATOM     68  C   UNL     1       5.045  -2.571  -0.401  1.00  0.00     0.042 C 
BRANCH  68  69
ATOM     69  C   UNL     1       4.436  -3.687  -1.236  1.00  0.00     0.118 C 
BRANCH  69  70
ATOM     70  N   UNL     1       4.847  -3.645  -2.632  1.00  0.00    -0.352 N 
ATOM     71  C   UNL     1       5.603  -4.511  -3.370  1.00  0.00     0.255 C 
ATOM     72  H   UNL     1       4.526  -2.858  -3.129  1.00  0.00     0.163 HD
ATOM     73  O   UNL     1       5.831  -4.241  -4.550  1.00  0.00    -0.269 OA
BRANCH  71  74
ATOM     74  C   UNL     1       6.091  -5.773  -2.764  1.00  0.00     0.083 A 
ATOM     75  C   UNL     1       5.186  -6.622  -2.246  1.00  0.00     0.019 A 
ATOM     76  C   UNL     1       7.524  -6.215  -2.878  1.00  0.00     0.153 A 
ATOM     77  C   UNL     1       5.586  -7.870  -1.662  1.00  0.00     0.019 A 
ATOM     78  N   UNL     1       7.838  -7.472  -2.342  1.00  0.00    -0.267 N 
ATOM     79  N   UNL     1       8.407  -5.453  -3.449  1.00  0.00    -0.229 NA
ATOM     80  C   UNL     1       6.864  -8.251  -1.726  1.00  0.00     0.096 A 
ATOM     81  C   UNL     1       9.137  -7.979  -2.412  1.00  0.00     0.265 A 
ATOM     82  C   UNL     1       9.715  -5.917  -3.604  1.00  0.00     0.080 A 
ATOM     83  O   UNL     1       9.495  -9.065  -1.944  1.00  0.00    -0.268 OA
ATOM     84  C   UNL     1      10.129  -7.153  -3.116  1.00  0.00     0.066 A 
ATOM     85  C   UNL     1      10.632  -5.128  -4.306  1.00  0.00     0.049 A 
ATOM     86  C   UNL     1      11.439  -7.609  -3.314  1.00  0.00     0.017 A 
ATOM     87  C   UNL     1      11.936  -5.579  -4.512  1.00  0.00     0.043 A 
ATOM     88  C   UNL     1      12.345  -6.817  -4.018  1.00  0.00     0.021 A 
ATOM     89  Cl  UNL     1      13.050  -4.610  -5.396  1.00  0.00    -0.084 Cl
ENDBRANCH  71  74
ENDBRANCH  69  70
ENDBRANCH  68  69
ENDBRANCH  67  68
ENDBRANCH   3  67
TORSDOF 13
