REMARK SMILES C[C@H]1OCC[C@@H]1C(=O)Nc1sc2c(c1C(=O)NCCCNC(=O)c1ccc(-c3c4nc(c(-c5ccc(S(=O)(=O)[O-])cc5)c5ccc([nH]5)c(-c5ccc(S(=O)(=O)[O-])cc5)c5nc(c(-c6ccc(S(=O)(=O)[O-])cc6)c6ccc3[nH]6)C=C5)C=C4)cc1)CCC2
REMARK SMILES IDX 19 1 18 2 17 3 15 4 16 5 14 7 10 8 11 9 12 10 13 11 86 12
REMARK SMILES IDX 84 13 85 14 9 15 7 16 8 17 6 19 1 20 2 21 3 22 4 23 5 24
REMARK SMILES IDX 20 25 21 26 22 27 23 29 24 30 25 31 83 32 26 33 82 34 27 35
REMARK SMILES IDX 28 36 29 37 76 38 30 39 81 40 75 41 77 42 31 43 80 44 74 45
REMARK SMILES IDX 73 46 32 48 62 49 43 50 61 51 44 52 47 53 60 54 78 55 45 56
REMARK SMILES IDX 46 57 59 59 79 60 48 61 33 62 34 63 42 64 35 65 41 66 36 67
REMARK SMILES IDX 37 68 38 69 39 70 40 71 63 72 64 73 72 74 65 75 71 76 66 77
REMARK SMILES IDX 67 78 68 79 69 80 70 81 49 82 50 83 58 84 51 85 57 86 52 87
REMARK SMILES IDX 53 88 54 89 55 90 56 91
REMARK H PARENT 17 6 9 18 21 28 77 47 47 58
REMARK Flexibility Score: inf
ROOT
ATOM      1  C   UNL     1      -3.796   2.968   0.739  1.00  0.00     0.042 C 
ENDROOT
BRANCH   1   2
ATOM      2  C   UNL     1      -4.480   1.759   1.377  1.00  0.00     0.118 C 
BRANCH   2   3
ATOM      3  N   UNL     1      -3.931   0.484   0.990  1.00  0.00    -0.352 N 
ATOM      4  C   UNL     1      -3.104  -0.386   1.654  1.00  0.00     0.254 C 
ATOM      5  O   UNL     1      -3.314  -1.576   1.396  1.00  0.00    -0.269 OA
ATOM      6  H   UNL     1      -4.196   0.184   0.090  1.00  0.00     0.163 HD
BRANCH   4   7
ATOM      7  C   UNL     1      -2.037   0.001   2.587  1.00  0.00     0.078 A 
ATOM      8  C   UNL     1      -1.001  -0.902   2.869  1.00  0.00     0.108 A 
ATOM      9  S   UNL     1      -0.175  -0.574   4.337  1.00  0.00    -0.122 S 
ATOM     10  C   UNL     1      -0.899   0.918   4.408  1.00  0.00     0.011 A 
ATOM     11  C   UNL     1      -1.831   1.154   3.427  1.00  0.00    -0.019 A 
ATOM     12  C   UNL     1      -0.739   2.005   5.402  1.00  0.00     0.047 C 
ATOM     13  C   UNL     1      -2.404   2.510   3.652  1.00  0.00     0.038 C 
ATOM     14  C   UNL     1      -1.427   3.170   4.663  1.00  0.00     0.010 C 
BRANCH   8  15
ATOM     15  N   UNL     1      -0.588  -2.098   2.338  1.00  0.00    -0.317 N 
ATOM     16  C   UNL     1      -0.116  -2.419   1.105  1.00  0.00     0.230 C 
ATOM     17  O   UNL     1       0.185  -3.613   0.951  1.00  0.00    -0.274 OA
ATOM     18  H   UNL     1      -0.643  -2.858   2.962  1.00  0.00     0.170 HD
BRANCH  16  19
ATOM     19  C   UNL     1       0.213  -1.444  -0.025  1.00  0.00     0.110 C 
ATOM     20  C   UNL     1       2.298  -0.067  -0.434  1.00  0.00     0.039 C 
ATOM     21  C   UNL     1       1.037  -0.239   0.413  1.00  0.00     0.127 C 
ATOM     22  O   UNL     1       0.193   0.911   0.234  1.00  0.00    -0.378 OA
ATOM     23  C   UNL     1      -0.717   0.613  -0.827  1.00  0.00     0.161 C 
ATOM     24  C   UNL     1      -0.941  -0.882  -0.818  1.00  0.00     0.044 C 
ENDBRANCH  16  19
ENDBRANCH   8  15
ENDBRANCH   4   7
ENDBRANCH   2   3
ENDBRANCH   1   2
BRANCH   1  25
ATOM     25  C   UNL     1      -4.379   3.313  -0.615  1.00  0.00     0.118 C 
BRANCH  25  26
ATOM     26  N   UNL     1      -5.766   3.776  -0.501  1.00  0.00    -0.352 N 
ATOM     27  C   UNL     1      -6.636   4.186  -1.493  1.00  0.00     0.251 C 
ATOM     28  H   UNL     1      -6.129   3.798   0.413  1.00  0.00     0.163 HD
ATOM     29  O   UNL     1      -7.639   4.818  -1.216  1.00  0.00    -0.269 OA
BRANCH  27  30
ATOM     30  C   UNL     1      -6.312   3.850  -2.889  1.00  0.00     0.039 A 
ATOM     31  C   UNL     1      -6.527   4.764  -3.925  1.00  0.00     0.014 A 
ATOM     32  C   UNL     1      -5.742   2.608  -3.139  1.00  0.00     0.014 A 
ATOM     33  C   UNL     1      -6.086   4.440  -5.205  1.00  0.00     0.010 A 
ATOM     34  C   UNL     1      -5.140   2.375  -4.342  1.00  0.00     0.010 A 
ATOM     35  C   UNL     1      -5.376   3.249  -5.398  1.00  0.00    -0.014 A 
BRANCH  35  36
ATOM     36  C   UNL     1      -4.757   2.923  -6.676  1.00  0.00     0.031 A 
ATOM     37  C   UNL     1      -3.752   3.916  -7.145  1.00  0.00     0.074 A 
ATOM     38  C   UNL     1      -4.880   1.686  -7.210  1.00  0.00     0.049 A 
ATOM     39  N   UNL     1      -3.790   4.632  -8.218  1.00  0.00    -0.248 NA
ATOM     40  C   UNL     1      -2.642   4.266  -6.239  1.00  0.00     0.031 C 
ATOM     41  C   UNL     1      -5.590   0.530  -6.643  1.00  0.00     0.029 A 
ATOM     42  N   UNL     1      -4.244   1.139  -8.279  1.00  0.00    -0.354 N 
ATOM     43  C   UNL     1      -2.594   5.345  -8.242  1.00  0.00     0.074 A 
ATOM     44  C   UNL     1      -2.043   5.248  -6.915  1.00  0.00     0.031 C 
ATOM     45  C   UNL     1      -5.111  -0.606  -7.191  1.00  0.00     0.029 A 
ATOM     46  C   UNL     1      -4.194  -0.253  -8.259  1.00  0.00     0.049 A 
ATOM     47  H   UNL     1      -3.853   1.679  -9.003  1.00  0.00     0.167 HD
ATOM     48  C   UNL     1      -2.013   5.723  -9.415  1.00  0.00     0.031 A 
ATOM     49  C   UNL     1      -3.398  -1.053  -9.015  1.00  0.00     0.031 A 
ATOM     50  C   UNL     1      -2.920   5.580 -10.526  1.00  0.00     0.049 A 
ATOM     51  C   UNL     1      -2.954  -0.236 -10.174  1.00  0.00     0.074 A 
ATOM     52  C   UNL     1      -4.170   6.085 -10.826  1.00  0.00     0.029 A 
ATOM     53  N   UNL     1      -2.752   4.474 -11.329  1.00  0.00    -0.354 N 
ATOM     54  N   UNL     1      -3.773   0.220 -11.082  1.00  0.00    -0.248 NA
ATOM     55  C   UNL     1      -1.691   0.478 -10.064  1.00  0.00     0.031 C 
ATOM     56  C   UNL     1      -4.871   4.992 -11.412  1.00  0.00     0.029 A 
ATOM     57  C   UNL     1      -3.989   3.915 -11.524  1.00  0.00     0.049 A 
ATOM     58  H   UNL     1      -1.900   4.145 -11.696  1.00  0.00     0.167 HD
ATOM     59  C   UNL     1      -3.343   1.517 -11.325  1.00  0.00     0.074 A 
ATOM     60  C   UNL     1      -1.999   1.583 -10.750  1.00  0.00     0.031 C 
ATOM     61  C   UNL     1      -4.221   2.496 -11.699  1.00  0.00     0.031 A 
BRANCH  48  62
ATOM     62  C   UNL     1      -0.519   5.816  -9.620  1.00  0.00    -0.014 A 
ATOM     63  C   UNL     1      -0.031   6.276 -10.860  1.00  0.00     0.010 A 
ATOM     64  C   UNL     1       0.414   5.213  -8.752  1.00  0.00     0.010 A 
ATOM     65  C   UNL     1       1.304   6.073 -11.238  1.00  0.00     0.020 A 
ATOM     66  C   UNL     1       1.756   5.047  -9.098  1.00  0.00     0.020 A 
ATOM     67  C   UNL     1       2.184   5.447 -10.356  1.00  0.00     0.054 A 
BRANCH  67  68
ATOM     68  S   UNL     1       3.876   5.096 -10.890  1.00  0.00     0.124 S 
ATOM     69  O   UNL     1       3.659   4.108 -11.942  1.00  0.00    -0.237 OA
ATOM     70  O   UNL     1       4.337   6.408 -11.335  1.00  0.00    -0.237 OA
ATOM     71  O   UNL     1       4.519   4.593  -9.678  1.00  0.00    -0.744 OA
ENDBRANCH  67  68
ENDBRANCH  48  62
BRANCH  49  72
ATOM     72  C   UNL     1      -2.733  -2.323  -8.611  1.00  0.00    -0.014 A 
ATOM     73  C   UNL     1      -2.028  -3.100  -9.550  1.00  0.00     0.010 A 
ATOM     74  C   UNL     1      -2.546  -2.631  -7.247  1.00  0.00     0.010 A 
ATOM     75  C   UNL     1      -1.106  -4.080  -9.138  1.00  0.00     0.020 A 
ATOM     76  C   UNL     1      -1.641  -3.613  -6.828  1.00  0.00     0.020 A 
ATOM     77  C   UNL     1      -0.898  -4.310  -7.776  1.00  0.00     0.054 A 
BRANCH  77  78
ATOM     78  S   UNL     1       0.458  -5.398  -7.242  1.00  0.00     0.124 S 
ATOM     79  O   UNL     1      -0.066  -6.724  -7.554  1.00  0.00    -0.237 OA
ATOM     80  O   UNL     1       1.573  -4.946  -8.069  1.00  0.00    -0.237 OA
ATOM     81  O   UNL     1       0.591  -5.101  -5.816  1.00  0.00    -0.744 OA
ENDBRANCH  77  78
ENDBRANCH  49  72
BRANCH  61  82
ATOM     82  C   UNL     1      -5.624   2.098 -12.107  1.00  0.00    -0.014 A 
ATOM     83  C   UNL     1      -6.537   1.438 -11.259  1.00  0.00     0.010 A 
ATOM     84  C   UNL     1      -6.088   2.566 -13.348  1.00  0.00     0.010 A 
ATOM     85  C   UNL     1      -7.868   1.230 -11.658  1.00  0.00     0.020 A 
ATOM     86  C   UNL     1      -7.415   2.381 -13.743  1.00  0.00     0.020 A 
ATOM     87  C   UNL     1      -8.297   1.704 -12.901  1.00  0.00     0.054 A 
BRANCH  87  88
ATOM     88  S   UNL     1     -10.025   1.468 -13.402  1.00  0.00     0.124 S 
ATOM     89  O   UNL     1     -10.106   0.023 -13.595  1.00  0.00    -0.237 OA
ATOM     90  O   UNL     1     -10.771   1.994 -12.261  1.00  0.00    -0.237 OA
ATOM     91  O   UNL     1     -10.144   2.261 -14.626  1.00  0.00    -0.744 OA
ENDBRANCH  87  88
ENDBRANCH  61  82
ENDBRANCH  35  36
ENDBRANCH  27  30
ENDBRANCH  25  26
ENDBRANCH   1  25
TORSDOF 15
