REMARK SMILES CC(C)(C)c1cc2c(cc1Cl)C=C(C(=O)NCCCNC(=O)c1ccc(-c3c4nc(c(-c5ccc(S(=O)(=O)[O-])cc5)c5ccc([nH]5)c(-c5ccc(S(=O)(=O)[O-])cc5)c5nc(c(-c6ccc(S(=O)(=O)[O-])cc6)c6ccc3[nH]6)C=C5)C=C4)cc1)[C@H](C(F)(F)F)O2
REMARK SMILES IDX 19 1 18 2 17 3 16 4 14 5 15 6 13 8 5 9 6 10 10 11 7 12 9 13
REMARK SMILES IDX 11 14 8 15 88 16 12 17 83 18 2 19 1 20 3 21 4 22 84 23 85 24
REMARK SMILES IDX 86 25 87 26 20 27 21 28 22 30 23 31 24 32 82 33 25 34 81 35
REMARK SMILES IDX 26 36 27 37 28 38 75 39 29 40 80 41 74 42 76 43 30 44 79 45
REMARK SMILES IDX 73 46 72 47 31 49 61 50 42 51 60 52 43 53 46 54 59 55 77 56
REMARK SMILES IDX 44 57 45 58 58 60 78 61 47 62 32 63 33 64 41 65 34 66 40 67
REMARK SMILES IDX 35 68 36 69 37 70 38 71 39 72 62 73 63 74 71 75 64 76 70 77
REMARK SMILES IDX 65 78 66 79 67 80 68 81 69 82 48 83 49 84 57 85 50 86 56 87
REMARK SMILES IDX 51 88 52 89 53 90 54 91 55 92
REMARK H PARENT 16 7 20 29 76 48 46 59
REMARK Flexibility Score: inf
ROOT
ATOM      1  C   UNL     1       0.450  11.421  -0.764  1.00  0.00     0.118 C 
ENDROOT
BRANCH   1   2
ATOM      2  C   UNL     1       0.029   9.960  -0.712  1.00  0.00     0.042 C 
BRANCH   2   3
ATOM      3  C   UNL     1      -0.215   9.377  -2.096  1.00  0.00     0.118 C 
BRANCH   3   4
ATOM      4  N   UNL     1       1.033   9.018  -2.749  1.00  0.00    -0.352 N 
ATOM      5  C   UNL     1       1.735   7.888  -2.991  1.00  0.00     0.251 C 
ATOM      6  O   UNL     1       2.764   8.042  -3.657  1.00  0.00    -0.270 OA
ATOM      7  H   UNL     1       1.490   9.810  -3.114  1.00  0.00     0.163 HD
BRANCH   5   8
ATOM      8  C   UNL     1       1.349   6.521  -2.536  1.00  0.00     0.067 C 
ATOM      9  C   UNL     1       0.989   1.471  -2.011  1.00  0.00    -0.020 A 
ATOM     10  C   UNL     1       0.280   2.605  -1.553  1.00  0.00     0.053 A 
ATOM     11  C   UNL     1       2.121   1.741  -2.812  1.00  0.00     0.045 A 
ATOM     12  C   UNL     1       0.625   3.905  -1.912  1.00  0.00     0.128 A 
ATOM     13  C   UNL     1       2.462   3.061  -3.178  1.00  0.00     0.032 A 
ATOM     14  Cl  UNL     1       3.226   0.547  -3.396  1.00  0.00    -0.084 Cl
ATOM     15  C   UNL     1       1.708   4.146  -2.737  1.00  0.00     0.019 A 
ATOM     16  O   UNL     1      -0.191   4.889  -1.443  1.00  0.00    -0.475 OA
ATOM     17  C   UNL     1       2.007   5.512  -3.139  1.00  0.00     0.025 C 
ATOM     18  C   UNL     1       0.358   6.232  -1.440  1.00  0.00     0.314 C 
BRANCH   9  19
ATOM     19  C   UNL     1       0.474   0.089  -1.538  1.00  0.00    -0.012 C 
ATOM     20  C   UNL     1       1.002  -0.148  -0.109  1.00  0.00     0.016 C 
ATOM     21  C   UNL     1       0.867  -1.121  -2.409  1.00  0.00     0.016 C 
ATOM     22  C   UNL     1      -1.083   0.055  -1.498  1.00  0.00     0.016 C 
ENDBRANCH   9  19
BRANCH  18  23
ATOM     23  C   UNL     1       0.860   6.585  -0.029  1.00  0.00     0.429 C 
ATOM     24  F   UNL     1      -0.116   7.228   0.661  1.00  0.00    -0.167 F 
ATOM     25  F   UNL     1       1.207   5.494   0.690  1.00  0.00    -0.167 F 
ATOM     26  F   UNL     1       1.935   7.405  -0.048  1.00  0.00    -0.167 F 
ENDBRANCH  18  23
ENDBRANCH   5   8
ENDBRANCH   3   4
ENDBRANCH   2   3
ENDBRANCH   1   2
BRANCH   1  27
ATOM     27  N   UNL     1      -0.651  12.291  -1.163  1.00  0.00    -0.352 N 
ATOM     28  C   UNL     1      -1.317  13.263  -0.452  1.00  0.00     0.251 C 
ATOM     29  H   UNL     1      -0.967  12.164  -2.087  1.00  0.00     0.163 HD
ATOM     30  O   UNL     1      -2.370  13.713  -0.888  1.00  0.00    -0.269 OA
BRANCH  28  31
ATOM     31  C   UNL     1      -0.774  13.741   0.838  1.00  0.00     0.039 A 
ATOM     32  C   UNL     1       0.600  13.890   1.016  1.00  0.00     0.014 A 
ATOM     33  C   UNL     1      -1.648  14.043   1.887  1.00  0.00     0.014 A 
ATOM     34  C   UNL     1       1.109  14.124   2.284  1.00  0.00     0.010 A 
ATOM     35  C   UNL     1      -1.133  14.415   3.133  1.00  0.00     0.010 A 
ATOM     36  C   UNL     1       0.251  14.406   3.358  1.00  0.00    -0.014 A 
BRANCH  36  37
ATOM     37  C   UNL     1       0.840  14.713   4.689  1.00  0.00     0.031 A 
ATOM     38  C   UNL     1       0.532  13.860   5.891  1.00  0.00     0.074 A 
ATOM     39  C   UNL     1       1.709  15.739   4.794  1.00  0.00     0.049 A 
ATOM     40  N   UNL     1       0.999  13.967   7.109  1.00  0.00    -0.248 NA
ATOM     41  C   UNL     1      -0.423  12.755   5.714  1.00  0.00     0.031 C 
ATOM     42  C   UNL     1       2.090  16.629   3.693  1.00  0.00     0.029 A 
ATOM     43  N   UNL     1       2.458  16.188   5.853  1.00  0.00    -0.354 N 
ATOM     44  C   UNL     1       0.375  12.966   7.846  1.00  0.00     0.074 A 
ATOM     45  C   UNL     1      -0.527  12.281   6.949  1.00  0.00     0.031 C 
ATOM     46  C   UNL     1       3.053  17.459   4.111  1.00  0.00     0.029 A 
ATOM     47  C   UNL     1       3.295  17.232   5.531  1.00  0.00     0.049 A 
ATOM     48  H   UNL     1       2.402  15.800   6.756  1.00  0.00     0.167 HD
ATOM     49  C   UNL     1       0.551  12.646   9.149  1.00  0.00     0.031 A 
ATOM     50  C   UNL     1       4.153  17.945   6.287  1.00  0.00     0.031 A 
ATOM     51  C   UNL     1       1.477  13.321  10.023  1.00  0.00     0.049 A 
ATOM     52  C   UNL     1       4.316  17.584   7.733  1.00  0.00     0.074 A 
ATOM     53  C   UNL     1       1.762  13.036  11.347  1.00  0.00     0.029 A 
ATOM     54  N   UNL     1       2.266  14.408   9.671  1.00  0.00    -0.354 N 
ATOM     55  N   UNL     1       3.741  16.614   8.402  1.00  0.00    -0.248 NA
ATOM     56  C   UNL     1       5.240  18.403   8.527  1.00  0.00     0.031 C 
ATOM     57  C   UNL     1       2.651  14.002  11.819  1.00  0.00     0.029 A 
ATOM     58  C   UNL     1       3.002  14.832  10.766  1.00  0.00     0.049 A 
ATOM     59  H   UNL     1       2.297  14.817   8.776  1.00  0.00     0.167 HD
ATOM     60  C   UNL     1       4.240  16.698   9.696  1.00  0.00     0.074 A 
ATOM     61  C   UNL     1       5.183  17.799   9.708  1.00  0.00     0.031 C 
ATOM     62  C   UNL     1       3.935  15.934  10.774  1.00  0.00     0.031 A 
BRANCH  49  63
ATOM     63  C   UNL     1      -0.272  11.524   9.737  1.00  0.00    -0.014 A 
ATOM     64  C   UNL     1      -1.188  11.806  10.769  1.00  0.00     0.010 A 
ATOM     65  C   UNL     1      -0.057  10.184   9.368  1.00  0.00     0.010 A 
ATOM     66  C   UNL     1      -1.842  10.774  11.446  1.00  0.00     0.020 A 
ATOM     67  C   UNL     1      -0.737   9.149  10.019  1.00  0.00     0.020 A 
ATOM     68  C   UNL     1      -1.605   9.449  11.072  1.00  0.00     0.054 A 
BRANCH  68  69
ATOM     69  S   UNL     1      -2.437   8.122  11.987  1.00  0.00     0.124 S 
ATOM     70  O   UNL     1      -1.714   8.121  13.255  1.00  0.00    -0.237 OA
ATOM     71  O   UNL     1      -3.818   8.593  12.046  1.00  0.00    -0.237 OA
ATOM     72  O   UNL     1      -2.227   6.944  11.147  1.00  0.00    -0.744 OA
ENDBRANCH  68  69
ENDBRANCH  49  63
BRANCH  50  73
ATOM     73  C   UNL     1       4.921  19.050   5.644  1.00  0.00    -0.014 A 
ATOM     74  C   UNL     1       4.244  20.171   5.123  1.00  0.00     0.010 A 
ATOM     75  C   UNL     1       6.302  18.923   5.418  1.00  0.00     0.010 A 
ATOM     76  C   UNL     1       4.910  21.090   4.311  1.00  0.00     0.020 A 
ATOM     77  C   UNL     1       6.982  19.865   4.637  1.00  0.00     0.020 A 
ATOM     78  C   UNL     1       6.272  20.918   4.055  1.00  0.00     0.054 A 
BRANCH  78  79
ATOM     79  S   UNL     1       7.088  22.060   2.906  1.00  0.00     0.124 S 
ATOM     80  O   UNL     1       6.541  21.632   1.621  1.00  0.00    -0.237 OA
ATOM     81  O   UNL     1       6.635  23.365   3.380  1.00  0.00    -0.237 OA
ATOM     82  O   UNL     1       8.509  21.787   3.102  1.00  0.00    -0.744 OA
ENDBRANCH  78  79
ENDBRANCH  50  73
BRANCH  62  83
ATOM     83  C   UNL     1       4.614  16.246  12.084  1.00  0.00    -0.014 A 
ATOM     84  C   UNL     1       5.474  15.296  12.666  1.00  0.00     0.010 A 
ATOM     85  C   UNL     1       4.288  17.407  12.807  1.00  0.00     0.010 A 
ATOM     86  C   UNL     1       5.956  15.475  13.965  1.00  0.00     0.020 A 
ATOM     87  C   UNL     1       4.799  17.608  14.093  1.00  0.00     0.020 A 
ATOM     88  C   UNL     1       5.604  16.626  14.675  1.00  0.00     0.054 A 
BRANCH  88  89
ATOM     89  S   UNL     1       6.199  16.815  16.377  1.00  0.00     0.124 S 
ATOM     90  O   UNL     1       5.370  15.855  17.101  1.00  0.00    -0.237 OA
ATOM     91  O   UNL     1       7.613  16.466  16.263  1.00  0.00    -0.237 OA
ATOM     92  O   UNL     1       5.935  18.220  16.680  1.00  0.00    -0.744 OA
ENDBRANCH  88  89
ENDBRANCH  62  83
ENDBRANCH  36  37
ENDBRANCH  28  31
ENDBRANCH   1  27
TORSDOF 15
