REMARK SMILES O=C(NCCCNC(=O)c1cc(S(=O)(=O)Nc2cc(F)ccc2F)cc2c1OCCO2)c1ccc(-c2c3nc(c(-c4ccc(S(=O)(=O)[O-])cc4)c4ccc([nH]4)c(-c4ccc(S(=O)(=O)[O-])cc4)c4nc(c(-c5ccc(S(=O)(=O)[O-])cc5)c5ccc2[nH]5)C=C4)C=C3)cc1
REMARK SMILES IDX 5 1 4 2 3 3 1 4 2 5 32 7 33 8 91 9 34 10 90 11 35 12 36 13
REMARK SMILES IDX 37 14 84 15 38 16 89 17 83 18 85 19 39 20 88 21 82 22 81 23
REMARK SMILES IDX 40 25 70 26 51 27 69 28 52 29 55 30 68 31 86 32 53 33 54 34
REMARK SMILES IDX 67 36 87 37 56 38 41 39 42 40 50 41 43 42 49 43 44 44 45 45
REMARK SMILES IDX 46 46 47 47 48 48 71 49 72 50 80 51 73 52 79 53 74 54 75 55
REMARK SMILES IDX 76 56 77 57 78 58 57 59 58 60 66 61 59 62 65 63 60 64 61 65
REMARK SMILES IDX 62 66 63 67 64 68 6 69 7 70 8 71 9 73 10 74 11 75 27 76
REMARK SMILES IDX 12 77 26 78 28 79 25 80 31 81 29 82 30 83 13 84 14 85 15 86
REMARK SMILES IDX 16 87 17 89 18 90 23 91 19 92 22 93 24 94 20 95 21 96
REMARK H PARENT 3 6 85 24 55 35 7 72 16 88
REMARK Flexibility Score: inf
ROOT
ATOM      1  C   UNL     1       5.199  -1.864   1.560  1.00  0.00     0.042 C 
ENDROOT
BRANCH   1   2
ATOM      2  C   UNL     1       4.711  -1.415   0.191  1.00  0.00     0.118 C 
BRANCH   2   3
ATOM      3  N   UNL     1       3.276  -1.174   0.138  1.00  0.00    -0.352 N 
ATOM      4  O   UNL     1       1.328  -0.064   0.140  1.00  0.00    -0.269 OA
ATOM      5  C   UNL     1       2.550  -0.013   0.007  1.00  0.00     0.251 C 
ATOM      6  H   UNL     1       2.726  -1.988   0.208  1.00  0.00     0.163 HD
BRANCH   5   7
ATOM      7  C   UNL     1       3.205   1.290  -0.259  1.00  0.00     0.039 A 
ATOM      8  C   UNL     1       4.288   1.406  -1.129  1.00  0.00     0.014 A 
ATOM      9  C   UNL     1       2.683   2.443   0.343  1.00  0.00     0.014 A 
ATOM     10  C   UNL     1       4.951   2.624  -1.262  1.00  0.00     0.010 A 
ATOM     11  C   UNL     1       3.291   3.687   0.131  1.00  0.00     0.010 A 
ATOM     12  C   UNL     1       4.456   3.783  -0.642  1.00  0.00    -0.014 A 
BRANCH  12  13
ATOM     13  C   UNL     1       5.150   5.081  -0.856  1.00  0.00     0.031 A 
ATOM     14  C   UNL     1       5.797   5.816   0.287  1.00  0.00     0.074 A 
ATOM     15  C   UNL     1       5.227   5.583  -2.105  1.00  0.00     0.049 A 
ATOM     16  N   UNL     1       6.470   6.940   0.265  1.00  0.00    -0.248 NA
ATOM     17  C   UNL     1       5.670   5.222   1.627  1.00  0.00     0.031 C 
ATOM     18  C   UNL     1       4.633   4.973  -3.298  1.00  0.00     0.029 A 
ATOM     19  N   UNL     1       5.854   6.705  -2.585  1.00  0.00    -0.354 N 
ATOM     20  C   UNL     1       6.826   7.199   1.584  1.00  0.00     0.074 A 
ATOM     21  C   UNL     1       6.277   6.126   2.385  1.00  0.00     0.031 C 
ATOM     22  C   UNL     1       4.970   5.695  -4.376  1.00  0.00     0.029 A 
ATOM     23  C   UNL     1       5.752   6.850  -3.949  1.00  0.00     0.049 A 
ATOM     24  H   UNL     1       6.332   7.344  -2.009  1.00  0.00     0.167 HD
ATOM     25  C   UNL     1       7.546   8.233   2.082  1.00  0.00     0.031 A 
ATOM     26  C   UNL     1       6.223   7.808  -4.769  1.00  0.00     0.031 A 
ATOM     27  C   UNL     1       8.101   9.297   1.286  1.00  0.00     0.049 A 
ATOM     28  C   UNL     1       7.012   8.946  -4.192  1.00  0.00     0.074 A 
ATOM     29  C   UNL     1       8.869  10.372   1.700  1.00  0.00     0.029 A 
ATOM     30  N   UNL     1       7.949   9.421  -0.087  1.00  0.00    -0.354 N 
ATOM     31  N   UNL     1       7.353   9.158  -2.944  1.00  0.00    -0.248 NA
ATOM     32  C   UNL     1       7.477   9.973  -5.132  1.00  0.00     0.031 C 
ATOM     33  C   UNL     1       9.148  11.167   0.582  1.00  0.00     0.029 A 
ATOM     34  C   UNL     1       8.591  10.564  -0.533  1.00  0.00     0.049 A 
ATOM     35  H   UNL     1       7.456   8.790  -0.660  1.00  0.00     0.167 HD
ATOM     36  C   UNL     1       8.081  10.341  -2.949  1.00  0.00     0.074 A 
ATOM     37  C   UNL     1       8.148  10.787  -4.327  1.00  0.00     0.031 C 
ATOM     38  C   UNL     1       8.640  11.000  -1.905  1.00  0.00     0.031 A 
BRANCH  25  39
ATOM     39  C   UNL     1       7.755   8.279   3.573  1.00  0.00    -0.014 A 
ATOM     40  C   UNL     1       8.656   7.406   4.209  1.00  0.00     0.010 A 
ATOM     41  C   UNL     1       7.067   9.235   4.343  1.00  0.00     0.010 A 
ATOM     42  C   UNL     1       8.834   7.461   5.595  1.00  0.00     0.020 A 
ATOM     43  C   UNL     1       7.259   9.306   5.726  1.00  0.00     0.020 A 
ATOM     44  C   UNL     1       8.127   8.405   6.346  1.00  0.00     0.054 A 
BRANCH  44  45
ATOM     45  S   UNL     1       8.379   8.462   8.142  1.00  0.00     0.124 S 
ATOM     46  O   UNL     1       7.599   7.311   8.590  1.00  0.00    -0.237 OA
ATOM     47  O   UNL     1       9.828   8.327   8.270  1.00  0.00    -0.237 OA
ATOM     48  O   UNL     1       7.843   9.766   8.526  1.00  0.00    -0.744 OA
ENDBRANCH  44  45
ENDBRANCH  25  39
BRANCH  26  49
ATOM     49  C   UNL     1       5.948   7.722  -6.227  1.00  0.00    -0.014 A 
ATOM     50  C   UNL     1       6.969   7.376  -7.128  1.00  0.00     0.010 A 
ATOM     51  C   UNL     1       4.646   7.938  -6.714  1.00  0.00     0.010 A 
ATOM     52  C   UNL     1       6.693   7.250  -8.493  1.00  0.00     0.020 A 
ATOM     53  C   UNL     1       4.361   7.789  -8.073  1.00  0.00     0.020 A 
ATOM     54  C   UNL     1       5.389   7.452  -8.956  1.00  0.00     0.054 A 
BRANCH  54  55
ATOM     55  S   UNL     1       5.031   7.203 -10.717  1.00  0.00     0.124 S 
ATOM     56  O   UNL     1       5.523   8.445 -11.304  1.00  0.00    -0.237 OA
ATOM     57  O   UNL     1       5.804   6.004 -11.033  1.00  0.00    -0.237 OA
ATOM     58  O   UNL     1       3.581   7.024 -10.746  1.00  0.00    -0.744 OA
ENDBRANCH  54  55
ENDBRANCH  26  49
BRANCH  38  59
ATOM     59  C   UNL     1       9.386  12.268  -2.217  1.00  0.00    -0.014 A 
ATOM     60  C   UNL     1       8.698  13.455  -2.520  1.00  0.00     0.010 A 
ATOM     61  C   UNL     1      10.791  12.279  -2.167  1.00  0.00     0.010 A 
ATOM     62  C   UNL     1       9.404  14.628  -2.799  1.00  0.00     0.020 A 
ATOM     63  C   UNL     1      11.501  13.455  -2.424  1.00  0.00     0.020 A 
ATOM     64  C   UNL     1      10.802  14.619  -2.753  1.00  0.00     0.054 A 
BRANCH  64  65
ATOM     65  S   UNL     1      11.700  16.161  -3.081  1.00  0.00     0.124 S 
ATOM     66  O   UNL     1      11.637  16.244  -4.537  1.00  0.00    -0.237 OA
ATOM     67  O   UNL     1      10.909  17.156  -2.360  1.00  0.00    -0.237 OA
ATOM     68  O   UNL     1      13.028  15.910  -2.526  1.00  0.00    -0.744 OA
ENDBRANCH  64  65
ENDBRANCH  38  59
ENDBRANCH  12  13
ENDBRANCH   5   7
ENDBRANCH   2   3
ENDBRANCH   1   2
BRANCH   1  69
ATOM     69  C   UNL     1       4.617  -3.179   2.058  1.00  0.00     0.118 C 
BRANCH  69  70
ATOM     70  N   UNL     1       4.915  -4.325   1.209  1.00  0.00    -0.352 N 
ATOM     71  C   UNL     1       5.368  -5.575   1.565  1.00  0.00     0.255 C 
ATOM     72  H   UNL     1       4.771  -4.186   0.245  1.00  0.00     0.163 HD
ATOM     73  O   UNL     1       5.579  -6.428   0.705  1.00  0.00    -0.269 OA
BRANCH  71  74
ATOM     74  C   UNL     1       5.748  -5.855   2.965  1.00  0.00     0.087 A 
ATOM     75  C   UNL     1       7.091  -6.188   3.176  1.00  0.00     0.040 A 
ATOM     76  C   UNL     1       4.883  -5.684   4.046  1.00  0.00     0.174 A 
ATOM     77  C   UNL     1       7.618  -6.171   4.465  1.00  0.00     0.092 A 
ATOM     78  C   UNL     1       5.397  -5.769   5.346  1.00  0.00     0.163 A 
ATOM     79  O   UNL     1       3.561  -5.417   3.794  1.00  0.00    -0.485 OA
ATOM     80  C   UNL     1       6.763  -5.974   5.556  1.00  0.00     0.072 A 
ATOM     81  O   UNL     1       4.630  -5.591   6.469  1.00  0.00    -0.486 OA
ATOM     82  C   UNL     1       2.932  -4.798   4.921  1.00  0.00     0.271 C 
ATOM     83  C   UNL     1       3.228  -5.597   6.176  1.00  0.00     0.271 C 
BRANCH  77  84
ATOM     84  S   UNL     1       9.368  -6.219   4.802  1.00  0.00     0.262 S 
ATOM     85  O   UNL     1       9.748  -4.874   5.170  1.00  0.00    -0.201 OA
ATOM     86  O   UNL     1       9.572  -7.334   5.705  1.00  0.00    -0.201 OA
BRANCH  84  87
ATOM     87  N   UNL     1      10.180  -6.639   3.405  1.00  0.00    -0.277 N 
ATOM     88  H   UNL     1      10.778  -7.420   3.454  1.00  0.00     0.180 HD
BRANCH  87  89
ATOM     89  C   UNL     1      10.087  -5.973   2.147  1.00  0.00     0.087 A 
ATOM     90  C   UNL     1       9.724  -4.636   1.993  1.00  0.00     0.069 A 
ATOM     91  C   UNL     1      10.285  -6.761   1.002  1.00  0.00     0.147 A 
ATOM     92  C   UNL     1       9.435  -4.156   0.715  1.00  0.00     0.125 A 
ATOM     93  C   UNL     1      10.017  -6.272  -0.273  1.00  0.00     0.044 A 
ATOM     94  F   UNL     1      10.663  -8.042   1.141  1.00  0.00    -0.205 F 
ATOM     95  F   UNL     1       8.975  -2.907   0.573  1.00  0.00    -0.207 F 
ATOM     96  C   UNL     1       9.562  -4.964  -0.413  1.00  0.00     0.042 A 
ENDBRANCH  87  89
ENDBRANCH  84  87
ENDBRANCH  77  84
ENDBRANCH  71  74
ENDBRANCH  69  70
ENDBRANCH   1  69
TORSDOF 16
