REMARK SMILES O=C(NCCCNC(=O)[C@@H](NC(=O)[C@H]1CC[C@@H]2CCCC[C@H]2[NH2+]1)C1CC1)c1ccc(-c2c3nc(c(-c4ccc(S(=O)(=O)[O-])cc4)c4ccc([nH]4)c(-c4ccc(S(=O)(=O)[O-])cc4)c4nc(c(-c5ccc(S(=O)(=O)[O-])cc5)c5ccc2[nH]5)C=C4)C=C3)cc1
REMARK SMILES IDX 4 1 3 2 1 3 2 4 27 6 28 7 86 8 29 9 85 10 30 11 31 12 32 13
REMARK SMILES IDX 79 14 33 15 84 16 78 17 80 18 34 19 83 20 77 21 76 22 35 24
REMARK SMILES IDX 65 25 46 26 64 27 47 28 50 29 63 30 81 31 48 32 49 33 62 35
REMARK SMILES IDX 82 36 51 37 36 38 37 39 45 40 38 41 44 42 39 43 40 44 41 45
REMARK SMILES IDX 42 46 43 47 66 48 67 49 75 50 68 51 74 52 69 53 70 54 71 55
REMARK SMILES IDX 72 56 73 57 52 58 53 59 61 60 54 61 60 62 55 63 56 64 57 65
REMARK SMILES IDX 58 66 59 67 5 68 6 69 7 70 8 71 9 73 10 74 11 75 12 76 13 78
REMARK SMILES IDX 14 79 15 80 23 81 16 82 22 83 17 86 21 87 18 88 20 89 19 90
REMARK SMILES IDX 24 91 25 92 26 93
REMARK H PARENT 3 5 80 23 50 34 7 72 11 77 23 84 23 85
REMARK Flexibility Score: inf
ROOT
ATOM      1  C   UNL     1       5.343  11.451   3.001  1.00  0.00     0.118 C 
ENDROOT
BRANCH   1   2
ATOM      2  N   UNL     1       5.459  12.264   1.794  1.00  0.00    -0.352 N 
ATOM      3  O   UNL     1       4.747  13.542   0.088  1.00  0.00    -0.269 OA
ATOM      4  C   UNL     1       4.580  13.169   1.245  1.00  0.00     0.251 C 
ATOM      5  H   UNL     1       6.298  12.147   1.293  1.00  0.00     0.163 HD
BRANCH   4   6
ATOM      6  C   UNL     1       3.448  13.687   2.045  1.00  0.00     0.039 A 
ATOM      7  C   UNL     1       3.607  13.934   3.408  1.00  0.00     0.014 A 
ATOM      8  C   UNL     1       2.232  13.986   1.421  1.00  0.00     0.014 A 
ATOM      9  C   UNL     1       2.523  14.323   4.178  1.00  0.00     0.010 A 
ATOM     10  C   UNL     1       1.174  14.505   2.176  1.00  0.00     0.010 A 
ATOM     11  C   UNL     1       1.312  14.668   3.562  1.00  0.00    -0.014 A 
BRANCH  11  12
ATOM     12  C   UNL     1       0.282  15.351   4.381  1.00  0.00     0.031 A 
ATOM     13  C   UNL     1      -1.064  14.736   4.625  1.00  0.00     0.074 A 
ATOM     14  C   UNL     1       0.607  16.543   4.923  1.00  0.00     0.049 A 
ATOM     15  N   UNL     1      -2.059  15.213   5.328  1.00  0.00    -0.248 NA
ATOM     16  C   UNL     1      -1.338  13.430   4.006  1.00  0.00     0.031 C 
ATOM     17  C   UNL     1       1.891  17.233   4.735  1.00  0.00     0.029 A 
ATOM     18  N   UNL     1      -0.093  17.381   5.750  1.00  0.00    -0.354 N 
ATOM     19  C   UNL     1      -3.086  14.284   5.214  1.00  0.00     0.074 A 
ATOM     20  C   UNL     1      -2.597  13.215   4.371  1.00  0.00     0.031 C 
ATOM     21  C   UNL     1       1.901  18.359   5.459  1.00  0.00     0.029 A 
ATOM     22  C   UNL     1       0.599  18.520   6.090  1.00  0.00     0.049 A 
ATOM     23  H   UNL     1      -1.004  17.187   6.069  1.00  0.00     0.167 HD
ATOM     24  C   UNL     1      -4.323  14.334   5.763  1.00  0.00     0.031 A 
ATOM     25  C   UNL     1       0.219  19.601   6.795  1.00  0.00     0.031 A 
ATOM     26  C   UNL     1      -4.785  15.404   6.609  1.00  0.00     0.049 A 
ATOM     27  C   UNL     1      -1.173  19.637   7.352  1.00  0.00     0.074 A 
ATOM     28  C   UNL     1      -5.999  15.511   7.268  1.00  0.00     0.029 A 
ATOM     29  N   UNL     1      -4.071  16.556   6.900  1.00  0.00    -0.354 N 
ATOM     30  N   UNL     1      -2.102  18.713   7.297  1.00  0.00    -0.248 NA
ATOM     31  C   UNL     1      -1.575  20.862   8.054  1.00  0.00     0.031 C 
ATOM     32  C   UNL     1      -6.046  16.759   7.896  1.00  0.00     0.029 A 
ATOM     33  C   UNL     1      -4.837  17.402   7.684  1.00  0.00     0.049 A 
ATOM     34  H   UNL     1      -3.154  16.744   6.595  1.00  0.00     0.167 HD
ATOM     35  C   UNL     1      -3.199  19.244   7.961  1.00  0.00     0.074 A 
ATOM     36  C   UNL     1      -2.805  20.554   8.441  1.00  0.00     0.031 C 
ATOM     37  C   UNL     1      -4.427  18.704   8.145  1.00  0.00     0.031 A 
BRANCH  24  38
ATOM     38  C   UNL     1      -5.293  13.226   5.449  1.00  0.00    -0.014 A 
ATOM     39  C   UNL     1      -5.172  11.955   6.037  1.00  0.00     0.010 A 
ATOM     40  C   UNL     1      -6.417  13.505   4.647  1.00  0.00     0.010 A 
ATOM     41  C   UNL     1      -6.156  10.983   5.825  1.00  0.00     0.020 A 
ATOM     42  C   UNL     1      -7.412  12.543   4.451  1.00  0.00     0.020 A 
ATOM     43  C   UNL     1      -7.273  11.286   5.040  1.00  0.00     0.054 A 
BRANCH  43  44
ATOM     44  S   UNL     1      -8.572  10.033   4.852  1.00  0.00     0.124 S 
ATOM     45  O   UNL     1      -7.917   9.044   3.999  1.00  0.00    -0.237 OA
ATOM     46  O   UNL     1      -8.812   9.613   6.230  1.00  0.00    -0.237 OA
ATOM     47  O   UNL     1      -9.673  10.762   4.226  1.00  0.00    -0.744 OA
ENDBRANCH  43  44
ENDBRANCH  24  38
BRANCH  25  48
ATOM     48  C   UNL     1       1.140  20.761   6.938  1.00  0.00    -0.014 A 
ATOM     49  C   UNL     1       1.644  21.137   8.194  1.00  0.00     0.010 A 
ATOM     50  C   UNL     1       1.510  21.506   5.802  1.00  0.00     0.010 A 
ATOM     51  C   UNL     1       2.470  22.258   8.316  1.00  0.00     0.020 A 
ATOM     52  C   UNL     1       2.365  22.604   5.914  1.00  0.00     0.020 A 
ATOM     53  C   UNL     1       2.821  22.986   7.175  1.00  0.00     0.054 A 
BRANCH  53  54
ATOM     54  S   UNL     1       3.900  24.433   7.353  1.00  0.00     0.124 S 
ATOM     55  O   UNL     1       2.991  25.416   7.934  1.00  0.00    -0.237 OA
ATOM     56  O   UNL     1       4.950  23.938   8.239  1.00  0.00    -0.237 OA
ATOM     57  O   UNL     1       4.330  24.709   5.984  1.00  0.00    -0.744 OA
ENDBRANCH  53  54
ENDBRANCH  25  48
BRANCH  37  58
ATOM     58  C   UNL     1      -5.431  19.529   8.902  1.00  0.00    -0.014 A 
ATOM     59  C   UNL     1      -6.023  20.660   8.313  1.00  0.00     0.010 A 
ATOM     60  C   UNL     1      -5.827  19.136  10.193  1.00  0.00     0.010 A 
ATOM     61  C   UNL     1      -6.980  21.398   9.012  1.00  0.00     0.020 A 
ATOM     62  C   UNL     1      -6.806  19.854  10.883  1.00  0.00     0.020 A 
ATOM     63  C   UNL     1      -7.368  20.987  10.291  1.00  0.00     0.054 A 
BRANCH  63  64
ATOM     64  S   UNL     1      -8.657  21.928  11.151  1.00  0.00     0.124 S 
ATOM     65  O   UNL     1      -7.952  23.157  11.506  1.00  0.00    -0.237 OA
ATOM     66  O   UNL     1      -9.688  22.069  10.126  1.00  0.00    -0.237 OA
ATOM     67  O   UNL     1      -9.020  21.071  12.278  1.00  0.00    -0.744 OA
ENDBRANCH  63  64
ENDBRANCH  37  58
ENDBRANCH  11  12
ENDBRANCH   4   6
ENDBRANCH   1   2
BRANCH   1  68
ATOM     68  C   UNL     1       5.094   9.991   2.669  1.00  0.00     0.042 C 
BRANCH  68  69
ATOM     69  C   UNL     1       6.303   9.329   2.029  1.00  0.00     0.117 C 
BRANCH  69  70
ATOM     70  N   UNL     1       7.261   8.946   3.028  1.00  0.00    -0.354 N 
ATOM     71  C   UNL     1       7.648   7.700   3.398  1.00  0.00     0.242 C 
ATOM     72  H   UNL     1       7.695   9.688   3.509  1.00  0.00     0.163 HD
ATOM     73  O   UNL     1       8.492   7.628   4.300  1.00  0.00    -0.273 OA
BRANCH  71  74
ATOM     74  C   UNL     1       7.173   6.409   2.659  1.00  0.00     0.174 C 
BRANCH  74  75
ATOM     75  N   UNL     1       5.739   6.017   2.729  1.00  0.00    -0.339 N 
ATOM     76  C   UNL     1       4.584   6.012   2.004  1.00  0.00     0.278 C 
ATOM     77  H   UNL     1       5.561   5.622   3.613  1.00  0.00     0.164 HD
ATOM     78  O   UNL     1       3.565   5.640   2.590  1.00  0.00    -0.268 OA
BRANCH  76  79
ATOM     79  C   UNL     1       4.559   6.456   0.551  1.00  0.00     0.272 C 
ATOM     80  C   UNL     1       4.030   5.464  -0.474  1.00  0.00     0.076 C 
ATOM     81  N   UNL     1       3.789   7.698   0.340  1.00  0.00    -0.333 N 
ATOM     82  C   UNL     1       4.386   5.989  -1.881  1.00  0.00     0.016 C 
ATOM     83  C   UNL     1       4.338   8.346  -0.849  1.00  0.00     0.186 C 
ATOM     84  H   UNL     1       3.886   8.312   1.149  1.00  0.00     0.347 HD
ATOM     85  H   UNL     1       2.797   7.495   0.218  1.00  0.00     0.347 HD
ATOM     86  C   UNL     1       4.015   7.481  -2.085  1.00  0.00     0.048 C 
ATOM     87  C   UNL     1       3.863   9.785  -1.045  1.00  0.00     0.065 C 
ATOM     88  C   UNL     1       4.741   8.077  -3.302  1.00  0.00     0.010 C 
ATOM     89  C   UNL     1       4.605  10.393  -2.236  1.00  0.00     0.006 C 
ATOM     90  C   UNL     1       4.410   9.560  -3.503  1.00  0.00     0.001 C 
ENDBRANCH  76  79
ENDBRANCH  74  75
BRANCH  74  91
ATOM     91  C   UNL     1       8.096   6.056   1.511  1.00  0.00     0.021 C 
ATOM     92  C   UNL     1       7.775   5.054   0.436  1.00  0.00     0.006 C 
ATOM     93  C   UNL     1       8.053   6.492   0.064  1.00  0.00     0.006 C 
ENDBRANCH  74  91
ENDBRANCH  71  74
ENDBRANCH  69  70
ENDBRANCH  68  69
ENDBRANCH   1  68
TORSDOF 16
