REMARK SMILES CSc1ccc(-c2ncc(C(=O)NCCCNC(=O)c3ccc(-c4c5nc(c(-c6ccc(S(=O)(=O)[O-])cc6)c6ccc([nH]6)c(-c6ccc(S(=O)(=O)[O-])cc6)c6nc(c(-c7ccc(S(=O)(=O)[O-])cc7)c7ccc4[nH]7)C=C6)C=C5)cc3)c(=O)[nH]2)cc1
REMARK SMILES IDX 15 1 14 2 13 3 11 4 12 5 10 7 7 8 8 9 82 10 9 11 80 12 81 14
REMARK SMILES IDX 6 15 3 16 4 17 84 18 5 19 83 20 2 21 1 22 16 23 17 24 18 25
REMARK SMILES IDX 19 27 20 28 21 29 79 30 22 31 78 32 23 33 24 34 25 35 72 36
REMARK SMILES IDX 26 37 77 38 71 39 73 40 27 41 76 42 70 43 69 44 28 46 58 47
REMARK SMILES IDX 39 48 57 49 40 50 43 51 56 52 74 53 41 54 42 55 55 57 75 58
REMARK SMILES IDX 44 59 29 60 30 61 38 62 31 63 37 64 32 65 33 66 34 67 35 68
REMARK SMILES IDX 36 69 59 70 60 71 68 72 61 73 67 74 62 75 63 76 64 77 65 78
REMARK SMILES IDX 66 79 45 80 46 81 54 82 47 83 53 84 48 85 49 86 50 87 51 88
REMARK SMILES IDX 52 89
REMARK H PARENT 13 6 82 13 17 26 73 45 43 56
REMARK Flexibility Score: inf
ROOT
ATOM      1  C   UNL     1       6.801   0.766  10.138  1.00  0.00     0.042 C 
ENDROOT
BRANCH   1   2
ATOM      2  C   UNL     1       5.378   0.262  10.376  1.00  0.00     0.118 C 
BRANCH   2   3
ATOM      3  N   UNL     1       4.520   1.308  10.905  1.00  0.00    -0.352 N 
ATOM      4  C   UNL     1       3.587   2.109  10.322  1.00  0.00     0.258 C 
ATOM      5  O   UNL     1       2.990   2.887  11.072  1.00  0.00    -0.269 OA
ATOM      6  H   UNL     1       4.636   1.469  11.869  1.00  0.00     0.163 HD
BRANCH   4   7
ATOM      7  C   UNL     1       3.217   2.026   8.886  1.00  0.00     0.123 A 
ATOM      8  C   UNL     1       2.134   1.904   6.358  1.00  0.00     0.140 A 
ATOM      9  N   UNL     1       1.397   2.371   7.310  1.00  0.00    -0.237 NA
ATOM     10  N   UNL     1       3.427   1.501   6.546  1.00  0.00    -0.306 N 
ATOM     11  C   UNL     1       1.960   2.391   8.566  1.00  0.00     0.133 A 
ATOM     12  C   UNL     1       4.066   1.652   7.740  1.00  0.00     0.264 A 
ATOM     13  H   UNL     1       3.911   1.088   5.794  1.00  0.00     0.171 HD
ATOM     14  O   UNL     1       5.285   1.517   7.787  1.00  0.00    -0.269 OA
BRANCH   8  15
ATOM     15  C   UNL     1       1.649   1.794   4.976  1.00  0.00     0.017 A 
ATOM     16  C   UNL     1       0.858   1.584   2.300  1.00  0.00     0.007 A 
ATOM     17  C   UNL     1       1.146   0.434   3.046  1.00  0.00     0.016 A 
ATOM     18  C   UNL     1       0.948   2.839   2.923  1.00  0.00     0.016 A 
ATOM     19  C   UNL     1       1.551   0.536   4.379  1.00  0.00     0.013 A 
ATOM     20  C   UNL     1       1.337   2.948   4.261  1.00  0.00     0.013 A 
BRANCH  16  21
ATOM     21  S   UNL     1       0.335   1.546   0.591  1.00  0.00    -0.130 SA
ATOM     22  C   UNL     1       1.105   0.020  -0.018  1.00  0.00     0.091 C 
ENDBRANCH  16  21
ENDBRANCH   8  15
ENDBRANCH   4   7
ENDBRANCH   2   3
ENDBRANCH   1   2
BRANCH   1  23
ATOM     23  C   UNL     1       7.623   0.923  11.413  1.00  0.00     0.118 C 
BRANCH  23  24
ATOM     24  N   UNL     1       7.966  -0.360  12.009  1.00  0.00    -0.352 N 
ATOM     25  C   UNL     1       9.195  -0.905  12.286  1.00  0.00     0.251 C 
ATOM     26  H   UNL     1       7.197  -0.925  12.251  1.00  0.00     0.163 HD
ATOM     27  O   UNL     1       9.267  -2.094  12.588  1.00  0.00    -0.269 OA
BRANCH  25  28
ATOM     28  C   UNL     1      10.427  -0.085  12.216  1.00  0.00     0.039 A 
ATOM     29  C   UNL     1      11.589  -0.662  11.695  1.00  0.00     0.014 A 
ATOM     30  C   UNL     1      10.461   1.223  12.708  1.00  0.00     0.014 A 
ATOM     31  C   UNL     1      12.768   0.086  11.621  1.00  0.00     0.010 A 
ATOM     32  C   UNL     1      11.618   1.990  12.571  1.00  0.00     0.010 A 
ATOM     33  C   UNL     1      12.785   1.428  12.034  1.00  0.00    -0.014 A 
BRANCH  33  34
ATOM     34  C   UNL     1      14.013   2.255  11.914  1.00  0.00     0.031 A 
ATOM     35  C   UNL     1      14.697   2.783  13.148  1.00  0.00     0.074 A 
ATOM     36  C   UNL     1      14.479   2.583  10.693  1.00  0.00     0.049 A 
ATOM     37  N   UNL     1      15.737   3.572  13.241  1.00  0.00    -0.248 NA
ATOM     38  C   UNL     1      14.121   2.393  14.445  1.00  0.00     0.031 C 
ATOM     39  C   UNL     1      13.886   2.166   9.421  1.00  0.00     0.029 A 
ATOM     40  N   UNL     1      15.554   3.352  10.321  1.00  0.00    -0.354 N 
ATOM     41  C   UNL     1      15.928   3.789  14.601  1.00  0.00     0.074 A 
ATOM     42  C   UNL     1      14.871   3.083  15.293  1.00  0.00     0.031 C 
ATOM     43  C   UNL     1      14.616   2.664   8.410  1.00  0.00     0.029 A 
ATOM     44  C   UNL     1      15.704   3.468   8.959  1.00  0.00     0.049 A 
ATOM     45  H   UNL     1      16.160   3.779  10.968  1.00  0.00     0.167 HD
ATOM     46  C   UNL     1      16.904   4.497  15.220  1.00  0.00     0.031 A 
ATOM     47  C   UNL     1      16.608   4.151   8.231  1.00  0.00     0.031 A 
ATOM     48  C   UNL     1      17.960   5.188  14.529  1.00  0.00     0.049 A 
ATOM     49  C   UNL     1      17.681   4.932   8.939  1.00  0.00     0.074 A 
ATOM     50  C   UNL     1      19.026   5.888  15.067  1.00  0.00     0.029 A 
ATOM     51  N   UNL     1      18.084   5.269  13.150  1.00  0.00    -0.354 N 
ATOM     52  N   UNL     1      17.879   5.076  10.228  1.00  0.00    -0.248 NA
ATOM     53  C   UNL     1      18.658   5.633   8.095  1.00  0.00     0.031 C 
ATOM     54  C   UNL     1      19.769   6.431  14.012  1.00  0.00     0.029 A 
ATOM     55  C   UNL     1      19.196   6.024  12.818  1.00  0.00     0.049 A 
ATOM     56  H   UNL     1      17.471   4.851  12.503  1.00  0.00     0.167 HD
ATOM     57  C   UNL     1      19.018   5.864  10.349  1.00  0.00     0.074 A 
ATOM     58  C   UNL     1      19.472   6.153   9.004  1.00  0.00     0.031 C 
ATOM     59  C   UNL     1      19.633   6.306  11.473  1.00  0.00     0.031 A 
BRANCH  46  60
ATOM     60  C   UNL     1      16.865   4.565  16.725  1.00  0.00    -0.014 A 
ATOM     61  C   UNL     1      17.148   3.433  17.511  1.00  0.00     0.010 A 
ATOM     62  C   UNL     1      16.570   5.783  17.364  1.00  0.00     0.010 A 
ATOM     63  C   UNL     1      17.089   3.505  18.905  1.00  0.00     0.020 A 
ATOM     64  C   UNL     1      16.538   5.867  18.759  1.00  0.00     0.020 A 
ATOM     65  C   UNL     1      16.778   4.721  19.521  1.00  0.00     0.054 A 
BRANCH  65  66
ATOM     66  S   UNL     1      16.718   4.790  21.332  1.00  0.00     0.124 S 
ATOM     67  O   UNL     1      15.463   4.098  21.617  1.00  0.00    -0.237 OA
ATOM     68  O   UNL     1      17.930   4.075  21.722  1.00  0.00    -0.237 OA
ATOM     69  O   UNL     1      16.720   6.221  21.626  1.00  0.00    -0.744 OA
ENDBRANCH  65  66
ENDBRANCH  46  60
BRANCH  47  70
ATOM     70  C   UNL     1      16.545   4.109   6.745  1.00  0.00    -0.014 A 
ATOM     71  C   UNL     1      17.503   3.388   6.012  1.00  0.00     0.010 A 
ATOM     72  C   UNL     1      15.509   4.766   6.056  1.00  0.00     0.010 A 
ATOM     73  C   UNL     1      17.434   3.333   4.616  1.00  0.00     0.020 A 
ATOM     74  C   UNL     1      15.421   4.692   4.663  1.00  0.00     0.020 A 
ATOM     75  C   UNL     1      16.390   3.983   3.951  1.00  0.00     0.054 A 
BRANCH  75  76
ATOM     76  S   UNL     1      16.283   3.845   2.145  1.00  0.00     0.124 S 
ATOM     77  O   UNL     1      17.355   4.735   1.708  1.00  0.00    -0.237 OA
ATOM     78  O   UNL     1      16.513   2.420   1.922  1.00  0.00    -0.237 OA
ATOM     79  O   UNL     1      14.928   4.302   1.847  1.00  0.00    -0.744 OA
ENDBRANCH  75  76
ENDBRANCH  47  70
BRANCH  59  80
ATOM     80  C   UNL     1      20.883   7.128  11.300  1.00  0.00    -0.014 A 
ATOM     81  C   UNL     1      20.824   8.456  10.844  1.00  0.00     0.010 A 
ATOM     82  C   UNL     1      22.129   6.576  11.651  1.00  0.00     0.010 A 
ATOM     83  C   UNL     1      21.994   9.209  10.714  1.00  0.00     0.020 A 
ATOM     84  C   UNL     1      23.297   7.334  11.547  1.00  0.00     0.020 A 
ATOM     85  C   UNL     1      23.224   8.643  11.065  1.00  0.00     0.054 A 
BRANCH  85  86
ATOM     86  S   UNL     1      24.723   9.655  10.930  1.00  0.00     0.124 S 
ATOM     87  O   UNL     1      24.946   9.675   9.486  1.00  0.00    -0.237 OA
ATOM     88  O   UNL     1      24.308  10.925  11.520  1.00  0.00    -0.237 OA
ATOM     89  O   UNL     1      25.715   8.910  11.703  1.00  0.00    -0.744 OA
ENDBRANCH  85  86
ENDBRANCH  59  80
ENDBRANCH  33  34
ENDBRANCH  25  28
ENDBRANCH  23  24
ENDBRANCH   1  23
TORSDOF 15
