REMARK SMILES Cc1nc(-c2ccccc2Cl)nc2sc(C(=O)NCCCNC(=O)c3ccc(-c4c5nc(c(-c6ccc(S(=O)(=O)[O-])cc6)c6ccc([nH]6)c(-c6ccc(S(=O)(=O)[O-])cc6)c6nc(c(-c7ccc(S(=O)(=O)[O-])cc7)c7ccc4[nH]7)C=C6)C=C5)cc3)c(N)c12
REMARK SMILES IDX 21 1 20 2 19 3 18 4 16 5 17 6 15 8 1 9 2 10 3 11 87 12 4 13
REMARK SMILES IDX 13 14 85 15 12 16 14 17 5 18 6 19 10 20 7 21 9 22 11 23 8 24
REMARK SMILES IDX 86 25 22 28 23 29 24 31 25 32 26 33 84 34 27 35 83 36 28 37
REMARK SMILES IDX 29 38 30 39 77 40 31 41 82 42 76 43 78 44 32 45 81 46 75 47
REMARK SMILES IDX 74 48 33 50 63 51 44 52 62 53 45 54 48 55 61 56 79 57 46 58
REMARK SMILES IDX 47 59 60 61 80 62 49 63 34 64 35 65 43 66 36 67 42 68 37 69
REMARK SMILES IDX 38 70 39 71 40 72 41 73 64 74 65 75 73 76 66 77 72 78 67 79
REMARK SMILES IDX 68 80 69 81 70 82 71 83 50 84 51 85 59 86 52 87 58 88 53 89
REMARK SMILES IDX 54 90 55 91 56 92 57 93
REMARK H PARENT 18 7 86 26 86 27 22 30 78 49 48 60
REMARK Flexibility Score: inf
ROOT
ATOM      1  C   UNL     1      -1.792  -1.034   9.122  1.00  0.00     0.118 C 
ENDROOT
BRANCH   1   2
ATOM      2  C   UNL     1      -1.502  -1.282   7.657  1.00  0.00     0.042 C 
BRANCH   2   3
ATOM      3  C   UNL     1      -2.571  -0.670   6.736  1.00  0.00     0.118 C 
BRANCH   3   4
ATOM      4  N   UNL     1      -2.252   0.689   6.304  1.00  0.00    -0.351 N 
ATOM      5  C   UNL     1      -1.603   1.170   5.178  1.00  0.00     0.263 C 
ATOM      6  O   UNL     1      -1.696   2.388   4.992  1.00  0.00    -0.268 OA
ATOM      7  H   UNL     1      -2.553   1.390   6.926  1.00  0.00     0.163 HD
BRANCH   5   8
ATOM      8  C   UNL     1      -0.901   0.300   4.239  1.00  0.00     0.118 A 
ATOM      9  C   UNL     1       0.811   0.031  -0.153  1.00  0.00     0.067 C 
ATOM     10  C   UNL     1       0.500  -0.930   0.952  1.00  0.00     0.052 A 
ATOM     11  N   UNL     1       0.795  -2.244   0.673  1.00  0.00    -0.233 NA
ATOM     12  C   UNL     1       0.017  -0.603   2.240  1.00  0.00     0.056 A 
ATOM     13  C   UNL     1       0.672  -3.170   1.639  1.00  0.00     0.162 A 
ATOM     14  C   UNL     1       0.027  -1.661   3.130  1.00  0.00     0.130 A 
ATOM     15  C   UNL     1      -0.514   0.565   2.923  1.00  0.00     0.067 A 
ATOM     16  N   UNL     1       0.314  -2.938   2.893  1.00  0.00    -0.217 NA
ATOM     17  S   UNL     1      -0.292  -1.214   4.707  1.00  0.00    -0.108 S 
BRANCH  13  18
ATOM     18  C   UNL     1       0.962  -4.574   1.376  1.00  0.00     0.038 A 
ATOM     19  C   UNL     1      -0.077  -5.522   1.517  1.00  0.00     0.013 A 
ATOM     20  C   UNL     1       2.266  -5.049   1.187  1.00  0.00     0.052 A 
ATOM     21  C   UNL     1       0.180  -6.893   1.489  1.00  0.00     0.001 A 
ATOM     22  C   UNL     1       2.523  -6.425   1.160  1.00  0.00     0.021 A 
ATOM     23  Cl  UNL     1       3.627  -3.985   1.073  1.00  0.00    -0.084 Cl
ATOM     24  C   UNL     1       1.484  -7.344   1.318  1.00  0.00     0.002 A 
ENDBRANCH  13  18
BRANCH  15  25
ATOM     25  N   UNL     1      -0.702   1.782   2.367  1.00  0.00    -0.397 N 
ATOM     26  H   UNL     1      -1.068   2.519   2.908  1.00  0.00     0.156 HD
ATOM     27  H   UNL     1      -0.472   1.933   1.422  1.00  0.00     0.156 HD
ENDBRANCH  15  25
ENDBRANCH   5   8
ENDBRANCH   3   4
ENDBRANCH   2   3
ENDBRANCH   1   2
BRANCH   1  28
ATOM     28  N   UNL     1      -2.919  -1.830   9.609  1.00  0.00    -0.352 N 
ATOM     29  C   UNL     1      -3.459  -1.852  10.884  1.00  0.00     0.251 C 
ATOM     30  H   UNL     1      -3.346  -2.422   8.950  1.00  0.00     0.163 HD
ATOM     31  O   UNL     1      -4.159  -2.780  11.250  1.00  0.00    -0.269 OA
BRANCH  29  32
ATOM     32  C   UNL     1      -3.149  -0.729  11.789  1.00  0.00     0.039 A 
ATOM     33  C   UNL     1      -2.843  -0.938  13.136  1.00  0.00     0.014 A 
ATOM     34  C   UNL     1      -3.109   0.547  11.239  1.00  0.00     0.014 A 
ATOM     35  C   UNL     1      -2.405   0.143  13.899  1.00  0.00     0.010 A 
ATOM     36  C   UNL     1      -2.500   1.558  11.931  1.00  0.00     0.010 A 
ATOM     37  C   UNL     1      -2.209   1.387  13.280  1.00  0.00    -0.014 A 
BRANCH  37  38
ATOM     38  C   UNL     1      -1.614   2.512  13.993  1.00  0.00     0.031 A 
ATOM     39  C   UNL     1      -0.298   2.238  14.633  1.00  0.00     0.074 A 
ATOM     40  C   UNL     1      -2.100   3.768  13.881  1.00  0.00     0.049 A 
ATOM     41  N   UNL     1      -0.025   2.255  15.894  1.00  0.00    -0.248 NA
ATOM     42  C   UNL     1       0.820   1.776  13.792  1.00  0.00     0.031 C 
ATOM     43  C   UNL     1      -3.222   4.242  13.057  1.00  0.00     0.029 A 
ATOM     44  N   UNL     1      -1.591   4.927  14.373  1.00  0.00    -0.354 N 
ATOM     45  C   UNL     1       1.339   2.003  16.005  1.00  0.00     0.074 A 
ATOM     46  C   UNL     1       1.771   1.557  14.704  1.00  0.00     0.031 C 
ATOM     47  C   UNL     1      -3.131   5.579  12.894  1.00  0.00     0.029 A 
ATOM     48  C   UNL     1      -2.065   6.074  13.745  1.00  0.00     0.049 A 
ATOM     49  H   UNL     1      -0.942   4.953  15.113  1.00  0.00     0.167 HD
ATOM     50  C   UNL     1       2.050   2.385  17.103  1.00  0.00     0.031 A 
ATOM     51  C   UNL     1      -1.598   7.340  13.889  1.00  0.00     0.031 A 
ATOM     52  C   UNL     1       1.185   2.806  18.175  1.00  0.00     0.049 A 
ATOM     53  C   UNL     1      -0.861   7.376  15.177  1.00  0.00     0.074 A 
ATOM     54  C   UNL     1       0.197   2.192  18.918  1.00  0.00     0.029 A 
ATOM     55  N   UNL     1       0.994   4.161  18.326  1.00  0.00    -0.354 N 
ATOM     56  N   UNL     1      -1.447   7.218  16.332  1.00  0.00    -0.248 NA
ATOM     57  C   UNL     1       0.567   7.096  15.165  1.00  0.00     0.031 C 
ATOM     58  C   UNL     1      -0.814   3.185  19.065  1.00  0.00     0.029 A 
ATOM     59  C   UNL     1      -0.354   4.368  18.481  1.00  0.00     0.049 A 
ATOM     60  H   UNL     1       1.694   4.854  18.323  1.00  0.00     0.167 HD
ATOM     61  C   UNL     1      -0.589   6.403  17.058  1.00  0.00     0.074 A 
ATOM     62  C   UNL     1       0.680   6.451  16.331  1.00  0.00     0.031 C 
ATOM     63  C   UNL     1      -1.062   5.540  18.007  1.00  0.00     0.031 A 
BRANCH  50  64
ATOM     64  C   UNL     1       3.515   2.737  17.096  1.00  0.00    -0.014 A 
ATOM     65  C   UNL     1       4.155   3.006  18.323  1.00  0.00     0.010 A 
ATOM     66  C   UNL     1       4.207   3.087  15.919  1.00  0.00     0.010 A 
ATOM     67  C   UNL     1       5.392   3.663  18.370  1.00  0.00     0.020 A 
ATOM     68  C   UNL     1       5.459   3.704  15.954  1.00  0.00     0.020 A 
ATOM     69  C   UNL     1       6.027   4.022  17.181  1.00  0.00     0.054 A 
BRANCH  69  70
ATOM     70  S   UNL     1       7.557   4.985  17.254  1.00  0.00     0.124 S 
ATOM     71  O   UNL     1       7.101   6.231  17.862  1.00  0.00    -0.237 OA
ATOM     72  O   UNL     1       8.411   4.146  18.090  1.00  0.00    -0.237 OA
ATOM     73  O   UNL     1       7.966   5.084  15.854  1.00  0.00    -0.744 OA
ENDBRANCH  69  70
ENDBRANCH  50  64
BRANCH  51  74
ATOM     74  C   UNL     1      -1.548   8.424  12.876  1.00  0.00    -0.014 A 
ATOM     75  C   UNL     1      -1.289   9.758  13.238  1.00  0.00     0.010 A 
ATOM     76  C   UNL     1      -1.504   8.104  11.501  1.00  0.00     0.010 A 
ATOM     77  C   UNL     1      -0.943  10.720  12.270  1.00  0.00     0.020 A 
ATOM     78  C   UNL     1      -1.167   9.056  10.531  1.00  0.00     0.020 A 
ATOM     79  C   UNL     1      -0.864  10.357  10.923  1.00  0.00     0.054 A 
BRANCH  79  80
ATOM     80  S   UNL     1      -0.252  11.559   9.703  1.00  0.00     0.124 S 
ATOM     81  O   UNL     1      -1.313  12.561   9.690  1.00  0.00    -0.237 OA
ATOM     82  O   UNL     1       1.015  11.987  10.289  1.00  0.00    -0.237 OA
ATOM     83  O   UNL     1      -0.128  10.773   8.476  1.00  0.00    -0.744 OA
ENDBRANCH  79  80
ENDBRANCH  51  74
BRANCH  63  84
ATOM     84  C   UNL     1      -2.513   5.647  18.426  1.00  0.00    -0.014 A 
ATOM     85  C   UNL     1      -3.595   5.448  17.545  1.00  0.00     0.010 A 
ATOM     86  C   UNL     1      -2.787   5.766  19.800  1.00  0.00     0.010 A 
ATOM     87  C   UNL     1      -4.913   5.391  18.024  1.00  0.00     0.020 A 
ATOM     88  C   UNL     1      -4.095   5.690  20.286  1.00  0.00     0.020 A 
ATOM     89  C   UNL     1      -5.153   5.510  19.396  1.00  0.00     0.054 A 
BRANCH  89  90
ATOM     90  S   UNL     1      -6.853   5.380  20.020  1.00  0.00     0.124 S 
ATOM     91  O   UNL     1      -7.481   6.586  19.486  1.00  0.00    -0.237 OA
ATOM     92  O   UNL     1      -7.317   4.121  19.441  1.00  0.00    -0.237 OA
ATOM     93  O   UNL     1      -6.691   5.360  21.473  1.00  0.00    -0.744 OA
ENDBRANCH  89  90
ENDBRANCH  63  84
ENDBRANCH  37  38
ENDBRANCH  29  32
ENDBRANCH   1  28
TORSDOF 15
