REMARK SMILES C/C(=N\[NH+]=C1\NC(=O)[C@H](CC(=O)NCCCNC(=O)c2ccc(-c3c4nc(c(-c5ccc(S(=O)(=O)[O-])cc5)c5ccc([nH]5)c(-c5ccc(S(=O)(=O)[O-])cc5)c5nc(c(-c6ccc(S(=O)(=O)[O-])cc6)c6ccc3[nH]6)C=C5)C=C4)cc2)S1)c1ccc([N+](=O)[O-])cc1
REMARK SMILES IDX 14 1 13 2 11 3 12 4 10 6 9 7 4 8 5 9 6 11 80 12 7 13 8 15
REMARK SMILES IDX 3 16 1 17 2 18 81 19 82 20 89 21 83 22 88 23 84 24 85 25
REMARK SMILES IDX 86 26 87 27 15 28 16 29 17 30 18 31 19 33 20 34 21 35 79 36
REMARK SMILES IDX 22 37 78 38 23 39 24 40 25 41 72 42 26 43 77 44 71 45 73 46
REMARK SMILES IDX 27 47 76 48 70 49 69 50 28 52 58 53 39 54 57 55 40 56 43 57
REMARK SMILES IDX 56 58 74 59 41 60 42 61 55 63 75 64 44 65 29 66 30 67 38 68
REMARK SMILES IDX 31 69 37 70 32 71 33 72 34 73 35 74 36 75 59 76 60 77 68 78
REMARK SMILES IDX 61 79 67 80 62 81 63 82 64 83 65 84 66 85 45 86 46 87 54 88
REMARK SMILES IDX 47 89 53 90 48 91 49 92 50 93 51 94 52 95
REMARK H PARENT 13 5 4 10 6 14 17 32 73 51 43 62
REMARK Flexibility Score: inf
ROOT
ATOM      1  C   UNL     1      -3.534   4.442  -2.436  1.00  0.00     0.117 C 
ENDROOT
BRANCH   1   2
ATOM      2  N   UNL     1      -3.407   3.671  -3.666  1.00  0.00    -0.356 N 
ATOM      3  C   UNL     1      -3.284   2.330  -3.871  1.00  0.00     0.221 C 
ATOM      4  O   UNL     1      -3.175   1.905  -5.021  1.00  0.00    -0.275 OA
ATOM      5  H   UNL     1      -3.412   4.211  -4.489  1.00  0.00     0.163 HD
BRANCH   3   6
ATOM      6  C   UNL     1      -3.265   1.382  -2.697  1.00  0.00     0.127 C 
BRANCH   6   7
ATOM      7  C   UNL     1      -1.840   1.028  -2.310  1.00  0.00     0.183 C 
ATOM      8  N   UNL     1      -0.430   1.500   1.238  1.00  0.00    -0.142 N 
ATOM      9  C   UNL     1      -1.016   1.462   0.092  1.00  0.00     0.337 C 
ATOM     10  H   UNL     1      -0.102   2.344   1.624  1.00  0.00     0.343 HD
ATOM     11  N   UNL     1      -0.866   2.519  -0.732  1.00  0.00    -0.202 N 
ATOM     12  S   UNL     1      -1.826   0.146  -0.706  1.00  0.00    -0.020 SA
ATOM     13  C   UNL     1      -0.991   2.249  -2.055  1.00  0.00     0.322 C 
ATOM     14  H   UNL     1      -0.678   3.425  -0.396  1.00  0.00     0.316 HD
ATOM     15  O   UNL     1      -0.421   2.896  -2.930  1.00  0.00    -0.246 OA
BRANCH   8  16
ATOM     16  N   UNL     1      -0.285   0.287   1.900  1.00  0.00    -0.090 NA
ATOM     17  C   UNL     1       1.698   0.006   0.398  1.00  0.00     0.071 C 
ATOM     18  C   UNL     1       0.788  -0.380   1.562  1.00  0.00     0.088 C 
BRANCH  18  19
ATOM     19  C   UNL     1       1.118  -1.635   2.310  1.00  0.00    -0.000 A 
ATOM     20  C   UNL     1       0.144  -2.223   3.132  1.00  0.00     0.017 A 
ATOM     21  C   UNL     1       2.395  -2.211   2.243  1.00  0.00     0.017 A 
ATOM     22  C   UNL     1       0.444  -3.362   3.887  1.00  0.00     0.086 A 
ATOM     23  C   UNL     1       2.706  -3.344   2.999  1.00  0.00     0.086 A 
ATOM     24  C   UNL     1       1.730  -3.912   3.823  1.00  0.00     0.269 A 
BRANCH  24  25
ATOM     25  N   UNL     1       2.065  -5.089   4.633  1.00  0.00     0.062 N 
ATOM     26  O   UNL     1       1.179  -5.561   5.359  1.00  0.00    -0.258 OA
ATOM     27  O   UNL     1       3.213  -5.547   4.537  1.00  0.00    -0.258 OA
ENDBRANCH  24  25
ENDBRANCH  18  19
ENDBRANCH   8  16
ENDBRANCH   6   7
ENDBRANCH   3   6
ENDBRANCH   1   2
BRANCH   1  28
ATOM     28  C   UNL     1      -2.394   5.438  -2.233  1.00  0.00     0.042 C 
BRANCH  28  29
ATOM     29  C   UNL     1      -2.321   6.530  -3.289  1.00  0.00     0.118 C 
BRANCH  29  30
ATOM     30  N   UNL     1      -3.329   7.553  -3.071  1.00  0.00    -0.352 N 
ATOM     31  C   UNL     1      -3.168   8.869  -2.710  1.00  0.00     0.251 C 
ATOM     32  H   UNL     1      -4.261   7.261  -3.201  1.00  0.00     0.163 HD
ATOM     33  O   UNL     1      -4.141   9.505  -2.314  1.00  0.00    -0.269 OA
BRANCH  31  34
ATOM     34  C   UNL     1      -1.835   9.514  -2.782  1.00  0.00     0.039 A 
ATOM     35  C   UNL     1      -1.457  10.398  -1.767  1.00  0.00     0.014 A 
ATOM     36  C   UNL     1      -0.973   9.286  -3.859  1.00  0.00     0.014 A 
ATOM     37  C   UNL     1      -0.202  11.013  -1.811  1.00  0.00     0.010 A 
ATOM     38  C   UNL     1       0.308   9.835  -3.858  1.00  0.00     0.010 A 
ATOM     39  C   UNL     1       0.704  10.717  -2.842  1.00  0.00    -0.014 A 
BRANCH  39  40
ATOM     40  C   UNL     1       2.054  11.340  -2.887  1.00  0.00     0.031 A 
ATOM     41  C   UNL     1       2.433  12.243  -4.035  1.00  0.00     0.074 A 
ATOM     42  C   UNL     1       2.954  11.068  -1.920  1.00  0.00     0.049 A 
ATOM     43  N   UNL     1       3.578  12.829  -4.279  1.00  0.00    -0.248 NA
ATOM     44  C   UNL     1       1.399  12.506  -5.050  1.00  0.00     0.031 C 
ATOM     45  C   UNL     1       2.726  10.187  -0.772  1.00  0.00     0.029 A 
ATOM     46  N   UNL     1       4.246  11.501  -1.750  1.00  0.00    -0.354 N 
ATOM     47  C   UNL     1       3.404  13.521  -5.473  1.00  0.00     0.074 A 
ATOM     48  C   UNL     1       2.063  13.238  -5.934  1.00  0.00     0.031 C 
ATOM     49  C   UNL     1       3.829  10.166  -0.006  1.00  0.00     0.029 A 
ATOM     50  C   UNL     1       4.858  10.994  -0.627  1.00  0.00     0.049 A 
ATOM     51  H   UNL     1       4.693  12.118  -2.373  1.00  0.00     0.167 HD
ATOM     52  C   UNL     1       4.270  14.341  -6.115  1.00  0.00     0.031 A 
ATOM     53  C   UNL     1       6.109  11.164  -0.155  1.00  0.00     0.031 A 
ATOM     54  C   UNL     1       5.599  14.636  -5.650  1.00  0.00     0.049 A 
ATOM     55  C   UNL     1       7.061  12.058  -0.906  1.00  0.00     0.074 A 
ATOM     56  C   UNL     1       6.539  15.480  -6.216  1.00  0.00     0.029 A 
ATOM     57  N   UNL     1       6.175  14.106  -4.507  1.00  0.00    -0.354 N 
ATOM     58  N   UNL     1       6.856  12.741  -2.007  1.00  0.00    -0.248 NA
ATOM     59  C   UNL     1       8.410  12.214  -0.342  1.00  0.00     0.031 C 
ATOM     60  C   UNL     1       7.700  15.425  -5.440  1.00  0.00     0.029 A 
ATOM     61  C   UNL     1       7.462  14.593  -4.358  1.00  0.00     0.049 A 
ATOM     62  H   UNL     1       5.734  13.477  -3.892  1.00  0.00     0.167 HD
ATOM     63  C   UNL     1       8.039  13.432  -2.248  1.00  0.00     0.074 A 
ATOM     64  C   UNL     1       8.946  13.100  -1.169  1.00  0.00     0.031 C 
ATOM     65  C   UNL     1       8.348  14.265  -3.271  1.00  0.00     0.031 A 
BRANCH  52  66
ATOM     66  C   UNL     1       3.804  14.998  -7.388  1.00  0.00    -0.014 A 
ATOM     67  C   UNL     1       2.841  16.024  -7.358  1.00  0.00     0.010 A 
ATOM     68  C   UNL     1       4.389  14.646  -8.618  1.00  0.00     0.010 A 
ATOM     69  C   UNL     1       2.457  16.670  -8.535  1.00  0.00     0.020 A 
ATOM     70  C   UNL     1       4.028  15.309  -9.795  1.00  0.00     0.020 A 
ATOM     71  C   UNL     1       3.057  16.311  -9.746  1.00  0.00     0.054 A 
BRANCH  71  72
ATOM     72  S   UNL     1       2.579  17.210 -11.248  1.00  0.00     0.124 S 
ATOM     73  O   UNL     1       1.223  16.717 -11.476  1.00  0.00    -0.237 OA
ATOM     74  O   UNL     1       2.677  18.605 -10.829  1.00  0.00    -0.237 OA
ATOM     75  O   UNL     1       3.568  16.787 -12.236  1.00  0.00    -0.744 OA
ENDBRANCH  71  72
ENDBRANCH  52  66
BRANCH  53  76
ATOM     76  C   UNL     1       6.548  10.469   1.088  1.00  0.00    -0.014 A 
ATOM     77  C   UNL     1       6.849  11.199   2.252  1.00  0.00     0.010 A 
ATOM     78  C   UNL     1       6.706   9.071   1.100  1.00  0.00     0.010 A 
ATOM     79  C   UNL     1       7.342  10.550   3.389  1.00  0.00     0.020 A 
ATOM     80  C   UNL     1       7.166   8.415   2.245  1.00  0.00     0.020 A 
ATOM     81  C   UNL     1       7.503   9.162   3.375  1.00  0.00     0.054 A 
BRANCH  81  82
ATOM     82  S   UNL     1       8.141   8.337   4.860  1.00  0.00     0.124 S 
ATOM     83  O   UNL     1       9.555   8.695   4.820  1.00  0.00    -0.237 OA
ATOM     84  O   UNL     1       7.360   8.957   5.927  1.00  0.00    -0.237 OA
ATOM     85  O   UNL     1       7.844   6.927   4.620  1.00  0.00    -0.744 OA
ENDBRANCH  81  82
ENDBRANCH  53  76
BRANCH  65  86
ATOM     86  C   UNL     1       9.705  14.919  -3.252  1.00  0.00    -0.014 A 
ATOM     87  C   UNL     1      10.875  14.183  -3.507  1.00  0.00     0.010 A 
ATOM     88  C   UNL     1       9.802  16.305  -3.026  1.00  0.00     0.010 A 
ATOM     89  C   UNL     1      12.121  14.815  -3.504  1.00  0.00     0.020 A 
ATOM     90  C   UNL     1      11.043  16.945  -3.052  1.00  0.00     0.020 A 
ATOM     91  C   UNL     1      12.197  16.193  -3.276  1.00  0.00     0.054 A 
BRANCH  91  92
ATOM     92  S   UNL     1      13.822  16.997  -3.321  1.00  0.00     0.124 S 
ATOM     93  O   UNL     1      14.421  16.541  -2.069  1.00  0.00    -0.237 OA
ATOM     94  O   UNL     1      14.417  16.449  -4.537  1.00  0.00    -0.237 OA
ATOM     95  O   UNL     1      13.504  18.422  -3.377  1.00  0.00    -0.744 OA
ENDBRANCH  91  92
ENDBRANCH  65  86
ENDBRANCH  39  40
ENDBRANCH  31  34
ENDBRANCH  29  30
ENDBRANCH  28  29
ENDBRANCH   1  28
TORSDOF 17
