REMARK SMILES C[C@H]([NH2+][C@@H](C)[C@@H](C)C(=O)NCCCNC(=O)c1ccc(-c2c3nc(c(-c4ccc(S(=O)(=O)[O-])cc4)c4ccc([nH]4)c(-c4ccc(S(=O)(=O)[O-])cc4)c4nc(c(-c5ccc(S(=O)(=O)[O-])cc5)c5ccc2[nH]5)C=C4)C=C3)cc1)c1cccc(Br)c1
REMARK SMILES IDX 11 1 10 2 8 3 9 4 6 6 7 7 4 8 5 9 3 10 2 13 1 14 77 15 78 16
REMARK SMILES IDX 83 17 79 18 81 19 80 20 82 21 12 22 13 23 14 24 15 25 16 27
REMARK SMILES IDX 17 28 18 29 76 30 19 31 75 32 20 33 21 34 22 35 69 36 23 37
REMARK SMILES IDX 74 38 68 39 70 40 24 41 73 42 67 43 66 44 25 46 55 47 36 48
REMARK SMILES IDX 54 49 37 50 40 51 53 52 71 53 38 54 39 55 52 57 72 58 41 59
REMARK SMILES IDX 26 60 27 61 35 62 28 63 34 64 29 65 30 66 31 67 32 68 33 69
REMARK SMILES IDX 56 70 57 71 65 72 58 73 64 74 59 75 60 76 61 77 62 78 63 79
REMARK SMILES IDX 42 80 43 81 51 82 44 83 50 84 45 85 46 86 47 87 48 88 49 89
REMARK H PARENT 10 5 3 11 3 12 14 26 70 45 40 56
REMARK Flexibility Score: inf
ROOT
ATOM      1  C   UNL     1       0.032  -0.279   4.317  1.00  0.00     0.117 C 
ENDROOT
BRANCH   1   2
ATOM      2  N   UNL     1       0.278   1.153   4.276  1.00  0.00    -0.356 N 
ATOM      3  C   UNL     1       0.359   2.012   3.224  1.00  0.00     0.228 C 
ATOM      4  O   UNL     1       0.643   3.188   3.462  1.00  0.00    -0.275 OA
ATOM      5  H   UNL     1       0.407   1.572   5.157  1.00  0.00     0.163 HD
BRANCH   3   6
ATOM      6  C   UNL     1       0.054   1.560   1.798  1.00  0.00     0.133 C 
ATOM      7  C   UNL     1      -1.428   1.195   1.742  1.00  0.00     0.024 C 
BRANCH   6   8
ATOM      8  C   UNL     1       1.093   0.529   1.281  1.00  0.00     0.192 C 
ATOM      9  C   UNL     1       2.464   1.229   1.160  1.00  0.00     0.076 C 
BRANCH   8  10
ATOM     10  N   UNL     1       0.846  -0.046  -0.037  1.00  0.00    -0.337 N 
ATOM     11  H   UNL     1       0.124   0.531  -0.469  1.00  0.00     0.347 HD
ATOM     12  H   UNL     1       1.782  -0.059  -0.443  1.00  0.00     0.347 HD
BRANCH  10  13
ATOM     13  C   UNL     1       0.416  -1.441  -0.215  1.00  0.00     0.210 C 
ATOM     14  C   UNL     1       1.104  -2.398   0.779  1.00  0.00     0.081 C 
BRANCH  13  15
ATOM     15  C   UNL     1      -1.102  -1.623  -0.304  1.00  0.00     0.010 A 
ATOM     16  C   UNL     1      -1.919  -0.631  -0.875  1.00  0.00     0.010 A 
ATOM     17  C   UNL     1      -1.738  -2.806   0.116  1.00  0.00     0.025 A 
ATOM     18  C   UNL     1      -3.314  -0.732  -0.865  1.00  0.00     0.002 A 
ATOM     19  C   UNL     1      -3.131  -2.925   0.084  1.00  0.00     0.018 A 
ATOM     20  C   UNL     1      -3.924  -1.877  -0.368  1.00  0.00     0.016 A 
ATOM     21  Br  UNL     1      -3.950  -4.527   0.666  1.00  0.00    -0.051 Br
ENDBRANCH  13  15
ENDBRANCH  10  13
ENDBRANCH   8  10
ENDBRANCH   6   8
ENDBRANCH   3   6
ENDBRANCH   1   2
BRANCH   1  22
ATOM     22  C   UNL     1       1.286  -1.044   4.720  1.00  0.00     0.042 C 
BRANCH  22  23
ATOM     23  C   UNL     1       1.703  -0.785   6.159  1.00  0.00     0.118 C 
BRANCH  23  24
ATOM     24  N   UNL     1       0.697  -1.236   7.112  1.00  0.00    -0.352 N 
ATOM     25  C   UNL     1       0.802  -2.159   8.123  1.00  0.00     0.251 C 
ATOM     26  H   UNL     1      -0.189  -0.816   7.017  1.00  0.00     0.163 HD
ATOM     27  O   UNL     1      -0.207  -2.575   8.677  1.00  0.00    -0.269 OA
BRANCH  25  28
ATOM     28  C   UNL     1       2.137  -2.652   8.521  1.00  0.00     0.039 A 
ATOM     29  C   UNL     1       2.308  -4.012   8.785  1.00  0.00     0.014 A 
ATOM     30  C   UNL     1       3.216  -1.771   8.625  1.00  0.00     0.014 A 
ATOM     31  C   UNL     1       3.581  -4.496   9.090  1.00  0.00     0.010 A 
ATOM     32  C   UNL     1       4.496  -2.269   8.828  1.00  0.00     0.010 A 
ATOM     33  C   UNL     1       4.691  -3.634   9.076  1.00  0.00    -0.014 A 
BRANCH  33  34
ATOM     34  C   UNL     1       6.064  -4.136   9.330  1.00  0.00     0.031 A 
ATOM     35  C   UNL     1       6.845  -3.621  10.509  1.00  0.00     0.074 A 
ATOM     36  C   UNL     1       6.625  -5.007   8.469  1.00  0.00     0.049 A 
ATOM     37  N   UNL     1       8.074  -3.893  10.864  1.00  0.00    -0.248 NA
ATOM     38  C   UNL     1       6.167  -2.654  11.390  1.00  0.00     0.031 C 
ATOM     39  C   UNL     1       5.980  -5.550   7.270  1.00  0.00     0.029 A 
ATOM     40  N   UNL     1       7.867  -5.591   8.469  1.00  0.00    -0.354 N 
ATOM     41  C   UNL     1       8.319  -3.124  11.996  1.00  0.00     0.074 A 
ATOM     42  C   UNL     1       7.136  -2.328  12.233  1.00  0.00     0.031 C 
ATOM     43  C   UNL     1       6.815  -6.418   6.676  1.00  0.00     0.029 A 
ATOM     44  C   UNL     1       8.070  -6.457   7.419  1.00  0.00     0.049 A 
ATOM     45  H   UNL     1       8.548  -5.407   9.155  1.00  0.00     0.167 HD
ATOM     46  C   UNL     1       9.420  -3.101  12.783  1.00  0.00     0.031 A 
ATOM     47  C   UNL     1       9.147  -7.196   7.091  1.00  0.00     0.031 A 
ATOM     48  C   UNL     1      10.590  -3.902  12.548  1.00  0.00     0.049 A 
ATOM     49  C   UNL     1      10.369  -7.131   7.966  1.00  0.00     0.074 A 
ATOM     50  C   UNL     1      11.742  -3.986  13.310  1.00  0.00     0.029 A 
ATOM     51  N   UNL     1      10.759  -4.759  11.470  1.00  0.00    -0.354 N 
ATOM     52  N   UNL     1      10.561  -6.437   9.063  1.00  0.00    -0.248 NA
ATOM     53  C   UNL     1      11.514  -7.959   7.565  1.00  0.00     0.031 C 
ATOM     54  C   UNL     1      12.631  -4.849  12.662  1.00  0.00     0.029 A 
ATOM     55  C   UNL     1      12.006  -5.357  11.534  1.00  0.00     0.049 A 
ATOM     56  H   UNL     1      10.092  -4.918  10.764  1.00  0.00     0.167 HD
ATOM     57  C   UNL     1      11.839  -6.769   9.500  1.00  0.00     0.074 A 
ATOM     58  C   UNL     1      12.365  -7.736   8.558  1.00  0.00     0.031 C 
ATOM     59  C   UNL     1      12.514  -6.318  10.586  1.00  0.00     0.031 A 
BRANCH  46  60
ATOM     60  C   UNL     1       9.407  -2.179  13.975  1.00  0.00    -0.014 A 
ATOM     61  C   UNL     1       8.563  -2.424  15.074  1.00  0.00     0.010 A 
ATOM     62  C   UNL     1      10.283  -1.079  14.020  1.00  0.00     0.010 A 
ATOM     63  C   UNL     1       8.569  -1.567  16.178  1.00  0.00     0.020 A 
ATOM     64  C   UNL     1      10.316  -0.238  15.136  1.00  0.00     0.020 A 
ATOM     65  C   UNL     1       9.447  -0.480  16.202  1.00  0.00     0.054 A 
BRANCH  65  66
ATOM     66  S   UNL     1       9.458   0.592  17.665  1.00  0.00     0.124 S 
ATOM     67  O   UNL     1       8.178   1.286  17.539  1.00  0.00    -0.237 OA
ATOM     68  O   UNL     1       9.546  -0.367  18.762  1.00  0.00    -0.237 OA
ATOM     69  O   UNL     1      10.640   1.429  17.475  1.00  0.00    -0.744 OA
ENDBRANCH  65  66
ENDBRANCH  46  60
BRANCH  47  70
ATOM     70  C   UNL     1       9.108  -8.078   5.892  1.00  0.00    -0.014 A 
ATOM     71  C   UNL     1       9.099  -9.477   6.038  1.00  0.00     0.010 A 
ATOM     72  C   UNL     1       9.064  -7.527   4.598  1.00  0.00     0.010 A 
ATOM     73  C   UNL     1       9.066 -10.307   4.914  1.00  0.00     0.020 A 
ATOM     74  C   UNL     1       8.999  -8.353   3.473  1.00  0.00     0.020 A 
ATOM     75  C   UNL     1       9.012  -9.739   3.638  1.00  0.00     0.054 A 
BRANCH  75  76
ATOM     76  S   UNL     1       8.918 -10.838   2.197  1.00  0.00     0.124 S 
ATOM     77  O   UNL     1      10.261 -11.407   2.160  1.00  0.00    -0.237 OA
ATOM     78  O   UNL     1       7.849 -11.759   2.575  1.00  0.00    -0.237 OA
ATOM     79  O   UNL     1       8.590  -9.932   1.098  1.00  0.00    -0.744 OA
ENDBRANCH  75  76
ENDBRANCH  47  70
BRANCH  59  80
ATOM     80  C   UNL     1      13.883  -6.892  10.840  1.00  0.00    -0.014 A 
ATOM     81  C   UNL     1      14.977  -6.568  10.019  1.00  0.00     0.010 A 
ATOM     82  C   UNL     1      14.086  -7.723  11.958  1.00  0.00     0.010 A 
ATOM     83  C   UNL     1      16.243  -7.093  10.292  1.00  0.00     0.020 A 
ATOM     84  C   UNL     1      15.356  -8.222  12.253  1.00  0.00     0.020 A 
ATOM     85  C   UNL     1      16.425  -7.915  11.409  1.00  0.00     0.054 A 
BRANCH  85  86
ATOM     86  S   UNL     1      18.087  -8.545  11.766  1.00  0.00     0.124 S 
ATOM     87  O   UNL     1      18.271  -9.534  10.707  1.00  0.00    -0.237 OA
ATOM     88  O   UNL     1      18.913  -7.345  11.656  1.00  0.00    -0.237 OA
ATOM     89  O   UNL     1      17.970  -9.092  13.116  1.00  0.00    -0.744 OA
ENDBRANCH  85  86
ENDBRANCH  59  80
ENDBRANCH  33  34
ENDBRANCH  25  28
ENDBRANCH  23  24
ENDBRANCH  22  23
ENDBRANCH   1  22
TORSDOF 17
