REMARK SMILES CC[C@H](C)[C@@H](NC(=O)[C@@H]1CCCN1C(=O)C1CC1)C(=O)NCCCNC(=O)c1ccc(-c2c3nc(c(-c4ccc(S(=O)(=O)[O-])cc4)c4ccc([nH]4)c(-c4ccc(S(=O)(=O)[O-])cc4)c4nc(c(-c5ccc(S(=O)(=O)[O-])cc5)c5ccc2[nH]5)C=C4)C=C3)cc1
REMARK SMILES IDX 22 1 21 2 19 3 20 4 5 6 3 7 4 8 2 9 1 10 6 11 7 12 8 14 9 15
REMARK SMILES IDX 10 16 13 17 11 18 12 19 14 20 15 21 16 22 17 23 18 24 23 25
REMARK SMILES IDX 24 26 25 27 26 28 27 30 28 31 29 32 87 33 30 34 86 35 31 36
REMARK SMILES IDX 32 37 33 38 80 39 34 40 85 41 79 42 81 43 35 44 84 45 78 46
REMARK SMILES IDX 77 47 36 49 66 50 47 51 65 52 48 53 51 54 64 55 82 56 49 57
REMARK SMILES IDX 50 58 63 60 83 61 52 62 37 63 38 64 46 65 39 66 45 67 40 68
REMARK SMILES IDX 41 69 42 70 43 71 44 72 67 73 68 74 76 75 69 76 75 77 70 78
REMARK SMILES IDX 71 79 72 80 73 81 74 82 53 83 54 84 62 85 55 86 61 87 56 88
REMARK SMILES IDX 57 89 58 90 59 91 60 92
REMARK H PARENT 21 5 6 13 25 29 81 48 51 59
REMARK Flexibility Score: inf
ROOT
ATOM      1  C   UNL     1       3.131   0.589   5.438  1.00  0.00     0.117 C 
ENDROOT
BRANCH   1   2
ATOM      2  N   UNL     1       1.785   0.570   4.884  1.00  0.00    -0.354 N 
ATOM      3  C   UNL     1       0.862  -0.423   5.142  1.00  0.00     0.242 C 
ATOM      4  O   UNL     1       0.565  -0.729   6.299  1.00  0.00    -0.273 OA
ATOM      5  H   UNL     1       1.517   1.310   4.292  1.00  0.00     0.163 HD
BRANCH   3   6
ATOM      6  C   UNL     1       0.082  -1.016   3.923  1.00  0.00     0.174 C 
BRANCH   6   7
ATOM      7  C   UNL     1       0.367  -0.341   2.536  1.00  0.00     0.018 C 
ATOM      8  C   UNL     1      -0.061  -1.169   1.314  1.00  0.00     0.010 C 
BRANCH   7   9
ATOM      9  C   UNL     1      -0.287   1.073   2.416  1.00  0.00     0.002 C 
ATOM     10  C   UNL     1      -1.782   1.151   2.723  1.00  0.00     0.004 C 
ENDBRANCH   7   9
ENDBRANCH   6   7
BRANCH   6  11
ATOM     11  N   UNL     1      -0.305  -2.462   3.841  1.00  0.00    -0.342 N 
ATOM     12  C   UNL     1       0.204  -3.713   3.798  1.00  0.00     0.243 C 
ATOM     13  H   UNL     1      -1.287  -2.522   3.806  1.00  0.00     0.164 HD
ATOM     14  O   UNL     1      -0.551  -4.529   3.235  1.00  0.00    -0.273 OA
BRANCH  12  15
ATOM     15  C   UNL     1       1.402  -4.307   4.571  1.00  0.00     0.174 C 
ATOM     16  C   UNL     1       0.934  -4.684   5.990  1.00  0.00     0.037 C 
ATOM     17  N   UNL     1       2.570  -3.491   4.754  1.00  0.00    -0.330 N 
ATOM     18  C   UNL     1       1.886  -4.005   6.965  1.00  0.00     0.024 C 
ATOM     19  C   UNL     1       2.686  -3.042   6.123  1.00  0.00     0.120 C 
BRANCH  17  20
ATOM     20  C   UNL     1       3.220  -2.878   3.727  1.00  0.00     0.226 C 
ATOM     21  O   UNL     1       3.426  -1.661   3.768  1.00  0.00    -0.275 OA
BRANCH  20  22
ATOM     22  C   UNL     1       3.802  -3.571   2.563  1.00  0.00     0.079 C 
ATOM     23  C   UNL     1       3.691  -4.993   2.119  1.00  0.00     0.014 C 
ATOM     24  C   UNL     1       2.941  -3.921   1.377  1.00  0.00     0.014 C 
ENDBRANCH  20  22
ENDBRANCH  17  20
ENDBRANCH  12  15
ENDBRANCH   6  11
ENDBRANCH   3   6
ENDBRANCH   1   2
BRANCH   1  25
ATOM     25  C   UNL     1       4.172   0.959   4.371  1.00  0.00     0.042 C 
BRANCH  25  26
ATOM     26  C   UNL     1       5.594   0.904   4.903  1.00  0.00     0.118 C 
BRANCH  26  27
ATOM     27  N   UNL     1       6.138  -0.405   5.263  1.00  0.00    -0.352 N 
ATOM     28  C   UNL     1       7.466  -0.676   5.575  1.00  0.00     0.251 C 
ATOM     29  H   UNL     1       5.508  -1.162   5.285  1.00  0.00     0.163 HD
ATOM     30  O   UNL     1       7.868  -1.815   5.776  1.00  0.00    -0.269 OA
BRANCH  28  31
ATOM     31  C   UNL     1       8.409   0.472   5.586  1.00  0.00     0.039 A 
ATOM     32  C   UNL     1       9.512   0.484   4.728  1.00  0.00     0.014 A 
ATOM     33  C   UNL     1       8.058   1.620   6.290  1.00  0.00     0.014 A 
ATOM     34  C   UNL     1      10.170   1.694   4.474  1.00  0.00     0.010 A 
ATOM     35  C   UNL     1       8.606   2.837   5.916  1.00  0.00     0.010 A 
ATOM     36  C   UNL     1       9.672   2.896   5.005  1.00  0.00    -0.014 A 
BRANCH  36  37
ATOM     37  C   UNL     1      10.234   4.231   4.657  1.00  0.00     0.031 A 
ATOM     38  C   UNL     1      10.679   5.154   5.766  1.00  0.00     0.074 A 
ATOM     39  C   UNL     1      10.229   4.671   3.381  1.00  0.00     0.049 A 
ATOM     40  N   UNL     1      11.019   6.416   5.709  1.00  0.00    -0.248 NA
ATOM     41  C   UNL     1      10.676   4.598   7.131  1.00  0.00     0.031 C 
ATOM     42  C   UNL     1       9.755   3.917   2.216  1.00  0.00     0.029 A 
ATOM     43  N   UNL     1      10.627   5.875   2.849  1.00  0.00    -0.354 N 
ATOM     44  C   UNL     1      11.207   6.813   7.029  1.00  0.00     0.074 A 
ATOM     45  C   UNL     1      10.874   5.681   7.864  1.00  0.00     0.031 C 
ATOM     46  C   UNL     1       9.930   4.657   1.108  1.00  0.00     0.029 A 
ATOM     47  C   UNL     1      10.486   5.953   1.482  1.00  0.00     0.049 A 
ATOM     48  H   UNL     1      10.980   6.613   3.395  1.00  0.00     0.167 HD
ATOM     49  C   UNL     1      11.655   7.997   7.510  1.00  0.00     0.031 A 
ATOM     50  C   UNL     1      10.775   6.954   0.625  1.00  0.00     0.031 A 
ATOM     51  C   UNL     1      12.059   9.093   6.674  1.00  0.00     0.049 A 
ATOM     52  C   UNL     1      11.350   8.234   1.169  1.00  0.00     0.074 A 
ATOM     53  C   UNL     1      12.613  10.303   7.048  1.00  0.00     0.029 A 
ATOM     54  N   UNL     1      11.973   9.098   5.290  1.00  0.00    -0.354 N 
ATOM     55  N   UNL     1      11.578   8.569   2.417  1.00  0.00    -0.248 NA
ATOM     56  C   UNL     1      11.721   9.265   0.190  1.00  0.00     0.031 C 
ATOM     57  C   UNL     1      12.839  11.053   5.888  1.00  0.00     0.029 A 
ATOM     58  C   UNL     1      12.464  10.290   4.792  1.00  0.00     0.049 A 
ATOM     59  H   UNL     1      11.615   8.361   4.743  1.00  0.00     0.167 HD
ATOM     60  C   UNL     1      12.145   9.838   2.371  1.00  0.00     0.074 A 
ATOM     61  C   UNL     1      12.235  10.206   0.972  1.00  0.00     0.031 C 
ATOM     62  C   UNL     1      12.554  10.628   3.394  1.00  0.00     0.031 A 
BRANCH  49  63
ATOM     63  C   UNL     1      11.745   8.144   9.007  1.00  0.00    -0.014 A 
ATOM     64  C   UNL     1      12.671   7.394   9.756  1.00  0.00     0.010 A 
ATOM     65  C   UNL     1      10.883   9.030   9.678  1.00  0.00     0.010 A 
ATOM     66  C   UNL     1      12.683   7.471  11.151  1.00  0.00     0.020 A 
ATOM     67  C   UNL     1      10.917   9.137  11.072  1.00  0.00     0.020 A 
ATOM     68  C   UNL     1      11.798   8.335  11.800  1.00  0.00     0.054 A 
BRANCH  68  69
ATOM     69  S   UNL     1      11.825   8.407  13.612  1.00  0.00     0.124 S 
ATOM     70  O   UNL     1      11.130   7.173  13.971  1.00  0.00    -0.237 OA
ATOM     71  O   UNL     1      13.255   8.431  13.912  1.00  0.00    -0.237 OA
ATOM     72  O   UNL     1      11.107   9.640  13.920  1.00  0.00    -0.744 OA
ENDBRANCH  68  69
ENDBRANCH  49  63
BRANCH  50  73
ATOM     73  C   UNL     1      10.575   6.764  -0.839  1.00  0.00    -0.014 A 
ATOM     74  C   UNL     1      11.684   6.582  -1.686  1.00  0.00     0.010 A 
ATOM     75  C   UNL     1       9.283   6.735  -1.394  1.00  0.00     0.010 A 
ATOM     76  C   UNL     1      11.507   6.384  -3.059  1.00  0.00     0.020 A 
ATOM     77  C   UNL     1       9.101   6.513  -2.764  1.00  0.00     0.020 A 
ATOM     78  C   UNL     1      10.215   6.347  -3.589  1.00  0.00     0.054 A 
BRANCH  78  79
ATOM     79  S   UNL     1      10.006   6.018  -5.363  1.00  0.00     0.124 S 
ATOM     80  O   UNL     1      10.409   7.288  -5.957  1.00  0.00    -0.237 OA
ATOM     81  O   UNL     1      10.917   4.898  -5.586  1.00  0.00    -0.237 OA
ATOM     82  O   UNL     1       8.587   5.690  -5.484  1.00  0.00    -0.744 OA
ENDBRANCH  78  79
ENDBRANCH  50  73
BRANCH  62  83
ATOM     83  C   UNL     1      13.173  11.953   3.043  1.00  0.00    -0.014 A 
ATOM     84  C   UNL     1      12.384  13.030   2.606  1.00  0.00     0.010 A 
ATOM     85  C   UNL     1      14.555  12.140   3.230  1.00  0.00     0.010 A 
ATOM     86  C   UNL     1      12.972  14.270   2.340  1.00  0.00     0.020 A 
ATOM     87  C   UNL     1      15.142  13.384   2.988  1.00  0.00     0.020 A 
ATOM     88  C   UNL     1      14.347  14.438   2.534  1.00  0.00     0.054 A 
BRANCH  88  89
ATOM     89  S   UNL     1      15.077  16.072   2.239  1.00  0.00     0.124 S 
ATOM     90  O   UNL     1      15.112  16.129   0.780  1.00  0.00    -0.237 OA
ATOM     91  O   UNL     1      14.121  16.972   2.880  1.00  0.00    -0.237 OA
ATOM     92  O   UNL     1      16.382  15.991   2.892  1.00  0.00    -0.744 OA
ENDBRANCH  88  89
ENDBRANCH  62  83
ENDBRANCH  36  37
ENDBRANCH  28  31
ENDBRANCH  26  27
ENDBRANCH  25  26
ENDBRANCH   1  25
TORSDOF 19
