REMARK SMILES C[C@@H]1CN(C(=O)N[C@@H]2CCCCC[C@@H]2C(=O)NCCCNC(=O)c2ccc(-c3c4nc(c(-c5ccc(S(=O)(=O)[O-])cc5)c5ccc([nH]5)c(-c5ccc(S(=O)(=O)[O-])cc5)c5nc(c(-c6ccc(S(=O)(=O)[O-])cc6)c6ccc3[nH]6)C=C5)C=C4)cc2)C[C@H]1C
REMARK SMILES IDX 19 1 18 2 17 3 15 4 16 5 14 7 8 8 7 9 1 10 2 11 3 12 85 13
REMARK SMILES IDX 4 14 84 15 86 16 5 17 6 18 9 20 10 21 13 23 12 24 11 25
REMARK SMILES IDX 20 27 21 28 22 29 23 31 24 32 25 33 83 34 26 35 82 36 27 37
REMARK SMILES IDX 28 38 29 39 76 40 30 41 81 42 75 43 77 44 31 45 80 46 74 47
REMARK SMILES IDX 73 48 32 50 62 51 43 52 61 53 44 54 47 55 60 56 78 57 45 58
REMARK SMILES IDX 46 59 59 61 79 62 48 63 33 64 34 65 42 66 35 67 41 68 36 69
REMARK SMILES IDX 37 70 38 71 39 72 40 73 63 74 64 75 72 76 65 77 71 78 66 79
REMARK SMILES IDX 67 80 68 81 69 82 70 83 49 84 50 85 58 86 51 87 57 88 52 89
REMARK SMILES IDX 53 90 54 91 55 92 56 93
REMARK H PARENT 17 6 7 19 21 30 77 49 47 60
REMARK Flexibility Score: 90.00
ROOT
ATOM      1  C   UNL     1       3.572   6.926   0.088  1.00  0.00     0.042 C 
ENDROOT
BRANCH   1   2
ATOM      2  C   UNL     1       3.309   5.788  -0.887  1.00  0.00     0.117 C 
BRANCH   2   3
ATOM      3  N   UNL     1       3.397   4.474  -0.278  1.00  0.00    -0.356 N 
ATOM      4  C   UNL     1       2.475   3.473  -0.232  1.00  0.00     0.225 C 
ATOM      5  O   UNL     1       2.890   2.338   0.012  1.00  0.00    -0.275 OA
ATOM      6  H   UNL     1       4.252   4.277   0.170  1.00  0.00     0.163 HD
BRANCH   4   7
ATOM      7  C   UNL     1       0.993   3.779  -0.478  1.00  0.00     0.101 C 
BRANCH   7   8
ATOM      8  C   UNL     1       0.369   4.562   0.728  1.00  0.00     0.096 C 
BRANCH   8   9
ATOM      9  N   UNL     1       0.954   4.481   2.103  1.00  0.00    -0.334 N 
ATOM     10  C   UNL     1       0.745  -0.610   0.964  1.00  0.00     0.010 C 
ATOM     11  C   UNL     1       0.432   0.145   2.253  1.00  0.00     0.010 C 
ATOM     12  C   UNL     1       0.310   1.634   1.992  1.00  0.00     0.125 C 
ATOM     13  C   UNL     1       1.569   0.100   3.282  1.00  0.00     0.010 C 
ATOM     14  N   UNL     1       0.832   2.331   3.116  1.00  0.00    -0.324 N 
ATOM     15  C   UNL     1       1.318   1.374   4.107  1.00  0.00     0.125 C 
ATOM     16  C   UNL     1       1.567  -1.194   4.074  1.00  0.00     0.010 C 
ATOM     17  C   UNL     1       1.141   3.648   3.153  1.00  0.00     0.317 C 
ATOM     18  O   UNL     1       1.647   4.158   4.157  1.00  0.00    -0.249 OA
ATOM     19  H   UNL     1       1.347   5.355   2.325  1.00  0.00     0.165 HD
ENDBRANCH   8   9
BRANCH   8  20
ATOM     20  C   UNL     1      -1.158   4.701   0.792  1.00  0.00     0.026 C 
BRANCH  20  21
ATOM     21  C   UNL     1      -1.868   4.776  -0.559  1.00  0.00     0.002 CG0
ATOM     22  G   UNL     1      -2.151   3.400  -1.147  1.00  0.00     0.000 G0
ENDBRANCH  20  21
ENDBRANCH   8  20
ENDBRANCH   7   8
BRANCH   7  23
ATOM     23  C   UNL     1       0.255   2.547  -1.065  1.00  0.00     0.015 C 
BRANCH  23  24
ATOM     24  C   UNL     1      -0.976   2.819  -1.918  1.00  0.00     0.001 C 
BRANCH  24  25
ATOM     25  C   UNL     1      -2.151   3.400  -1.147  1.00  0.00     0.000 CG0
ATOM     26  G   UNL     1      -1.868   4.776  -0.559  1.00  0.00     0.000 G0
ENDBRANCH  24  25
ENDBRANCH  23  24
ENDBRANCH   7  23
ENDBRANCH   4   7
ENDBRANCH   2   3
ENDBRANCH   1   2
BRANCH   1  27
ATOM     27  C   UNL     1       4.921   6.856   0.797  1.00  0.00     0.118 C 
BRANCH  27  28
ATOM     28  N   UNL     1       6.046   6.781  -0.128  1.00  0.00    -0.352 N 
ATOM     29  C   UNL     1       6.996   7.712  -0.464  1.00  0.00     0.251 C 
ATOM     30  H   UNL     1       6.140   5.917  -0.589  1.00  0.00     0.163 HD
ATOM     31  O   UNL     1       7.729   7.499  -1.431  1.00  0.00    -0.269 OA
BRANCH  29  32
ATOM     32  C   UNL     1       7.132   8.969   0.301  1.00  0.00     0.039 A 
ATOM     33  C   UNL     1       7.358  10.162  -0.393  1.00  0.00     0.014 A 
ATOM     34  C   UNL     1       7.064   8.977   1.695  1.00  0.00     0.014 A 
ATOM     35  C   UNL     1       7.433  11.369   0.308  1.00  0.00     0.010 A 
ATOM     36  C   UNL     1       7.052  10.188   2.384  1.00  0.00     0.010 A 
ATOM     37  C   UNL     1       7.233  11.398   1.698  1.00  0.00    -0.014 A 
BRANCH  37  38
ATOM     38  C   UNL     1       7.184  12.682   2.444  1.00  0.00     0.031 A 
ATOM     39  C   UNL     1       8.194  12.978   3.521  1.00  0.00     0.074 A 
ATOM     40  C   UNL     1       6.185  13.553   2.198  1.00  0.00     0.049 A 
ATOM     41  N   UNL     1       8.272  14.018   4.312  1.00  0.00    -0.248 NA
ATOM     42  C   UNL     1       9.236  11.966   3.757  1.00  0.00     0.031 C 
ATOM     43  C   UNL     1       5.120  13.362   1.209  1.00  0.00     0.029 A 
ATOM     44  N   UNL     1       5.895  14.770   2.762  1.00  0.00    -0.354 N 
ATOM     45  C   UNL     1       9.359  13.780   5.146  1.00  0.00     0.074 A 
ATOM     46  C   UNL     1       9.877  12.475   4.799  1.00  0.00     0.031 C 
ATOM     47  C   UNL     1       4.314  14.435   1.216  1.00  0.00     0.029 A 
ATOM     48  C   UNL     1       4.772  15.368   2.240  1.00  0.00     0.049 A 
ATOM     49  H   UNL     1       6.441  15.177   3.473  1.00  0.00     0.167 HD
ATOM     50  C   UNL     1       9.888  14.581   6.101  1.00  0.00     0.031 A 
ATOM     51  C   UNL     1       4.169  16.531   2.555  1.00  0.00     0.031 A 
ATOM     52  C   UNL     1       9.368  15.880   6.442  1.00  0.00     0.049 A 
ATOM     53  C   UNL     1       4.763  17.394   3.634  1.00  0.00     0.074 A 
ATOM     54  C   UNL     1       9.865  16.792   7.356  1.00  0.00     0.029 A 
ATOM     55  N   UNL     1       8.231  16.450   5.888  1.00  0.00    -0.354 N 
ATOM     56  N   UNL     1       5.834  17.182   4.362  1.00  0.00    -0.248 NA
ATOM     57  C   UNL     1       4.074  18.659   3.926  1.00  0.00     0.031 C 
ATOM     58  C   UNL     1       8.995  17.885   7.401  1.00  0.00     0.029 A 
ATOM     59  C   UNL     1       7.994  17.687   6.463  1.00  0.00     0.049 A 
ATOM     60  H   UNL     1       7.674  16.035   5.190  1.00  0.00     0.167 HD
ATOM     61  C   UNL     1       5.963  18.300   5.179  1.00  0.00     0.074 A 
ATOM     62  C   UNL     1       4.871  19.191   4.843  1.00  0.00     0.031 C 
ATOM     63  C   UNL     1       6.901  18.564   6.121  1.00  0.00     0.031 A 
BRANCH  50  64
ATOM     64  C   UNL     1      11.090  14.072   6.856  1.00  0.00    -0.014 A 
ATOM     65  C   UNL     1      12.338  13.923   6.223  1.00  0.00     0.010 A 
ATOM     66  C   UNL     1      10.983  13.782   8.229  1.00  0.00     0.010 A 
ATOM     67  C   UNL     1      13.444  13.456   6.938  1.00  0.00     0.020 A 
ATOM     68  C   UNL     1      12.095  13.344   8.955  1.00  0.00     0.020 A 
ATOM     69  C   UNL     1      13.315  13.169   8.300  1.00  0.00     0.054 A 
BRANCH  69  70
ATOM     70  S   UNL     1      14.776  12.591   9.206  1.00  0.00     0.124 S 
ATOM     71  O   UNL     1      14.947  11.241   8.673  1.00  0.00    -0.237 OA
ATOM     72  O   UNL     1      15.799  13.555   8.812  1.00  0.00    -0.237 OA
ATOM     73  O   UNL     1      14.366  12.659  10.607  1.00  0.00    -0.744 OA
ENDBRANCH  69  70
ENDBRANCH  50  64
BRANCH  51  74
ATOM     74  C   UNL     1       2.936  16.950   1.831  1.00  0.00    -0.014 A 
ATOM     75  C   UNL     1       2.961  18.045   0.950  1.00  0.00     0.010 A 
ATOM     76  C   UNL     1       1.732  16.244   2.009  1.00  0.00     0.010 A 
ATOM     77  C   UNL     1       1.801  18.439   0.275  1.00  0.00     0.020 A 
ATOM     78  C   UNL     1       0.578  16.615   1.312  1.00  0.00     0.020 A 
ATOM     79  C   UNL     1       0.618  17.718   0.457  1.00  0.00     0.054 A 
BRANCH  79  80
ATOM     80  S   UNL     1      -0.861  18.214  -0.470  1.00  0.00     0.124 S 
ATOM     81  O   UNL     1      -1.239  19.453   0.201  1.00  0.00    -0.237 OA
ATOM     82  O   UNL     1      -0.345  18.361  -1.829  1.00  0.00    -0.237 OA
ATOM     83  O   UNL     1      -1.777  17.091  -0.279  1.00  0.00    -0.744 OA
ENDBRANCH  79  80
ENDBRANCH  51  74
BRANCH  63  84
ATOM     84  C   UNL     1       6.814  19.888   6.835  1.00  0.00    -0.014 A 
ATOM     85  C   UNL     1       5.795  20.152   7.767  1.00  0.00     0.010 A 
ATOM     86  C   UNL     1       7.803  20.863   6.607  1.00  0.00     0.010 A 
ATOM     87  C   UNL     1       5.746  21.381   8.431  1.00  0.00     0.020 A 
ATOM     88  C   UNL     1       7.776  22.080   7.292  1.00  0.00     0.020 A 
ATOM     89  C   UNL     1       6.739  22.337   8.190  1.00  0.00     0.054 A 
BRANCH  89  90
ATOM     90  S   UNL     1       6.676  23.906   9.097  1.00  0.00     0.124 S 
ATOM     91  O   UNL     1       5.546  24.579   8.463  1.00  0.00    -0.237 OA
ATOM     92  O   UNL     1       6.457  23.471  10.474  1.00  0.00    -0.237 OA
ATOM     93  O   UNL     1       7.983  24.508   8.840  1.00  0.00    -0.744 OA
ENDBRANCH  89  90
ENDBRANCH  63  84
ENDBRANCH  37  38
ENDBRANCH  29  32
ENDBRANCH  27  28
ENDBRANCH   1  27
TORSDOF 14
