REMARK SMILES CCCCCCOC(=O)Nc1cccc(-c2ccc([C@@H](C)C(=O)NCCCNC(=O)c3ccc(-c4c5nc(c(-c6ccc(S(=O)(=O)[O-])cc6)c6ccc([nH]6)c(-c6ccc(S(=O)(=O)[O-])cc6)c6nc(c(-c7ccc(S(=O)(=O)[O-])cc7)c7ccc4[nH]7)C=C6)C=C5)cc3)cc2F)c1
REMARK SMILES IDX 20 1 21 2 19 3 16 4 17 5 92 6 18 7 91 8 93 9 15 10 11 11
REMARK SMILES IDX 12 12 94 13 13 14 14 15 10 16 8 17 9 18 7 20 6 21 5 22 4 23
REMARK SMILES IDX 3 24 2 25 1 26 22 27 23 28 24 29 25 31 26 32 27 33 28 34
REMARK SMILES IDX 29 35 30 37 31 38 32 39 90 40 33 41 89 42 34 43 35 44 36 45
REMARK SMILES IDX 83 46 37 47 88 48 82 49 84 50 38 51 87 52 81 53 80 54 39 56
REMARK SMILES IDX 69 57 50 58 68 59 51 60 54 61 67 62 85 63 52 64 53 65 66 67
REMARK SMILES IDX 86 68 55 69 40 70 41 71 49 72 42 73 48 74 43 75 44 76 45 77
REMARK SMILES IDX 46 78 47 79 70 80 71 81 79 82 72 83 78 84 73 85 74 86 75 87
REMARK SMILES IDX 76 88 77 89 56 90 57 91 65 92 58 93 64 94 59 95 60 96 61 97
REMARK SMILES IDX 62 98 63 99
REMARK H PARENT 10 19 24 30 28 36 84 55 54 66
REMARK Flexibility Score: inf
ROOT
ATOM      1  C   UNL     1      -6.170   7.045  -8.448  1.00  0.00     0.105 C 
ATOM      2  C   UNL     1      -6.895   7.468  -9.725  1.00  0.00     0.023 C 
ENDROOT
BRANCH   1   3
ATOM      3  C   UNL     1      -5.019   6.071  -8.632  1.00  0.00    -0.033 A 
ATOM      4  C   UNL     1      -2.862   4.192  -8.766  1.00  0.00     0.018 A 
ATOM      5  C   UNL     1      -4.045   4.007  -9.496  1.00  0.00     0.012 A 
ATOM      6  C   UNL     1      -2.773   5.372  -8.009  1.00  0.00     0.131 A 
ATOM      7  C   UNL     1      -5.088   4.944  -9.456  1.00  0.00     0.005 A 
ATOM      8  C   UNL     1      -3.830   6.281  -7.921  1.00  0.00     0.044 A 
ATOM      9  F   UNL     1      -1.651   5.672  -7.335  1.00  0.00    -0.206 F 
BRANCH   4  10
ATOM     10  C   UNL     1      -1.780   3.183  -8.789  1.00  0.00    -0.013 A 
ATOM     11  C   UNL     1       0.044   2.009  -7.646  1.00  0.00     0.045 A 
ATOM     12  C   UNL     1       0.380   1.356  -8.828  1.00  0.00     0.026 A 
ATOM     13  C   UNL     1      -1.036   2.899  -7.630  1.00  0.00     0.035 A 
ATOM     14  C   UNL     1      -0.383   1.565  -9.974  1.00  0.00     0.003 A 
ATOM     15  C   UNL     1      -1.443   2.478  -9.957  1.00  0.00     0.009 A 
BRANCH  11  16
ATOM     16  N   UNL     1       0.876   1.846  -6.530  1.00  0.00    -0.291 N 
ATOM     17  C   UNL     1       0.564   2.074  -5.217  1.00  0.00     0.411 C 
ATOM     18  O   UNL     1       1.423   2.363  -4.400  1.00  0.00    -0.224 OA
ATOM     19  H   UNL     1       1.791   1.531  -6.712  1.00  0.00     0.173 HD
BRANCH  17  20
ATOM     20  O   UNL     1      -0.742   1.822  -4.934  1.00  0.00    -0.449 OA
BRANCH  20  21
ATOM     21  C   UNL     1      -1.151   1.829  -3.558  1.00  0.00     0.235 C 
BRANCH  21  22
ATOM     22  C   UNL     1      -0.913   0.479  -2.872  1.00  0.00     0.042 C 
BRANCH  22  23
ATOM     23  C   UNL     1       0.542   0.164  -2.503  1.00  0.00     0.003 C 
BRANCH  23  24
ATOM     24  C   UNL     1       1.205   1.171  -1.554  1.00  0.00    -0.000 C 
BRANCH  24  25
ATOM     25  C   UNL     1       0.660   1.169  -0.126  1.00  0.00    -0.003 C 
ATOM     26  C   UNL     1       1.025  -0.093   0.639  1.00  0.00     0.004 C 
ENDBRANCH  24  25
ENDBRANCH  23  24
ENDBRANCH  22  23
ENDBRANCH  21  22
ENDBRANCH  20  21
ENDBRANCH  17  20
ENDBRANCH  11  16
ENDBRANCH   4  10
ENDBRANCH   1   3
BRANCH   1  27
ATOM     27  C   UNL     1      -7.099   6.684  -7.279  1.00  0.00     0.227 C 
ATOM     28  O   UNL     1      -7.050   7.339  -6.230  1.00  0.00    -0.274 OA
ATOM     29  N   UNL     1      -8.008   5.672  -7.314  1.00  0.00    -0.356 N 
ATOM     30  H   UNL     1      -8.554   5.594  -6.498  1.00  0.00     0.163 HD
BRANCH  29  31
ATOM     31  C   UNL     1      -8.322   4.688  -8.331  1.00  0.00     0.117 C 
BRANCH  31  32
ATOM     32  C   UNL     1      -7.674   3.333  -8.057  1.00  0.00     0.042 C 
BRANCH  32  33
ATOM     33  C   UNL     1      -8.438   2.464  -7.063  1.00  0.00     0.118 C 
BRANCH  33  34
ATOM     34  N   UNL     1      -9.723   2.025  -7.590  1.00  0.00    -0.352 N 
ATOM     35  C   UNL     1     -10.210   0.769  -7.853  1.00  0.00     0.251 C 
ATOM     36  H   UNL     1     -10.350   2.756  -7.794  1.00  0.00     0.163 HD
ATOM     37  O   UNL     1     -11.248   0.671  -8.505  1.00  0.00    -0.269 OA
BRANCH  35  38
ATOM     38  C   UNL     1      -9.521  -0.456  -7.382  1.00  0.00     0.039 A 
ATOM     39  C   UNL     1      -9.579  -1.601  -8.184  1.00  0.00     0.014 A 
ATOM     40  C   UNL     1      -8.884  -0.521  -6.139  1.00  0.00     0.014 A 
ATOM     41  C   UNL     1      -8.964  -2.784  -7.767  1.00  0.00     0.010 A 
ATOM     42  C   UNL     1      -8.202  -1.679  -5.758  1.00  0.00     0.010 A 
ATOM     43  C   UNL     1      -8.243  -2.826  -6.562  1.00  0.00    -0.014 A 
BRANCH  43  44
ATOM     44  C   UNL     1      -7.527  -4.062  -6.148  1.00  0.00     0.031 A 
ATOM     45  C   UNL     1      -7.932  -4.808  -4.904  1.00  0.00     0.074 A 
ATOM     46  C   UNL     1      -6.481  -4.495  -6.880  1.00  0.00     0.049 A 
ATOM     47  N   UNL     1      -7.425  -5.905  -4.400  1.00  0.00    -0.248 NA
ATOM     48  C   UNL     1      -9.035  -4.240  -4.112  1.00  0.00     0.031 C 
ATOM     49  C   UNL     1      -5.955  -3.834  -8.077  1.00  0.00     0.029 A 
ATOM     50  N   UNL     1      -5.674  -5.595  -6.729  1.00  0.00    -0.354 N 
ATOM     51  C   UNL     1      -8.134  -6.150  -3.229  1.00  0.00     0.074 A 
ATOM     52  C   UNL     1      -9.075  -5.062  -3.073  1.00  0.00     0.031 C 
ATOM     53  C   UNL     1      -4.939  -4.559  -8.570  1.00  0.00     0.029 A 
ATOM     54  C   UNL     1      -4.716  -5.715  -7.708  1.00  0.00     0.049 A 
ATOM     55  H   UNL     1      -5.771  -6.237  -5.989  1.00  0.00     0.167 HD
ATOM     56  C   UNL     1      -8.027  -7.194  -2.372  1.00  0.00     0.031 A 
ATOM     57  C   UNL     1      -3.766  -6.651  -7.897  1.00  0.00     0.031 A 
ATOM     58  C   UNL     1      -7.096  -8.281  -2.534  1.00  0.00     0.049 A 
ATOM     59  C   UNL     1      -3.672  -7.804  -6.939  1.00  0.00     0.074 A 
ATOM     60  C   UNL     1      -6.952  -9.415  -1.753  1.00  0.00     0.029 A 
ATOM     61  N   UNL     1      -6.149  -8.368  -3.542  1.00  0.00    -0.354 N 
ATOM     62  N   UNL     1      -4.403  -8.055  -5.879  1.00  0.00    -0.248 NA
ATOM     63  C   UNL     1      -2.635  -8.808  -7.210  1.00  0.00     0.031 C 
ATOM     64  C   UNL     1      -5.885 -10.164  -2.262  1.00  0.00     0.029 A 
ATOM     65  C   UNL     1      -5.400  -9.524  -3.391  1.00  0.00     0.049 A 
ATOM     66  H   UNL     1      -6.026  -7.706  -4.261  1.00  0.00     0.167 HD
ATOM     67  C   UNL     1      -3.925  -9.255  -5.366  1.00  0.00     0.074 A 
ATOM     68  C   UNL     1      -2.858  -9.690  -6.245  1.00  0.00     0.031 C 
ATOM     69  C   UNL     1      -4.331  -9.936  -4.266  1.00  0.00     0.031 A 
BRANCH  56  70
ATOM     70  C   UNL     1      -8.942  -7.209  -1.174  1.00  0.00    -0.014 A 
ATOM     71  C   UNL     1     -10.323  -7.437  -1.318  1.00  0.00     0.010 A 
ATOM     72  C   UNL     1      -8.411  -7.032   0.117  1.00  0.00     0.010 A 
ATOM     73  C   UNL     1     -11.161  -7.443  -0.199  1.00  0.00     0.020 A 
ATOM     74  C   UNL     1      -9.242  -7.065   1.241  1.00  0.00     0.020 A 
ATOM     75  C   UNL     1     -10.615  -7.252   1.073  1.00  0.00     0.054 A 
BRANCH  75  76
ATOM     76  S   UNL     1     -11.724  -7.280   2.509  1.00  0.00     0.124 S 
ATOM     77  O   UNL     1     -12.409  -5.996   2.385  1.00  0.00    -0.237 OA
ATOM     78  O   UNL     1     -12.550  -8.458   2.254  1.00  0.00    -0.237 OA
ATOM     79  O   UNL     1     -10.816  -7.395   3.647  1.00  0.00    -0.744 OA
ENDBRANCH  75  76
ENDBRANCH  56  70
BRANCH  57  80
ATOM     80  C   UNL     1      -2.841  -6.541  -9.058  1.00  0.00    -0.014 A 
ATOM     81  C   UNL     1      -2.958  -7.420 -10.149  1.00  0.00     0.010 A 
ATOM     82  C   UNL     1      -1.856  -5.537  -9.089  1.00  0.00     0.010 A 
ATOM     83  C   UNL     1      -2.098  -7.304 -11.246  1.00  0.00     0.020 A 
ATOM     84  C   UNL     1      -1.013  -5.402 -10.195  1.00  0.00     0.020 A 
ATOM     85  C   UNL     1      -1.133  -6.294 -11.263  1.00  0.00     0.054 A 
BRANCH  85  86
ATOM     86  S   UNL     1      -0.072  -6.118 -12.725  1.00  0.00     0.124 S 
ATOM     87  O   UNL     1       0.861  -7.228 -12.558  1.00  0.00    -0.237 OA
ATOM     88  O   UNL     1      -1.024  -6.250 -13.825  1.00  0.00    -0.237 OA
ATOM     89  O   UNL     1       0.504  -4.784 -12.569  1.00  0.00    -0.744 OA
ENDBRANCH  85  86
ENDBRANCH  57  80
BRANCH  69  90
ATOM     90  C   UNL     1      -3.627 -11.231  -3.961  1.00  0.00    -0.014 A 
ATOM     91  C   UNL     1      -2.307 -11.244  -3.476  1.00  0.00     0.010 A 
ATOM     92  C   UNL     1      -4.308 -12.450  -4.132  1.00  0.00     0.010 A 
ATOM     93  C   UNL     1      -1.666 -12.456  -3.208  1.00  0.00     0.020 A 
ATOM     94  C   UNL     1      -3.679 -13.663  -3.838  1.00  0.00     0.020 A 
ATOM     95  C   UNL     1      -2.354 -13.658  -3.395  1.00  0.00     0.054 A 
BRANCH  95  96
ATOM     96  S   UNL     1      -1.509 -15.217  -3.016  1.00  0.00     0.124 S 
ATOM     97  O   UNL     1      -0.611 -15.360  -4.158  1.00  0.00    -0.237 OA
ATOM     98  O   UNL     1      -0.861 -14.931  -1.738  1.00  0.00    -0.237 OA
ATOM     99  O   UNL     1      -2.595 -16.193  -2.952  1.00  0.00    -0.744 OA
ENDBRANCH  95  96
ENDBRANCH  69  90
ENDBRANCH  43  44
ENDBRANCH  35  38
ENDBRANCH  33  34
ENDBRANCH  32  33
ENDBRANCH  31  32
ENDBRANCH  29  31
ENDBRANCH   1  27
TORSDOF 22
