REMARK SMILES C[C@H]1[C@@H](C(=O)NCCCNC(=O)c2ccc(-c3c4nc(c(-c5ccc(S(=O)(=O)[O-])cc5)c5ccc([nH]5)c(-c5ccc(S(=O)(=O)[O-])cc5)c5nc(c(-c6ccc(S(=O)(=O)[O-])cc6)c6ccc3[nH]6)C=C5)C=C4)cc2)CCN1C(=O)N[C@@H]1CC[N@H+]2CCCC[C@H]12
REMARK SMILES IDX 8 1 7 2 6 3 4 4 5 5 3 7 1 8 2 9 75 10 73 11 74 12 76 13
REMARK SMILES IDX 77 14 78 15 79 17 80 18 87 19 81 20 82 21 86 22 83 23 85 25
REMARK SMILES IDX 84 26 9 27 10 28 11 29 12 31 13 32 14 33 72 34 15 35 71 36
REMARK SMILES IDX 16 37 17 38 18 39 65 40 19 41 70 42 64 43 66 44 20 45 69 46
REMARK SMILES IDX 63 47 62 48 21 50 51 51 32 52 50 53 33 54 36 55 49 56 67 57
REMARK SMILES IDX 34 58 35 59 48 61 68 62 37 63 22 64 23 65 31 66 24 67 30 68
REMARK SMILES IDX 25 69 26 70 27 71 28 72 29 73 52 74 53 75 61 76 54 77 60 78
REMARK SMILES IDX 55 79 56 80 57 81 58 82 59 83 38 84 39 85 47 86 40 87 46 88
REMARK SMILES IDX 41 89 42 90 43 91 44 92 45 93
REMARK H PARENT 6 6 78 16 82 24 10 30 66 49 36 60
REMARK Flexibility Score: inf
ROOT
ATOM      1  C   UNL     1      -0.005  -1.073  -2.318  1.00  0.00     0.042 C 
ENDROOT
BRANCH   1   2
ATOM      2  C   UNL     1      -0.900  -2.113  -1.635  1.00  0.00     0.117 C 
BRANCH   2   3
ATOM      3  N   UNL     1      -0.790  -3.424  -2.261  1.00  0.00    -0.356 N 
ATOM      4  C   UNL     1      -0.211  -4.592  -1.856  1.00  0.00     0.225 C 
ATOM      5  O   UNL     1      -0.302  -5.544  -2.635  1.00  0.00    -0.275 OA
ATOM      6  H   UNL     1      -1.215  -3.478  -3.147  1.00  0.00     0.163 HD
BRANCH   4   7
ATOM      7  C   UNL     1       0.430  -4.745  -0.477  1.00  0.00     0.102 C 
ATOM      8  C   UNL     1       2.377  -3.188  -1.252  1.00  0.00     0.032 C 
ATOM      9  C   UNL     1       1.575  -3.785  -0.100  1.00  0.00     0.096 C 
ATOM     10  N   UNL     1       2.485  -4.573   0.719  1.00  0.00    -0.321 N 
ATOM     11  C   UNL     1       1.006  -6.157  -0.212  1.00  0.00     0.037 C 
ATOM     12  C   UNL     1       2.436  -5.945   0.254  1.00  0.00     0.122 C 
BRANCH  10  13
ATOM     13  C   UNL     1       3.586  -4.150   1.413  1.00  0.00     0.318 C 
ATOM     14  O   UNL     1       4.498  -4.930   1.698  1.00  0.00    -0.249 OA
ATOM     15  N   UNL     1       3.757  -2.858   1.768  1.00  0.00    -0.329 N 
ATOM     16  H   UNL     1       4.700  -2.636   1.942  1.00  0.00     0.165 HD
BRANCH  15  17
ATOM     17  C   UNL     1       2.869  -1.716   1.954  1.00  0.00     0.147 C 
ATOM     18  C   UNL     1       3.119  -0.599   0.922  1.00  0.00     0.092 C 
ATOM     19  C   UNL     1       3.019  -0.988   3.308  1.00  0.00     0.207 C 
ATOM     20  C   UNL     1       3.109   0.702   1.715  1.00  0.00     0.264 C 
ATOM     21  N   UNL     1       3.692   0.272   2.973  1.00  0.00    -0.331 N 
ATOM     22  C   UNL     1       3.780  -1.673   4.435  1.00  0.00     0.067 C 
ATOM     23  C   UNL     1       3.588   1.236   4.061  1.00  0.00     0.262 C 
ATOM     24  H   UNL     1       4.700   0.165   2.856  1.00  0.00     0.348 HD
ATOM     25  C   UNL     1       3.796  -0.749   5.658  1.00  0.00     0.012 C 
ATOM     26  C   UNL     1       4.287   0.660   5.300  1.00  0.00     0.062 C 
ENDBRANCH  15  17
ENDBRANCH  10  13
ENDBRANCH   4   7
ENDBRANCH   2   3
ENDBRANCH   1   2
BRANCH   1  27
ATOM     27  C   UNL     1      -0.506  -0.552  -3.660  1.00  0.00     0.118 C 
BRANCH  27  28
ATOM     28  N   UNL     1      -1.200   0.714  -3.533  1.00  0.00    -0.352 N 
ATOM     29  C   UNL     1      -0.788   2.018  -3.672  1.00  0.00     0.251 C 
ATOM     30  H   UNL     1      -2.152   0.622  -3.302  1.00  0.00     0.163 HD
ATOM     31  O   UNL     1      -1.563   2.890  -3.274  1.00  0.00    -0.269 OA
BRANCH  29  32
ATOM     32  C   UNL     1       0.524   2.432  -4.253  1.00  0.00     0.039 A 
ATOM     33  C   UNL     1       1.049   3.671  -3.852  1.00  0.00     0.014 A 
ATOM     34  C   UNL     1       1.196   1.728  -5.254  1.00  0.00     0.014 A 
ATOM     35  C   UNL     1       2.219   4.182  -4.431  1.00  0.00     0.010 A 
ATOM     36  C   UNL     1       2.416   2.194  -5.767  1.00  0.00     0.010 A 
ATOM     37  C   UNL     1       2.929   3.443  -5.388  1.00  0.00    -0.014 A 
BRANCH  37  38
ATOM     38  C   UNL     1       4.162   3.990  -6.030  1.00  0.00     0.031 A 
ATOM     39  C   UNL     1       4.208   4.243  -7.520  1.00  0.00     0.074 A 
ATOM     40  C   UNL     1       5.258   4.245  -5.286  1.00  0.00     0.049 A 
ATOM     41  N   UNL     1       5.197   4.692  -8.254  1.00  0.00    -0.248 NA
ATOM     42  C   UNL     1       2.992   3.932  -8.289  1.00  0.00     0.031 C 
ATOM     43  C   UNL     1       5.376   4.017  -3.845  1.00  0.00     0.029 A 
ATOM     44  N   UNL     1       6.485   4.753  -5.641  1.00  0.00    -0.354 N 
ATOM     45  C   UNL     1       4.732   4.696  -9.565  1.00  0.00     0.074 A 
ATOM     46  C   UNL     1       3.389   4.159  -9.533  1.00  0.00     0.031 C 
ATOM     47  C   UNL     1       6.594   4.408  -3.435  1.00  0.00     0.029 A 
ATOM     48  C   UNL     1       7.358   4.881  -4.585  1.00  0.00     0.049 A 
ATOM     49  H   UNL     1       6.718   5.002  -6.565  1.00  0.00     0.167 HD
ATOM     50  C   UNL     1       5.349   5.126 -10.694  1.00  0.00     0.031 A 
ATOM     51  C   UNL     1       8.630   5.326  -4.540  1.00  0.00     0.031 A 
ATOM     52  C   UNL     1       6.677   5.680 -10.734  1.00  0.00     0.049 A 
ATOM     53  C   UNL     1       9.292   5.810  -5.801  1.00  0.00     0.074 A 
ATOM     54  C   UNL     1       7.366   6.187 -11.822  1.00  0.00     0.029 A 
ATOM     55  N   UNL     1       7.516   5.805  -9.638  1.00  0.00    -0.354 N 
ATOM     56  N   UNL     1       8.811   5.851  -7.020  1.00  0.00    -0.248 NA
ATOM     57  C   UNL     1      10.664   6.322  -5.675  1.00  0.00     0.031 C 
ATOM     58  C   UNL     1       8.639   6.580 -11.392  1.00  0.00     0.029 A 
ATOM     59  C   UNL     1       8.723   6.366 -10.026  1.00  0.00     0.049 A 
ATOM     60  H   UNL     1       7.289   5.534  -8.719  1.00  0.00     0.167 HD
ATOM     61  C   UNL     1       9.815   6.410  -7.804  1.00  0.00     0.074 A 
ATOM     62  C   UNL     1      10.920   6.711  -6.917  1.00  0.00     0.031 C 
ATOM     63  C   UNL     1       9.821   6.652  -9.138  1.00  0.00     0.031 A 
BRANCH  50  64
ATOM     64  C   UNL     1       4.584   5.011 -11.990  1.00  0.00    -0.014 A 
ATOM     65  C   UNL     1       3.472   5.832 -12.251  1.00  0.00     0.010 A 
ATOM     66  C   UNL     1       5.000   4.093 -12.972  1.00  0.00     0.010 A 
ATOM     67  C   UNL     1       2.758   5.700 -13.445  1.00  0.00     0.020 A 
ATOM     68  C   UNL     1       4.305   3.978 -14.180  1.00  0.00     0.020 A 
ATOM     69  C   UNL     1       3.175   4.769 -14.400  1.00  0.00     0.054 A 
BRANCH  69  70
ATOM     70  S   UNL     1       2.232   4.622 -15.943  1.00  0.00     0.124 S 
ATOM     71  O   UNL     1       1.035   3.913 -15.496  1.00  0.00    -0.237 OA
ATOM     72  O   UNL     1       2.028   6.015 -16.330  1.00  0.00    -0.237 OA
ATOM     73  O   UNL     1       3.118   3.858 -16.819  1.00  0.00    -0.744 OA
ENDBRANCH  69  70
ENDBRANCH  50  64
BRANCH  51  74
ATOM     74  C   UNL     1       9.357   5.349  -3.241  1.00  0.00    -0.014 A 
ATOM     75  C   UNL     1       9.622   6.568  -2.592  1.00  0.00     0.010 A 
ATOM     76  C   UNL     1       9.767   4.148  -2.634  1.00  0.00     0.010 A 
ATOM     77  C   UNL     1      10.292   6.586  -1.365  1.00  0.00     0.020 A 
ATOM     78  C   UNL     1      10.413   4.160  -1.395  1.00  0.00     0.020 A 
ATOM     79  C   UNL     1      10.679   5.381  -0.771  1.00  0.00     0.054 A 
BRANCH  79  80
ATOM     80  S   UNL     1      11.484   5.424   0.855  1.00  0.00     0.124 S 
ATOM     81  O   UNL     1      12.828   5.880   0.516  1.00  0.00    -0.237 OA
ATOM     82  O   UNL     1      10.658   6.378   1.591  1.00  0.00    -0.237 OA
ATOM     83  O   UNL     1      11.387   4.042   1.319  1.00  0.00    -0.744 OA
ENDBRANCH  79  80
ENDBRANCH  51  74
BRANCH  63  84
ATOM     84  C   UNL     1      11.053   7.293  -9.719  1.00  0.00    -0.014 A 
ATOM     85  C   UNL     1      12.253   6.572  -9.856  1.00  0.00     0.010 A 
ATOM     86  C   UNL     1      11.001   8.627 -10.164  1.00  0.00     0.010 A 
ATOM     87  C   UNL     1      13.390   7.187 -10.389  1.00  0.00     0.020 A 
ATOM     88  C   UNL     1      12.127   9.236 -10.722  1.00  0.00     0.020 A 
ATOM     89  C   UNL     1      13.321   8.517 -10.815  1.00  0.00     0.054 A 
BRANCH  89  90
ATOM     90  S   UNL     1      14.802   9.287 -11.525  1.00  0.00     0.124 S 
ATOM     91  O   UNL     1      15.611   9.542 -10.337  1.00  0.00    -0.237 OA
ATOM     92  O   UNL     1      15.308   8.248 -12.419  1.00  0.00    -0.237 OA
ATOM     93  O   UNL     1      14.285  10.479 -12.195  1.00  0.00    -0.744 OA
ENDBRANCH  89  90
ENDBRANCH  63  84
ENDBRANCH  37  38
ENDBRANCH  29  32
ENDBRANCH  27  28
ENDBRANCH   1  27
TORSDOF 15
