REMARK SMILES NS(=O)(=O)c1ccc(/N=N/c2ccc(O)c(C(=O)NCCCNC(=O)c3ccc(-c4c5nc(c(-c6ccc(S(=O)(=O)[O-])cc6)c6ccc([nH]6)c(-c6ccc(S(=O)(=O)[O-])cc6)c6nc(c(-c7ccc(S(=O)(=O)[O-])cc7)c7ccc4[nH]7)C=C6)C=C5)cc3)c2)cc1
REMARK SMILES IDX 20 1 19 2 17 3 18 4 16 6 11 7 12 8 86 9 13 10 14 11 10 12
REMARK SMILES IDX 9 13 8 14 5 15 6 16 88 17 7 18 87 19 2 20 3 21 4 22 1 23
REMARK SMILES IDX 15 26 21 28 22 29 23 30 24 31 25 33 26 34 27 35 85 36 28 37
REMARK SMILES IDX 84 38 29 39 30 40 31 41 78 42 32 43 83 44 77 45 79 46 33 47
REMARK SMILES IDX 82 48 76 49 75 50 34 52 64 53 45 54 63 55 46 56 49 57 62 58
REMARK SMILES IDX 80 59 47 60 48 61 61 63 81 64 50 65 35 66 36 67 44 68 37 69
REMARK SMILES IDX 43 70 38 71 39 72 40 73 41 74 42 75 65 76 66 77 74 78 67 79
REMARK SMILES IDX 73 80 68 81 69 82 70 83 71 84 72 85 51 86 52 87 60 88 53 89
REMARK SMILES IDX 59 90 54 91 55 92 56 93 57 94 58 95
REMARK H PARENT 19 5 1 24 1 25 15 27 23 32 79 51 49 62
REMARK Flexibility Score: inf
ROOT
ATOM      1  C   UNL     1       3.985  -8.175   3.456  1.00  0.00     0.118 C 
ENDROOT
BRANCH   1   2
ATOM      2  N   UNL     1       4.217  -9.230   4.439  1.00  0.00    -0.352 N 
ATOM      3  C   UNL     1       3.974  -9.330   5.789  1.00  0.00     0.255 C 
ATOM      4  O   UNL     1       4.367 -10.338   6.382  1.00  0.00    -0.269 OA
ATOM      5  H   UNL     1       4.633 -10.036   4.056  1.00  0.00     0.163 HD
BRANCH   3   6
ATOM      6  C   UNL     1       3.329  -8.263   6.596  1.00  0.00     0.083 A 
ATOM      7  C   UNL     1       2.018  -6.216   6.731  1.00  0.00     0.087 A 
ATOM      8  C   UNL     1       2.397  -6.064   8.067  1.00  0.00     0.034 A 
ATOM      9  C   UNL     1       2.395  -7.385   6.053  1.00  0.00     0.048 A 
ATOM     10  C   UNL     1       3.192  -7.030   8.688  1.00  0.00     0.049 A 
ATOM     11  C   UNL     1       3.675  -8.109   7.947  1.00  0.00     0.128 A 
BRANCH   7  12
ATOM     12  N   UNL     1       1.347  -5.165   6.063  1.00  0.00    -0.151 NA
ATOM     13  N   UNL     1       1.917  -4.959   4.965  1.00  0.00    -0.151 NA
BRANCH  13  14
ATOM     14  C   UNL     1       1.449  -3.818   4.300  1.00  0.00     0.086 A 
ATOM     15  C   UNL     1       0.769  -1.549   2.808  1.00  0.00     0.082 A 
ATOM     16  C   UNL     1       0.531  -2.821   2.280  1.00  0.00     0.024 A 
ATOM     17  C   UNL     1       1.338  -1.399   4.075  1.00  0.00     0.024 A 
ATOM     18  C   UNL     1       0.881  -3.950   3.026  1.00  0.00     0.031 A 
ATOM     19  C   UNL     1       1.679  -2.534   4.814  1.00  0.00     0.031 A 
BRANCH  15  20
ATOM     20  S   UNL     1       0.335  -0.120   1.857  1.00  0.00     0.238 S 
ATOM     21  O   UNL     1       0.773   1.063   2.552  1.00  0.00    -0.207 OA
ATOM     22  O   UNL     1      -1.025  -0.289   1.392  1.00  0.00    -0.207 OA
BRANCH  20  23
ATOM     23  N   UNL     1       1.322  -0.269   0.509  1.00  0.00    -0.225 NA
ATOM     24  H   UNL     1       1.156   0.515  -0.122  1.00  0.00     0.137 HD
ATOM     25  H   UNL     1       1.112  -1.143   0.028  1.00  0.00     0.137 HD
ENDBRANCH  20  23
ENDBRANCH  15  20
ENDBRANCH  13  14
ENDBRANCH   7  12
BRANCH  11  26
ATOM     26  O   UNL     1       4.492  -8.983   8.616  1.00  0.00    -0.507 OA
ATOM     27  H   UNL     1       4.694  -8.837   9.519  1.00  0.00     0.293 HD
ENDBRANCH  11  26
ENDBRANCH   3   6
ENDBRANCH   1   2
BRANCH   1  28
ATOM     28  C   UNL     1       5.254  -7.629   2.817  1.00  0.00     0.042 C 
BRANCH  28  29
ATOM     29  C   UNL     1       6.005  -8.619   1.939  1.00  0.00     0.118 C 
BRANCH  29  30
ATOM     30  N   UNL     1       5.227  -9.059   0.787  1.00  0.00    -0.352 N 
ATOM     31  C   UNL     1       5.288  -8.705  -0.540  1.00  0.00     0.251 C 
ATOM     32  H   UNL     1       4.536  -9.728   0.996  1.00  0.00     0.163 HD
ATOM     33  O   UNL     1       4.380  -9.061  -1.289  1.00  0.00    -0.269 OA
BRANCH  31  34
ATOM     34  C   UNL     1       6.405  -7.893  -1.077  1.00  0.00     0.039 A 
ATOM     35  C   UNL     1       6.138  -6.944  -2.071  1.00  0.00     0.014 A 
ATOM     36  C   UNL     1       7.720  -8.092  -0.656  1.00  0.00     0.014 A 
ATOM     37  C   UNL     1       7.172  -6.151  -2.581  1.00  0.00     0.010 A 
ATOM     38  C   UNL     1       8.731  -7.240  -1.093  1.00  0.00     0.010 A 
ATOM     39  C   UNL     1       8.472  -6.265  -2.066  1.00  0.00    -0.014 A 
BRANCH  39  40
ATOM     40  C   UNL     1       9.588  -5.404  -2.541  1.00  0.00     0.031 A 
ATOM     41  C   UNL     1      10.797  -6.032  -3.186  1.00  0.00     0.074 A 
ATOM     42  C   UNL     1       9.557  -4.075  -2.318  1.00  0.00     0.049 A 
ATOM     43  N   UNL     1      11.931  -5.478  -3.531  1.00  0.00    -0.248 NA
ATOM     44  C   UNL     1      10.732  -7.479  -3.450  1.00  0.00     0.031 C 
ATOM     45  C   UNL     1       8.460  -3.344  -1.679  1.00  0.00     0.029 A 
ATOM     46  N   UNL     1      10.485  -3.101  -2.595  1.00  0.00    -0.354 N 
ATOM     47  C   UNL     1      12.723  -6.511  -4.022  1.00  0.00     0.074 A 
ATOM     48  C   UNL     1      11.957  -7.730  -3.887  1.00  0.00     0.031 C 
ATOM     49  C   UNL     1       8.768  -2.037  -1.637  1.00  0.00     0.029 A 
ATOM     50  C   UNL     1      10.099  -1.842  -2.200  1.00  0.00     0.049 A 
ATOM     51  H   UNL     1      11.345  -3.287  -3.036  1.00  0.00     0.167 HD
ATOM     52  C   UNL     1      13.966  -6.450  -4.557  1.00  0.00     0.031 A 
ATOM     53  C   UNL     1      10.749  -0.663  -2.272  1.00  0.00     0.031 A 
ATOM     54  C   UNL     1      14.716  -5.233  -4.717  1.00  0.00     0.049 A 
ATOM     55  C   UNL     1      12.128  -0.620  -2.870  1.00  0.00     0.074 A 
ATOM     56  C   UNL     1      15.969  -5.061  -5.279  1.00  0.00     0.029 A 
ATOM     57  N   UNL     1      14.275  -3.978  -4.327  1.00  0.00    -0.354 N 
ATOM     58  N   UNL     1      12.849  -1.605  -3.349  1.00  0.00    -0.248 NA
ATOM     59  C   UNL     1      12.778   0.696  -2.943  1.00  0.00     0.031 C 
ATOM     60  C   UNL     1      16.298  -3.703  -5.204  1.00  0.00     0.029 A 
ATOM     61  C   UNL     1      15.231  -3.026  -4.635  1.00  0.00     0.049 A 
ATOM     62  H   UNL     1      13.410  -3.791  -3.896  1.00  0.00     0.167 HD
ATOM     63  C   UNL     1      14.024  -1.023  -3.810  1.00  0.00     0.074 A 
ATOM     64  C   UNL     1      13.914   0.400  -3.560  1.00  0.00     0.031 C 
ATOM     65  C   UNL     1      15.098  -1.613  -4.391  1.00  0.00     0.031 A 
BRANCH  52  66
ATOM     66  C   UNL     1      14.587  -7.743  -5.016  1.00  0.00    -0.014 A 
ATOM     67  C   UNL     1      14.104  -8.409  -6.157  1.00  0.00     0.010 A 
ATOM     68  C   UNL     1      15.680  -8.286  -4.317  1.00  0.00     0.010 A 
ATOM     69  C   UNL     1      14.672  -9.619  -6.563  1.00  0.00     0.020 A 
ATOM     70  C   UNL     1      16.270  -9.482  -4.737  1.00  0.00     0.020 A 
ATOM     71  C   UNL     1      15.748 -10.151  -5.846  1.00  0.00     0.054 A 
BRANCH  71  72
ATOM     72  S   UNL     1      16.474 -11.717  -6.403  1.00  0.00     0.124 S 
ATOM     73  O   UNL     1      15.475 -12.686  -5.959  1.00  0.00    -0.237 OA
ATOM     74  O   UNL     1      16.569 -11.533  -7.849  1.00  0.00    -0.237 OA
ATOM     75  O   UNL     1      17.754 -11.775  -5.701  1.00  0.00    -0.744 OA
ENDBRANCH  71  72
ENDBRANCH  52  66
BRANCH  53  76
ATOM     76  C   UNL     1      10.094   0.581  -1.785  1.00  0.00    -0.014 A 
ATOM     77  C   UNL     1       9.647   1.550  -2.701  1.00  0.00     0.010 A 
ATOM     78  C   UNL     1       9.914   0.805  -0.409  1.00  0.00     0.010 A 
ATOM     79  C   UNL     1       9.052   2.731  -2.250  1.00  0.00     0.020 A 
ATOM     80  C   UNL     1       9.296   1.974   0.046  1.00  0.00     0.020 A 
ATOM     81  C   UNL     1       8.880   2.935  -0.878  1.00  0.00     0.054 A 
BRANCH  81  82
ATOM     82  S   UNL     1       8.061   4.454  -0.316  1.00  0.00     0.124 S 
ATOM     83  O   UNL     1       9.116   5.447  -0.486  1.00  0.00    -0.237 OA
ATOM     84  O   UNL     1       6.932   4.563  -1.237  1.00  0.00    -0.237 OA
ATOM     85  O   UNL     1       7.699   4.151   1.067  1.00  0.00    -0.744 OA
ENDBRANCH  81  82
ENDBRANCH  53  76
BRANCH  65  86
ATOM     86  C   UNL     1      16.219  -0.718  -4.842  1.00  0.00    -0.014 A 
ATOM     87  C   UNL     1      17.110  -0.145  -3.920  1.00  0.00     0.010 A 
ATOM     88  C   UNL     1      16.416  -0.499  -6.218  1.00  0.00     0.010 A 
ATOM     89  C   UNL     1      18.166   0.654  -4.365  1.00  0.00     0.020 A 
ATOM     90  C   UNL     1      17.484   0.279  -6.668  1.00  0.00     0.020 A 
ATOM     91  C   UNL     1      18.346   0.861  -5.736  1.00  0.00     0.054 A 
BRANCH  91  92
ATOM     92  S   UNL     1      19.756   1.858  -6.293  1.00  0.00     0.124 S 
ATOM     93  O   UNL     1      19.304   3.215  -5.997  1.00  0.00    -0.237 OA
ATOM     94  O   UNL     1      20.849   1.364  -5.460  1.00  0.00    -0.237 OA
ATOM     95  O   UNL     1      19.868   1.534  -7.714  1.00  0.00    -0.744 OA
ENDBRANCH  91  92
ENDBRANCH  65  86
ENDBRANCH  39  40
ENDBRANCH  31  34
ENDBRANCH  29  30
ENDBRANCH  28  29
ENDBRANCH   1  28
TORSDOF 18
