REMARK SMILES COc1ccc(S(=O)(=O)N2CCC[C@H](C(=O)N3CCC[C@H](C(=O)NCCCNC(=O)c4ccc(-c5c6nc(c(-c7ccc(S(=O)(=O)[O-])cc7)c7ccc([nH]7)c(-c7ccc(S(=O)(=O)[O-])cc7)c7nc(c(-c8ccc(S(=O)(=O)[O-])cc8)c8ccc5[nH]8)C=C7)C=C6)cc4)C3)C2)cc1
REMARK SMILES IDX 25 1 24 2 22 3 23 4 21 6 17 7 18 8 91 9 19 10 20 11 15 12
REMARK SMILES IDX 16 13 14 14 10 15 11 16 92 17 12 18 13 19 7 20 8 21 9 22
REMARK SMILES IDX 6 23 3 24 4 25 94 26 5 27 93 28 2 29 1 30 26 31 27 32 28 33
REMARK SMILES IDX 29 34 30 36 31 37 32 38 90 39 33 40 89 41 34 42 35 43 36 44
REMARK SMILES IDX 83 45 37 46 88 47 82 48 84 49 38 50 87 51 81 52 80 53 39 55
REMARK SMILES IDX 69 56 50 57 68 58 51 59 54 60 67 61 85 62 52 63 53 64 66 66
REMARK SMILES IDX 86 67 55 68 40 69 41 70 49 71 42 72 48 73 43 74 44 75 45 76
REMARK SMILES IDX 46 77 47 78 70 79 71 80 79 81 72 82 78 83 73 84 74 85 75 86
REMARK SMILES IDX 76 87 77 88 56 89 57 90 65 91 58 92 64 93 59 94 60 95 61 96
REMARK SMILES IDX 62 97 63 98
REMARK H PARENT 24 5 28 35 84 54 54 65
REMARK Flexibility Score: inf
ROOT
ATOM      1  C   UNL     1       7.948  -2.045 -10.226  1.00  0.00     0.117 C 
ENDROOT
BRANCH   1   2
ATOM      2  N   UNL     1       8.401  -0.757 -10.690  1.00  0.00    -0.356 N 
ATOM      3  C   UNL     1       7.762   0.440 -10.649  1.00  0.00     0.224 C 
ATOM      4  O   UNL     1       8.441   1.440 -10.910  1.00  0.00    -0.275 OA
ATOM      5  H   UNL     1       9.299  -0.745 -11.093  1.00  0.00     0.163 HD
BRANCH   3   6
ATOM      6  C   UNL     1       6.274   0.609 -10.306  1.00  0.00     0.098 C 
ATOM      7  N   UNL     1       5.243  -0.974  -8.627  1.00  0.00    -0.342 N 
ATOM      8  C   UNL     1       4.191  -1.349  -9.567  1.00  0.00     0.119 C 
ATOM      9  C   UNL     1       5.893   0.312  -8.850  1.00  0.00     0.133 C 
ATOM     10  C   UNL     1       4.637  -1.263 -11.019  1.00  0.00     0.022 C 
ATOM     11  C   UNL     1       5.302   0.065 -11.359  1.00  0.00     0.017 C 
BRANCH   7  12
ATOM     12  C   UNL     1       5.709  -1.936  -7.751  1.00  0.00     0.227 C 
ATOM     13  O   UNL     1       5.878  -3.103  -8.123  1.00  0.00    -0.275 OA
BRANCH  12  14
ATOM     14  C   UNL     1       5.783  -1.649  -6.256  1.00  0.00     0.094 C 
ATOM     15  N   UNL     1       3.398  -1.099  -6.019  1.00  0.00    -0.197 NA
ATOM     16  C   UNL     1       3.645   0.344  -5.858  1.00  0.00     0.102 C 
ATOM     17  C   UNL     1       4.445  -2.074  -5.669  1.00  0.00     0.116 C 
ATOM     18  C   UNL     1       5.100   0.769  -5.681  1.00  0.00     0.018 C 
ATOM     19  C   UNL     1       6.184  -0.300  -5.693  1.00  0.00     0.016 C 
BRANCH  15  20
ATOM     20  S   UNL     1       1.781  -1.615  -5.973  1.00  0.00     0.243 S 
ATOM     21  O   UNL     1       1.725  -3.003  -6.357  1.00  0.00    -0.207 OA
ATOM     22  O   UNL     1       0.993  -0.602  -6.654  1.00  0.00    -0.207 OA
BRANCH  20  23
ATOM     23  C   UNL     1       1.299  -1.540  -4.260  1.00  0.00     0.082 A 
ATOM     24  C   UNL     1       0.399  -1.274  -1.631  1.00  0.00     0.118 A 
ATOM     25  C   UNL     1      -0.489  -1.649  -2.641  1.00  0.00     0.048 A 
ATOM     26  C   UNL     1       1.748  -1.091  -1.928  1.00  0.00     0.048 A 
ATOM     27  C   UNL     1      -0.046  -1.773  -3.959  1.00  0.00     0.025 A 
ATOM     28  C   UNL     1       2.196  -1.215  -3.242  1.00  0.00     0.025 A 
BRANCH  24  29
ATOM     29  O   UNL     1      -0.136  -1.128  -0.381  1.00  0.00    -0.497 OA
ATOM     30  C   UNL     1       0.495  -0.126   0.413  1.00  0.00     0.278 C 
ENDBRANCH  24  29
ENDBRANCH  20  23
ENDBRANCH  15  20
ENDBRANCH  12  14
ENDBRANCH   7  12
ENDBRANCH   3   6
ENDBRANCH   1   2
BRANCH   1  31
ATOM     31  C   UNL     1       7.830  -3.102 -11.304  1.00  0.00     0.042 C 
BRANCH  31  32
ATOM     32  C   UNL     1       8.992  -4.074 -11.306  1.00  0.00     0.118 C 
BRANCH  32  33
ATOM     33  N   UNL     1       9.039  -4.920 -10.114  1.00  0.00    -0.352 N 
ATOM     34  C   UNL     1       9.113  -6.289  -9.996  1.00  0.00     0.251 C 
ATOM     35  H   UNL     1       9.014  -4.432  -9.260  1.00  0.00     0.163 HD
ATOM     36  O   UNL     1       9.074  -6.810  -8.885  1.00  0.00    -0.269 OA
BRANCH  34  37
ATOM     37  C   UNL     1       9.190  -7.133 -11.207  1.00  0.00     0.039 A 
ATOM     38  C   UNL     1       8.421  -8.298 -11.275  1.00  0.00     0.014 A 
ATOM     39  C   UNL     1       9.976  -6.754 -12.294  1.00  0.00     0.014 A 
ATOM     40  C   UNL     1       8.371  -9.026 -12.466  1.00  0.00     0.010 A 
ATOM     41  C   UNL     1       9.824  -7.401 -13.512  1.00  0.00     0.010 A 
ATOM     42  C   UNL     1       9.031  -8.554 -13.611  1.00  0.00    -0.014 A 
BRANCH  42  43
ATOM     43  C   UNL     1       8.943  -9.251 -14.919  1.00  0.00     0.031 A 
ATOM     44  C   UNL     1      10.205  -9.727 -15.592  1.00  0.00     0.074 A 
ATOM     45  C   UNL     1       7.754  -9.371 -15.544  1.00  0.00     0.049 A 
ATOM     46  N   UNL     1      10.366 -10.226 -16.790  1.00  0.00    -0.248 NA
ATOM     47  C   UNL     1      11.460  -9.575 -14.835  1.00  0.00     0.031 C 
ATOM     48  C   UNL     1       6.466  -8.898 -15.028  1.00  0.00     0.029 A 
ATOM     49  N   UNL     1       7.437  -9.924 -16.759  1.00  0.00    -0.354 N 
ATOM     50  C   UNL     1      11.737 -10.400 -16.944  1.00  0.00     0.074 A 
ATOM     51  C   UNL     1      12.367  -9.902 -15.742  1.00  0.00     0.031 C 
ATOM     52  C   UNL     1       5.497  -9.214 -15.902  1.00  0.00     0.029 A 
ATOM     53  C   UNL     1       6.096  -9.873 -17.058  1.00  0.00     0.049 A 
ATOM     54  H   UNL     1       8.108 -10.320 -17.362  1.00  0.00     0.167 HD
ATOM     55  C   UNL     1      12.412 -10.950 -17.980  1.00  0.00     0.031 A 
ATOM     56  C   UNL     1       5.424 -10.307 -18.142  1.00  0.00     0.031 A 
ATOM     57  C   UNL     1      11.777 -11.498 -19.146  1.00  0.00     0.049 A 
ATOM     58  C   UNL     1       6.188 -10.970 -19.255  1.00  0.00     0.074 A 
ATOM     59  C   UNL     1      12.360 -12.149 -20.218  1.00  0.00     0.029 A 
ATOM     60  N   UNL     1      10.411 -11.477 -19.381  1.00  0.00    -0.354 N 
ATOM     61  N   UNL     1       7.480 -11.172 -19.360  1.00  0.00    -0.248 NA
ATOM     62  C   UNL     1       5.403 -11.474 -20.390  1.00  0.00     0.031 C 
ATOM     63  C   UNL     1      11.346 -12.498 -21.117  1.00  0.00     0.029 A 
ATOM     64  C   UNL     1      10.130 -12.100 -20.584  1.00  0.00     0.049 A 
ATOM     65  H   UNL     1       9.740 -11.078 -18.781  1.00  0.00     0.167 HD
ATOM     66  C   UNL     1       7.660 -11.848 -20.560  1.00  0.00     0.074 A 
ATOM     67  C   UNL     1       6.344 -12.032 -21.139  1.00  0.00     0.031 C 
ATOM     68  C   UNL     1       8.811 -12.277 -21.134  1.00  0.00     0.031 A 
BRANCH  55  69
ATOM     69  C   UNL     1      13.914 -10.992 -17.883  1.00  0.00    -0.014 A 
ATOM     70  C   UNL     1      14.559 -11.837 -16.962  1.00  0.00     0.010 A 
ATOM     71  C   UNL     1      14.693 -10.182 -18.729  1.00  0.00     0.010 A 
ATOM     72  C   UNL     1      15.951 -11.832 -16.849  1.00  0.00     0.020 A 
ATOM     73  C   UNL     1      16.089 -10.196 -18.640  1.00  0.00     0.020 A 
ATOM     74  C   UNL     1      16.707 -11.006 -17.685  1.00  0.00     0.054 A 
BRANCH  74  75
ATOM     75  S   UNL     1      18.514 -11.024 -17.525  1.00  0.00     0.124 S 
ATOM     76  O   UNL     1      18.715 -10.236 -16.311  1.00  0.00    -0.237 OA
ATOM     77  O   UNL     1      18.812 -12.449 -17.404  1.00  0.00    -0.237 OA
ATOM     78  O   UNL     1      18.977 -10.397 -18.760  1.00  0.00    -0.744 OA
ENDBRANCH  74  75
ENDBRANCH  55  69
BRANCH  56  79
ATOM     79  C   UNL     1       3.945 -10.160 -18.210  1.00  0.00    -0.014 A 
ATOM     80  C   UNL     1       3.114 -11.284 -18.053  1.00  0.00     0.010 A 
ATOM     81  C   UNL     1       3.357  -8.899 -18.412  1.00  0.00     0.010 A 
ATOM     82  C   UNL     1       1.724 -11.154 -18.116  1.00  0.00     0.020 A 
ATOM     83  C   UNL     1       1.965  -8.761 -18.451  1.00  0.00     0.020 A 
ATOM     84  C   UNL     1       1.158  -9.892 -18.314  1.00  0.00     0.054 A 
BRANCH  84  85
ATOM     85  S   UNL     1      -0.650  -9.737 -18.341  1.00  0.00     0.124 S 
ATOM     86  O   UNL     1      -0.979 -10.252 -19.666  1.00  0.00    -0.237 OA
ATOM     87  O   UNL     1      -1.058 -10.575 -17.217  1.00  0.00    -0.237 OA
ATOM     88  O   UNL     1      -0.872  -8.305 -18.152  1.00  0.00    -0.744 OA
ENDBRANCH  84  85
ENDBRANCH  56  79
BRANCH  68  89
ATOM     89  C   UNL     1       8.697 -13.018 -22.437  1.00  0.00    -0.014 A 
ATOM     90  C   UNL     1       8.425 -12.338 -23.636  1.00  0.00     0.010 A 
ATOM     91  C   UNL     1       8.929 -14.405 -22.467  1.00  0.00     0.010 A 
ATOM     92  C   UNL     1       8.362 -13.038 -24.843  1.00  0.00     0.020 A 
ATOM     93  C   UNL     1       8.890 -15.104 -23.675  1.00  0.00     0.020 A 
ATOM     94  C   UNL     1       8.594 -14.417 -24.854  1.00  0.00     0.054 A 
BRANCH  94  95
ATOM     95  S   UNL     1       8.559 -15.297 -26.440  1.00  0.00     0.124 S 
ATOM     96  O   UNL     1       7.125 -15.398 -26.698  1.00  0.00    -0.237 OA
ATOM     97  O   UNL     1       9.296 -14.398 -27.325  1.00  0.00    -0.237 OA
ATOM     98  O   UNL     1       9.231 -16.562 -26.148  1.00  0.00    -0.744 OA
ENDBRANCH  94  95
ENDBRANCH  68  89
ENDBRANCH  42  43
ENDBRANCH  34  37
ENDBRANCH  32  33
ENDBRANCH  31  32
ENDBRANCH   1  31
TORSDOF 18
