REMARK SMILES Cc1cc(C)cc(C2(C(=O)NCCCNC(=O)c3ccc(-c4c5nc(c(-c6ccc(S(=O)(=O)[O-])cc6)c6ccc([nH]6)c(-c6ccc(S(=O)(=O)[O-])cc6)c6nc(c(-c7ccc(S(=O)(=O)[O-])cc7)c7ccc4[nH]7)C=C6)C=C5)cc3)CCOCC2)c1
REMARK SMILES IDX 14 1 13 2 12 3 11 4 9 5 10 6 8 8 78 9 82 10 79 11 81 12
REMARK SMILES IDX 80 13 7 14 1 15 2 16 3 17 83 18 4 19 5 20 6 21 15 22 16 23
REMARK SMILES IDX 17 25 18 26 19 27 77 28 20 29 76 30 21 31 22 32 23 33 70 34
REMARK SMILES IDX 24 35 75 36 69 37 71 38 25 39 74 40 68 41 67 42 26 44 56 45
REMARK SMILES IDX 37 46 55 47 38 48 41 49 54 50 72 51 39 52 40 53 53 55 73 56
REMARK SMILES IDX 42 57 27 58 28 59 36 60 29 61 35 62 30 63 31 64 32 65 33 66
REMARK SMILES IDX 34 67 57 68 58 69 66 70 59 71 65 72 60 73 61 74 62 75 63 76
REMARK SMILES IDX 64 77 43 78 44 79 52 80 45 81 51 82 46 83 47 84 48 85 49 86
REMARK SMILES IDX 50 87
REMARK H PARENT 11 7 15 24 71 43 41 54
REMARK Flexibility Score: inf
ROOT
ATOM      1  C   UNL     1      -3.431  -7.404   1.157  1.00  0.00     0.118 C 
ENDROOT
BRANCH   1   2
ATOM      2  C   UNL     1      -1.972  -7.003   1.221  1.00  0.00     0.042 C 
BRANCH   2   3
ATOM      3  C   UNL     1      -1.591  -6.113   0.062  1.00  0.00     0.117 C 
BRANCH   3   4
ATOM      4  N   UNL     1      -2.045  -4.750   0.225  1.00  0.00    -0.355 N 
ATOM      5  C   UNL     1      -1.501  -3.691  -0.441  1.00  0.00     0.230 C 
ATOM      6  O   UNL     1      -2.251  -3.164  -1.272  1.00  0.00    -0.274 OA
ATOM      7  H   UNL     1      -2.786  -4.576   0.850  1.00  0.00     0.163 HD
BRANCH   5   8
ATOM      8  C   UNL     1      -0.038  -3.179  -0.181  1.00  0.00     0.078 C 
ATOM      9  C   UNL     1       0.584  -3.653   1.159  1.00  0.00     0.050 C 
ATOM     10  C   UNL     1       0.793  -3.631  -1.411  1.00  0.00     0.050 C 
ATOM     11  C   UNL     1       1.367  -4.958   1.128  1.00  0.00     0.161 C 
ATOM     12  C   UNL     1       1.413  -5.008  -1.277  1.00  0.00     0.161 C 
ATOM     13  O   UNL     1       2.127  -5.140  -0.058  1.00  0.00    -0.381 OA
BRANCH   8  14
ATOM     14  C   UNL     1      -0.025  -1.603  -0.107  1.00  0.00    -0.032 A 
ATOM     15  C   UNL     1       2.596   1.194  -0.105  1.00  0.00     0.044 C 
ATOM     16  C   UNL     1       1.272   0.492  -0.080  1.00  0.00    -0.051 A 
ATOM     17  C   UNL     1       0.089   1.228   0.000  1.00  0.00     0.006 A 
ATOM     18  C   UNL     1       1.203  -0.906  -0.140  1.00  0.00     0.008 A 
ATOM     19  C   UNL     1      -1.146   0.577   0.065  1.00  0.00    -0.051 A 
ATOM     20  C   UNL     1      -2.411   1.384   0.132  1.00  0.00     0.044 C 
ATOM     21  C   UNL     1      -1.189  -0.827   0.048  1.00  0.00     0.008 A 
ENDBRANCH   8  14
ENDBRANCH   5   8
ENDBRANCH   3   4
ENDBRANCH   2   3
ENDBRANCH   1   2
BRANCH   1  22
ATOM     22  N   UNL     1      -3.714  -8.248  -0.003  1.00  0.00    -0.352 N 
ATOM     23  C   UNL     1      -3.985  -9.592  -0.069  1.00  0.00     0.251 C 
ATOM     24  H   UNL     1      -3.710  -7.781  -0.869  1.00  0.00     0.163 HD
ATOM     25  O   UNL     1      -3.927 -10.175  -1.151  1.00  0.00    -0.269 OA
BRANCH  23  26
ATOM     26  C   UNL     1      -4.336 -10.327   1.161  1.00  0.00     0.039 A 
ATOM     27  C   UNL     1      -3.898 -11.639   1.341  1.00  0.00     0.014 A 
ATOM     28  C   UNL     1      -5.105  -9.704   2.144  1.00  0.00     0.014 A 
ATOM     29  C   UNL     1      -4.196 -12.300   2.533  1.00  0.00     0.010 A 
ATOM     30  C   UNL     1      -5.250 -10.296   3.385  1.00  0.00     0.010 A 
ATOM     31  C   UNL     1      -4.850 -11.621   3.576  1.00  0.00    -0.014 A 
BRANCH  31  32
ATOM     32  C   UNL     1      -5.205 -12.298   4.846  1.00  0.00     0.031 A 
ATOM     33  C   UNL     1      -6.652 -12.373   5.269  1.00  0.00     0.074 A 
ATOM     34  C   UNL     1      -4.231 -12.798   5.631  1.00  0.00     0.049 A 
ATOM     35  N   UNL     1      -7.169 -12.901   6.347  1.00  0.00    -0.248 NA
ATOM     36  C   UNL     1      -7.648 -11.733   4.388  1.00  0.00     0.031 C 
ATOM     37  C   UNL     1      -2.793 -12.721   5.357  1.00  0.00     0.029 A 
ATOM     38  N   UNL     1      -4.306 -13.483   6.815  1.00  0.00    -0.354 N 
ATOM     39  C   UNL     1      -8.533 -12.635   6.280  1.00  0.00     0.074 A 
ATOM     40  C   UNL     1      -8.754 -11.825   5.107  1.00  0.00     0.031 C 
ATOM     41  C   UNL     1      -2.127 -13.387   6.314  1.00  0.00     0.029 A 
ATOM     42  C   UNL     1      -3.083 -13.899   7.288  1.00  0.00     0.049 A 
ATOM     43  H   UNL     1      -5.153 -13.660   7.283  1.00  0.00     0.167 HD
ATOM     44  C   UNL     1      -9.523 -13.062   7.097  1.00  0.00     0.031 A 
ATOM     45  C   UNL     1      -2.775 -14.625   8.379  1.00  0.00     0.031 A 
ATOM     46  C   UNL     1      -9.297 -13.897   8.244  1.00  0.00     0.049 A 
ATOM     47  C   UNL     1      -3.893 -15.113   9.258  1.00  0.00     0.074 A 
ATOM     48  C   UNL     1     -10.226 -14.442   9.111  1.00  0.00     0.029 A 
ATOM     49  N   UNL     1      -8.047 -14.316   8.676  1.00  0.00    -0.354 N 
ATOM     50  N   UNL     1      -5.185 -14.909   9.141  1.00  0.00    -0.248 NA
ATOM     51  C   UNL     1      -3.514 -15.951  10.402  1.00  0.00     0.031 C 
ATOM     52  C   UNL     1      -9.532 -15.146  10.101  1.00  0.00     0.029 A 
ATOM     53  C   UNL     1      -8.178 -15.098   9.809  1.00  0.00     0.049 A 
ATOM     54  H   UNL     1      -7.193 -14.089   8.242  1.00  0.00     0.167 HD
ATOM     55  C   UNL     1      -5.776 -15.623  10.177  1.00  0.00     0.074 A 
ATOM     56  C   UNL     1      -4.700 -16.278  10.895  1.00  0.00     0.031 C 
ATOM     57  C   UNL     1      -7.088 -15.733  10.507  1.00  0.00     0.031 A 
BRANCH  44  58
ATOM     58  C   UNL     1     -10.932 -12.637   6.768  1.00  0.00    -0.014 A 
ATOM     59  C   UNL     1     -11.581 -13.095   5.605  1.00  0.00     0.010 A 
ATOM     60  C   UNL     1     -11.626 -11.782   7.642  1.00  0.00     0.010 A 
ATOM     61  C   UNL     1     -12.876 -12.669   5.299  1.00  0.00     0.020 A 
ATOM     62  C   UNL     1     -12.936 -11.382   7.358  1.00  0.00     0.020 A 
ATOM     63  C   UNL     1     -13.546 -11.814   6.179  1.00  0.00     0.054 A 
BRANCH  63  64
ATOM     64  S   UNL     1     -15.237 -11.303   5.771  1.00  0.00     0.124 S 
ATOM     65  O   UNL     1     -15.014 -10.389   4.653  1.00  0.00    -0.237 OA
ATOM     66  O   UNL     1     -15.880 -12.569   5.430  1.00  0.00    -0.237 OA
ATOM     67  O   UNL     1     -15.716 -10.675   7.001  1.00  0.00    -0.744 OA
ENDBRANCH  63  64
ENDBRANCH  44  58
BRANCH  45  68
ATOM     68  C   UNL     1      -1.355 -14.967   8.671  1.00  0.00    -0.014 A 
ATOM     69  C   UNL     1      -0.899 -16.293   8.558  1.00  0.00     0.010 A 
ATOM     70  C   UNL     1      -0.445 -13.965   9.053  1.00  0.00     0.010 A 
ATOM     71  C   UNL     1       0.431 -16.614   8.848  1.00  0.00     0.020 A 
ATOM     72  C   UNL     1       0.893 -14.276   9.312  1.00  0.00     0.020 A 
ATOM     73  C   UNL     1       1.319 -15.602   9.222  1.00  0.00     0.054 A 
BRANCH  73  74
ATOM     74  S   UNL     1       3.049 -16.035   9.554  1.00  0.00     0.124 S 
ATOM     75  O   UNL     1       2.946 -16.746  10.824  1.00  0.00    -0.237 OA
ATOM     76  O   UNL     1       3.397 -16.854   8.395  1.00  0.00    -0.237 OA
ATOM     77  O   UNL     1       3.720 -14.739   9.615  1.00  0.00    -0.744 OA
ENDBRANCH  73  74
ENDBRANCH  45  68
BRANCH  57  78
ATOM     78  C   UNL     1      -7.430 -16.632  11.665  1.00  0.00    -0.014 A 
ATOM     79  C   UNL     1      -7.079 -16.298  12.985  1.00  0.00     0.010 A 
ATOM     80  C   UNL     1      -8.133 -17.827  11.422  1.00  0.00     0.010 A 
ATOM     81  C   UNL     1      -7.368 -17.175  14.033  1.00  0.00     0.020 A 
ATOM     82  C   UNL     1      -8.457 -18.687  12.472  1.00  0.00     0.020 A 
ATOM     83  C   UNL     1      -8.049 -18.367  13.768  1.00  0.00     0.054 A 
BRANCH  83  84
ATOM     84  S   UNL     1      -8.410 -19.490  15.144  1.00  0.00     0.124 S 
ATOM     85  O   UNL     1      -7.093 -20.055  15.426  1.00  0.00    -0.237 OA
ATOM     86  O   UNL     1      -8.939 -18.588  16.163  1.00  0.00    -0.237 OA
ATOM     87  O   UNL     1      -9.382 -20.425  14.582  1.00  0.00    -0.744 OA
ENDBRANCH  83  84
ENDBRANCH  57  78
ENDBRANCH  31  32
ENDBRANCH  23  26
ENDBRANCH   1  22
TORSDOF 14
