REMARK SMILES COCCN1C(=O)C[C@H](C(=O)NCCCNC(=O)c2ccc(-c3c4nc(c(-c5ccc(S(=O)(=O)[O-])cc5)c5ccc([nH]5)c(-c5ccc(S(=O)(=O)[O-])cc5)c5nc(c(-c6ccc(S(=O)(=O)[O-])cc6)c6ccc3[nH]6)C=C5)C=C4)cc2)[C@@H]1c1ccccc1N1CCOCC1
REMARK SMILES IDX 14 1 13 2 12 3 10 4 11 5 9 7 5 8 6 9 79 10 7 11 8 12 4 13
REMARK SMILES IDX 3 14 2 15 1 16 80 17 81 18 85 19 82 20 84 21 83 22 86 23
REMARK SMILES IDX 87 24 91 25 88 26 90 27 89 28 15 29 16 30 17 31 18 33 19 34
REMARK SMILES IDX 20 35 78 36 21 37 77 38 22 39 23 40 24 41 71 42 25 43 76 44
REMARK SMILES IDX 70 45 72 46 26 47 75 48 69 49 68 50 27 52 57 53 38 54 56 55
REMARK SMILES IDX 39 56 42 57 55 58 73 59 40 60 41 61 54 63 74 64 43 65 28 66
REMARK SMILES IDX 29 67 37 68 30 69 36 70 31 71 32 72 33 73 34 74 35 75 58 76
REMARK SMILES IDX 59 77 67 78 60 79 66 80 61 81 62 82 63 83 64 84 65 85 44 86
REMARK SMILES IDX 45 87 53 88 46 89 52 90 47 91 48 92 49 93 50 94 51 95
REMARK H PARENT 12 6 16 32 72 51 42 62
REMARK Flexibility Score: inf
ROOT
ATOM      1  C   UNL     1      -1.218   3.412   2.284  1.00  0.00     0.042 C 
ENDROOT
BRANCH   1   2
ATOM      2  C   UNL     1      -0.769   3.470   0.843  1.00  0.00     0.117 C 
BRANCH   2   3
ATOM      3  N   UNL     1       0.178   4.532   0.592  1.00  0.00    -0.356 N 
ATOM      4  C   UNL     1       1.135   4.638  -0.356  1.00  0.00     0.226 C 
ATOM      5  O   UNL     1       1.817   5.670  -0.331  1.00  0.00    -0.275 OA
ATOM      6  H   UNL     1       0.117   5.297   1.208  1.00  0.00     0.163 HD
BRANCH   4   7
ATOM      7  C   UNL     1       1.543   3.521  -1.286  1.00  0.00     0.115 C 
ATOM      8  N   UNL     1       1.102   1.283  -1.925  1.00  0.00    -0.332 N 
ATOM      9  C   UNL     1       2.299   1.290  -1.220  1.00  0.00     0.224 C 
ATOM     10  C   UNL     1       0.591   2.655  -2.142  1.00  0.00     0.130 C 
ATOM     11  O   UNL     1       3.129   0.393  -1.170  1.00  0.00    -0.275 OA
ATOM     12  C   UNL     1       2.395   2.562  -0.464  1.00  0.00     0.116 C 
BRANCH   8  13
ATOM     13  C   UNL     1       0.777   0.134  -2.772  1.00  0.00     0.148 C 
BRANCH  13  14
ATOM     14  C   UNL     1       0.794  -1.226  -2.035  1.00  0.00     0.181 C 
BRANCH  14  15
ATOM     15  O   UNL     1      -0.147  -1.317  -0.959  1.00  0.00    -0.383 OA
ATOM     16  C   UNL     1       0.364  -0.854   0.288  1.00  0.00     0.194 C 
ENDBRANCH  14  15
ENDBRANCH  13  14
ENDBRANCH   8  13
BRANCH  10  17
ATOM     17  C   UNL     1      -0.920   2.891  -2.144  1.00  0.00    -0.001 A 
ATOM     18  C   UNL     1      -1.803   1.837  -1.796  1.00  0.00     0.008 A 
ATOM     19  C   UNL     1      -1.494   4.165  -2.435  1.00  0.00     0.042 A 
ATOM     20  C   UNL     1      -3.188   2.000  -1.746  1.00  0.00     0.001 A 
ATOM     21  C   UNL     1      -2.904   4.288  -2.397  1.00  0.00     0.026 A 
ATOM     22  C   UNL     1      -3.741   3.228  -2.053  1.00  0.00     0.002 A 
BRANCH  19  23
ATOM     23  N   UNL     1      -0.713   5.308  -2.636  1.00  0.00    -0.367 N 
ATOM     24  C   UNL     1      -0.004   5.473  -3.916  1.00  0.00     0.145 C 
ATOM     25  C   UNL     1      -1.206   6.603  -2.095  1.00  0.00     0.145 C 
ATOM     26  C   UNL     1       1.115   6.515  -3.733  1.00  0.00     0.181 C 
ATOM     27  C   UNL     1      -0.088   7.659  -2.061  1.00  0.00     0.181 C 
ATOM     28  O   UNL     1       0.572   7.784  -3.332  1.00  0.00    -0.378 OA
ENDBRANCH  19  23
ENDBRANCH  10  17
ENDBRANCH   4   7
ENDBRANCH   2   3
ENDBRANCH   1   2
BRANCH   1  29
ATOM     29  C   UNL     1      -2.087   4.603   2.657  1.00  0.00     0.118 C 
BRANCH  29  30
ATOM     30  N   UNL     1      -3.418   4.563   2.056  1.00  0.00    -0.352 N 
ATOM     31  C   UNL     1      -4.648   4.512   2.675  1.00  0.00     0.251 C 
ATOM     32  H   UNL     1      -3.439   4.574   1.072  1.00  0.00     0.163 HD
ATOM     33  O   UNL     1      -5.671   4.356   2.017  1.00  0.00    -0.269 OA
BRANCH  31  34
ATOM     34  C   UNL     1      -4.706   4.603   4.148  1.00  0.00     0.039 A 
ATOM     35  C   UNL     1      -5.427   3.647   4.864  1.00  0.00     0.014 A 
ATOM     36  C   UNL     1      -3.958   5.572   4.819  1.00  0.00     0.014 A 
ATOM     37  C   UNL     1      -5.313   3.604   6.255  1.00  0.00     0.010 A 
ATOM     38  C   UNL     1      -3.745   5.446   6.184  1.00  0.00     0.010 A 
ATOM     39  C   UNL     1      -4.425   4.466   6.922  1.00  0.00    -0.014 A 
BRANCH  39  40
ATOM     40  C   UNL     1      -4.195   4.372   8.387  1.00  0.00     0.031 A 
ATOM     41  C   UNL     1      -4.472   5.564   9.265  1.00  0.00     0.074 A 
ATOM     42  C   UNL     1      -3.667   3.249   8.916  1.00  0.00     0.049 A 
ATOM     43  N   UNL     1      -4.268   5.707  10.549  1.00  0.00    -0.248 NA
ATOM     44  C   UNL     1      -5.017   6.766   8.609  1.00  0.00     0.031 C 
ATOM     45  C   UNL     1      -3.300   2.044   8.166  1.00  0.00     0.029 A 
ATOM     46  N   UNL     1      -3.343   2.938  10.214  1.00  0.00    -0.354 N 
ATOM     47  C   UNL     1      -4.635   7.015  10.845  1.00  0.00     0.074 A 
ATOM     48  C   UNL     1      -5.011   7.644   9.600  1.00  0.00     0.031 C 
ATOM     49  C   UNL     1      -2.839   1.115   9.020  1.00  0.00     0.029 A 
ATOM     50  C   UNL     1      -2.831   1.670  10.369  1.00  0.00     0.049 A 
ATOM     51  H   UNL     1      -3.465   3.564  10.963  1.00  0.00     0.167 HD
ATOM     52  C   UNL     1      -4.684   7.631  12.049  1.00  0.00     0.031 A 
ATOM     53  C   UNL     1      -2.400   1.026  11.472  1.00  0.00     0.031 A 
ATOM     54  C   UNL     1      -4.332   6.996  13.290  1.00  0.00     0.049 A 
ATOM     55  C   UNL     1      -2.465   1.732  12.800  1.00  0.00     0.074 A 
ATOM     56  C   UNL     1      -4.410   7.511  14.571  1.00  0.00     0.029 A 
ATOM     57  N   UNL     1      -3.837   5.706  13.404  1.00  0.00    -0.354 N 
ATOM     58  N   UNL     1      -2.886   2.945  13.069  1.00  0.00    -0.248 NA
ATOM     59  C   UNL     1      -2.007   0.977  13.975  1.00  0.00     0.031 C 
ATOM     60  C   UNL     1      -3.906   6.553  15.456  1.00  0.00     0.029 A 
ATOM     61  C   UNL     1      -3.579   5.416  14.733  1.00  0.00     0.049 A 
ATOM     62  H   UNL     1      -3.691   5.087  12.652  1.00  0.00     0.167 HD
ATOM     63  C   UNL     1      -2.772   3.088  14.447  1.00  0.00     0.074 A 
ATOM     64  C   UNL     1      -2.258   1.833  14.957  1.00  0.00     0.031 C 
ATOM     65  C   UNL     1      -3.068   4.161  15.222  1.00  0.00     0.031 A 
BRANCH  52  66
ATOM     66  C   UNL     1      -5.138   9.068  12.078  1.00  0.00    -0.014 A 
ATOM     67  C   UNL     1      -6.467   9.419  11.778  1.00  0.00     0.010 A 
ATOM     68  C   UNL     1      -4.231  10.079  12.445  1.00  0.00     0.010 A 
ATOM     69  C   UNL     1      -6.869  10.756  11.800  1.00  0.00     0.020 A 
ATOM     70  C   UNL     1      -4.638  11.415  12.501  1.00  0.00     0.020 A 
ATOM     71  C   UNL     1      -5.951  11.747  12.161  1.00  0.00     0.054 A 
BRANCH  71  72
ATOM     72  S   UNL     1      -6.510  13.471  12.207  1.00  0.00     0.124 S 
ATOM     73  O   UNL     1      -6.660  13.777  10.787  1.00  0.00    -0.237 OA
ATOM     74  O   UNL     1      -7.756  13.382  12.965  1.00  0.00    -0.237 OA
ATOM     75  O   UNL     1      -5.421  14.171  12.883  1.00  0.00    -0.744 OA
ENDBRANCH  71  72
ENDBRANCH  52  66
BRANCH  53  76
ATOM     76  C   UNL     1      -1.885  -0.368  11.370  1.00  0.00    -0.014 A 
ATOM     77  C   UNL     1      -2.614  -1.441  11.915  1.00  0.00     0.010 A 
ATOM     78  C   UNL     1      -0.667  -0.633  10.719  1.00  0.00     0.010 A 
ATOM     79  C   UNL     1      -2.124  -2.748  11.828  1.00  0.00     0.020 A 
ATOM     80  C   UNL     1      -0.189  -1.942  10.603  1.00  0.00     0.020 A 
ATOM     81  C   UNL     1      -0.916  -2.991  11.170  1.00  0.00     0.054 A 
BRANCH  81  82
ATOM     82  S   UNL     1      -0.325  -4.701  11.026  1.00  0.00     0.124 S 
ATOM     83  O   UNL     1       0.093  -4.993  12.393  1.00  0.00    -0.237 OA
ATOM     84  O   UNL     1      -1.518  -5.407  10.563  1.00  0.00    -0.237 OA
ATOM     85  O   UNL     1       0.754  -4.608  10.046  1.00  0.00    -0.744 OA
ENDBRANCH  81  82
ENDBRANCH  53  76
BRANCH  65  86
ATOM     86  C   UNL     1      -2.881   4.017  16.710  1.00  0.00    -0.014 A 
ATOM     87  C   UNL     1      -1.600   3.957  17.284  1.00  0.00     0.010 A 
ATOM     88  C   UNL     1      -4.011   4.003  17.549  1.00  0.00     0.010 A 
ATOM     89  C   UNL     1      -1.452   3.854  18.670  1.00  0.00     0.020 A 
ATOM     90  C   UNL     1      -3.867   3.933  18.936  1.00  0.00     0.020 A 
ATOM     91  C   UNL     1      -2.587   3.844  19.487  1.00  0.00     0.054 A 
BRANCH  91  92
ATOM     92  S   UNL     1      -2.366   3.755  21.285  1.00  0.00     0.124 S 
ATOM     93  O   UNL     1      -1.940   2.371  21.470  1.00  0.00    -0.237 OA
ATOM     94  O   UNL     1      -1.342   4.767  21.531  1.00  0.00    -0.237 OA
ATOM     95  O   UNL     1      -3.691   4.075  21.813  1.00  0.00    -0.744 OA
ENDBRANCH  91  92
ENDBRANCH  65  86
ENDBRANCH  39  40
ENDBRANCH  31  34
ENDBRANCH  29  30
ENDBRANCH   1  29
TORSDOF 18
