REMARK SMILES Cc1c(CC(=O)NCCCNC(=O)c2ccc(-c3c4nc(c(-c5ccc(S(=O)(=O)[O-])cc5)c5ccc([nH]5)c(-c5ccc(S(=O)(=O)[O-])cc5)c5nc(c(-c6ccc(S(=O)(=O)[O-])cc6)c6ccc3[nH]6)C=C5)C=C4)cc2)c2ccccc2n1C(=O)c1ccc(Cl)cc1
REMARK SMILES IDX 9 1 8 2 7 3 5 4 6 5 4 7 3 8 1 9 2 10 80 11 74 12 79 13 75 14
REMARK SMILES IDX 78 15 76 16 77 17 81 18 82 19 83 20 84 21 89 22 85 23 88 24
REMARK SMILES IDX 86 25 87 26 10 27 11 28 12 29 13 31 14 32 15 33 73 34 16 35
REMARK SMILES IDX 72 36 17 37 18 38 19 39 66 40 20 41 71 42 65 43 67 44 21 45
REMARK SMILES IDX 70 46 64 47 63 48 22 50 52 51 33 52 51 53 34 54 37 55 50 56
REMARK SMILES IDX 68 57 35 58 36 59 49 61 69 62 38 63 23 64 24 65 32 66 25 67
REMARK SMILES IDX 31 68 26 69 27 70 28 71 29 72 30 73 53 74 54 75 62 76 55 77
REMARK SMILES IDX 61 78 56 79 57 80 58 81 59 82 60 83 39 84 40 85 48 86 41 87
REMARK SMILES IDX 47 88 42 89 43 90 44 91 45 92 46 93
REMARK H PARENT 7 6 11 30 67 49 37 60
REMARK Flexibility Score: inf
ROOT
ATOM      1  C   UNL     1      -0.764  -1.968   3.033  1.00  0.00     0.042 C 
ENDROOT
BRANCH   1   2
ATOM      2  C   UNL     1       0.726  -1.626   3.110  1.00  0.00     0.117 C 
BRANCH   2   3
ATOM      3  N   UNL     1       1.569  -2.811   3.119  1.00  0.00    -0.356 N 
ATOM      4  C   UNL     1       2.371  -3.312   2.135  1.00  0.00     0.224 C 
ATOM      5  O   UNL     1       2.989  -4.356   2.365  1.00  0.00    -0.275 OA
ATOM      6  H   UNL     1       1.560  -3.326   3.957  1.00  0.00     0.163 HD
BRANCH   4   7
ATOM      7  C   UNL     1       2.534  -2.568   0.821  1.00  0.00     0.138 C 
BRANCH   7   8
ATOM      8  C   UNL     1       1.284  -2.549  -0.007  1.00  0.00    -0.010 A 
ATOM      9  C   UNL     1       1.029   0.011  -0.396  1.00  0.00     0.065 C 
ATOM     10  C   UNL     1       0.631  -1.431  -0.504  1.00  0.00     0.028 A 
ATOM     11  N   UNL     1      -0.564  -1.839  -1.114  1.00  0.00    -0.280 N 
ATOM     12  C   UNL     1       0.569  -3.690  -0.467  1.00  0.00     0.004 A 
ATOM     13  C   UNL     1      -0.516  -3.240  -1.228  1.00  0.00     0.056 A 
ATOM     14  C   UNL     1       0.774  -5.080  -0.310  1.00  0.00     0.010 A 
ATOM     15  C   UNL     1      -1.339  -4.170  -1.897  1.00  0.00     0.027 A 
ATOM     16  C   UNL     1      -0.091  -5.993  -0.912  1.00  0.00     0.001 A 
ATOM     17  C   UNL     1      -1.129  -5.540  -1.708  1.00  0.00     0.002 A 
BRANCH  11  18
ATOM     18  C   UNL     1      -1.628  -0.973  -1.500  1.00  0.00     0.262 C 
ATOM     19  O   UNL     1      -1.522   0.225  -1.237  1.00  0.00    -0.268 OA
BRANCH  18  20
ATOM     20  C   UNL     1      -2.869  -1.393  -2.164  1.00  0.00     0.040 A 
ATOM     21  C   UNL     1      -3.812  -2.167  -1.480  1.00  0.00     0.015 A 
ATOM     22  C   UNL     1      -3.062  -1.046  -3.505  1.00  0.00     0.015 A 
ATOM     23  C   UNL     1      -4.901  -2.691  -2.179  1.00  0.00     0.021 A 
ATOM     24  C   UNL     1      -4.156  -1.568  -4.197  1.00  0.00     0.021 A 
ATOM     25  C   UNL     1      -5.054  -2.409  -3.539  1.00  0.00     0.041 A 
ATOM     26  Cl  UNL     1      -6.343  -3.136  -4.418  1.00  0.00    -0.084 Cl
ENDBRANCH  18  20
ENDBRANCH  11  18
ENDBRANCH   7   8
ENDBRANCH   4   7
ENDBRANCH   2   3
ENDBRANCH   1   2
BRANCH   1  27
ATOM     27  C   UNL     1      -1.262  -2.794   4.219  1.00  0.00     0.118 C 
BRANCH  27  28
ATOM     28  N   UNL     1      -1.007  -2.186   5.511  1.00  0.00    -0.352 N 
ATOM     29  C   UNL     1      -1.679  -1.329   6.335  1.00  0.00     0.251 C 
ATOM     30  H   UNL     1      -0.138  -2.457   5.885  1.00  0.00     0.163 HD
ATOM     31  O   UNL     1      -1.162  -1.143   7.441  1.00  0.00    -0.269 OA
BRANCH  29  32
ATOM     32  C   UNL     1      -2.906  -0.568   5.981  1.00  0.00     0.039 A 
ATOM     33  C   UNL     1      -3.635  -0.690   4.798  1.00  0.00     0.014 A 
ATOM     34  C   UNL     1      -3.295   0.417   6.911  1.00  0.00     0.014 A 
ATOM     35  C   UNL     1      -4.633   0.233   4.492  1.00  0.00     0.010 A 
ATOM     36  C   UNL     1      -4.300   1.329   6.619  1.00  0.00     0.010 A 
ATOM     37  C   UNL     1      -4.920   1.277   5.377  1.00  0.00    -0.014 A 
BRANCH  37  38
ATOM     38  C   UNL     1      -5.916   2.269   4.984  1.00  0.00     0.031 A 
ATOM     39  C   UNL     1      -7.292   1.735   4.774  1.00  0.00     0.074 A 
ATOM     40  C   UNL     1      -5.643   3.589   4.899  1.00  0.00     0.049 A 
ATOM     41  N   UNL     1      -7.994   1.733   3.689  1.00  0.00    -0.248 NA
ATOM     42  C   UNL     1      -7.918   1.008   5.890  1.00  0.00     0.031 C 
ATOM     43  C   UNL     1      -4.431   4.298   5.326  1.00  0.00     0.029 A 
ATOM     44  N   UNL     1      -6.452   4.603   4.486  1.00  0.00    -0.354 N 
ATOM     45  C   UNL     1      -9.217   1.147   4.013  1.00  0.00     0.074 A 
ATOM     46  C   UNL     1      -9.070   0.615   5.344  1.00  0.00     0.031 C 
ATOM     47  C   UNL     1      -4.679   5.629   5.370  1.00  0.00     0.029 A 
ATOM     48  C   UNL     1      -5.996   5.876   4.813  1.00  0.00     0.049 A 
ATOM     49  H   UNL     1      -7.292   4.448   3.996  1.00  0.00     0.167 HD
ATOM     50  C   UNL     1     -10.320   1.271   3.222  1.00  0.00     0.031 A 
ATOM     51  C   UNL     1      -6.668   7.045   4.660  1.00  0.00     0.031 A 
ATOM     52  C   UNL     1      -9.979   1.719   1.901  1.00  0.00     0.049 A 
ATOM     53  C   UNL     1      -7.723   6.807   3.648  1.00  0.00     0.074 A 
ATOM     54  C   UNL     1      -9.313   1.165   0.829  1.00  0.00     0.029 A 
ATOM     55  N   UNL     1     -10.029   3.071   1.670  1.00  0.00    -0.354 N 
ATOM     56  N   UNL     1      -7.477   6.531   2.399  1.00  0.00    -0.248 NA
ATOM     57  C   UNL     1      -9.051   6.455   4.120  1.00  0.00     0.031 C 
ATOM     58  C   UNL     1      -8.600   2.248   0.241  1.00  0.00     0.029 A 
ATOM     59  C   UNL     1      -8.921   3.417   0.939  1.00  0.00     0.049 A 
ATOM     60  H   UNL     1     -10.736   3.685   1.975  1.00  0.00     0.167 HD
ATOM     61  C   UNL     1      -8.445   5.603   2.043  1.00  0.00     0.074 A 
ATOM     62  C   UNL     1      -9.442   5.673   3.111  1.00  0.00     0.031 C 
ATOM     63  C   UNL     1      -8.220   4.684   1.060  1.00  0.00     0.031 A 
BRANCH  50  64
ATOM     64  C   UNL     1     -11.742   1.270   3.728  1.00  0.00    -0.014 A 
ATOM     65  C   UNL     1     -12.071   1.422   5.089  1.00  0.00     0.010 A 
ATOM     66  C   UNL     1     -12.805   1.363   2.803  1.00  0.00     0.010 A 
ATOM     67  C   UNL     1     -13.384   1.637   5.516  1.00  0.00     0.020 A 
ATOM     68  C   UNL     1     -14.121   1.619   3.218  1.00  0.00     0.020 A 
ATOM     69  C   UNL     1     -14.402   1.748   4.576  1.00  0.00     0.054 A 
BRANCH  69  70
ATOM     70  S   UNL     1     -16.070   2.131   5.165  1.00  0.00     0.124 S 
ATOM     71  O   UNL     1     -16.419   0.911   5.889  1.00  0.00    -0.237 OA
ATOM     72  O   UNL     1     -15.845   3.312   5.994  1.00  0.00    -0.237 OA
ATOM     73  O   UNL     1     -16.824   2.366   3.937  1.00  0.00    -0.744 OA
ENDBRANCH  69  70
ENDBRANCH  50  64
BRANCH  51  74
ATOM     74  C   UNL     1      -6.756   8.173   5.626  1.00  0.00    -0.014 A 
ATOM     75  C   UNL     1      -6.696   7.905   7.009  1.00  0.00     0.010 A 
ATOM     76  C   UNL     1      -7.223   9.440   5.223  1.00  0.00     0.010 A 
ATOM     77  C   UNL     1      -7.152   8.835   7.952  1.00  0.00     0.020 A 
ATOM     78  C   UNL     1      -7.677  10.381   6.166  1.00  0.00     0.020 A 
ATOM     79  C   UNL     1      -7.670  10.056   7.524  1.00  0.00     0.054 A 
BRANCH  79  80
ATOM     80  S   UNL     1      -8.404  11.164   8.766  1.00  0.00     0.124 S 
ATOM     81  O   UNL     1      -9.573  10.405   9.199  1.00  0.00    -0.237 OA
ATOM     82  O   UNL     1      -7.334  11.283   9.753  1.00  0.00    -0.237 OA
ATOM     83  O   UNL     1      -8.694  12.384   8.017  1.00  0.00    -0.744 OA
ENDBRANCH  79  80
ENDBRANCH  51  74
BRANCH  63  84
ATOM     84  C   UNL     1      -7.016   4.855   0.153  1.00  0.00    -0.014 A 
ATOM     85  C   UNL     1      -7.254   4.838  -1.234  1.00  0.00     0.010 A 
ATOM     86  C   UNL     1      -5.679   4.821   0.601  1.00  0.00     0.010 A 
ATOM     87  C   UNL     1      -6.204   4.735  -2.147  1.00  0.00     0.020 A 
ATOM     88  C   UNL     1      -4.614   4.746  -0.316  1.00  0.00     0.020 A 
ATOM     89  C   UNL     1      -4.888   4.675  -1.685  1.00  0.00     0.054 A 
BRANCH  89  90
ATOM     90  S   UNL     1      -3.566   4.488  -2.916  1.00  0.00     0.124 S 
ATOM     91  O   UNL     1      -3.754   3.112  -3.373  1.00  0.00    -0.237 OA
ATOM     92  O   UNL     1      -3.898   5.514  -3.902  1.00  0.00    -0.237 OA
ATOM     93  O   UNL     1      -2.340   4.736  -2.162  1.00  0.00    -0.744 OA
ENDBRANCH  89  90
ENDBRANCH  63  84
ENDBRANCH  37  38
ENDBRANCH  29  32
ENDBRANCH  27  28
ENDBRANCH   1  27
TORSDOF 16
