REMARK SMILES CN(Cc1ccnn1C)C(=O)c1c(C(=O)NCCCNC(=O)c2ccc(-c3c4nc(c(-c5ccc(S(=O)(=O)[O-])cc5)c5ccc([nH]5)c(-c5ccc(S(=O)(=O)[O-])cc5)c5nc(c(-c6ccc(S(=O)(=O)[O-])cc6)c6ccc3[nH]6)C=C5)C=C4)cc2)cnn1C
REMARK SMILES IDX 17 1 16 2 14 3 15 4 13 6 12 7 85 8 83 9 84 10 86 11 10 12
REMARK SMILES IDX 11 13 2 14 1 15 3 16 4 17 5 18 8 19 6 20 7 21 9 22 18 23
REMARK SMILES IDX 19 24 20 25 21 26 22 28 23 29 24 30 82 31 25 32 81 33 26 34
REMARK SMILES IDX 27 35 28 36 75 37 29 38 80 39 74 40 76 41 30 42 79 43 73 44
REMARK SMILES IDX 72 45 31 47 61 48 42 49 60 50 43 51 46 52 59 53 77 54 44 55
REMARK SMILES IDX 45 56 58 58 78 59 47 60 32 61 33 62 41 63 34 64 40 65 35 66
REMARK SMILES IDX 36 67 37 68 38 69 39 70 62 71 63 72 71 73 64 74 70 75 65 76
REMARK SMILES IDX 66 77 67 78 68 79 69 80 48 81 49 82 57 83 50 84 56 85 51 86
REMARK SMILES IDX 52 87 53 88 54 89 55 90
REMARK H PARENT 16 5 20 27 76 46 46 57
REMARK Flexibility Score: inf
ROOT
ATOM      1  C   UNL     1       3.081   1.160  -2.796  1.00  0.00     0.118 C 
ENDROOT
BRANCH   1   2
ATOM      2  N   UNL     1       3.246   0.871  -4.202  1.00  0.00    -0.352 N 
ATOM      3  C   UNL     1       2.485   0.336  -5.199  1.00  0.00     0.255 C 
ATOM      4  O   UNL     1       3.111   0.154  -6.250  1.00  0.00    -0.269 OA
ATOM      5  H   UNL     1       4.141   1.127  -4.524  1.00  0.00     0.163 HD
BRANCH   3   6
ATOM      6  C   UNL     1       1.069  -0.021  -5.156  1.00  0.00     0.090 A 
ATOM      7  C   UNL     1      -0.026   0.215  -4.321  1.00  0.00     0.138 A 
ATOM      8  N   UNL     1      -1.128  -0.199  -5.037  1.00  0.00    -0.262 N 
ATOM      9  C   UNL     1       0.490  -0.768  -6.228  1.00  0.00     0.149 A 
ATOM     10  N   UNL     1      -0.826  -0.928  -6.121  1.00  0.00    -0.180 NA
ATOM     11  C   UNL     1      -2.522   0.097  -4.793  1.00  0.00     0.174 C 
BRANCH   7  12
ATOM     12  C   UNL     1      -0.135   0.887  -3.054  1.00  0.00     0.273 C 
ATOM     13  O   UNL     1      -0.021   2.108  -2.979  1.00  0.00    -0.267 OA
BRANCH  12  14
ATOM     14  N   UNL     1      -0.290   0.085  -1.917  1.00  0.00    -0.334 N 
ATOM     15  C   UNL     1       0.045   0.641  -0.611  1.00  0.00     0.147 C 
BRANCH  14  16
ATOM     16  C   UNL     1      -0.794  -1.291  -1.922  1.00  0.00     0.175 C 
BRANCH  16  17
ATOM     17  C   UNL     1      -2.277  -1.283  -1.718  1.00  0.00     0.057 A 
ATOM     18  C   UNL     1      -3.152  -0.295  -1.297  1.00  0.00     0.047 A 
ATOM     19  N   UNL     1      -3.074  -2.382  -1.942  1.00  0.00    -0.271 N 
ATOM     20  C   UNL     1      -4.427  -0.875  -1.339  1.00  0.00     0.135 A 
ATOM     21  N   UNL     1      -4.388  -2.136  -1.766  1.00  0.00    -0.181 NA
ATOM     22  C   UNL     1      -2.675  -3.700  -2.381  1.00  0.00     0.174 C 
ENDBRANCH  16  17
ENDBRANCH  14  16
ENDBRANCH  12  14
ENDBRANCH   7  12
ENDBRANCH   3   6
ENDBRANCH   1   2
BRANCH   1  23
ATOM     23  C   UNL     1       3.878   0.218  -1.901  1.00  0.00     0.042 C 
BRANCH  23  24
ATOM     24  C   UNL     1       5.391   0.375  -2.017  1.00  0.00     0.118 C 
BRANCH  24  25
ATOM     25  N   UNL     1       5.858   1.660  -1.520  1.00  0.00    -0.352 N 
ATOM     26  C   UNL     1       6.465   2.017  -0.341  1.00  0.00     0.251 C 
ATOM     27  H   UNL     1       5.713   2.410  -2.142  1.00  0.00     0.163 HD
ATOM     28  O   UNL     1       6.559   3.213  -0.071  1.00  0.00    -0.269 OA
BRANCH  26  29
ATOM     29  C   UNL     1       6.994   1.011   0.613  1.00  0.00     0.039 A 
ATOM     30  C   UNL     1       6.907   1.287   1.984  1.00  0.00     0.014 A 
ATOM     31  C   UNL     1       7.659  -0.142   0.190  1.00  0.00     0.014 A 
ATOM     32  C   UNL     1       7.442   0.396   2.920  1.00  0.00     0.010 A 
ATOM     33  C   UNL     1       8.130  -1.067   1.125  1.00  0.00     0.010 A 
ATOM     34  C   UNL     1       8.042  -0.801   2.500  1.00  0.00    -0.014 A 
BRANCH  34  35
ATOM     35  C   UNL     1       8.616  -1.759   3.481  1.00  0.00     0.031 A 
ATOM     36  C   UNL     1      10.097  -2.036   3.498  1.00  0.00     0.074 A 
ATOM     37  C   UNL     1       7.807  -2.421   4.331  1.00  0.00     0.049 A 
ATOM     38  N   UNL     1      10.767  -2.899   4.220  1.00  0.00    -0.248 NA
ATOM     39  C   UNL     1      10.928  -1.263   2.562  1.00  0.00     0.031 C 
ATOM     40  C   UNL     1       6.351  -2.287   4.398  1.00  0.00     0.029 A 
ATOM     41  N   UNL     1       8.101  -3.345   5.303  1.00  0.00    -0.354 N 
ATOM     42  C   UNL     1      12.086  -2.812   3.788  1.00  0.00     0.074 A 
ATOM     43  C   UNL     1      12.120  -1.817   2.737  1.00  0.00     0.031 C 
ATOM     44  C   UNL     1       5.882  -3.076   5.379  1.00  0.00     0.029 A 
ATOM     45  C   UNL     1       6.999  -3.786   5.994  1.00  0.00     0.049 A 
ATOM     46  H   UNL     1       9.015  -3.660   5.487  1.00  0.00     0.167 HD
ATOM     47  C   UNL     1      13.173  -3.493   4.225  1.00  0.00     0.031 A 
ATOM     48  C   UNL     1       6.897  -4.659   7.014  1.00  0.00     0.031 A 
ATOM     49  C   UNL     1      13.163  -4.442   5.304  1.00  0.00     0.049 A 
ATOM     50  C   UNL     1       8.131  -5.312   7.562  1.00  0.00     0.074 A 
ATOM     51  C   UNL     1      14.222  -5.155   5.840  1.00  0.00     0.029 A 
ATOM     52  N   UNL     1      12.038  -4.793   6.032  1.00  0.00    -0.354 N 
ATOM     53  N   UNL     1       9.369  -5.210   7.143  1.00  0.00    -0.248 NA
ATOM     54  C   UNL     1       7.955  -6.185   8.731  1.00  0.00     0.031 C 
ATOM     55  C   UNL     1      13.736  -5.938   6.896  1.00  0.00     0.029 A 
ATOM     56  C   UNL     1      12.377  -5.698   7.023  1.00  0.00     0.049 A 
ATOM     57  H   UNL     1      11.130  -4.448   5.870  1.00  0.00     0.167 HD
ATOM     58  C   UNL     1      10.122  -6.001   8.002  1.00  0.00     0.074 A 
ATOM     59  C   UNL     1       9.204  -6.562   8.972  1.00  0.00     0.031 C 
ATOM     60  C   UNL     1      11.455  -6.243   7.983  1.00  0.00     0.031 A 
BRANCH  47  61
ATOM     61  C   UNL     1      14.468  -3.233   3.507  1.00  0.00    -0.014 A 
ATOM     62  C   UNL     1      15.210  -2.064   3.755  1.00  0.00     0.010 A 
ATOM     63  C   UNL     1      14.938  -4.163   2.562  1.00  0.00     0.010 A 
ATOM     64  C   UNL     1      16.376  -1.804   3.030  1.00  0.00     0.020 A 
ATOM     65  C   UNL     1      16.112  -3.914   1.848  1.00  0.00     0.020 A 
ATOM     66  C   UNL     1      16.810  -2.723   2.069  1.00  0.00     0.054 A 
BRANCH  66  67
ATOM     67  S   UNL     1      18.314  -2.370   1.117  1.00  0.00     0.124 S 
ATOM     68  O   UNL     1      17.786  -1.574   0.012  1.00  0.00    -0.237 OA
ATOM     69  O   UNL     1      19.148  -1.644   2.071  1.00  0.00    -0.237 OA
ATOM     70  O   UNL     1      18.804  -3.697   0.753  1.00  0.00    -0.744 OA
ENDBRANCH  66  67
ENDBRANCH  47  61
BRANCH  48  71
ATOM     71  C   UNL     1       5.566  -4.932   7.610  1.00  0.00    -0.014 A 
ATOM     72  C   UNL     1       5.172  -4.265   8.783  1.00  0.00     0.010 A 
ATOM     73  C   UNL     1       4.676  -5.824   6.988  1.00  0.00     0.010 A 
ATOM     74  C   UNL     1       3.905  -4.485   9.328  1.00  0.00     0.020 A 
ATOM     75  C   UNL     1       3.404  -6.037   7.524  1.00  0.00     0.020 A 
ATOM     76  C   UNL     1       3.028  -5.370   8.694  1.00  0.00     0.054 A 
BRANCH  76  77
ATOM     77  S   UNL     1       1.351  -5.584   9.354  1.00  0.00     0.124 S 
ATOM     78  O   UNL     1       1.544  -6.653  10.328  1.00  0.00    -0.237 OA
ATOM     79  O   UNL     1       1.048  -4.267   9.910  1.00  0.00    -0.237 OA
ATOM     80  O   UNL     1       0.572  -5.941   8.170  1.00  0.00    -0.744 OA
ENDBRANCH  76  77
ENDBRANCH  48  71
BRANCH  60  81
ATOM     81  C   UNL     1      11.996  -7.138   9.059  1.00  0.00    -0.014 A 
ATOM     82  C   UNL     1      11.887  -8.536   8.952  1.00  0.00     0.010 A 
ATOM     83  C   UNL     1      12.628  -6.576  10.182  1.00  0.00     0.010 A 
ATOM     84  C   UNL     1      12.375  -9.360   9.969  1.00  0.00     0.020 A 
ATOM     85  C   UNL     1      13.125  -7.398  11.197  1.00  0.00     0.020 A 
ATOM     86  C   UNL     1      12.980  -8.784  11.091  1.00  0.00     0.054 A 
BRANCH  86  87
ATOM     87  S   UNL     1      13.627  -9.860  12.402  1.00  0.00     0.124 S 
ATOM     88  O   UNL     1      12.451 -10.047  13.247  1.00  0.00    -0.237 OA
ATOM     89  O   UNL     1      14.070 -11.045  11.671  1.00  0.00    -0.237 OA
ATOM     90  O   UNL     1      14.702  -9.065  12.992  1.00  0.00    -0.744 OA
ENDBRANCH  86  87
ENDBRANCH  60  81
ENDBRANCH  34  35
ENDBRANCH  26  29
ENDBRANCH  24  25
ENDBRANCH  23  24
ENDBRANCH   1  23
TORSDOF 17
