REMARK SMILES CCCC(O)(CCC)[C@@]1(C)CC[C@@H](C(=O)NCCCNC(=O)c2ccc(-c3c4nc(c(-c5ccc(S(=O)(=O)[O-])cc5)c5ccc([nH]5)c(-c5ccc(S(=O)(=O)[O-])cc5)c5nc(c(-c6ccc(S(=O)(=O)[O-])cc6)c6ccc3[nH]6)C=C5)C=C4)cc2)C(C)(C)O1
REMARK SMILES IDX 18 1 17 2 16 3 14 4 15 5 13 7 9 8 10 9 11 10 86 11 12 12
REMARK SMILES IDX 83 13 84 14 85 15 4 16 3 17 2 18 1 19 5 20 6 22 7 23 8 24
REMARK SMILES IDX 19 25 20 26 21 27 22 29 23 30 24 31 82 32 25 33 81 34 26 35
REMARK SMILES IDX 27 36 28 37 75 38 29 39 80 40 74 41 76 42 30 43 79 44 73 45
REMARK SMILES IDX 72 46 31 48 61 49 42 50 60 51 43 52 46 53 59 54 77 55 44 56
REMARK SMILES IDX 45 57 58 59 78 60 47 61 32 62 33 63 41 64 34 65 40 66 35 67
REMARK SMILES IDX 36 68 37 69 38 70 39 71 62 72 63 73 71 74 64 75 70 76 65 77
REMARK SMILES IDX 66 78 67 79 68 80 69 81 48 82 49 83 57 84 50 85 56 86 51 87
REMARK SMILES IDX 52 88 53 89 54 90 55 91
REMARK H PARENT 16 6 5 21 20 28 76 47 46 58
REMARK Flexibility Score: inf
ROOT
ATOM      1  C   UNL     1      -3.006   0.123   2.217  1.00  0.00     0.042 C 
ENDROOT
BRANCH   1   2
ATOM      2  C   UNL     1      -1.822  -0.570   1.563  1.00  0.00     0.117 C 
BRANCH   2   3
ATOM      3  N   UNL     1      -2.154  -1.373   0.403  1.00  0.00    -0.356 N 
ATOM      4  C   UNL     1      -1.742  -1.266  -0.891  1.00  0.00     0.226 C 
ATOM      5  O   UNL     1      -2.147  -2.129  -1.677  1.00  0.00    -0.275 OA
ATOM      6  H   UNL     1      -2.777  -2.115   0.578  1.00  0.00     0.163 HD
BRANCH   4   7
ATOM      7  C   UNL     1      -0.796  -0.163  -1.398  1.00  0.00     0.110 C 
ATOM      8  C   UNL     1       0.864   2.284  -0.937  1.00  0.00     0.095 C 
ATOM      9  C   UNL     1       1.523   3.222  -1.981  1.00  0.00     0.045 C 
ATOM     10  C   UNL     1       1.460   0.900  -1.203  1.00  0.00     0.039 C 
ATOM     11  O   UNL     1      -0.524   2.388  -1.358  1.00  0.00    -0.366 OA
ATOM     12  C   UNL     1       0.575  -0.237  -0.752  1.00  0.00     0.019 C 
ATOM     13  C   UNL     1      -1.398   1.260  -1.575  1.00  0.00     0.075 C 
ATOM     14  C   UNL     1      -2.635   1.590  -0.737  1.00  0.00     0.043 C 
ATOM     15  C   UNL     1      -1.913   1.356  -3.035  1.00  0.00     0.043 C 
BRANCH   8  16
ATOM     16  C   UNL     1       1.021   2.839   0.609  1.00  0.00     0.093 C 
BRANCH  16  17
ATOM     17  C   UNL     1       1.918   2.082   1.658  1.00  0.00     0.038 C 
BRANCH  17  18
ATOM     18  C   UNL     1       1.448   0.835   2.415  1.00  0.00    -0.000 C 
ATOM     19  C   UNL     1       2.278  -0.409   2.124  1.00  0.00     0.004 C 
ENDBRANCH  17  18
ENDBRANCH  16  17
BRANCH  16  20
ATOM     20  O   UNL     1      -0.316   2.808   1.166  1.00  0.00    -0.387 OA
ATOM     21  H   UNL     1      -0.292   3.126   2.082  1.00  0.00     0.211 HD
ENDBRANCH  16  20
BRANCH  16  22
ATOM     22  C   UNL     1       1.427   4.370   0.706  1.00  0.00     0.038 C 
BRANCH  22  23
ATOM     23  C   UNL     1       2.891   4.750   1.038  1.00  0.00    -0.000 C 
ATOM     24  C   UNL     1       3.980   4.257   0.102  1.00  0.00     0.004 C 
ENDBRANCH  22  23
ENDBRANCH  16  22
ENDBRANCH   8  16
ENDBRANCH   4   7
ENDBRANCH   2   3
ENDBRANCH   1   2
BRANCH   1  25
ATOM     25  C   UNL     1      -3.927  -0.794   2.987  1.00  0.00     0.118 C 
BRANCH  25  26
ATOM     26  N   UNL     1      -3.533  -0.938   4.378  1.00  0.00    -0.352 N 
ATOM     27  C   UNL     1      -4.099  -0.417   5.516  1.00  0.00     0.251 C 
ATOM     28  H   UNL     1      -2.736  -1.496   4.529  1.00  0.00     0.163 HD
ATOM     29  O   UNL     1      -3.481  -0.509   6.584  1.00  0.00    -0.269 OA
BRANCH  27  30
ATOM     30  C   UNL     1      -5.413   0.273   5.487  1.00  0.00     0.039 A 
ATOM     31  C   UNL     1      -5.627   1.368   6.331  1.00  0.00     0.014 A 
ATOM     32  C   UNL     1      -6.452  -0.160   4.660  1.00  0.00     0.014 A 
ATOM     33  C   UNL     1      -6.847   2.053   6.297  1.00  0.00     0.010 A 
ATOM     34  C   UNL     1      -7.613   0.597   4.534  1.00  0.00     0.010 A 
ATOM     35  C   UNL     1      -7.840   1.697   5.371  1.00  0.00    -0.014 A 
BRANCH  35  36
ATOM     36  C   UNL     1      -9.136   2.425   5.289  1.00  0.00     0.031 A 
ATOM     37  C   UNL     1     -10.433   1.687   5.517  1.00  0.00     0.074 A 
ATOM     38  C   UNL     1      -9.159   3.729   4.946  1.00  0.00     0.049 A 
ATOM     39  N   UNL     1     -11.663   2.126   5.421  1.00  0.00    -0.248 NA
ATOM     40  C   UNL     1     -10.338   0.258   5.864  1.00  0.00     0.031 C 
ATOM     41  C   UNL     1      -7.982   4.549   4.648  1.00  0.00     0.029 A 
ATOM     42  N   UNL     1     -10.213   4.595   4.784  1.00  0.00    -0.354 N 
ATOM     43  C   UNL     1     -12.479   1.027   5.665  1.00  0.00     0.074 A 
ATOM     44  C   UNL     1     -11.609  -0.112   5.857  1.00  0.00     0.031 C 
ATOM     45  C   UNL     1      -8.377   5.802   4.370  1.00  0.00     0.029 A 
ATOM     46  C   UNL     1      -9.834   5.868   4.426  1.00  0.00     0.049 A 
ATOM     47  H   UNL     1     -11.152   4.329   4.912  1.00  0.00     0.167 HD
ATOM     48  C   UNL     1     -13.830   0.969   5.747  1.00  0.00     0.031 A 
ATOM     49  C   UNL     1     -10.573   6.964   4.164  1.00  0.00     0.031 A 
ATOM     50  C   UNL     1     -14.693   2.108   5.585  1.00  0.00     0.049 A 
ATOM     51  C   UNL     1     -12.071   6.882   4.275  1.00  0.00     0.074 A 
ATOM     52  C   UNL     1     -16.069   2.171   5.723  1.00  0.00     0.029 A 
ATOM     53  N   UNL     1     -14.266   3.384   5.250  1.00  0.00    -0.354 N 
ATOM     54  N   UNL     1     -12.819   5.849   4.583  1.00  0.00    -0.248 NA
ATOM     55  C   UNL     1     -12.825   8.117   4.018  1.00  0.00     0.031 C 
ATOM     56  C   UNL     1     -16.479   3.472   5.416  1.00  0.00     0.029 A 
ATOM     57  C   UNL     1     -15.353   4.235   5.150  1.00  0.00     0.049 A 
ATOM     58  H   UNL     1     -13.328   3.646   5.105  1.00  0.00     0.167 HD
ATOM     59  C   UNL     1     -14.129   6.316   4.581  1.00  0.00     0.074 A 
ATOM     60  C   UNL     1     -14.069   7.727   4.258  1.00  0.00     0.031 C 
ATOM     61  C   UNL     1     -15.278   5.638   4.827  1.00  0.00     0.031 A 
BRANCH  48  62
ATOM     62  C   UNL     1     -14.458  -0.374   6.020  1.00  0.00    -0.014 A 
ATOM     63  C   UNL     1     -14.305  -1.014   7.265  1.00  0.00     0.010 A 
ATOM     64  C   UNL     1     -15.240  -0.993   5.028  1.00  0.00     0.010 A 
ATOM     65  C   UNL     1     -14.880  -2.267   7.494  1.00  0.00     0.020 A 
ATOM     66  C   UNL     1     -15.844  -2.232   5.264  1.00  0.00     0.020 A 
ATOM     67  C   UNL     1     -15.643  -2.870   6.490  1.00  0.00     0.054 A 
BRANCH  67  68
ATOM     68  S   UNL     1     -16.391  -4.489   6.821  1.00  0.00     0.124 S 
ATOM     69  O   UNL     1     -15.227  -5.371   6.785  1.00  0.00    -0.237 OA
ATOM     70  O   UNL     1     -16.994  -4.300   8.138  1.00  0.00    -0.237 OA
ATOM     71  O   UNL     1     -17.339  -4.665   5.724  1.00  0.00    -0.744 OA
ENDBRANCH  67  68
ENDBRANCH  48  62
BRANCH  49  72
ATOM     72  C   UNL     1      -9.901   8.238   3.785  1.00  0.00    -0.014 A 
ATOM     73  C   UNL     1      -9.881   9.329   4.673  1.00  0.00     0.010 A 
ATOM     74  C   UNL     1      -9.258   8.361   2.540  1.00  0.00     0.010 A 
ATOM     75  C   UNL     1      -9.244  10.522   4.316  1.00  0.00     0.020 A 
ATOM     76  C   UNL     1      -8.595   9.541   2.192  1.00  0.00     0.020 A 
ATOM     77  C   UNL     1      -8.601  10.619   3.079  1.00  0.00     0.054 A 
BRANCH  77  78
ATOM     78  S   UNL     1      -7.731  12.156   2.662  1.00  0.00     0.124 S 
ATOM     79  O   UNL     1      -8.838  13.070   2.398  1.00  0.00    -0.237 OA
ATOM     80  O   UNL     1      -6.964  12.423   3.877  1.00  0.00    -0.237 OA
ATOM     81  O   UNL     1      -6.929  11.790   1.497  1.00  0.00    -0.744 OA
ENDBRANCH  77  78
ENDBRANCH  49  72
BRANCH  61  82
ATOM     82  C   UNL     1     -16.566   6.416   4.790  1.00  0.00    -0.014 A 
ATOM     83  C   UNL     1     -17.110   6.873   3.578  1.00  0.00     0.010 A 
ATOM     84  C   UNL     1     -17.274   6.638   5.987  1.00  0.00     0.010 A 
ATOM     85  C   UNL     1     -18.323   7.566   3.565  1.00  0.00     0.020 A 
ATOM     86  C   UNL     1     -18.502   7.304   5.975  1.00  0.00     0.020 A 
ATOM     87  C   UNL     1     -19.012   7.777   4.764  1.00  0.00     0.054 A 
BRANCH  87  88
ATOM     88  S   UNL     1     -20.607   8.638   4.716  1.00  0.00     0.124 S 
ATOM     89  O   UNL     1     -20.200  10.018   4.463  1.00  0.00    -0.237 OA
ATOM     90  O   UNL     1     -21.297   7.974   3.613  1.00  0.00    -0.237 OA
ATOM     91  O   UNL     1     -21.176   8.389   6.038  1.00  0.00    -0.744 OA
ENDBRANCH  87  88
ENDBRANCH  61  82
ENDBRANCH  35  36
ENDBRANCH  27  30
ENDBRANCH  25  26
ENDBRANCH   1  25
TORSDOF 19
