REMARK SMILES CC1(C)CCSC[C@@]1(Nc1ccccc1Br)C(=O)NCCCNC(=O)c1ccc(-c2c3nc(c(-c4ccc(S(=O)(=O)[O-])cc4)c4ccc([nH]4)c(-c4ccc(S(=O)(=O)[O-])cc4)c4nc(c(-c5ccc(S(=O)(=O)[O-])cc5)c5ccc2[nH]5)C=C4)C=C3)cc1
REMARK SMILES IDX 21 1 20 2 19 3 17 4 18 5 8 7 1 8 2 9 3 10 4 11 5 12 7 13
REMARK SMILES IDX 6 14 9 15 10 17 11 18 15 19 12 20 14 21 16 22 13 23 22 24
REMARK SMILES IDX 23 25 24 26 25 28 26 29 27 30 85 31 28 32 84 33 29 34 30 35
REMARK SMILES IDX 31 36 78 37 32 38 83 39 77 40 79 41 33 42 82 43 76 44 75 45
REMARK SMILES IDX 34 47 64 48 45 49 63 50 46 51 49 52 62 53 80 54 47 55 48 56
REMARK SMILES IDX 61 58 81 59 50 60 35 61 36 62 44 63 37 64 43 65 38 66 39 67
REMARK SMILES IDX 40 68 41 69 42 70 65 71 66 72 74 73 67 74 73 75 68 76 69 77
REMARK SMILES IDX 70 78 71 79 72 80 51 81 52 82 60 83 53 84 59 85 54 86 55 87
REMARK SMILES IDX 56 88 57 89 58 90
REMARK H PARENT 19 6 9 16 23 27 79 46 49 57
REMARK Flexibility Score: inf
ROOT
ATOM      1  C   UNL     1       0.913  -0.764   2.687  1.00  0.00     0.042 C 
ENDROOT
BRANCH   1   2
ATOM      2  C   UNL     1       1.280  -1.941   1.781  1.00  0.00     0.117 C 
BRANCH   2   3
ATOM      3  N   UNL     1       0.146  -2.449   1.012  1.00  0.00    -0.354 N 
ATOM      4  C   UNL     1      -0.434  -1.940  -0.118  1.00  0.00     0.247 C 
ATOM      5  O   UNL     1      -1.631  -1.653   0.014  1.00  0.00    -0.272 OA
ATOM      6  H   UNL     1      -0.260  -3.277   1.357  1.00  0.00     0.163 HD
BRANCH   4   7
ATOM      7  C   UNL     1       0.318  -1.761  -1.506  1.00  0.00     0.131 C 
ATOM      8  C   UNL     1       0.865   0.649  -0.652  1.00  0.00     0.014 C 
ATOM      9  C   UNL     1       0.362  -0.186  -1.852  1.00  0.00    -0.002 C 
ATOM     10  C   UNL     1      -1.038   0.401  -2.205  1.00  0.00     0.014 C 
ATOM     11  C   UNL     1       1.277   0.129  -3.073  1.00  0.00     0.020 C 
ATOM     12  C   UNL     1       2.728  -0.305  -2.936  1.00  0.00     0.070 C 
ATOM     13  C   UNL     1       1.735  -2.402  -1.472  1.00  0.00     0.108 C 
ATOM     14  S   UNL     1       2.838  -2.104  -2.901  1.00  0.00    -0.159 SA
BRANCH   7  15
ATOM     15  N   UNL     1      -0.518  -2.438  -2.581  1.00  0.00    -0.369 N 
ATOM     16  H   UNL     1      -1.138  -1.864  -3.086  1.00  0.00     0.161 HD
BRANCH  15  17
ATOM     17  C   UNL     1      -0.495  -3.788  -2.923  1.00  0.00     0.049 A 
ATOM     18  C   UNL     1       0.285  -4.165  -4.033  1.00  0.00     0.027 A 
ATOM     19  C   UNL     1      -1.237  -4.807  -2.301  1.00  0.00     0.041 A 
ATOM     20  C   UNL     1       0.382  -5.491  -4.466  1.00  0.00     0.002 A 
ATOM     21  C   UNL     1      -1.147  -6.141  -2.738  1.00  0.00     0.018 A 
ATOM     22  Br  UNL     1      -2.527  -4.492  -0.946  1.00  0.00    -0.049 Br
ATOM     23  C   UNL     1      -0.331  -6.484  -3.811  1.00  0.00     0.001 A 
ENDBRANCH  15  17
ENDBRANCH   7  15
ENDBRANCH   4   7
ENDBRANCH   2   3
ENDBRANCH   1   2
BRANCH   1  24
ATOM     24  C   UNL     1      -0.057  -1.105   3.810  1.00  0.00     0.118 C 
BRANCH  24  25
ATOM     25  N   UNL     1       0.598  -1.811   4.899  1.00  0.00    -0.352 N 
ATOM     26  C   UNL     1       0.993  -1.356   6.134  1.00  0.00     0.251 C 
ATOM     27  H   UNL     1       0.786  -2.761   4.726  1.00  0.00     0.163 HD
ATOM     28  O   UNL     1       1.751  -2.053   6.811  1.00  0.00    -0.269 OA
BRANCH  26  29
ATOM     29  C   UNL     1       0.542  -0.043   6.654  1.00  0.00     0.039 A 
ATOM     30  C   UNL     1       1.451   0.752   7.361  1.00  0.00     0.014 A 
ATOM     31  C   UNL     1      -0.779   0.387   6.508  1.00  0.00     0.014 A 
ATOM     32  C   UNL     1       1.051   1.994   7.869  1.00  0.00     0.010 A 
ATOM     33  C   UNL     1      -1.157   1.656   6.948  1.00  0.00     0.010 A 
ATOM     34  C   UNL     1      -0.250   2.470   7.643  1.00  0.00    -0.014 A 
BRANCH  34  35
ATOM     35  C   UNL     1      -0.688   3.803   8.140  1.00  0.00     0.031 A 
ATOM     36  C   UNL     1      -1.791   3.904   9.163  1.00  0.00     0.074 A 
ATOM     37  C   UNL     1      -0.147   4.925   7.625  1.00  0.00     0.049 A 
ATOM     38  N   UNL     1      -2.377   4.973   9.641  1.00  0.00    -0.248 NA
ATOM     39  C   UNL     1      -2.321   2.640   9.701  1.00  0.00     0.031 C 
ATOM     40  C   UNL     1       0.902   4.972   6.603  1.00  0.00     0.029 A 
ATOM     41  N   UNL     1      -0.416   6.248   7.880  1.00  0.00    -0.354 N 
ATOM     42  C   UNL     1      -3.360   4.511  10.509  1.00  0.00     0.074 A 
ATOM     43  C   UNL     1      -3.313   3.066  10.471  1.00  0.00     0.031 C 
ATOM     44  C   UNL     1       1.194   6.254   6.329  1.00  0.00     0.029 A 
ATOM     45  C   UNL     1       0.330   7.121   7.124  1.00  0.00     0.049 A 
ATOM     46  H   UNL     1      -1.081   6.543   8.544  1.00  0.00     0.167 HD
ATOM     47  C   UNL     1      -4.216   5.224  11.279  1.00  0.00     0.031 A 
ATOM     48  C   UNL     1       0.312   8.467   7.063  1.00  0.00     0.031 A 
ATOM     49  C   UNL     1      -4.241   6.661  11.349  1.00  0.00     0.049 A 
ATOM     50  C   UNL     1      -0.639   9.234   7.940  1.00  0.00     0.074 A 
ATOM     51  C   UNL     1      -5.024   7.468  12.156  1.00  0.00     0.029 A 
ATOM     52  N   UNL     1      -3.447   7.504  10.589  1.00  0.00    -0.354 N 
ATOM     53  N   UNL     1      -1.519   8.776   8.798  1.00  0.00    -0.248 NA
ATOM     54  C   UNL     1      -0.595  10.701   7.845  1.00  0.00     0.031 C 
ATOM     55  C   UNL     1      -4.732   8.802  11.856  1.00  0.00     0.029 A 
ATOM     56  C   UNL     1      -3.735   8.824  10.894  1.00  0.00     0.049 A 
ATOM     57  H   UNL     1      -2.778   7.210   9.930  1.00  0.00     0.167 HD
ATOM     58  C   UNL     1      -2.115   9.899   9.361  1.00  0.00     0.074 A 
ATOM     59  C   UNL     1      -1.487  11.056   8.759  1.00  0.00     0.031 C 
ATOM     60  C   UNL     1      -3.098   9.965  10.293  1.00  0.00     0.031 A 
BRANCH  47  61
ATOM     61  C   UNL     1      -5.205   4.463  12.121  1.00  0.00    -0.014 A 
ATOM     62  C   UNL     1      -4.795   3.782  13.281  1.00  0.00     0.010 A 
ATOM     63  C   UNL     1      -6.572   4.493  11.790  1.00  0.00     0.010 A 
ATOM     64  C   UNL     1      -5.732   3.124  14.082  1.00  0.00     0.020 A 
ATOM     65  C   UNL     1      -7.515   3.855  12.601  1.00  0.00     0.020 A 
ATOM     66  C   UNL     1      -7.087   3.165  13.737  1.00  0.00     0.054 A 
BRANCH  66  67
ATOM     67  S   UNL     1      -8.288   2.347  14.823  1.00  0.00     0.124 S 
ATOM     68  O   UNL     1      -8.067   0.938  14.508  1.00  0.00    -0.237 OA
ATOM     69  O   UNL     1      -7.856   2.766  16.154  1.00  0.00    -0.237 OA
ATOM     70  O   UNL     1      -9.573   2.888  14.390  1.00  0.00    -0.744 OA
ENDBRANCH  66  67
ENDBRANCH  47  61
BRANCH  48  71
ATOM     71  C   UNL     1       1.222   9.186   6.130  1.00  0.00    -0.014 A 
ATOM     72  C   UNL     1       2.313   9.923   6.622  1.00  0.00     0.010 A 
ATOM     73  C   UNL     1       0.989   9.150   4.743  1.00  0.00     0.010 A 
ATOM     74  C   UNL     1       3.138  10.636   5.747  1.00  0.00     0.020 A 
ATOM     75  C   UNL     1       1.827   9.841   3.864  1.00  0.00     0.020 A 
ATOM     76  C   UNL     1       2.887  10.594   4.373  1.00  0.00     0.054 A 
BRANCH  76  77
ATOM     77  S   UNL     1       3.987  11.498   3.248  1.00  0.00     0.124 S 
ATOM     78  O   UNL     1       3.503  12.867   3.389  1.00  0.00    -0.237 OA
ATOM     79  O   UNL     1       5.308  11.232   3.811  1.00  0.00    -0.237 OA
ATOM     80  O   UNL     1       3.734  10.872   1.952  1.00  0.00    -0.744 OA
ENDBRANCH  76  77
ENDBRANCH  48  71
BRANCH  60  81
ATOM     81  C   UNL     1      -3.532  11.332  10.745  1.00  0.00    -0.014 A 
ATOM     82  C   UNL     1      -4.329  12.148   9.924  1.00  0.00     0.010 A 
ATOM     83  C   UNL     1      -3.179  11.783  12.030  1.00  0.00     0.010 A 
ATOM     84  C   UNL     1      -4.741  13.407  10.369  1.00  0.00     0.020 A 
ATOM     85  C   UNL     1      -3.609  13.031  12.487  1.00  0.00     0.020 A 
ATOM     86  C   UNL     1      -4.376  13.841  11.647  1.00  0.00     0.054 A 
BRANCH  86  87
ATOM     87  S   UNL     1      -4.958  15.461  12.222  1.00  0.00     0.124 S 
ATOM     88  O   UNL     1      -4.062  16.372  11.516  1.00  0.00    -0.237 OA
ATOM     89  O   UNL     1      -6.350  15.480  11.779  1.00  0.00    -0.237 OA
ATOM     90  O   UNL     1      -4.772  15.401  13.670  1.00  0.00    -0.744 OA
ENDBRANCH  86  87
ENDBRANCH  60  81
ENDBRANCH  34  35
ENDBRANCH  26  29
ENDBRANCH  24  25
ENDBRANCH   1  24
TORSDOF 15
