REMARK SMILES [NH3+][C@H](Cc1ccc(O)c(F)c1)C(=O)NCCCNC(=O)c1ccc(-c2c3nc(c(-c4ccc(S(=O)(=O)[O-])cc4)c4ccc([nH]4)c(-c4ccc(S(=O)(=O)[O-])cc4)c4nc(c(-c5ccc(S(=O)(=O)[O-])cc5)c5ccc2[nH]5)C=C4)C=C3)cc1
REMARK SMILES IDX 16 1 15 2 14 3 12 4 13 5 2 7 1 8 3 12 4 13 5 14 11 15 6 16
REMARK SMILES IDX 9 17 7 18 10 19 8 20 17 22 18 23 19 24 20 26 21 27 22 28
REMARK SMILES IDX 80 29 23 30 79 31 24 32 25 33 26 34 73 35 27 36 78 37 72 38
REMARK SMILES IDX 74 39 28 40 77 41 71 42 70 43 29 45 59 46 40 47 58 48 41 49
REMARK SMILES IDX 44 50 57 51 75 52 42 53 43 54 56 56 76 57 45 58 30 59 31 60
REMARK SMILES IDX 39 61 32 62 38 63 33 64 34 65 35 66 36 67 37 68 60 69 61 70
REMARK SMILES IDX 69 71 62 72 68 73 63 74 64 75 65 76 66 77 67 78 46 79 47 80
REMARK SMILES IDX 55 81 48 82 54 83 49 84 50 85 51 86 52 87 53 88
REMARK H PARENT 14 6 1 9 1 10 1 11 8 21 18 25 74 44 44 55
REMARK Flexibility Score: inf
ROOT
ATOM      1  C   UNL     1      -2.606  -1.585   0.478  1.00  0.00     0.042 C 
ENDROOT
BRANCH   1   2
ATOM      2  C   UNL     1      -2.218  -1.633  -0.992  1.00  0.00     0.118 C 
BRANCH   2   3
ATOM      3  N   UNL     1      -1.894  -0.297  -1.460  1.00  0.00    -0.351 N 
ATOM      4  C   UNL     1      -0.753   0.441  -1.481  1.00  0.00     0.278 C 
ATOM      5  O   UNL     1      -0.907   1.656  -1.663  1.00  0.00    -0.268 OA
ATOM      6  H   UNL     1      -2.667   0.176  -1.844  1.00  0.00     0.163 HD
BRANCH   4   7
ATOM      7  C   UNL     1       0.673  -0.133  -1.322  1.00  0.00     0.275 C 
BRANCH   7   8
ATOM      8  N   UNL     1       0.951  -1.213  -2.286  1.00  0.00    -0.347 N 
ATOM      9  H   UNL     1       0.546  -0.973  -3.192  1.00  0.00     0.345 HD
ATOM     10  H   UNL     1       0.539  -2.084  -1.950  1.00  0.00     0.345 HD
ATOM     11  H   UNL     1       1.959  -1.330  -2.385  1.00  0.00     0.345 HD
ENDBRANCH   7   8
BRANCH   7  12
ATOM     12  C   UNL     1       1.198  -0.287   0.126  1.00  0.00     0.111 C 
BRANCH  12  13
ATOM     13  C   UNL     1       0.826  -1.463   1.000  1.00  0.00    -0.038 A 
ATOM     14  C   UNL     1       0.831  -2.794   0.554  1.00  0.00     0.008 A 
ATOM     15  C   UNL     1       0.521  -1.228   2.355  1.00  0.00     0.047 A 
ATOM     16  C   UNL     1       0.395  -3.838   1.384  1.00  0.00     0.049 A 
ATOM     17  C   UNL     1       0.114  -2.271   3.186  1.00  0.00     0.165 A 
ATOM     18  C   UNL     1       0.008  -3.566   2.692  1.00  0.00     0.151 A 
ATOM     19  F   UNL     1      -0.225  -1.995   4.453  1.00  0.00    -0.203 F 
BRANCH  18  20
ATOM     20  O   UNL     1      -0.498  -4.548   3.492  1.00  0.00    -0.505 OA
ATOM     21  H   UNL     1      -0.573  -5.423   3.168  1.00  0.00     0.293 HD
ENDBRANCH  18  20
ENDBRANCH  12  13
ENDBRANCH   7  12
ENDBRANCH   4   7
ENDBRANCH   2   3
ENDBRANCH   1   2
BRANCH   1  22
ATOM     22  C   UNL     1      -3.804  -2.414   0.908  1.00  0.00     0.118 C 
BRANCH  22  23
ATOM     23  N   UNL     1      -3.773  -3.810   0.517  1.00  0.00    -0.352 N 
ATOM     24  C   UNL     1      -4.087  -4.960   1.208  1.00  0.00     0.251 C 
ATOM     25  H   UNL     1      -3.474  -3.964  -0.408  1.00  0.00     0.163 HD
ATOM     26  O   UNL     1      -3.983  -6.026   0.606  1.00  0.00    -0.269 OA
BRANCH  24  27
ATOM     27  C   UNL     1      -4.478  -4.971   2.649  1.00  0.00     0.039 A 
ATOM     28  C   UNL     1      -4.193  -6.126   3.392  1.00  0.00     0.014 A 
ATOM     29  C   UNL     1      -5.116  -3.911   3.292  1.00  0.00     0.014 A 
ATOM     30  C   UNL     1      -4.461  -6.178   4.766  1.00  0.00     0.010 A 
ATOM     31  C   UNL     1      -5.281  -3.918   4.679  1.00  0.00     0.010 A 
ATOM     32  C   UNL     1      -4.961  -5.053   5.435  1.00  0.00    -0.014 A 
BRANCH  32  33
ATOM     33  C   UNL     1      -5.173  -5.045   6.909  1.00  0.00     0.031 A 
ATOM     34  C   UNL     1      -6.548  -4.805   7.480  1.00  0.00     0.074 A 
ATOM     35  C   UNL     1      -4.120  -5.183   7.741  1.00  0.00     0.049 A 
ATOM     36  N   UNL     1      -6.912  -4.663   8.729  1.00  0.00    -0.248 NA
ATOM     37  C   UNL     1      -7.655  -4.677   6.517  1.00  0.00     0.031 C 
ATOM     38  C   UNL     1      -2.727  -5.371   7.326  1.00  0.00     0.029 A 
ATOM     39  N   UNL     1      -4.056  -5.175   9.114  1.00  0.00    -0.354 N 
ATOM     40  C   UNL     1      -8.277  -4.394   8.700  1.00  0.00     0.074 A 
ATOM     41  C   UNL     1      -8.667  -4.352   7.308  1.00  0.00     0.031 C 
ATOM     42  C   UNL     1      -1.954  -5.495   8.418  1.00  0.00     0.029 A 
ATOM     43  C   UNL     1      -2.784  -5.345   9.609  1.00  0.00     0.049 A 
ATOM     44  H   UNL     1      -4.846  -5.059   9.689  1.00  0.00     0.167 HD
ATOM     45  C   UNL     1      -9.133  -4.216   9.734  1.00  0.00     0.031 A 
ATOM     46  C   UNL     1      -2.330  -5.368  10.878  1.00  0.00     0.031 A 
ATOM     47  C   UNL     1      -8.754  -4.290  11.120  1.00  0.00     0.049 A 
ATOM     48  C   UNL     1      -3.303  -5.189  12.011  1.00  0.00     0.074 A 
ATOM     49  C   UNL     1      -9.561  -4.185  12.240  1.00  0.00     0.029 A 
ATOM     50  N   UNL     1      -7.461  -4.496  11.575  1.00  0.00    -0.354 N 
ATOM     51  N   UNL     1      -4.598  -4.987  11.961  1.00  0.00    -0.248 NA
ATOM     52  C   UNL     1      -2.754  -5.249  13.373  1.00  0.00     0.031 C 
ATOM     53  C   UNL     1      -8.749  -4.291  13.374  1.00  0.00     0.029 A 
ATOM     54  C   UNL     1      -7.445  -4.509  12.960  1.00  0.00     0.049 A 
ATOM     55  H   UNL     1      -6.671  -4.615  11.000  1.00  0.00     0.167 HD
ATOM     56  C   UNL     1      -5.022  -4.919  13.284  1.00  0.00     0.074 A 
ATOM     57  C   UNL     1      -3.849  -5.116  14.111  1.00  0.00     0.031 C 
ATOM     58  C   UNL     1      -6.271  -4.712  13.769  1.00  0.00     0.031 A 
BRANCH  45  59
ATOM     59  C   UNL     1     -10.573  -3.921   9.400  1.00  0.00    -0.014 A 
ATOM     60  C   UNL     1     -11.409  -4.912   8.853  1.00  0.00     0.010 A 
ATOM     61  C   UNL     1     -11.105  -2.646   9.662  1.00  0.00     0.010 A 
ATOM     62  C   UNL     1     -12.735  -4.618   8.526  1.00  0.00     0.020 A 
ATOM     63  C   UNL     1     -12.440  -2.356   9.363  1.00  0.00     0.020 A 
ATOM     64  C   UNL     1     -13.241  -3.339   8.777  1.00  0.00     0.054 A 
BRANCH  64  65
ATOM     65  S   UNL     1     -14.968  -2.986   8.351  1.00  0.00     0.124 S 
ATOM     66  O   UNL     1     -14.898  -2.862   6.897  1.00  0.00    -0.237 OA
ATOM     67  O   UNL     1     -15.670  -4.167   8.846  1.00  0.00    -0.237 OA
ATOM     68  O   UNL     1     -15.256  -1.747   9.069  1.00  0.00    -0.744 OA
ENDBRANCH  64  65
ENDBRANCH  45  59
BRANCH  46  69
ATOM     69  C   UNL     1      -0.882  -5.587  11.146  1.00  0.00    -0.014 A 
ATOM     70  C   UNL     1      -0.437  -6.808  11.682  1.00  0.00     0.010 A 
ATOM     71  C   UNL     1       0.060  -4.584  10.855  1.00  0.00     0.010 A 
ATOM     72  C   UNL     1       0.922  -7.017  11.939  1.00  0.00     0.020 A 
ATOM     73  C   UNL     1       1.423  -4.798  11.086  1.00  0.00     0.020 A 
ATOM     74  C   UNL     1       1.843  -6.010  11.638  1.00  0.00     0.054 A 
BRANCH  74  75
ATOM     75  S   UNL     1       3.607  -6.323  11.929  1.00  0.00     0.124 S 
ATOM     76  O   UNL     1       3.702  -6.201  13.381  1.00  0.00    -0.237 OA
ATOM     77  O   UNL     1       3.783  -7.672  11.396  1.00  0.00    -0.237 OA
ATOM     78  O   UNL     1       4.272  -5.269  11.166  1.00  0.00    -0.744 OA
ENDBRANCH  74  75
ENDBRANCH  46  69
BRANCH  58  79
ATOM     79  C   UNL     1      -6.444  -4.725  15.264  1.00  0.00    -0.014 A 
ATOM     80  C   UNL     1      -6.011  -3.648  16.056  1.00  0.00     0.010 A 
ATOM     81  C   UNL     1      -7.103  -5.807  15.875  1.00  0.00     0.010 A 
ATOM     82  C   UNL     1      -6.209  -3.666  17.440  1.00  0.00     0.020 A 
ATOM     83  C   UNL     1      -7.324  -5.818  17.255  1.00  0.00     0.020 A 
ATOM     84  C   UNL     1      -6.864  -4.752  18.030  1.00  0.00     0.054 A 
BRANCH  84  85
ATOM     85  S   UNL     1      -7.152  -4.732  19.821  1.00  0.00     0.124 S 
ATOM     86  O   UNL     1      -5.828  -5.052  20.346  1.00  0.00    -0.237 OA
ATOM     87  O   UNL     1      -7.609  -3.365  20.059  1.00  0.00    -0.237 OA
ATOM     88  O   UNL     1      -8.168  -5.764  20.019  1.00  0.00    -0.744 OA
ENDBRANCH  84  85
ENDBRANCH  58  79
ENDBRANCH  32  33
ENDBRANCH  24  27
ENDBRANCH  22  23
ENDBRANCH   1  22
TORSDOF 17
