REMARK SMILES Cc1cc(C(=O)N2CCC[C@@H]2C)sc1/C=C/C(=O)NCCCNC(=O)c1ccc(-c2c3nc(c(-c4ccc(S(=O)(=O)[O-])cc4)c4ccc([nH]4)c(-c4ccc(S(=O)(=O)[O-])cc4)c4nc(c(-c5ccc(S(=O)(=O)[O-])cc5)c5ccc2[nH]5)C=C4)C=C3)cc1
REMARK SMILES IDX 21 1 20 2 19 3 17 4 18 5 16 7 15 8 14 9 1 10 2 11 3 12 4 13
REMARK SMILES IDX 13 14 5 15 6 16 7 17 8 18 11 19 9 20 10 21 12 22 22 23 23 24
REMARK SMILES IDX 24 25 25 27 26 28 27 29 85 30 28 31 84 32 29 33 30 34 31 35
REMARK SMILES IDX 78 36 32 37 83 38 77 39 79 40 33 41 82 42 76 43 75 44 34 46
REMARK SMILES IDX 64 47 45 48 63 49 46 50 49 51 62 52 80 53 47 54 48 55 61 57
REMARK SMILES IDX 81 58 50 59 35 60 36 61 44 62 37 63 43 64 38 65 39 66 40 67
REMARK SMILES IDX 41 68 42 69 65 70 66 71 74 72 67 73 73 74 68 75 69 76 70 77
REMARK SMILES IDX 71 78 72 79 51 80 52 81 60 82 53 83 59 84 54 85 55 86 56 87
REMARK SMILES IDX 57 88 58 89
REMARK H PARENT 19 6 23 26 79 45 49 56
REMARK Flexibility Score: inf
ROOT
ATOM      1  C   UNL     1       3.153  -4.636   0.677  1.00  0.00     0.042 C 
ENDROOT
BRANCH   1   2
ATOM      2  C   UNL     1       2.208  -4.682  -0.521  1.00  0.00     0.118 C 
BRANCH   2   3
ATOM      3  N   UNL     1       0.931  -5.280  -0.172  1.00  0.00    -0.352 N 
ATOM      4  C   UNL     1      -0.297  -4.712  -0.042  1.00  0.00     0.244 C 
ATOM      5  O   UNL     1      -1.285  -5.420   0.135  1.00  0.00    -0.270 OA
ATOM      6  H   UNL     1       0.959  -6.249  -0.002  1.00  0.00     0.163 HD
BRANCH   4   7
ATOM      7  C   UNL     1      -0.469  -3.256  -0.216  1.00  0.00     0.072 C 
ATOM      8  C   UNL     1       0.256  -2.336   0.439  1.00  0.00     0.025 C 
BRANCH   8   9
ATOM      9  C   UNL     1       0.063  -0.932   0.257  1.00  0.00     0.031 A 
ATOM     10  C   UNL     1       2.502  -0.105   0.262  1.00  0.00     0.046 C 
ATOM     11  C   UNL     1       1.016   0.079   0.222  1.00  0.00    -0.032 A 
ATOM     12  C   UNL     1       0.401   1.373   0.095  1.00  0.00     0.029 A 
ATOM     13  C   UNL     1      -0.977   1.328  -0.008  1.00  0.00     0.093 A 
ATOM     14  S   UNL     1      -1.512  -0.285   0.043  1.00  0.00    -0.130 S 
BRANCH  13  15
ATOM     15  C   UNL     1      -1.852   2.446  -0.353  1.00  0.00     0.264 C 
ATOM     16  O   UNL     1      -1.400   3.431  -0.945  1.00  0.00    -0.268 OA
BRANCH  15  17
ATOM     17  N   UNL     1      -3.220   2.386  -0.108  1.00  0.00    -0.335 N 
ATOM     18  C   UNL     1      -4.126   3.091  -0.988  1.00  0.00     0.120 C 
ATOM     19  C   UNL     1      -3.965   1.723   0.969  1.00  0.00     0.082 C 
ATOM     20  C   UNL     1      -5.370   2.225  -0.941  1.00  0.00     0.024 C 
ATOM     21  C   UNL     1      -5.437   1.808   0.525  1.00  0.00     0.026 C 
ATOM     22  C   UNL     1      -3.754   2.424   2.308  1.00  0.00     0.031 C 
ENDBRANCH  15  17
ENDBRANCH  13  15
ENDBRANCH   8   9
ENDBRANCH   4   7
ENDBRANCH   2   3
ENDBRANCH   1   2
BRANCH   1  23
ATOM     23  C   UNL     1       3.721  -6.001   1.056  1.00  0.00     0.118 C 
BRANCH  23  24
ATOM     24  N   UNL     1       4.639  -6.508   0.046  1.00  0.00    -0.352 N 
ATOM     25  C   UNL     1       5.960  -6.868   0.152  1.00  0.00     0.251 C 
ATOM     26  H   UNL     1       4.253  -6.608  -0.854  1.00  0.00     0.163 HD
ATOM     27  O   UNL     1       6.612  -7.053  -0.871  1.00  0.00    -0.269 OA
BRANCH  25  28
ATOM     28  C   UNL     1       6.601  -7.026   1.477  1.00  0.00     0.039 A 
ATOM     29  C   UNL     1       7.918  -6.588   1.641  1.00  0.00     0.014 A 
ATOM     30  C   UNL     1       5.939  -7.651   2.538  1.00  0.00     0.014 A 
ATOM     31  C   UNL     1       8.553  -6.732   2.878  1.00  0.00     0.010 A 
ATOM     32  C   UNL     1       6.548  -7.734   3.789  1.00  0.00     0.010 A 
ATOM     33  C   UNL     1       7.864  -7.283   3.970  1.00  0.00    -0.014 A 
BRANCH  33  34
ATOM     34  C   UNL     1       8.505  -7.400   5.304  1.00  0.00     0.031 A 
ATOM     35  C   UNL     1       8.771  -8.755   5.904  1.00  0.00     0.074 A 
ATOM     36  C   UNL     1       8.796  -6.284   6.002  1.00  0.00     0.049 A 
ATOM     37  N   UNL     1       9.264  -9.054   7.079  1.00  0.00    -0.248 NA
ATOM     38  C   UNL     1       8.416  -9.926   5.086  1.00  0.00     0.031 C 
ATOM     39  C   UNL     1       8.553  -4.913   5.547  1.00  0.00     0.029 A 
ATOM     40  N   UNL     1       9.352  -6.127   7.247  1.00  0.00    -0.354 N 
ATOM     41  C   UNL     1       9.261 -10.442   7.149  1.00  0.00     0.074 A 
ATOM     42  C   UNL     1       8.677 -10.925   5.917  1.00  0.00     0.031 C 
ATOM     43  C   UNL     1       8.976  -4.056   6.490  1.00  0.00     0.029 A 
ATOM     44  C   UNL     1       9.486  -4.813   7.629  1.00  0.00     0.049 A 
ATOM     45  H   UNL     1       9.628  -6.883   7.813  1.00  0.00     0.167 HD
ATOM     46  C   UNL     1       9.717 -11.244   8.142  1.00  0.00     0.031 A 
ATOM     47  C   UNL     1       9.959  -4.276   8.770  1.00  0.00     0.031 A 
ATOM     48  C   UNL     1      10.308 -10.761   9.362  1.00  0.00     0.049 A 
ATOM     49  C   UNL     1      10.464  -5.184   9.855  1.00  0.00     0.074 A 
ATOM     50  C   UNL     1      10.845 -11.494  10.407  1.00  0.00     0.029 A 
ATOM     51  N   UNL     1      10.443  -9.424   9.701  1.00  0.00    -0.354 N 
ATOM     52  N   UNL     1      10.500  -6.495   9.880  1.00  0.00    -0.248 NA
ATOM     53  C   UNL     1      11.005  -4.541  11.061  1.00  0.00     0.031 C 
ATOM     54  C   UNL     1      11.267 -10.599  11.397  1.00  0.00     0.029 A 
ATOM     55  C   UNL     1      11.039  -9.308  10.946  1.00  0.00     0.049 A 
ATOM     56  H   UNL     1      10.157  -8.667   9.140  1.00  0.00     0.167 HD
ATOM     57  C   UNL     1      11.088  -6.833  11.094  1.00  0.00     0.074 A 
ATOM     58  C   UNL     1      11.405  -5.590  11.767  1.00  0.00     0.031 C 
ATOM     59  C   UNL     1      11.344  -8.063  11.604  1.00  0.00     0.031 A 
BRANCH  46  60
ATOM     60  C   UNL     1       9.588 -12.732   7.947  1.00  0.00    -0.014 A 
ATOM     61  C   UNL     1      10.383 -13.412   7.006  1.00  0.00     0.010 A 
ATOM     62  C   UNL     1       8.684 -13.467   8.735  1.00  0.00     0.010 A 
ATOM     63  C   UNL     1      10.243 -14.790   6.824  1.00  0.00     0.020 A 
ATOM     64  C   UNL     1       8.561 -14.850   8.576  1.00  0.00     0.020 A 
ATOM     65  C   UNL     1       9.328 -15.500   7.606  1.00  0.00     0.054 A 
BRANCH  65  66
ATOM     66  S   UNL     1       9.176 -17.291   7.359  1.00  0.00     0.124 S 
ATOM     67  O   UNL     1       8.436 -17.357   6.100  1.00  0.00    -0.237 OA
ATOM     68  O   UNL     1      10.568 -17.726   7.292  1.00  0.00    -0.237 OA
ATOM     69  O   UNL     1       8.441 -17.742   8.537  1.00  0.00    -0.744 OA
ENDBRANCH  65  66
ENDBRANCH  46  60
BRANCH  47  70
ATOM     70  C   UNL     1       9.993  -2.797   8.930  1.00  0.00    -0.014 A 
ATOM     71  C   UNL     1      11.214  -2.103   8.881  1.00  0.00     0.010 A 
ATOM     72  C   UNL     1       8.799  -2.073   9.105  1.00  0.00     0.010 A 
ATOM     73  C   UNL     1      11.243  -0.712   9.016  1.00  0.00     0.020 A 
ATOM     74  C   UNL     1       8.823  -0.680   9.215  1.00  0.00     0.020 A 
ATOM     75  C   UNL     1      10.046  -0.009   9.179  1.00  0.00     0.054 A 
BRANCH  75  76
ATOM     76  S   UNL     1      10.102   1.802   9.286  1.00  0.00     0.124 S 
ATOM     77  O   UNL     1      10.593   2.011  10.644  1.00  0.00    -0.237 OA
ATOM     78  O   UNL     1      11.030   2.154   8.214  1.00  0.00    -0.237 OA
ATOM     79  O   UNL     1       8.715   2.199   9.052  1.00  0.00    -0.744 OA
ENDBRANCH  75  76
ENDBRANCH  47  70
BRANCH  59  80
ATOM     80  C   UNL     1      12.026  -8.126  12.944  1.00  0.00    -0.014 A 
ATOM     81  C   UNL     1      11.334  -7.816  14.128  1.00  0.00     0.010 A 
ATOM     82  C   UNL     1      13.365  -8.550  13.021  1.00  0.00     0.010 A 
ATOM     83  C   UNL     1      11.980  -7.899  15.364  1.00  0.00     0.020 A 
ATOM     84  C   UNL     1      14.007  -8.658  14.257  1.00  0.00     0.020 A 
ATOM     85  C   UNL     1      13.314  -8.317  15.421  1.00  0.00     0.054 A 
BRANCH  85  86
ATOM     86  S   UNL     1      14.119  -8.456  17.040  1.00  0.00     0.124 S 
ATOM     87  O   UNL     1      14.377  -7.057  17.371  1.00  0.00    -0.237 OA
ATOM     88  O   UNL     1      13.099  -9.116  17.852  1.00  0.00    -0.237 OA
ATOM     89  O   UNL     1      15.307  -9.261  16.768  1.00  0.00    -0.744 OA
ENDBRANCH  85  86
ENDBRANCH  59  80
ENDBRANCH  33  34
ENDBRANCH  25  28
ENDBRANCH  23  24
ENDBRANCH   1  23
TORSDOF 16
