REMARK SMILES CC1=C(C#N)C(=O)N(C)C(=O)/C1=C\Nc1ccc(C(=O)NCCCNC(=O)c2ccc(-c3c4nc(c(-c5ccc(S(=O)(=O)[O-])cc5)c5ccc([nH]5)c(-c5ccc(S(=O)(=O)[O-])cc5)c5nc(c(-c6ccc(S(=O)(=O)[O-])cc6)c6ccc3[nH]6)C=C5)C=C4)cc2)c(O)c1
REMARK SMILES IDX 23 1 22 2 21 3 19 4 20 5 18 7 15 8 16 9 90 10 17 11 88 12
REMARK SMILES IDX 14 13 13 15 1 16 2 17 3 18 12 19 6 20 10 21 7 22 8 23 11 24
REMARK SMILES IDX 9 25 4 26 5 27 89 28 24 30 25 31 26 32 27 34 28 35 29 36
REMARK SMILES IDX 87 37 30 38 86 39 31 40 32 41 33 42 80 43 34 44 85 45 79 46
REMARK SMILES IDX 81 47 35 48 84 49 78 50 77 51 36 53 66 54 47 55 65 56 48 57
REMARK SMILES IDX 51 58 64 59 82 60 49 61 50 62 63 64 83 65 52 66 37 67 38 68
REMARK SMILES IDX 46 69 39 70 45 71 40 72 41 73 42 74 43 75 44 76 67 77 68 78
REMARK SMILES IDX 76 79 69 80 75 81 70 82 71 83 72 84 73 85 74 86 53 87 54 88
REMARK SMILES IDX 62 89 55 90 61 91 56 92 57 93 58 94 59 95 60 96
REMARK H PARENT 21 6 14 14 89 29 25 33 81 52 51 63
REMARK Flexibility Score: inf
ROOT
ATOM      1  C   UNL     1       5.823   9.644  -0.569  1.00  0.00     0.042 C 
ENDROOT
BRANCH   1   2
ATOM      2  C   UNL     1       4.346   9.381  -0.360  1.00  0.00     0.118 C 
BRANCH   2   3
ATOM      3  N   UNL     1       3.530   9.391  -1.567  1.00  0.00    -0.352 N 
ATOM      4  C   UNL     1       2.469   8.594  -1.933  1.00  0.00     0.255 C 
ATOM      5  O   UNL     1       1.921   8.803  -3.014  1.00  0.00    -0.269 OA
ATOM      6  H   UNL     1       3.778  10.077  -2.228  1.00  0.00     0.163 HD
BRANCH   4   7
ATOM      7  C   UNL     1       2.000   7.463  -1.091  1.00  0.00     0.081 A 
ATOM      8  C   UNL     1       1.288   5.131   0.338  1.00  0.00     0.042 A 
ATOM      9  C   UNL     1       1.232   5.145  -1.054  1.00  0.00     0.027 A 
ATOM     10  C   UNL     1       1.661   6.307   1.000  1.00  0.00     0.073 A 
ATOM     11  C   UNL     1       1.593   6.299  -1.764  1.00  0.00     0.020 A 
ATOM     12  C   UNL     1       1.934   7.476   0.301  1.00  0.00     0.130 A 
BRANCH   8  13
ATOM     13  N   UNL     1       1.003   4.022   1.137  1.00  0.00    -0.361 N 
ATOM     14  H   UNL     1       0.888   4.237   2.090  1.00  0.00     0.166 HD
BRANCH  13  15
ATOM     15  C   UNL     1       0.853   2.691   0.848  1.00  0.00     0.097 C 
ATOM     16  C   UNL     1       0.834  -0.116  -0.013  1.00  0.00     0.047 C 
ATOM     17  C   UNL     1       0.372   0.301   1.369  1.00  0.00    -0.013 C 
ATOM     18  C   UNL     1      -0.094  -0.584   2.277  1.00  0.00     0.121 C 
ATOM     19  C   UNL     1       0.466   1.722   1.710  1.00  0.00     0.060 C 
ATOM     20  C   UNL     1      -0.529  -0.147   3.634  1.00  0.00     0.271 C 
ATOM     21  C   UNL     1       0.116   2.167   3.112  1.00  0.00     0.262 C 
ATOM     22  O   UNL     1      -1.001  -0.966   4.422  1.00  0.00    -0.268 OA
ATOM     23  N   UNL     1      -0.378   1.191   3.957  1.00  0.00    -0.277 N 
ATOM     24  O   UNL     1       0.253   3.338   3.470  1.00  0.00    -0.269 OA
ATOM     25  C   UNL     1      -0.770   1.588   5.300  1.00  0.00     0.157 C 
BRANCH  18  26
ATOM     26  C   UNL     1      -0.205  -1.978   2.002  1.00  0.00     0.105 C 
ATOM     27  N   UNL     1      -0.284  -3.105   1.724  1.00  0.00    -0.192 NA
ENDBRANCH  18  26
ENDBRANCH  13  15
ENDBRANCH   8  13
BRANCH  12  28
ATOM     28  O   UNL     1       2.066   8.591   1.080  1.00  0.00    -0.507 OA
ATOM     29  H   UNL     1       2.250   9.420   0.684  1.00  0.00     0.293 HD
ENDBRANCH  12  28
ENDBRANCH   4   7
ENDBRANCH   2   3
ENDBRANCH   1   2
BRANCH   1  30
ATOM     30  C   UNL     1       6.159  10.977  -1.212  1.00  0.00     0.118 C 
BRANCH  30  31
ATOM     31  N   UNL     1       5.764  12.136  -0.419  1.00  0.00    -0.352 N 
ATOM     32  C   UNL     1       6.516  13.045   0.293  1.00  0.00     0.251 C 
ATOM     33  H   UNL     1       4.793  12.297  -0.387  1.00  0.00     0.163 HD
ATOM     34  O   UNL     1       5.948  13.876   0.997  1.00  0.00    -0.269 OA
BRANCH  32  35
ATOM     35  C   UNL     1       7.996  12.999   0.250  1.00  0.00     0.039 A 
ATOM     36  C   UNL     1       8.719  13.205   1.428  1.00  0.00     0.014 A 
ATOM     37  C   UNL     1       8.675  12.733  -0.937  1.00  0.00     0.014 A 
ATOM     38  C   UNL     1      10.107  13.037   1.427  1.00  0.00     0.010 A 
ATOM     39  C   UNL     1      10.031  12.430  -0.908  1.00  0.00     0.010 A 
ATOM     40  C   UNL     1      10.769  12.586   0.273  1.00  0.00    -0.014 A 
BRANCH  40  41
ATOM     41  C   UNL     1      12.223  12.277   0.276  1.00  0.00     0.031 A 
ATOM     42  C   UNL     1      13.151  12.990  -0.676  1.00  0.00     0.074 A 
ATOM     43  C   UNL     1      12.699  11.304   1.082  1.00  0.00     0.049 A 
ATOM     44  N   UNL     1      14.434  12.812  -0.862  1.00  0.00    -0.248 NA
ATOM     45  C   UNL     1      12.560  14.015  -1.556  1.00  0.00     0.031 C 
ATOM     46  C   UNL     1      11.895  10.498   2.007  1.00  0.00     0.029 A 
ATOM     47  N   UNL     1      13.973  10.819   1.250  1.00  0.00    -0.354 N 
ATOM     48  C   UNL     1      14.792  13.677  -1.890  1.00  0.00     0.074 A 
ATOM     49  C   UNL     1      13.587  14.345  -2.324  1.00  0.00     0.031 C 
ATOM     50  C   UNL     1      12.698   9.647   2.665  1.00  0.00     0.029 A 
ATOM     51  C   UNL     1      14.062   9.801   2.173  1.00  0.00     0.049 A 
ATOM     52  H   UNL     1      14.751  11.166   0.756  1.00  0.00     0.167 HD
ATOM     53  C   UNL     1      16.018  13.909  -2.414  1.00  0.00     0.031 A 
ATOM     54  C   UNL     1      15.117   9.060   2.567  1.00  0.00     0.031 A 
ATOM     55  C   UNL     1      17.219  13.260  -1.961  1.00  0.00     0.049 A 
ATOM     56  C   UNL     1      16.469   9.340   1.966  1.00  0.00     0.074 A 
ATOM     57  C   UNL     1      18.521  13.489  -2.370  1.00  0.00     0.029 A 
ATOM     58  N   UNL     1      17.268  12.252  -1.011  1.00  0.00    -0.354 N 
ATOM     59  N   UNL     1      16.801  10.236   1.066  1.00  0.00    -0.248 NA
ATOM     60  C   UNL     1      17.592   8.520   2.441  1.00  0.00     0.031 C 
ATOM     61  C   UNL     1      19.347  12.564  -1.729  1.00  0.00     0.029 A 
ATOM     62  C   UNL     1      18.574  11.819  -0.854  1.00  0.00     0.049 A 
ATOM     63  H   UNL     1      16.492  11.898  -0.521  1.00  0.00     0.167 HD
ATOM     64  C   UNL     1      18.174  10.104   0.890  1.00  0.00     0.074 A 
ATOM     65  C   UNL     1      18.614   9.062   1.794  1.00  0.00     0.031 C 
ATOM     66  C   UNL     1      18.998  10.783   0.053  1.00  0.00     0.031 A 
BRANCH  53  67
ATOM     67  C   UNL     1      16.136  14.897  -3.545  1.00  0.00    -0.014 A 
ATOM     68  C   UNL     1      15.950  16.276  -3.340  1.00  0.00     0.010 A 
ATOM     69  C   UNL     1      16.536  14.443  -4.816  1.00  0.00     0.010 A 
ATOM     70  C   UNL     1      16.147  17.180  -4.387  1.00  0.00     0.020 A 
ATOM     71  C   UNL     1      16.765  15.347  -5.857  1.00  0.00     0.020 A 
ATOM     72  C   UNL     1      16.563  16.710  -5.637  1.00  0.00     0.054 A 
BRANCH  72  73
ATOM     73  S   UNL     1      16.886  17.915  -6.953  1.00  0.00     0.124 S 
ATOM     74  O   UNL     1      15.541  18.403  -7.252  1.00  0.00    -0.237 OA
ATOM     75  O   UNL     1      17.770  18.873  -6.296  1.00  0.00    -0.237 OA
ATOM     76  O   UNL     1      17.506  17.119  -8.009  1.00  0.00    -0.744 OA
ENDBRANCH  72  73
ENDBRANCH  53  67
BRANCH  54  77
ATOM     77  C   UNL     1      14.939   7.964   3.563  1.00  0.00    -0.014 A 
ATOM     78  C   UNL     1      15.549   8.026   4.830  1.00  0.00     0.010 A 
ATOM     79  C   UNL     1      14.174   6.830   3.234  1.00  0.00     0.010 A 
ATOM     80  C   UNL     1      15.431   6.960   5.728  1.00  0.00     0.020 A 
ATOM     81  C   UNL     1      14.020   5.780   4.143  1.00  0.00     0.020 A 
ATOM     82  C   UNL     1      14.668   5.843   5.377  1.00  0.00     0.054 A 
BRANCH  82  83
ATOM     83  S   UNL     1      14.515   4.478   6.562  1.00  0.00     0.124 S 
ATOM     84  O   UNL     1      15.857   3.903   6.537  1.00  0.00    -0.237 OA
ATOM     85  O   UNL     1      14.145   5.171   7.793  1.00  0.00    -0.237 OA
ATOM     86  O   UNL     1      13.465   3.641   5.987  1.00  0.00    -0.744 OA
ENDBRANCH  82  83
ENDBRANCH  54  77
BRANCH  66  87
ATOM     87  C   UNL     1      20.467  10.455   0.102  1.00  0.00    -0.014 A 
ATOM     88  C   UNL     1      20.962   9.224  -0.363  1.00  0.00     0.010 A 
ATOM     89  C   UNL     1      21.374  11.425   0.568  1.00  0.00     0.010 A 
ATOM     90  C   UNL     1      22.333   8.956  -0.329  1.00  0.00     0.020 A 
ATOM     91  C   UNL     1      22.748  11.176   0.569  1.00  0.00     0.020 A 
ATOM     92  C   UNL     1      23.217   9.936   0.134  1.00  0.00     0.054 A 
BRANCH  92  93
ATOM     93  S   UNL     1      24.995   9.578   0.125  1.00  0.00     0.124 S 
ATOM     94  O   UNL     1      25.109   8.580   1.185  1.00  0.00    -0.237 OA
ATOM     95  O   UNL     1      25.213   9.082  -1.231  1.00  0.00    -0.237 OA
ATOM     96  O   UNL     1      25.611  10.870   0.418  1.00  0.00    -0.744 OA
ENDBRANCH  92  93
ENDBRANCH  66  87
ENDBRANCH  40  41
ENDBRANCH  32  35
ENDBRANCH  30  31
ENDBRANCH   1  30
TORSDOF 17
