REMARK SMILES C[C@@H]1C[N@@H+](CC(C)(C)C(=O)NCCCNC(=O)c2ccc(-c3c4nc(c(-c5ccc(S(=O)(=O)[O-])cc5)c5ccc([nH]5)c(-c5ccc(S(=O)(=O)[O-])cc5)c5nc(c(-c6ccc(S(=O)(=O)[O-])cc6)c6ccc3[nH]6)C=C5)C=C4)cc2)CC[C@@H]1[NH3+]
REMARK SMILES IDX 13 1 12 2 11 3 9 4 10 5 6 7 7 8 8 9 5 10 4 11 1 12 2 13 3 14
REMARK SMILES IDX 80 15 79 16 78 17 81 19 14 23 15 24 16 25 17 27 18 28 19 29
REMARK SMILES IDX 77 30 20 31 76 32 21 33 22 34 23 35 70 36 24 37 75 38 69 39
REMARK SMILES IDX 71 40 25 41 74 42 68 43 67 44 26 46 56 47 37 48 55 49 38 50
REMARK SMILES IDX 41 51 54 52 72 53 39 54 40 55 53 57 73 58 42 59 27 60 28 61
REMARK SMILES IDX 36 62 29 63 35 64 30 65 31 66 32 67 33 68 34 69 57 70 58 71
REMARK SMILES IDX 66 72 59 73 65 74 60 75 61 76 62 77 63 78 64 79 43 80 44 81
REMARK SMILES IDX 52 82 45 83 51 84 46 85 47 86 48 87 49 88 50 89
REMARK H PARENT 11 6 4 18 81 20 81 21 81 22 15 26 71 45 41 56
REMARK Flexibility Score: inf
ROOT
ATOM      1  C   UNL     1      -1.534  -8.294   1.181  1.00  0.00     0.042 C 
ENDROOT
BRANCH   1   2
ATOM      2  C   UNL     1      -1.966  -6.855   0.947  1.00  0.00     0.117 C 
BRANCH   2   3
ATOM      3  N   UNL     1      -0.835  -5.957   1.054  1.00  0.00    -0.355 N 
ATOM      4  C   UNL     1      -0.093  -5.333   0.107  1.00  0.00     0.231 C 
ATOM      5  O   UNL     1       1.071  -5.082   0.441  1.00  0.00    -0.274 OA
ATOM      6  H   UNL     1      -0.555  -5.766   1.978  1.00  0.00     0.163 HD
BRANCH   4   7
ATOM      7  C   UNL     1      -0.612  -5.008  -1.303  1.00  0.00     0.092 C 
ATOM      8  C   UNL     1      -2.134  -4.849  -1.447  1.00  0.00     0.027 C 
ATOM      9  C   UNL     1      -0.181  -6.202  -2.183  1.00  0.00     0.027 C 
BRANCH   7  10
ATOM     10  C   UNL     1       0.122  -3.707  -1.825  1.00  0.00     0.278 C 
BRANCH  10  11
ATOM     11  N   UNL     1      -0.079  -2.361  -1.219  1.00  0.00    -0.333 N 
ATOM     12  C   UNL     1       1.341   0.134   0.028  1.00  0.00     0.020 C 
ATOM     13  C   UNL     1       0.383  -0.834   0.734  1.00  0.00     0.099 C 
ATOM     14  C   UNL     1       0.477  -2.250   0.136  1.00  0.00     0.271 C 
ATOM     15  C   UNL     1      -1.096  -0.404   0.697  1.00  0.00     0.194 C 
ATOM     16  C   UNL     1      -1.613  -0.430  -0.742  1.00  0.00     0.126 C 
ATOM     17  C   UNL     1      -1.438  -1.832  -1.330  1.00  0.00     0.268 C 
ATOM     18  H   UNL     1       0.476  -1.738  -1.806  1.00  0.00     0.348 HD
BRANCH  15  19
ATOM     19  N   UNL     1      -1.341   0.900   1.317  1.00  0.00    -0.355 N 
ATOM     20  H   UNL     1      -0.846   1.623   0.795  1.00  0.00     0.344 HD
ATOM     21  H   UNL     1      -1.006   0.886   2.280  1.00  0.00     0.344 HD
ATOM     22  H   UNL     1      -2.341   1.098   1.307  1.00  0.00     0.344 HD
ENDBRANCH  15  19
ENDBRANCH  10  11
ENDBRANCH   7  10
ENDBRANCH   4   7
ENDBRANCH   2   3
ENDBRANCH   1   2
BRANCH   1  23
ATOM     23  C   UNL     1      -1.021  -8.545   2.591  1.00  0.00     0.118 C 
BRANCH  23  24
ATOM     24  N   UNL     1      -2.053  -8.334   3.599  1.00  0.00    -0.352 N 
ATOM     25  C   UNL     1      -2.679  -9.246   4.413  1.00  0.00     0.251 C 
ATOM     26  H   UNL     1      -2.343  -7.400   3.712  1.00  0.00     0.163 HD
ATOM     27  O   UNL     1      -3.691  -8.926   5.025  1.00  0.00    -0.269 OA
BRANCH  25  28
ATOM     28  C   UNL     1      -2.132 -10.614   4.529  1.00  0.00     0.039 A 
ATOM     29  C   UNL     1      -3.005 -11.703   4.518  1.00  0.00     0.014 A 
ATOM     30  C   UNL     1      -0.754 -10.816   4.638  1.00  0.00     0.014 A 
ATOM     31  C   UNL     1      -2.486 -12.999   4.544  1.00  0.00     0.010 A 
ATOM     32  C   UNL     1      -0.237 -12.102   4.554  1.00  0.00     0.010 A 
ATOM     33  C   UNL     1      -1.097 -13.209   4.521  1.00  0.00    -0.014 A 
BRANCH  33  34
ATOM     34  C   UNL     1      -0.518 -14.574   4.474  1.00  0.00     0.031 A 
ATOM     35  C   UNL     1       0.375 -15.050   5.589  1.00  0.00     0.074 A 
ATOM     36  C   UNL     1      -0.738 -15.356   3.399  1.00  0.00     0.049 A 
ATOM     37  N   UNL     1       1.023 -16.181   5.699  1.00  0.00    -0.248 NA
ATOM     38  C   UNL     1       0.594 -14.123   6.712  1.00  0.00     0.031 C 
ATOM     39  C   UNL     1      -1.546 -14.989   2.233  1.00  0.00     0.029 A 
ATOM     40  N   UNL     1      -0.296 -16.622   3.108  1.00  0.00    -0.354 N 
ATOM     41  C   UNL     1       1.738 -16.092   6.888  1.00  0.00     0.074 A 
ATOM     42  C   UNL     1       1.494 -14.775   7.432  1.00  0.00     0.031 C 
ATOM     43  C   UNL     1      -1.570 -16.018   1.371  1.00  0.00     0.029 A 
ATOM     44  C   UNL     1      -0.742 -17.098   1.897  1.00  0.00     0.049 A 
ATOM     45  H   UNL     1       0.285 -17.141   3.709  1.00  0.00     0.167 HD
ATOM     46  C   UNL     1       2.511 -17.029   7.486  1.00  0.00     0.031 A 
ATOM     47  C   UNL     1      -0.505 -18.269   1.274  1.00  0.00     0.031 A 
ATOM     48  C   UNL     1       2.743 -18.341   6.943  1.00  0.00     0.049 A 
ATOM     49  C   UNL     1       0.366 -19.292   1.951  1.00  0.00     0.074 A 
ATOM     50  C   UNL     1       3.461 -19.386   7.497  1.00  0.00     0.029 A 
ATOM     51  N   UNL     1       2.265 -18.786   5.719  1.00  0.00    -0.354 N 
ATOM     52  N   UNL     1       0.976 -19.216   3.111  1.00  0.00    -0.248 NA
ATOM     53  C   UNL     1       0.570 -20.562   1.243  1.00  0.00     0.031 C 
ATOM     54  C   UNL     1       3.471 -20.441   6.580  1.00  0.00     0.029 A 
ATOM     55  C   UNL     1       2.697 -20.081   5.487  1.00  0.00     0.049 A 
ATOM     56  H   UNL     1       1.703 -18.260   5.107  1.00  0.00     0.167 HD
ATOM     57  C   UNL     1       1.611 -20.441   3.285  1.00  0.00     0.074 A 
ATOM     58  C   UNL     1       1.300 -21.242   2.118  1.00  0.00     0.031 C 
ATOM     59  C   UNL     1       2.379 -20.865   4.319  1.00  0.00     0.031 A 
BRANCH  46  60
ATOM     60  C   UNL     1       3.169 -16.661   8.792  1.00  0.00    -0.014 A 
ATOM     61  C   UNL     1       2.410 -16.445   9.957  1.00  0.00     0.010 A 
ATOM     62  C   UNL     1       4.570 -16.557   8.863  1.00  0.00     0.010 A 
ATOM     63  C   UNL     1       3.035 -16.084  11.154  1.00  0.00     0.020 A 
ATOM     64  C   UNL     1       5.202 -16.229  10.066  1.00  0.00     0.020 A 
ATOM     65  C   UNL     1       4.428 -15.976  11.200  1.00  0.00     0.054 A 
BRANCH  65  66
ATOM     66  S   UNL     1       5.211 -15.522  12.771  1.00  0.00     0.124 S 
ATOM     67  O   UNL     1       4.841 -14.114  12.896  1.00  0.00    -0.237 OA
ATOM     68  O   UNL     1       4.569 -16.427  13.721  1.00  0.00    -0.237 OA
ATOM     69  O   UNL     1       6.631 -15.774  12.537  1.00  0.00    -0.744 OA
ENDBRANCH  65  66
ENDBRANCH  46  60
BRANCH  47  70
ATOM     70  C   UNL     1      -1.119 -18.539  -0.056  1.00  0.00    -0.014 A 
ATOM     71  C   UNL     1      -2.140 -19.496  -0.191  1.00  0.00     0.010 A 
ATOM     72  C   UNL     1      -0.702 -17.820  -1.191  1.00  0.00     0.010 A 
ATOM     73  C   UNL     1      -2.723 -19.739  -1.439  1.00  0.00     0.020 A 
ATOM     74  C   UNL     1      -1.304 -18.038  -2.434  1.00  0.00     0.020 A 
ATOM     75  C   UNL     1      -2.305 -19.004  -2.551  1.00  0.00     0.054 A 
BRANCH  75  76
ATOM     76  S   UNL     1      -3.119 -19.293  -4.147  1.00  0.00     0.124 S 
ATOM     77  O   UNL     1      -2.606 -20.609  -4.516  1.00  0.00    -0.237 OA
ATOM     78  O   UNL     1      -4.535 -19.241  -3.790  1.00  0.00    -0.237 OA
ATOM     79  O   UNL     1      -2.652 -18.184  -4.975  1.00  0.00    -0.744 OA
ENDBRANCH  75  76
ENDBRANCH  47  70
BRANCH  59  80
ATOM     80  C   UNL     1       2.908 -22.274   4.261  1.00  0.00    -0.014 A 
ATOM     81  C   UNL     1       3.919 -22.642   3.357  1.00  0.00     0.010 A 
ATOM     82  C   UNL     1       2.423 -23.230   5.174  1.00  0.00     0.010 A 
ATOM     83  C   UNL     1       4.415 -23.949   3.346  1.00  0.00     0.020 A 
ATOM     84  C   UNL     1       2.939 -24.527   5.188  1.00  0.00     0.020 A 
ATOM     85  C   UNL     1       3.923 -24.882   4.264  1.00  0.00     0.054 A 
BRANCH  85  86
ATOM     86  S   UNL     1       4.618 -26.557   4.262  1.00  0.00     0.124 S 
ATOM     87  O   UNL     1       4.063 -27.115   3.032  1.00  0.00    -0.237 OA
ATOM     88  O   UNL     1       6.057 -26.305   4.245  1.00  0.00    -0.237 OA
ATOM     89  O   UNL     1       4.109 -27.146   5.498  1.00  0.00    -0.744 OA
ENDBRANCH  85  86
ENDBRANCH  59  80
ENDBRANCH  33  34
ENDBRANCH  25  28
ENDBRANCH  23  24
ENDBRANCH   1  23
TORSDOF 16
