REMARK SMILES Cc1ccc(S(=O)(=O)Nc2cc(C(=O)NCCCNC(=O)c3ccc(-c4c5nc(c(-c6ccc(S(=O)(=O)[O-])cc6)c6ccc([nH]6)c(-c6ccc(S(=O)(=O)[O-])cc6)c6nc(c(-c7ccc(S(=O)(=O)[O-])cc7)c7ccc4[nH]7)C=C6)C=C5)cc3)cnc2N2CCCC2)c(C)c1
REMARK SMILES IDX 17 1 16 2 15 3 13 4 14 5 12 7 10 8 11 9 84 10 83 11 82 12
REMARK SMILES IDX 9 13 6 15 7 16 8 17 5 18 1 19 2 20 3 21 92 22 4 23 90 24
REMARK SMILES IDX 91 25 85 26 86 27 89 28 87 29 88 30 18 31 19 32 20 33 21 35
REMARK SMILES IDX 22 36 23 37 81 38 24 39 80 40 25 41 26 42 27 43 74 44 28 45
REMARK SMILES IDX 79 46 73 47 75 48 29 49 78 50 72 51 71 52 30 54 60 55 41 56
REMARK SMILES IDX 59 57 42 58 45 59 58 60 76 61 43 62 44 63 57 65 77 66 46 67
REMARK SMILES IDX 31 68 32 69 40 70 33 71 39 72 34 73 35 74 36 75 37 76 38 77
REMARK SMILES IDX 61 78 62 79 70 80 63 81 69 82 64 83 65 84 66 85 67 86 68 87
REMARK SMILES IDX 47 88 48 89 56 90 49 91 55 92 50 93 51 94 52 95 53 96 54 97
REMARK H PARENT 15 6 9 14 19 34 75 53 45 64
REMARK Flexibility Score: inf
ROOT
ATOM      1  C   UNL     1       0.183  -1.693   3.753  1.00  0.00     0.042 C 
ENDROOT
BRANCH   1   2
ATOM      2  C   UNL     1       1.178  -1.713   2.596  1.00  0.00     0.118 C 
BRANCH   2   3
ATOM      3  N   UNL     1       2.053  -2.871   2.658  1.00  0.00    -0.352 N 
ATOM      4  C   UNL     1       2.029  -4.077   2.004  1.00  0.00     0.252 C 
ATOM      5  O   UNL     1       2.975  -4.844   2.179  1.00  0.00    -0.269 OA
ATOM      6  H   UNL     1       2.804  -2.772   3.287  1.00  0.00     0.163 HD
BRANCH   4   7
ATOM      7  C   UNL     1       0.961  -4.472   1.055  1.00  0.00     0.060 A 
ATOM      8  C   UNL     1      -1.190  -4.327   0.000  1.00  0.00     0.092 A 
ATOM      9  C   UNL     1      -0.341  -3.987   1.050  1.00  0.00     0.046 A 
ATOM     10  C   UNL     1      -0.792  -5.306  -0.938  1.00  0.00     0.153 A 
ATOM     11  N   UNL     1       0.436  -5.859  -0.883  1.00  0.00    -0.236 NA
ATOM     12  C   UNL     1       1.287  -5.411   0.079  1.00  0.00     0.127 A 
BRANCH   8  13
ATOM     13  N   UNL     1      -2.461  -3.711  -0.164  1.00  0.00    -0.276 N 
ATOM     14  H   UNL     1      -3.219  -4.298  -0.388  1.00  0.00     0.180 HD
BRANCH  13  15
ATOM     15  S   UNL     1      -2.780  -2.082  -0.010  1.00  0.00     0.262 S 
ATOM     16  O   UNL     1      -2.951  -1.842   1.412  1.00  0.00    -0.201 OA
ATOM     17  O   UNL     1      -3.841  -1.823  -0.956  1.00  0.00    -0.201 OA
BRANCH  15  18
ATOM     18  C   UNL     1      -1.390  -1.063  -0.515  1.00  0.00     0.090 A 
ATOM     19  C   UNL     1       2.344   1.091  -0.454  1.00  0.00     0.044 C 
ATOM     20  C   UNL     1       1.033   0.369  -0.562  1.00  0.00    -0.051 A 
ATOM     21  C   UNL     1       0.947  -0.895  -1.149  1.00  0.00     0.005 A 
ATOM     22  C   UNL     1      -0.139   0.975  -0.100  1.00  0.00     0.008 A 
ATOM     23  C   UNL     1      -0.263  -1.601  -1.145  1.00  0.00     0.023 A 
ATOM     24  C   UNL     1      -1.362   0.281  -0.086  1.00  0.00    -0.030 A 
ATOM     25  C   UNL     1      -2.572   1.038   0.395  1.00  0.00     0.046 C 
ENDBRANCH  15  18
ENDBRANCH  13  15
ENDBRANCH   8  13
BRANCH  10  26
ATOM     26  N   UNL     1      -1.657  -5.771  -1.890  1.00  0.00    -0.355 N 
ATOM     27  C   UNL     1      -2.274  -5.039  -2.977  1.00  0.00     0.118 C 
ATOM     28  C   UNL     1      -2.046  -7.173  -1.868  1.00  0.00     0.118 C 
ATOM     29  C   UNL     1      -3.567  -5.826  -3.174  1.00  0.00     0.023 C 
ATOM     30  C   UNL     1      -3.116  -7.269  -2.961  1.00  0.00     0.023 C 
ENDBRANCH  10  26
ENDBRANCH   4   7
ENDBRANCH   2   3
ENDBRANCH   1   2
BRANCH   1  31
ATOM     31  C   UNL     1       0.792  -1.176   5.050  1.00  0.00     0.118 C 
BRANCH  31  32
ATOM     32  N   UNL     1       1.039   0.257   4.998  1.00  0.00    -0.352 N 
ATOM     33  C   UNL     1       0.714   1.233   5.907  1.00  0.00     0.251 C 
ATOM     34  H   UNL     1       1.508   0.574   4.193  1.00  0.00     0.163 HD
ATOM     35  O   UNL     1       0.836   2.413   5.586  1.00  0.00    -0.269 OA
BRANCH  33  36
ATOM     36  C   UNL     1       0.210   0.876   7.253  1.00  0.00     0.039 A 
ATOM     37  C   UNL     1      -0.811   1.652   7.812  1.00  0.00     0.014 A 
ATOM     38  C   UNL     1       0.764  -0.178   7.985  1.00  0.00     0.014 A 
ATOM     39  C   UNL     1      -1.297   1.351   9.086  1.00  0.00     0.010 A 
ATOM     40  C   UNL     1       0.235  -0.518   9.228  1.00  0.00     0.010 A 
ATOM     41  C   UNL     1      -0.788   0.253   9.798  1.00  0.00    -0.014 A 
BRANCH  41  42
ATOM     42  C   UNL     1      -1.289  -0.077  11.156  1.00  0.00     0.031 A 
ATOM     43  C   UNL     1      -0.378   0.055  12.347  1.00  0.00     0.074 A 
ATOM     44  C   UNL     1      -2.544  -0.541  11.312  1.00  0.00     0.049 A 
ATOM     45  N   UNL     1      -0.615  -0.229  13.602  1.00  0.00    -0.248 NA
ATOM     46  C   UNL     1       0.986   0.546  12.090  1.00  0.00     0.031 C 
ATOM     47  C   UNL     1      -3.510  -0.757  10.232  1.00  0.00     0.029 A 
ATOM     48  N   UNL     1      -3.220  -0.920  12.444  1.00  0.00    -0.354 N 
ATOM     49  C   UNL     1       0.574   0.020  14.277  1.00  0.00     0.074 A 
ATOM     50  C   UNL     1       1.541   0.444  13.288  1.00  0.00     0.031 C 
ATOM     51  C   UNL     1      -4.661  -1.206  10.758  1.00  0.00     0.029 A 
ATOM     52  C   UNL     1      -4.508  -1.335  12.203  1.00  0.00     0.049 A 
ATOM     53  H   UNL     1      -2.821  -0.896  13.344  1.00  0.00     0.167 HD
ATOM     54  C   UNL     1       0.836  -0.078  15.603  1.00  0.00     0.031 A 
ATOM     55  C   UNL     1      -5.460  -1.768  13.052  1.00  0.00     0.031 A 
ATOM     56  C   UNL     1      -0.133  -0.470  16.590  1.00  0.00     0.049 A 
ATOM     57  C   UNL     1      -5.162  -1.823  14.524  1.00  0.00     0.074 A 
ATOM     58  C   UNL     1       0.018  -0.548  17.964  1.00  0.00     0.029 A 
ATOM     59  N   UNL     1      -1.438  -0.842  16.309  1.00  0.00    -0.354 N 
ATOM     60  N   UNL     1      -4.046  -1.534  15.149  1.00  0.00    -0.248 NA
ATOM     61  C   UNL     1      -6.258  -2.246  15.406  1.00  0.00     0.031 C 
ATOM     62  C   UNL     1      -1.192  -0.991  18.511  1.00  0.00     0.029 A 
ATOM     63  C   UNL     1      -2.104  -1.154  17.481  1.00  0.00     0.049 A 
ATOM     64  H   UNL     1      -1.834  -0.878  15.408  1.00  0.00     0.167 HD
ATOM     65  C   UNL     1      -4.311  -1.721  16.500  1.00  0.00     0.074 A 
ATOM     66  C   UNL     1      -5.696  -2.135  16.603  1.00  0.00     0.031 C 
ATOM     67  C   UNL     1      -3.483  -1.563  17.562  1.00  0.00     0.031 A 
BRANCH  54  68
ATOM     68  C   UNL     1       2.235   0.244  16.053  1.00  0.00    -0.014 A 
ATOM     69  C   UNL     1       2.704   1.570  16.067  1.00  0.00     0.010 A 
ATOM     70  C   UNL     1       3.090  -0.790  16.477  1.00  0.00     0.010 A 
ATOM     71  C   UNL     1       4.018   1.852  16.449  1.00  0.00     0.020 A 
ATOM     72  C   UNL     1       4.398  -0.509  16.882  1.00  0.00     0.020 A 
ATOM     73  C   UNL     1       4.860   0.809  16.844  1.00  0.00     0.054 A 
BRANCH  73  74
ATOM     74  S   UNL     1       6.563   1.197  17.335  1.00  0.00     0.124 S 
ATOM     75  O   UNL     1       7.216   1.368  16.040  1.00  0.00    -0.237 OA
ATOM     76  O   UNL     1       6.404   2.416  18.124  1.00  0.00    -0.237 OA
ATOM     77  O   UNL     1       6.980   0.020  18.094  1.00  0.00    -0.744 OA
ENDBRANCH  73  74
ENDBRANCH  54  68
BRANCH  55  78
ATOM     78  C   UNL     1      -6.798  -2.147  12.528  1.00  0.00    -0.014 A 
ATOM     79  C   UNL     1      -7.896  -1.287  12.702  1.00  0.00     0.010 A 
ATOM     80  C   UNL     1      -6.975  -3.355  11.831  1.00  0.00     0.010 A 
ATOM     81  C   UNL     1      -9.152  -1.633  12.197  1.00  0.00     0.020 A 
ATOM     82  C   UNL     1      -8.225  -3.696  11.308  1.00  0.00     0.020 A 
ATOM     83  C   UNL     1      -9.309  -2.836  11.503  1.00  0.00     0.054 A 
BRANCH  83  84
ATOM     84  S   UNL     1     -10.933  -3.241  10.801  1.00  0.00     0.124 S 
ATOM     85  O   UNL     1     -11.657  -3.726  11.972  1.00  0.00    -0.237 OA
ATOM     86  O   UNL     1     -11.380  -1.956  10.269  1.00  0.00    -0.237 OA
ATOM     87  O   UNL     1     -10.624  -4.250   9.790  1.00  0.00    -0.744 OA
ENDBRANCH  83  84
ENDBRANCH  55  78
BRANCH  67  88
ATOM     88  C   UNL     1      -4.062  -1.811  18.926  1.00  0.00    -0.014 A 
ATOM     89  C   UNL     1      -4.287  -3.118  19.391  1.00  0.00     0.010 A 
ATOM     90  C   UNL     1      -4.343  -0.721  19.769  1.00  0.00     0.010 A 
ATOM     91  C   UNL     1      -4.813  -3.331  20.667  1.00  0.00     0.020 A 
ATOM     92  C   UNL     1      -4.852  -0.931  21.053  1.00  0.00     0.020 A 
ATOM     93  C   UNL     1      -5.098  -2.235  21.488  1.00  0.00     0.054 A 
BRANCH  93  94
ATOM     94  S   UNL     1      -5.746  -2.532  23.157  1.00  0.00     0.124 S 
ATOM     95  O   UNL     1      -7.158  -2.794  22.890  1.00  0.00    -0.237 OA
ATOM     96  O   UNL     1      -4.968  -3.683  23.608  1.00  0.00    -0.237 OA
ATOM     97  O   UNL     1      -5.465  -1.283  23.862  1.00  0.00    -0.744 OA
ENDBRANCH  93  94
ENDBRANCH  67  88
ENDBRANCH  41  42
ENDBRANCH  33  36
ENDBRANCH  31  32
ENDBRANCH   1  31
TORSDOF 17
