REMARK SMILES Cc1cccc(O[C@H](C)C(=O)NNC(=O)[C@H]2[C@@H]3CC[C@@H](C3)[C@@H]2C(=O)NCCCNC(=O)c2ccc(-c3c4nc(c(-c5ccc(S(=O)(=O)[O-])cc5)c5ccc([nH]5)c(-c5ccc(S(=O)(=O)[O-])cc5)c5nc(c(-c6ccc(S(=O)(=O)[O-])cc6)c6ccc3[nH]6)C=C5)C=C4)cc2)c1
REMARK SMILES IDX 26 1 25 2 23 3 24 4 22 6 16 7 17 8 18 9 21 10 20 11 19 12
REMARK SMILES IDX 14 13 13 14 15 16 12 17 10 18 11 19 8 21 9 22 7 23 6 24 1 25
REMARK SMILES IDX 2 26 3 27 92 28 4 29 5 30 27 31 28 32 29 33 30 34 31 36
REMARK SMILES IDX 32 37 33 38 91 39 34 40 90 41 35 42 36 43 37 44 84 45 38 46
REMARK SMILES IDX 89 47 83 48 85 49 39 50 88 51 82 52 81 53 40 55 70 56 51 57
REMARK SMILES IDX 69 58 52 59 55 60 68 61 86 62 53 63 54 64 67 66 87 67 56 68
REMARK SMILES IDX 41 69 42 70 50 71 43 72 49 73 44 74 45 75 46 76 47 77 48 78
REMARK SMILES IDX 71 79 72 80 80 81 73 82 79 83 74 84 75 85 76 86 77 87 78 88
REMARK SMILES IDX 57 89 58 90 66 91 59 92 65 93 60 94 61 95 62 96 63 97 64 98
REMARK H PARENT 25 5 13 15 12 20 29 35 85 54 55 65
REMARK Flexibility Score: inf
ROOT
ATOM      1  C   UNL     1       3.607   5.186  -3.777  1.00  0.00     0.117 C 
ENDROOT
BRANCH   1   2
ATOM      2  N   UNL     1       4.636   4.277  -3.283  1.00  0.00    -0.356 N 
ATOM      3  C   UNL     1       4.535   2.955  -2.944  1.00  0.00     0.224 C 
ATOM      4  O   UNL     1       5.528   2.358  -2.534  1.00  0.00    -0.275 OA
ATOM      5  H   UNL     1       5.532   4.672  -3.177  1.00  0.00     0.163 HD
BRANCH   3   6
ATOM      6  C   UNL     1       3.177   2.281  -3.084  1.00  0.00     0.094 C 
ATOM      7  C   UNL     1       3.027   0.962  -2.299  1.00  0.00     0.096 C 
ATOM      8  C   UNL     1       2.435  -0.016  -3.347  1.00  0.00     0.002 C 
ATOM      9  C   UNL     1       3.588  -0.459  -4.271  1.00  0.00     0.005 C 
ATOM     10  C   UNL     1       1.661   0.891  -4.301  1.00  0.00     0.009 C 
ATOM     11  C   UNL     1       2.850   1.826  -4.531  1.00  0.00     0.002 C 
ATOM     12  C   UNL     1       3.903   0.827  -5.056  1.00  0.00     0.005 C 
BRANCH   7  13
ATOM     13  C   UNL     1       2.289   0.949  -0.963  1.00  0.00     0.242 C 
ATOM     14  N   UNL     1       1.256   1.769  -0.616  1.00  0.00    -0.267 N 
ATOM     15  H   UNL     1       1.044   1.805   0.344  1.00  0.00     0.191 HD
ATOM     16  O   UNL     1       2.612   0.098  -0.122  1.00  0.00    -0.273 OA
BRANCH  14  17
ATOM     17  N   UNL     1       0.475   2.548  -1.427  1.00  0.00    -0.264 N 
ATOM     18  C   UNL     1      -0.597   3.316  -1.098  1.00  0.00     0.279 C 
ATOM     19  O   UNL     1      -1.087   3.962  -2.038  1.00  0.00    -0.269 OA
ATOM     20  H   UNL     1       0.724   2.553  -2.380  1.00  0.00     0.191 HD
BRANCH  18  21
ATOM     21  C   UNL     1      -1.269   3.402   0.303  1.00  0.00     0.260 C 
ATOM     22  C   UNL     1      -2.697   2.838   0.248  1.00  0.00     0.064 C 
BRANCH  21  23
ATOM     23  O   UNL     1      -0.639   3.307   1.559  1.00  0.00    -0.481 OA
BRANCH  23  24
ATOM     24  C   UNL     1      -0.246   2.165   2.175  1.00  0.00     0.120 A 
ATOM     25  C   UNL     1       2.332   1.568   4.926  1.00  0.00     0.044 C 
ATOM     26  C   UNL     1       1.291   1.320   3.874  1.00  0.00    -0.047 A 
ATOM     27  C   UNL     1       0.969   0.015   3.498  1.00  0.00     0.003 A 
ATOM     28  C   UNL     1       0.666   2.385   3.216  1.00  0.00     0.049 A 
ATOM     29  C   UNL     1       0.033  -0.214   2.489  1.00  0.00     0.004 A 
ATOM     30  C   UNL     1      -0.577   0.858   1.830  1.00  0.00     0.046 A 
ENDBRANCH  23  24
ENDBRANCH  21  23
ENDBRANCH  18  21
ENDBRANCH  14  17
ENDBRANCH   7  13
ENDBRANCH   3   6
ENDBRANCH   1   2
BRANCH   1  31
ATOM     31  C   UNL     1       2.773   5.795  -2.653  1.00  0.00     0.042 C 
BRANCH  31  32
ATOM     32  C   UNL     1       3.447   7.007  -2.027  1.00  0.00     0.118 C 
BRANCH  32  33
ATOM     33  N   UNL     1       2.929   8.280  -2.513  1.00  0.00    -0.352 N 
ATOM     34  C   UNL     1       3.321   9.556  -2.146  1.00  0.00     0.251 C 
ATOM     35  H   UNL     1       2.212   8.226  -3.184  1.00  0.00     0.163 HD
ATOM     36  O   UNL     1       2.669  10.538  -2.463  1.00  0.00    -0.269 OA
BRANCH  34  37
ATOM     37  C   UNL     1       4.605   9.698  -1.427  1.00  0.00     0.039 A 
ATOM     38  C   UNL     1       5.632  10.405  -2.063  1.00  0.00     0.014 A 
ATOM     39  C   UNL     1       4.856   8.941  -0.287  1.00  0.00     0.014 A 
ATOM     40  C   UNL     1       6.952  10.203  -1.666  1.00  0.00     0.010 A 
ATOM     41  C   UNL     1       6.167   8.668   0.043  1.00  0.00     0.010 A 
ATOM     42  C   UNL     1       7.218   9.261  -0.675  1.00  0.00    -0.014 A 
BRANCH  42  43
ATOM     43  C   UNL     1       8.547   8.761  -0.340  1.00  0.00     0.031 A 
ATOM     44  C   UNL     1       9.156   9.097   0.969  1.00  0.00     0.074 A 
ATOM     45  C   UNL     1       9.144   7.842  -1.132  1.00  0.00     0.049 A 
ATOM     46  N   UNL     1      10.390   8.877   1.277  1.00  0.00    -0.248 NA
ATOM     47  C   UNL     1       8.424   9.796   2.023  1.00  0.00     0.031 C 
ATOM     48  C   UNL     1      10.192   6.904  -0.736  1.00  0.00     0.029 A 
ATOM     49  N   UNL     1       9.090   7.715  -2.521  1.00  0.00    -0.354 N 
ATOM     50  C   UNL     1      10.513   9.066   2.634  1.00  0.00     0.074 A 
ATOM     51  C   UNL     1       9.317   9.774   3.016  1.00  0.00     0.031 C 
ATOM     52  C   UNL     1      10.874   6.534  -1.829  1.00  0.00     0.029 A 
ATOM     53  C   UNL     1      10.388   7.352  -2.925  1.00  0.00     0.049 A 
ATOM     54  H   UNL     1       8.306   7.853  -3.100  1.00  0.00     0.167 HD
ATOM     55  C   UNL     1      11.537   8.460   3.300  1.00  0.00     0.031 A 
ATOM     56  C   UNL     1      11.178   8.089  -3.759  1.00  0.00     0.031 A 
ATOM     57  C   UNL     1      12.525   7.893   2.379  1.00  0.00     0.049 A 
ATOM     58  C   UNL     1      12.536   8.423  -3.180  1.00  0.00     0.074 A 
ATOM     59  C   UNL     1      12.880   6.605   2.017  1.00  0.00     0.029 A 
ATOM     60  N   UNL     1      13.171   8.740   1.486  1.00  0.00    -0.354 N 
ATOM     61  N   UNL     1      12.867   8.253  -1.931  1.00  0.00    -0.248 NA
ATOM     62  C   UNL     1      13.608   9.039  -3.953  1.00  0.00     0.031 C 
ATOM     63  C   UNL     1      13.722   6.684   0.871  1.00  0.00     0.029 A 
ATOM     64  C   UNL     1      13.897   8.021   0.557  1.00  0.00     0.049 A 
ATOM     65  H   UNL     1      13.119   9.723   1.513  1.00  0.00     0.167 HD
ATOM     66  C   UNL     1      14.132   8.738  -1.706  1.00  0.00     0.074 A 
ATOM     67  C   UNL     1      14.559   9.202  -3.015  1.00  0.00     0.031 C 
ATOM     68  C   UNL     1      14.682   8.731  -0.452  1.00  0.00     0.031 A 
BRANCH  55  69
ATOM     69  C   UNL     1      11.536   8.168   4.793  1.00  0.00    -0.014 A 
ATOM     70  C   UNL     1      12.509   7.301   5.336  1.00  0.00     0.010 A 
ATOM     71  C   UNL     1      10.557   8.622   5.699  1.00  0.00     0.010 A 
ATOM     72  C   UNL     1      12.466   6.867   6.674  1.00  0.00     0.020 A 
ATOM     73  C   UNL     1      10.505   8.208   7.037  1.00  0.00     0.020 A 
ATOM     74  C   UNL     1      11.450   7.313   7.514  1.00  0.00     0.054 A 
BRANCH  74  75
ATOM     75  S   UNL     1      11.353   6.704   9.217  1.00  0.00     0.124 S 
ATOM     76  O   UNL     1      11.103   5.278   9.024  1.00  0.00    -0.237 OA
ATOM     77  O   UNL     1      12.665   7.051   9.755  1.00  0.00    -0.237 OA
ATOM     78  O   UNL     1      10.234   7.452   9.790  1.00  0.00    -0.744 OA
ENDBRANCH  74  75
ENDBRANCH  55  69
BRANCH  56  79
ATOM     79  C   UNL     1      10.427   8.945  -4.716  1.00  0.00    -0.014 A 
ATOM     80  C   UNL     1       9.732   8.291  -5.754  1.00  0.00     0.010 A 
ATOM     81  C   UNL     1      10.033  10.241  -4.334  1.00  0.00     0.010 A 
ATOM     82  C   UNL     1       8.546   8.830  -6.255  1.00  0.00     0.020 A 
ATOM     83  C   UNL     1       8.847  10.786  -4.843  1.00  0.00     0.020 A 
ATOM     84  C   UNL     1       8.076  10.038  -5.739  1.00  0.00     0.054 A 
BRANCH  84  85
ATOM     85  S   UNL     1       6.343  10.481  -6.066  1.00  0.00     0.124 S 
ATOM     86  O   UNL     1       6.297  10.518  -7.524  1.00  0.00    -0.237 OA
ATOM     87  O   UNL     1       5.634   9.366  -5.441  1.00  0.00    -0.237 OA
ATOM     88  O   UNL     1       6.192  11.768  -5.396  1.00  0.00    -0.744 OA
ENDBRANCH  84  85
ENDBRANCH  56  79
BRANCH  68  89
ATOM     89  C   UNL     1      15.992   9.360   0.004  1.00  0.00    -0.014 A 
ATOM     90  C   UNL     1      16.866  10.107  -0.798  1.00  0.00     0.010 A 
ATOM     91  C   UNL     1      16.360   9.241   1.372  1.00  0.00     0.010 A 
ATOM     92  C   UNL     1      18.032  10.694  -0.275  1.00  0.00     0.020 A 
ATOM     93  C   UNL     1      17.502   9.842   1.912  1.00  0.00     0.020 A 
ATOM     94  C   UNL     1      18.342  10.560   1.077  1.00  0.00     0.054 A 
BRANCH  94  95
ATOM     95  S   UNL     1      19.815  11.377   1.737  1.00  0.00     0.124 S 
ATOM     96  O   UNL     1      20.881  10.478   1.301  1.00  0.00    -0.237 OA
ATOM     97  O   UNL     1      19.784  12.679   1.073  1.00  0.00    -0.237 OA
ATOM     98  O   UNL     1      19.576  11.415   3.177  1.00  0.00    -0.744 OA
ENDBRANCH  94  95
ENDBRANCH  68  89
ENDBRANCH  42  43
ENDBRANCH  34  37
ENDBRANCH  32  33
ENDBRANCH  31  32
ENDBRANCH   1  31
TORSDOF 18
