REMARK SMILES Cc1cccc(C(=O)NCCCNC(=O)c2ccc(-c3c4nc(c(-c5ccc(S(=O)(=O)[O-])cc5)c5ccc([nH]5)c(-c5ccc(S(=O)(=O)[O-])cc5)c5nc(c(-c6ccc(S(=O)(=O)[O-])cc6)c6ccc3[nH]6)C=C5)C=C4)cc2)c1OC[C@@H]1C[C@H]2CC[C@@H]1C2
REMARK SMILES IDX 11 1 10 2 9 3 7 4 8 5 6 7 1 8 2 9 3 10 76 11 4 12 5 13 77 14
REMARK SMILES IDX 78 15 79 16 80 17 84 18 81 19 83 20 85 21 82 22 12 23 13 24
REMARK SMILES IDX 14 25 15 27 16 28 17 29 75 30 18 31 74 32 19 33 20 34 21 35
REMARK SMILES IDX 68 36 22 37 73 38 67 39 69 40 23 41 72 42 66 43 65 44 24 46
REMARK SMILES IDX 54 47 35 48 53 49 36 50 39 51 52 52 70 53 37 54 38 55 51 57
REMARK SMILES IDX 71 58 40 59 25 60 26 61 34 62 27 63 33 64 28 65 29 66 30 67
REMARK SMILES IDX 31 68 32 69 55 70 56 71 64 72 57 73 63 74 58 75 59 76 60 77
REMARK SMILES IDX 61 78 62 79 41 80 42 81 50 82 43 83 49 84 44 85 45 86 46 87
REMARK SMILES IDX 47 88 48 89
REMARK H PARENT 9 6 13 26 69 45 39 56
REMARK Flexibility Score: inf
ROOT
ATOM      1  C   UNL     1       0.963   4.435  -0.738  1.00  0.00     0.042 C 
ENDROOT
BRANCH   1   2
ATOM      2  C   UNL     1       0.359   4.097   0.619  1.00  0.00     0.118 C 
BRANCH   2   3
ATOM      3  N   UNL     1      -0.988   3.598   0.444  1.00  0.00    -0.352 N 
ATOM      4  C   UNL     1      -1.512   2.361   0.201  1.00  0.00     0.255 C 
ATOM      5  O   UNL     1      -2.738   2.350   0.013  1.00  0.00    -0.269 OA
ATOM      6  H   UNL     1      -1.674   4.301   0.516  1.00  0.00     0.163 HD
BRANCH   4   7
ATOM      7  C   UNL     1      -0.804   1.031   0.174  1.00  0.00     0.082 A 
ATOM      8  C   UNL     1       1.917  -1.130  -1.458  1.00  0.00     0.048 C 
ATOM      9  C   UNL     1       0.782  -0.663  -0.586  1.00  0.00    -0.008 A 
ATOM     10  C   UNL     1      -0.117  -1.676  -0.200  1.00  0.00     0.007 A 
ATOM     11  C   UNL     1       0.492   0.694  -0.291  1.00  0.00     0.134 A 
ATOM     12  C   UNL     1      -1.335  -1.362   0.374  1.00  0.00     0.001 A 
ATOM     13  C   UNL     1      -1.682  -0.026   0.523  1.00  0.00     0.018 A 
BRANCH  11  14
ATOM     14  O   UNL     1       1.386   1.682  -0.568  1.00  0.00    -0.492 OA
BRANCH  14  15
ATOM     15  C   UNL     1       2.744   1.614  -0.077  1.00  0.00     0.233 C 
BRANCH  15  16
ATOM     16  C   UNL     1       2.958   1.175   1.384  1.00  0.00     0.030 C 
ATOM     17  C   UNL     1       3.846   2.174   2.187  1.00  0.00     0.011 C 
ATOM     18  C   UNL     1       3.829  -0.108   1.450  1.00  0.00    -0.004 C 
ATOM     19  C   UNL     1       5.052   1.323   2.625  1.00  0.00    -0.010 C 
ATOM     20  C   UNL     1       3.760  -0.686   2.870  1.00  0.00     0.004 C 
ATOM     21  C   UNL     1       5.258   0.437   1.403  1.00  0.00     0.007 C 
ATOM     22  C   UNL     1       4.598   0.307   3.684  1.00  0.00     0.004 C 
ENDBRANCH  15  16
ENDBRANCH  14  15
ENDBRANCH  11  14
ENDBRANCH   4   7
ENDBRANCH   2   3
ENDBRANCH   1   2
BRANCH   1  23
ATOM     23  C   UNL     1       1.000   5.913  -1.064  1.00  0.00     0.118 C 
BRANCH  23  24
ATOM     24  N   UNL     1       2.379   6.407  -1.056  1.00  0.00    -0.352 N 
ATOM     25  C   UNL     1       2.922   7.447  -1.789  1.00  0.00     0.251 C 
ATOM     26  H   UNL     1       2.999   5.938  -0.452  1.00  0.00     0.163 HD
ATOM     27  O   UNL     1       4.112   7.638  -1.916  1.00  0.00    -0.269 OA
BRANCH  25  28
ATOM     28  C   UNL     1       1.935   8.413  -2.301  1.00  0.00     0.039 A 
ATOM     29  C   UNL     1       1.663   9.493  -1.452  1.00  0.00     0.014 A 
ATOM     30  C   UNL     1       1.031   7.981  -3.265  1.00  0.00     0.014 A 
ATOM     31  C   UNL     1       0.379  10.016  -1.422  1.00  0.00     0.010 A 
ATOM     32  C   UNL     1      -0.268   8.437  -3.160  1.00  0.00     0.010 A 
ATOM     33  C   UNL     1      -0.602   9.408  -2.199  1.00  0.00    -0.014 A 
BRANCH  33  34
ATOM     34  C   UNL     1      -2.019   9.720  -2.085  1.00  0.00     0.031 A 
ATOM     35  C   UNL     1      -2.624  10.539  -3.166  1.00  0.00     0.074 A 
ATOM     36  C   UNL     1      -2.773   9.230  -1.072  1.00  0.00     0.049 A 
ATOM     37  N   UNL     1      -3.760  11.143  -3.091  1.00  0.00    -0.248 NA
ATOM     38  C   UNL     1      -1.928  10.798  -4.427  1.00  0.00     0.031 C 
ATOM     39  C   UNL     1      -4.236   9.228  -1.012  1.00  0.00     0.029 A 
ATOM     40  N   UNL     1      -2.412   8.772   0.199  1.00  0.00    -0.354 N 
ATOM     41  C   UNL     1      -4.077  11.592  -4.355  1.00  0.00     0.074 A 
ATOM     42  C   UNL     1      -2.867  11.441  -5.123  1.00  0.00     0.031 C 
ATOM     43  C   UNL     1      -4.614   9.124   0.272  1.00  0.00     0.029 A 
ATOM     44  C   UNL     1      -3.408   9.244   1.070  1.00  0.00     0.049 A 
ATOM     45  H   UNL     1      -1.623   8.231   0.435  1.00  0.00     0.167 HD
ATOM     46  C   UNL     1      -5.371  11.905  -4.645  1.00  0.00     0.031 A 
ATOM     47  C   UNL     1      -3.225  10.197   2.037  1.00  0.00     0.031 A 
ATOM     48  C   UNL     1      -6.190  11.931  -3.433  1.00  0.00     0.049 A 
ATOM     49  C   UNL     1      -4.146  11.401   1.877  1.00  0.00     0.074 A 
ATOM     50  C   UNL     1      -7.068  11.027  -2.858  1.00  0.00     0.029 A 
ATOM     51  N   UNL     1      -5.904  12.878  -2.455  1.00  0.00    -0.354 N 
ATOM     52  N   UNL     1      -4.769  11.697   0.767  1.00  0.00    -0.248 NA
ATOM     53  C   UNL     1      -4.426  12.373   2.933  1.00  0.00     0.031 C 
ATOM     54  C   UNL     1      -7.221  11.381  -1.488  1.00  0.00     0.029 A 
ATOM     55  C   UNL     1      -6.471  12.519  -1.247  1.00  0.00     0.049 A 
ATOM     56  H   UNL     1      -5.371  13.692  -2.603  1.00  0.00     0.167 HD
ATOM     57  C   UNL     1      -5.520  12.831   0.935  1.00  0.00     0.074 A 
ATOM     58  C   UNL     1      -5.276  13.214   2.314  1.00  0.00     0.031 C 
ATOM     59  C   UNL     1      -6.277  13.361  -0.072  1.00  0.00     0.031 A 
BRANCH  46  60
ATOM     60  C   UNL     1      -5.931  11.896  -6.054  1.00  0.00    -0.014 A 
ATOM     61  C   UNL     1      -7.306  11.656  -6.256  1.00  0.00     0.010 A 
ATOM     62  C   UNL     1      -5.154  12.020  -7.222  1.00  0.00     0.010 A 
ATOM     63  C   UNL     1      -7.849  11.459  -7.538  1.00  0.00     0.020 A 
ATOM     64  C   UNL     1      -5.672  11.795  -8.505  1.00  0.00     0.020 A 
ATOM     65  C   UNL     1      -7.019  11.503  -8.656  1.00  0.00     0.054 A 
BRANCH  65  66
ATOM     66  S   UNL     1      -7.707  11.173 -10.299  1.00  0.00     0.124 S 
ATOM     67  O   UNL     1      -8.281   9.839 -10.139  1.00  0.00    -0.237 OA
ATOM     68  O   UNL     1      -8.669  12.259 -10.460  1.00  0.00    -0.237 OA
ATOM     69  O   UNL     1      -6.544  11.240 -11.183  1.00  0.00    -0.744 OA
ENDBRANCH  65  66
ENDBRANCH  46  60
BRANCH  47  70
ATOM     70  C   UNL     1      -1.856  10.235   2.621  1.00  0.00    -0.014 A 
ATOM     71  C   UNL     1      -1.459   9.132   3.408  1.00  0.00     0.010 A 
ATOM     72  C   UNL     1      -0.866  11.069   2.075  1.00  0.00     0.010 A 
ATOM     73  C   UNL     1      -0.117   8.752   3.471  1.00  0.00     0.020 A 
ATOM     74  C   UNL     1       0.485  10.696   2.150  1.00  0.00     0.020 A 
ATOM     75  C   UNL     1       0.838   9.499   2.782  1.00  0.00     0.054 A 
BRANCH  75  76
ATOM     76  S   UNL     1       2.484   8.760   2.545  1.00  0.00     0.124 S 
ATOM     77  O   UNL     1       2.974   8.641   3.913  1.00  0.00    -0.237 OA
ATOM     78  O   UNL     1       2.158   7.495   1.882  1.00  0.00    -0.237 OA
ATOM     79  O   UNL     1       3.175   9.736   1.709  1.00  0.00    -0.744 OA
ENDBRANCH  75  76
ENDBRANCH  47  70
BRANCH  59  80
ATOM     80  C   UNL     1      -6.973  14.704  -0.048  1.00  0.00    -0.014 A 
ATOM     81  C   UNL     1      -6.579  15.783   0.756  1.00  0.00     0.010 A 
ATOM     82  C   UNL     1      -8.000  14.953  -0.994  1.00  0.00     0.010 A 
ATOM     83  C   UNL     1      -7.212  17.032   0.662  1.00  0.00     0.020 A 
ATOM     84  C   UNL     1      -8.605  16.206  -1.129  1.00  0.00     0.020 A 
ATOM     85  C   UNL     1      -8.222  17.236  -0.280  1.00  0.00     0.054 A 
BRANCH  85  86
ATOM     86  S   UNL     1      -8.978  18.872  -0.452  1.00  0.00     0.124 S 
ATOM     87  O   UNL     1     -10.069  18.803   0.516  1.00  0.00    -0.237 OA
ATOM     88  O   UNL     1      -7.885  19.778  -0.100  1.00  0.00    -0.237 OA
ATOM     89  O   UNL     1      -9.384  18.916  -1.854  1.00  0.00    -0.744 OA
ENDBRANCH  85  86
ENDBRANCH  59  80
ENDBRANCH  33  34
ENDBRANCH  25  28
ENDBRANCH  23  24
ENDBRANCH   1  23
TORSDOF 16
