REMARK SMILES CN(C(=O)C[C@](C)(C(=O)NCCCNC(=O)c1ccc(-c2c3nc(c(-c4ccc(S(=O)(=O)[O-])cc4)c4ccc([nH]4)c(-c4ccc(S(=O)(=O)[O-])cc4)c4nc(c(-c5ccc(S(=O)(=O)[O-])cc5)c5ccc2[nH]5)C=C4)C=C3)cc1)c1ccccc1)[C@@H]1CCSC1
REMARK SMILES IDX 11 1 10 2 8 3 9 4 6 6 7 7 5 8 3 9 4 10 2 11 1 12 83 13 84 14
REMARK SMILES IDX 87 15 85 16 86 17 77 18 78 19 82 20 79 21 81 22 80 23 12 24
REMARK SMILES IDX 13 25 14 26 15 27 16 29 17 30 18 31 76 32 19 33 75 34 20 35
REMARK SMILES IDX 21 36 22 37 69 38 23 39 74 40 68 41 70 42 24 43 73 44 67 45
REMARK SMILES IDX 66 46 25 48 55 49 36 50 54 51 37 52 40 53 53 54 71 55 38 56
REMARK SMILES IDX 39 57 52 59 72 60 41 61 26 62 27 63 35 64 28 65 34 66 29 67
REMARK SMILES IDX 30 68 31 69 32 70 33 71 56 72 57 73 65 74 58 75 64 76 59 77
REMARK SMILES IDX 60 78 61 79 62 80 63 81 42 82 43 83 51 84 44 85 50 86 45 87
REMARK SMILES IDX 46 88 47 89 48 90 49 91
REMARK H PARENT 10 5 14 28 70 47 40 58
REMARK Flexibility Score: inf
ROOT
ATOM      1  C   UNL     1      -0.841   0.493   3.170  1.00  0.00     0.117 C 
ENDROOT
BRANCH   1   2
ATOM      2  N   UNL     1      -0.358  -0.589   4.014  1.00  0.00    -0.355 N 
ATOM      3  C   UNL     1       0.258  -1.776   3.772  1.00  0.00     0.230 C 
ATOM      4  O   UNL     1       0.498  -2.437   4.790  1.00  0.00    -0.274 OA
ATOM      5  H   UNL     1      -0.511  -0.424   4.973  1.00  0.00     0.163 HD
BRANCH   3   6
ATOM      6  C   UNL     1       0.672  -2.272   2.348  1.00  0.00     0.080 C 
ATOM      7  C   UNL     1      -0.603  -2.337   1.470  1.00  0.00     0.027 C 
BRANCH   6   8
ATOM      8  C   UNL     1       1.717  -1.272   1.750  1.00  0.00     0.121 C 
BRANCH   8   9
ATOM      9  C   UNL     1       1.719  -1.087   0.230  1.00  0.00     0.224 C 
ATOM     10  O   UNL     1       1.120  -0.102  -0.208  1.00  0.00    -0.275 OA
BRANCH   9  11
ATOM     11  N   UNL     1       2.403  -1.984  -0.587  1.00  0.00    -0.342 N 
ATOM     12  C   UNL     1       3.217  -3.063  -0.042  1.00  0.00     0.147 C 
BRANCH  11  13
ATOM     13  C   UNL     1       2.421  -1.919  -2.074  1.00  0.00     0.095 C 
ATOM     14  C   UNL     1       1.685  -0.793  -2.805  1.00  0.00     0.037 C 
ATOM     15  C   UNL     1       1.907  -3.210  -2.744  1.00  0.00     0.094 C 
ATOM     16  C   UNL     1       0.206  -1.145  -2.859  1.00  0.00     0.072 C 
ATOM     17  S   UNL     1       0.150  -2.942  -3.103  1.00  0.00    -0.160 SA
ENDBRANCH  11  13
ENDBRANCH   9  11
ENDBRANCH   8   9
ENDBRANCH   6   8
BRANCH   6  18
ATOM     18  C   UNL     1       1.315  -3.691   2.486  1.00  0.00    -0.032 A 
ATOM     19  C   UNL     1       0.671  -4.866   2.058  1.00  0.00     0.005 A 
ATOM     20  C   UNL     1       2.602  -3.840   3.046  1.00  0.00     0.005 A 
ATOM     21  C   UNL     1       1.333  -6.099   2.061  1.00  0.00     0.000 A 
ATOM     22  C   UNL     1       3.277  -5.063   3.017  1.00  0.00     0.000 A 
ATOM     23  C   UNL     1       2.649  -6.189   2.502  1.00  0.00     0.000 A 
ENDBRANCH   6  18
ENDBRANCH   3   6
ENDBRANCH   1   2
BRANCH   1  24
ATOM     24  C   UNL     1      -2.363   0.581   3.170  1.00  0.00     0.042 C 
BRANCH  24  25
ATOM     25  C   UNL     1      -2.980   0.822   4.545  1.00  0.00     0.118 C 
BRANCH  25  26
ATOM     26  N   UNL     1      -2.546   2.073   5.154  1.00  0.00    -0.352 N 
ATOM     27  C   UNL     1      -3.278   3.166   5.546  1.00  0.00     0.251 C 
ATOM     28  H   UNL     1      -1.576   2.146   5.307  1.00  0.00     0.163 HD
ATOM     29  O   UNL     1      -2.694   4.198   5.876  1.00  0.00    -0.269 OA
BRANCH  27  30
ATOM     30  C   UNL     1      -4.755   3.117   5.553  1.00  0.00     0.039 A 
ATOM     31  C   UNL     1      -5.472   4.213   5.066  1.00  0.00     0.014 A 
ATOM     32  C   UNL     1      -5.435   2.001   6.046  1.00  0.00     0.014 A 
ATOM     33  C   UNL     1      -6.867   4.159   5.009  1.00  0.00     0.010 A 
ATOM     34  C   UNL     1      -6.818   1.914   5.908  1.00  0.00     0.010 A 
ATOM     35  C   UNL     1      -7.550   2.993   5.391  1.00  0.00    -0.014 A 
BRANCH  35  36
ATOM     36  C   UNL     1      -9.026   2.882   5.254  1.00  0.00     0.031 A 
ATOM     37  C   UNL     1      -9.888   2.674   6.471  1.00  0.00     0.074 A 
ATOM     38  C   UNL     1      -9.585   2.903   4.027  1.00  0.00     0.049 A 
ATOM     39  N   UNL     1     -11.183   2.501   6.544  1.00  0.00    -0.248 NA
ATOM     40  C   UNL     1      -9.204   2.630   7.773  1.00  0.00     0.031 C 
ATOM     41  C   UNL     1      -8.855   3.055   2.766  1.00  0.00     0.029 A 
ATOM     42  N   UNL     1     -10.896   2.789   3.637  1.00  0.00    -0.354 N 
ATOM     43  C   UNL     1     -11.465   2.311   7.892  1.00  0.00     0.074 A 
ATOM     44  C   UNL     1     -10.201   2.335   8.594  1.00  0.00     0.031 C 
ATOM     45  C   UNL     1      -9.730   3.058   1.748  1.00  0.00     0.029 A 
ATOM     46  C   UNL     1     -11.076   2.858   2.276  1.00  0.00     0.049 A 
ATOM     47  H   UNL     1     -11.639   2.670   4.273  1.00  0.00     0.167 HD
ATOM     48  C   UNL     1     -12.668   2.152   8.495  1.00  0.00     0.031 A 
ATOM     49  C   UNL     1     -12.195   2.763   1.531  1.00  0.00     0.031 A 
ATOM     50  C   UNL     1     -13.924   2.132   7.791  1.00  0.00     0.049 A 
ATOM     51  C   UNL     1     -13.518   2.567   2.220  1.00  0.00     0.074 A 
ATOM     52  C   UNL     1     -15.200   2.030   8.315  1.00  0.00     0.029 A 
ATOM     53  N   UNL     1     -14.062   2.207   6.413  1.00  0.00    -0.354 N 
ATOM     54  N   UNL     1     -13.770   2.459   3.503  1.00  0.00    -0.248 NA
ATOM     55  C   UNL     1     -14.708   2.491   1.362  1.00  0.00     0.031 C 
ATOM     56  C   UNL     1     -16.106   1.980   7.250  1.00  0.00     0.029 A 
ATOM     57  C   UNL     1     -15.400   2.125   6.066  1.00  0.00     0.049 A 
ATOM     58  H   UNL     1     -13.318   2.305   5.775  1.00  0.00     0.167 HD
ATOM     59  C   UNL     1     -15.151   2.331   3.607  1.00  0.00     0.074 A 
ATOM     60  C   UNL     1     -15.679   2.391   2.259  1.00  0.00     0.031 C 
ATOM     61  C   UNL     1     -15.913   2.181   4.720  1.00  0.00     0.031 A 
BRANCH  48  62
ATOM     62  C   UNL     1     -12.679   1.974   9.992  1.00  0.00    -0.014 A 
ATOM     63  C   UNL     1     -12.314   3.025  10.855  1.00  0.00     0.010 A 
ATOM     64  C   UNL     1     -13.089   0.748  10.548  1.00  0.00     0.010 A 
ATOM     65  C   UNL     1     -12.312   2.837  12.240  1.00  0.00     0.020 A 
ATOM     66  C   UNL     1     -13.121   0.567  11.934  1.00  0.00     0.020 A 
ATOM     67  C   UNL     1     -12.713   1.608  12.770  1.00  0.00     0.054 A 
BRANCH  67  68
ATOM     68  S   UNL     1     -12.712   1.399  14.572  1.00  0.00     0.124 S 
ATOM     69  O   UNL     1     -11.283   1.353  14.869  1.00  0.00    -0.237 OA
ATOM     70  O   UNL     1     -13.411   2.596  15.033  1.00  0.00    -0.237 OA
ATOM     71  O   UNL     1     -13.431   0.144  14.777  1.00  0.00    -0.744 OA
ENDBRANCH  67  68
ENDBRANCH  48  62
BRANCH  49  72
ATOM     72  C   UNL     1     -12.109   2.868   0.048  1.00  0.00    -0.014 A 
ATOM     73  C   UNL     1     -12.623   3.993  -0.621  1.00  0.00     0.010 A 
ATOM     74  C   UNL     1     -11.490   1.852  -0.704  1.00  0.00     0.010 A 
ATOM     75  C   UNL     1     -12.531   4.095  -2.012  1.00  0.00     0.020 A 
ATOM     76  C   UNL     1     -11.368   1.964  -2.092  1.00  0.00     0.020 A 
ATOM     77  C   UNL     1     -11.899   3.081  -2.739  1.00  0.00     0.054 A 
BRANCH  77  78
ATOM     78  S   UNL     1     -11.738   3.265  -4.537  1.00  0.00     0.124 S 
ATOM     79  O   UNL     1     -13.112   3.069  -4.987  1.00  0.00    -0.237 OA
ATOM     80  O   UNL     1     -11.216   4.623  -4.668  1.00  0.00    -0.237 OA
ATOM     81  O   UNL     1     -10.800   2.207  -4.906  1.00  0.00    -0.744 OA
ENDBRANCH  77  78
ENDBRANCH  49  72
BRANCH  61  82
ATOM     82  C   UNL     1     -17.406   2.105   4.535  1.00  0.00    -0.014 A 
ATOM     83  C   UNL     1     -18.018   0.980   3.955  1.00  0.00     0.010 A 
ATOM     84  C   UNL     1     -18.215   3.158   5.002  1.00  0.00     0.010 A 
ATOM     85  C   UNL     1     -19.408   0.923   3.818  1.00  0.00     0.020 A 
ATOM     86  C   UNL     1     -19.606   3.091   4.896  1.00  0.00     0.020 A 
ATOM     87  C   UNL     1     -20.193   1.979   4.291  1.00  0.00     0.054 A 
BRANCH  87  88
ATOM     88  S   UNL     1     -21.997   1.860   4.142  1.00  0.00     0.124 S 
ATOM     89  O   UNL     1     -22.195   2.039   2.706  1.00  0.00    -0.237 OA
ATOM     90  O   UNL     1     -22.271   0.519   4.652  1.00  0.00    -0.237 OA
ATOM     91  O   UNL     1     -22.488   2.952   4.979  1.00  0.00    -0.744 OA
ENDBRANCH  87  88
ENDBRANCH  61  82
ENDBRANCH  35  36
ENDBRANCH  27  30
ENDBRANCH  25  26
ENDBRANCH  24  25
ENDBRANCH   1  24
TORSDOF 18
