REMARK SMILES CC(C)[C@H](NC(=O)[C@H](Cc1ccccc1)n1c(=O)[nH]c2ccccc2c1=O)C(=O)NCCCNC(=O)c1ccc(-c2c3nc(c(-c4ccc(S(=O)(=O)[O-])cc4)c4ccc([nH]4)c(-c4ccc(S(=O)(=O)[O-])cc4)c4nc(c(-c5ccc(S(=O)(=O)[O-])cc5)c5ccc2[nH]5)C=C4)C=C3)cc1
REMARK SMILES IDX 31 1 30 2 28 3 29 4 4 6 2 7 1 8 3 9 5 10 6 11 7 13 8 14
REMARK SMILES IDX 16 15 17 16 26 17 18 18 19 19 25 20 27 21 20 22 24 24 21 25
REMARK SMILES IDX 23 26 22 27 9 28 10 29 11 30 15 31 12 32 14 33 13 34 32 35
REMARK SMILES IDX 33 36 34 37 35 38 36 40 37 41 38 42 96 43 39 44 95 45 40 46
REMARK SMILES IDX 41 47 42 48 89 49 43 50 94 51 88 52 90 53 44 54 93 55 87 56
REMARK SMILES IDX 86 57 45 59 75 60 56 61 74 62 57 63 60 64 73 65 91 66 58 67
REMARK SMILES IDX 59 68 72 70 92 71 61 72 46 73 47 74 55 75 48 76 54 77 49 78
REMARK SMILES IDX 50 79 51 80 52 81 53 82 76 83 77 84 85 85 78 86 84 87 79 88
REMARK SMILES IDX 80 89 81 90 82 91 83 92 62 93 63 94 71 95 64 96 70 97 65 98
REMARK SMILES IDX 66 99 67 100 68 101 69 102
REMARK H PARENT 30 5 5 12 19 23 34 39 90 58 60 69
REMARK Flexibility Score: inf
ROOT
ATOM      1  C   UNL     1      -3.642  -4.949  -1.935  1.00  0.00     0.117 C 
ENDROOT
BRANCH   1   2
ATOM      2  N   UNL     1      -4.428  -4.499  -0.810  1.00  0.00    -0.354 N 
ATOM      3  C   UNL     1      -4.321  -4.817   0.506  1.00  0.00     0.242 C 
ATOM      4  O   UNL     1      -5.156  -4.323   1.272  1.00  0.00    -0.273 OA
ATOM      5  H   UNL     1      -5.150  -3.866  -1.030  1.00  0.00     0.163 HD
BRANCH   3   6
ATOM      6  C   UNL     1      -3.124  -5.623   1.078  1.00  0.00     0.173 C 
BRANCH   6   7
ATOM      7  C   UNL     1      -1.842  -4.818   1.238  1.00  0.00     0.015 C 
ATOM      8  C   UNL     1      -1.976  -3.311   1.478  1.00  0.00     0.010 C 
ATOM      9  C   UNL     1      -0.976  -5.452   2.331  1.00  0.00     0.010 C 
ENDBRANCH   6   7
BRANCH   6  10
ATOM     10  N   UNL     1      -2.960  -6.937   0.422  1.00  0.00    -0.342 N 
ATOM     11  C   UNL     1      -2.220  -7.593  -0.491  1.00  0.00     0.244 C 
ATOM     12  H   UNL     1      -3.635  -7.556   0.783  1.00  0.00     0.164 HD
ATOM     13  O   UNL     1      -2.920  -8.480  -1.019  1.00  0.00    -0.273 OA
BRANCH  11  14
ATOM     14  C   UNL     1      -0.779  -7.336  -1.097  1.00  0.00     0.189 C 
BRANCH  14  15
ATOM     15  N   UNL     1       0.377  -6.596  -0.469  1.00  0.00    -0.247 N 
ATOM     16  C   UNL     1       1.330  -7.255   0.288  1.00  0.00     0.329 A 
ATOM     17  C   UNL     1       0.584  -5.256  -0.844  1.00  0.00     0.264 A 
ATOM     18  O   UNL     1       1.383  -8.450   0.529  1.00  0.00    -0.248 OA
ATOM     19  N   UNL     1       2.351  -6.530   0.819  1.00  0.00    -0.307 N 
ATOM     20  C   UNL     1       1.571  -4.468  -0.062  1.00  0.00     0.064 A 
ATOM     21  O   UNL     1      -0.032  -4.680  -1.739  1.00  0.00    -0.268 OA
ATOM     22  C   UNL     1       2.462  -5.159   0.738  1.00  0.00     0.055 A 
ATOM     23  H   UNL     1       3.060  -7.019   1.296  1.00  0.00     0.171 HD
ATOM     24  C   UNL     1       1.585  -3.071  -0.056  1.00  0.00     0.016 A 
ATOM     25  C   UNL     1       3.418  -4.493   1.505  1.00  0.00     0.027 A 
ATOM     26  C   UNL     1       2.501  -2.390   0.755  1.00  0.00     0.001 A 
ATOM     27  C   UNL     1       3.426  -3.101   1.522  1.00  0.00     0.002 A 
ENDBRANCH  14  15
BRANCH  14  28
ATOM     28  C   UNL     1      -0.339  -8.674  -1.803  1.00  0.00     0.071 C 
BRANCH  28  29
ATOM     29  C   UNL     1      -0.381 -10.007  -1.059  1.00  0.00    -0.045 A 
ATOM     30  C   UNL     1      -0.086 -11.175  -1.777  1.00  0.00     0.004 A 
ATOM     31  C   UNL     1      -0.676 -10.141   0.308  1.00  0.00     0.004 A 
ATOM     32  C   UNL     1      -0.042 -12.418  -1.137  1.00  0.00     0.000 A 
ATOM     33  C   UNL     1      -0.610 -11.376   0.953  1.00  0.00     0.000 A 
ATOM     34  C   UNL     1      -0.286 -12.515   0.230  1.00  0.00     0.000 A 
ENDBRANCH  28  29
ENDBRANCH  14  28
ENDBRANCH  11  14
ENDBRANCH   6  10
ENDBRANCH   3   6
ENDBRANCH   1   2
BRANCH   1  35
ATOM     35  C   UNL     1      -4.336  -6.087  -2.674  1.00  0.00     0.042 C 
BRANCH  35  36
ATOM     36  C   UNL     1      -5.543  -5.630  -3.481  1.00  0.00     0.118 C 
BRANCH  36  37
ATOM     37  N   UNL     1      -5.174  -4.721  -4.557  1.00  0.00    -0.352 N 
ATOM     38  C   UNL     1      -5.450  -4.796  -5.899  1.00  0.00     0.251 C 
ATOM     39  H   UNL     1      -4.649  -3.936  -4.281  1.00  0.00     0.163 HD
ATOM     40  O   UNL     1      -4.876  -4.041  -6.678  1.00  0.00    -0.269 OA
BRANCH  38  41
ATOM     41  C   UNL     1      -6.421  -5.789  -6.400  1.00  0.00     0.039 A 
ATOM     42  C   UNL     1      -6.136  -6.473  -7.583  1.00  0.00     0.014 A 
ATOM     43  C   UNL     1      -7.613  -6.037  -5.713  1.00  0.00     0.014 A 
ATOM     44  C   UNL     1      -7.022  -7.444  -8.049  1.00  0.00     0.010 A 
ATOM     45  C   UNL     1      -8.447  -7.069  -6.127  1.00  0.00     0.010 A 
ATOM     46  C   UNL     1      -8.168  -7.773  -7.306  1.00  0.00    -0.014 A 
BRANCH  46  47
ATOM     47  C   UNL     1      -9.084  -8.852  -7.750  1.00  0.00     0.031 A 
ATOM     48  C   UNL     1     -10.517  -8.540  -8.086  1.00  0.00     0.074 A 
ATOM     49  C   UNL     1      -8.639 -10.123  -7.786  1.00  0.00     0.049 A 
ATOM     50  N   UNL     1     -11.472  -9.353  -8.458  1.00  0.00    -0.248 NA
ATOM     51  C   UNL     1     -10.943  -7.136  -7.956  1.00  0.00     0.031 C 
ATOM     52  C   UNL     1      -7.288 -10.557  -7.422  1.00  0.00     0.029 A 
ATOM     53  N   UNL     1      -9.277 -11.286  -8.137  1.00  0.00    -0.354 N 
ATOM     54  C   UNL     1     -12.612  -8.567  -8.582  1.00  0.00     0.074 A 
ATOM     55  C   UNL     1     -12.242  -7.223  -8.195  1.00  0.00     0.031 C 
ATOM     56  C   UNL     1      -7.190 -11.884  -7.594  1.00  0.00     0.029 A 
ATOM     57  C   UNL     1      -8.481 -12.403  -8.035  1.00  0.00     0.049 A 
ATOM     58  H   UNL     1     -10.215 -11.318  -8.434  1.00  0.00     0.167 HD
ATOM     59  C   UNL     1     -13.850  -8.928  -8.996  1.00  0.00     0.031 A 
ATOM     60  C   UNL     1      -8.759 -13.701  -8.259  1.00  0.00     0.031 A 
ATOM     61  C   UNL     1     -14.204 -10.268  -9.383  1.00  0.00     0.049 A 
ATOM     62  C   UNL     1     -10.135 -14.079  -8.731  1.00  0.00     0.074 A 
ATOM     63  C   UNL     1     -15.405 -10.726  -9.893  1.00  0.00     0.029 A 
ATOM     64  N   UNL     1     -13.363 -11.368  -9.291  1.00  0.00    -0.354 N 
ATOM     65  N   UNL     1     -11.175 -13.306  -8.938  1.00  0.00    -0.248 NA
ATOM     66  C   UNL     1     -10.372 -15.500  -9.016  1.00  0.00     0.031 C 
ATOM     67  C   UNL     1     -15.314 -12.114 -10.042  1.00  0.00     0.029 A 
ATOM     68  C   UNL     1     -14.031 -12.511  -9.698  1.00  0.00     0.049 A 
ATOM     69  H   UNL     1     -12.428 -11.341  -8.982  1.00  0.00     0.167 HD
ATOM     70  C   UNL     1     -12.186 -14.145  -9.396  1.00  0.00     0.074 A 
ATOM     71  C   UNL     1     -11.623 -15.479  -9.455  1.00  0.00     0.031 C 
ATOM     72  C   UNL     1     -13.462 -13.836  -9.737  1.00  0.00     0.031 A 
BRANCH  59  73
ATOM     73  C   UNL     1     -14.915  -7.861  -9.023  1.00  0.00    -0.014 A 
ATOM     74  C   UNL     1     -14.852  -6.780  -9.922  1.00  0.00     0.010 A 
ATOM     75  C   UNL     1     -16.012  -7.953  -8.146  1.00  0.00     0.010 A 
ATOM     76  C   UNL     1     -15.832  -5.784  -9.904  1.00  0.00     0.020 A 
ATOM     77  C   UNL     1     -17.012  -6.977  -8.148  1.00  0.00     0.020 A 
ATOM     78  C   UNL     1     -16.904  -5.886  -9.013  1.00  0.00     0.054 A 
BRANCH  78  79
ATOM     79  S   UNL     1     -18.164  -4.581  -9.014  1.00  0.00     0.124 S 
ATOM     80  O   UNL     1     -17.440  -3.464  -8.411  1.00  0.00    -0.237 OA
ATOM     81  O   UNL     1     -18.472  -4.436 -10.434  1.00  0.00    -0.237 OA
ATOM     82  O   UNL     1     -19.241  -5.136  -8.199  1.00  0.00    -0.744 OA
ENDBRANCH  78  79
ENDBRANCH  59  73
BRANCH  60  83
ATOM     83  C   UNL     1      -7.701 -14.726  -8.042  1.00  0.00    -0.014 A 
ATOM     84  C   UNL     1      -7.103 -15.386  -9.129  1.00  0.00     0.010 A 
ATOM     85  C   UNL     1      -7.248 -15.007  -6.739  1.00  0.00     0.010 A 
ATOM     86  C   UNL     1      -6.075 -16.311  -8.917  1.00  0.00     0.020 A 
ATOM     87  C   UNL     1      -6.201 -15.908  -6.525  1.00  0.00     0.020 A 
ATOM     88  C   UNL     1      -5.625 -16.560  -7.617  1.00  0.00     0.054 A 
BRANCH  88  89
ATOM     89  S   UNL     1      -4.238 -17.705  -7.376  1.00  0.00     0.124 S 
ATOM     90  O   UNL     1      -4.853 -18.994  -7.674  1.00  0.00    -0.237 OA
ATOM     91  O   UNL     1      -3.263 -17.227  -8.353  1.00  0.00    -0.237 OA
ATOM     92  O   UNL     1      -3.861 -17.498  -5.979  1.00  0.00    -0.744 OA
ENDBRANCH  88  89
ENDBRANCH  60  83
BRANCH  72  93
ATOM     93  C   UNL     1     -14.338 -14.959 -10.228  1.00  0.00    -0.014 A 
ATOM     94  C   UNL     1     -14.797 -15.964  -9.358  1.00  0.00     0.010 A 
ATOM     95  C   UNL     1     -14.753 -14.976 -11.573  1.00  0.00     0.010 A 
ATOM     96  C   UNL     1     -15.626 -16.984  -9.832  1.00  0.00     0.020 A 
ATOM     97  C   UNL     1     -15.609 -15.974 -12.043  1.00  0.00     0.020 A 
ATOM     98  C   UNL     1     -16.028 -16.982 -11.172  1.00  0.00     0.054 A 
BRANCH  98  99
ATOM     99  S   UNL     1     -17.137 -18.294 -11.752  1.00  0.00     0.124 S 
ATOM    100  O   UNL     1     -16.252 -19.455 -11.770  1.00  0.00    -0.237 OA
ATOM    101  O   UNL     1     -18.177 -18.311 -10.726  1.00  0.00    -0.237 OA
ATOM    102  O   UNL     1     -17.574 -17.824 -13.066  1.00  0.00    -0.744 OA
ENDBRANCH  98  99
ENDBRANCH  72  93
ENDBRANCH  46  47
ENDBRANCH  38  41
ENDBRANCH  36  37
ENDBRANCH  35  36
ENDBRANCH   1  35
TORSDOF 19
