REMARK SMILES Cc1ccc(NC(=O)C[C@@H](C(=O)NCCCNC(=O)c2ccc(-c3c4nc(c(-c5ccc(S(=O)(=O)[O-])cc5)c5ccc([nH]5)c(-c5ccc(S(=O)(=O)[O-])cc5)c5nc(c(-c6ccc(S(=O)(=O)[O-])cc6)c6ccc3[nH]6)C=C5)C=C4)cc2)[NH+]2CCOCC2)cc1
REMARK SMILES IDX 15 1 14 2 13 3 11 4 12 5 10 7 9 8 7 9 6 10 8 12 5 13 1 14
REMARK SMILES IDX 2 15 3 16 87 17 4 18 86 19 80 20 81 21 85 22 82 24 84 25
REMARK SMILES IDX 83 26 16 27 17 28 18 29 19 31 20 32 21 33 79 34 22 35 78 36
REMARK SMILES IDX 23 37 24 38 25 39 72 40 26 41 77 42 71 43 73 44 27 45 76 46
REMARK SMILES IDX 70 47 69 48 28 50 58 51 39 52 57 53 40 54 43 55 56 56 74 57
REMARK SMILES IDX 41 58 42 59 55 61 75 62 44 63 29 64 30 65 38 66 31 67 37 68
REMARK SMILES IDX 32 69 33 70 34 71 35 72 36 73 59 74 60 75 68 76 61 77 67 78
REMARK SMILES IDX 62 79 63 80 64 81 65 82 66 83 45 84 46 85 54 86 47 87 53 88
REMARK SMILES IDX 48 89 49 90 50 91 51 92 52 93
REMARK H PARENT 13 6 6 11 80 23 17 30 73 49 43 60
REMARK Flexibility Score: inf
ROOT
ATOM      1  C   UNL     1      -4.807   0.892  -1.228  1.00  0.00     0.042 C 
ENDROOT
BRANCH   1   2
ATOM      2  C   UNL     1      -4.034  -0.047  -2.155  1.00  0.00     0.118 C 
BRANCH   2   3
ATOM      3  N   UNL     1      -2.622  -0.171  -1.861  1.00  0.00    -0.351 N 
ATOM      4  C   UNL     1      -1.813  -1.260  -1.739  1.00  0.00     0.278 C 
ATOM      5  O   UNL     1      -0.607  -1.037  -1.894  1.00  0.00    -0.268 OA
ATOM      6  H   UNL     1      -2.162   0.689  -1.725  1.00  0.00     0.163 HD
BRANCH   4   7
ATOM      7  C   UNL     1      -2.367  -2.706  -1.474  1.00  0.00     0.283 C 
BRANCH   7   8
ATOM      8  C   UNL     1      -2.907  -2.930  -0.043  1.00  0.00     0.175 C 
BRANCH   8   9
ATOM      9  C   UNL     1      -3.414  -1.771   0.778  1.00  0.00     0.230 C 
ATOM     10  N   UNL     1      -2.595  -0.820   1.308  1.00  0.00    -0.326 N 
ATOM     11  H   UNL     1      -3.065  -0.122   1.820  1.00  0.00     0.169 HD
ATOM     12  O   UNL     1      -4.630  -1.680   0.990  1.00  0.00    -0.274 OA
BRANCH  10  13
ATOM     13  C   UNL     1      -1.200  -0.655   1.256  1.00  0.00     0.041 A 
ATOM     14  C   UNL     1       2.901   0.135   0.224  1.00  0.00     0.044 C 
ATOM     15  C   UNL     1       1.506  -0.123   0.709  1.00  0.00    -0.051 A 
ATOM     16  C   UNL     1       1.064  -1.434   0.899  1.00  0.00     0.005 A 
ATOM     17  C   UNL     1       0.605   0.926   0.900  1.00  0.00     0.005 A 
ATOM     18  C   UNL     1      -0.278  -1.696   1.186  1.00  0.00     0.026 A 
ATOM     19  C   UNL     1      -0.735   0.661   1.192  1.00  0.00     0.026 A 
ENDBRANCH  10  13
ENDBRANCH   8   9
ENDBRANCH   7   8
BRANCH   7  20
ATOM     20  N   UNL     1      -1.297  -3.708  -1.811  1.00  0.00    -0.320 N 
ATOM     21  C   UNL     1      -0.871  -3.696  -3.227  1.00  0.00     0.291 C 
ATOM     22  C   UNL     1      -1.415  -5.097  -1.346  1.00  0.00     0.291 C 
ATOM     23  H   UNL     1      -0.571  -3.317  -1.210  1.00  0.00     0.348 HD
ATOM     24  C   UNL     1      -1.651  -4.671  -4.124  1.00  0.00     0.221 C 
ATOM     25  C   UNL     1      -2.168  -6.039  -2.292  1.00  0.00     0.221 C 
ATOM     26  O   UNL     1      -1.617  -6.008  -3.611  1.00  0.00    -0.370 OA
ENDBRANCH   7  20
ENDBRANCH   4   7
ENDBRANCH   2   3
ENDBRANCH   1   2
BRANCH   1  27
ATOM     27  C   UNL     1      -4.185   2.271  -0.999  1.00  0.00     0.118 C 
BRANCH  27  28
ATOM     28  N   UNL     1      -5.239   3.276  -0.844  1.00  0.00    -0.352 N 
ATOM     29  C   UNL     1      -5.263   4.438  -0.114  1.00  0.00     0.251 C 
ATOM     30  H   UNL     1      -6.065   3.088  -1.345  1.00  0.00     0.163 HD
ATOM     31  O   UNL     1      -6.287   5.106   0.032  1.00  0.00    -0.269 OA
BRANCH  29  32
ATOM     32  C   UNL     1      -3.989   4.929   0.414  1.00  0.00     0.039 A 
ATOM     33  C   UNL     1      -3.396   6.013  -0.241  1.00  0.00     0.014 A 
ATOM     34  C   UNL     1      -3.305   4.187   1.372  1.00  0.00     0.014 A 
ATOM     35  C   UNL     1      -2.040   6.254  -0.062  1.00  0.00     0.010 A 
ATOM     36  C   UNL     1      -1.948   4.399   1.511  1.00  0.00     0.010 A 
ATOM     37  C   UNL     1      -1.308   5.386   0.747  1.00  0.00    -0.014 A 
BRANCH  37  38
ATOM     38  C   UNL     1       0.147   5.386   0.798  1.00  0.00     0.031 A 
ATOM     39  C   UNL     1       0.840   5.988   1.958  1.00  0.00     0.074 A 
ATOM     40  C   UNL     1       0.869   4.801  -0.183  1.00  0.00     0.049 A 
ATOM     41  N   UNL     1       2.067   6.386   1.944  1.00  0.00    -0.248 NA
ATOM     42  C   UNL     1       0.171   6.239   3.230  1.00  0.00     0.031 C 
ATOM     43  C   UNL     1       2.294   4.473  -0.148  1.00  0.00     0.029 A 
ATOM     44  N   UNL     1       0.520   4.462  -1.479  1.00  0.00    -0.354 N 
ATOM     45  C   UNL     1       2.438   6.629   3.245  1.00  0.00     0.074 A 
ATOM     46  C   UNL     1       1.198   6.632   3.989  1.00  0.00     0.031 C 
ATOM     47  C   UNL     1       2.724   4.287  -1.407  1.00  0.00     0.029 A 
ATOM     48  C   UNL     1       1.638   4.663  -2.293  1.00  0.00     0.049 A 
ATOM     49  H   UNL     1      -0.360   4.136  -1.776  1.00  0.00     0.167 HD
ATOM     50  C   UNL     1       3.763   6.656   3.567  1.00  0.00     0.031 A 
ATOM     51  C   UNL     1       1.717   5.651  -3.239  1.00  0.00     0.031 A 
ATOM     52  C   UNL     1       4.618   6.564   2.379  1.00  0.00     0.049 A 
ATOM     53  C   UNL     1       2.809   6.684  -2.969  1.00  0.00     0.074 A 
ATOM     54  C   UNL     1       5.410   5.572   1.824  1.00  0.00     0.029 A 
ATOM     55  N   UNL     1       4.513   7.550   1.410  1.00  0.00    -0.354 N 
ATOM     56  N   UNL     1       3.592   6.678  -1.925  1.00  0.00    -0.248 NA
ATOM     57  C   UNL     1       3.043   7.860  -3.814  1.00  0.00     0.031 C 
ATOM     58  C   UNL     1       5.766   5.973   0.502  1.00  0.00     0.029 A 
ATOM     59  C   UNL     1       5.207   7.214   0.264  1.00  0.00     0.049 A 
ATOM     60  H   UNL     1       4.007   8.387   1.525  1.00  0.00     0.167 HD
ATOM     61  C   UNL     1       4.350   7.818  -1.901  1.00  0.00     0.074 A 
ATOM     62  C   UNL     1       3.985   8.521  -3.117  1.00  0.00     0.031 C 
ATOM     63  C   UNL     1       5.183   8.132  -0.865  1.00  0.00     0.031 A 
BRANCH  50  64
ATOM     64  C   UNL     1       4.285   6.514   4.983  1.00  0.00    -0.014 A 
ATOM     65  C   UNL     1       5.593   6.032   5.199  1.00  0.00     0.010 A 
ATOM     66  C   UNL     1       3.530   6.772   6.143  1.00  0.00     0.010 A 
ATOM     67  C   UNL     1       6.075   5.725   6.482  1.00  0.00     0.020 A 
ATOM     68  C   UNL     1       3.982   6.441   7.428  1.00  0.00     0.020 A 
ATOM     69  C   UNL     1       5.251   5.902   7.589  1.00  0.00     0.054 A 
BRANCH  69  70
ATOM     70  S   UNL     1       5.847   5.421   9.230  1.00  0.00     0.124 S 
ATOM     71  O   UNL     1       6.153   4.004   9.050  1.00  0.00    -0.237 OA
ATOM     72  O   UNL     1       7.000   6.297   9.414  1.00  0.00    -0.237 OA
ATOM     73  O   UNL     1       4.711   5.698  10.107  1.00  0.00    -0.744 OA
ENDBRANCH  69  70
ENDBRANCH  50  64
BRANCH  51  74
ATOM     74  C   UNL     1       0.422   5.936  -3.919  1.00  0.00    -0.014 A 
ATOM     75  C   UNL     1      -0.102   4.936  -4.766  1.00  0.00     0.010 A 
ATOM     76  C   UNL     1      -0.440   6.934  -3.435  1.00  0.00     0.010 A 
ATOM     77  C   UNL     1      -1.480   4.830  -4.976  1.00  0.00     0.020 A 
ATOM     78  C   UNL     1      -1.823   6.835  -3.653  1.00  0.00     0.020 A 
ATOM     79  C   UNL     1      -2.336   5.749  -4.368  1.00  0.00     0.054 A 
BRANCH  79  80
ATOM     80  S   UNL     1      -4.116   5.377  -4.356  1.00  0.00     0.124 S 
ATOM     81  O   UNL     1      -4.473   5.510  -5.764  1.00  0.00    -0.237 OA
ATOM     82  O   UNL     1      -4.145   4.012  -3.830  1.00  0.00    -0.237 OA
ATOM     83  O   UNL     1      -4.669   6.391  -3.465  1.00  0.00    -0.744 OA
ENDBRANCH  79  80
ENDBRANCH  51  74
BRANCH  63  84
ATOM     84  C   UNL     1       6.035   9.372  -0.818  1.00  0.00    -0.014 A 
ATOM     85  C   UNL     1       6.760   9.832  -1.930  1.00  0.00     0.010 A 
ATOM     86  C   UNL     1       6.236  10.045   0.408  1.00  0.00     0.010 A 
ATOM     87  C   UNL     1       7.601  10.950  -1.833  1.00  0.00     0.020 A 
ATOM     88  C   UNL     1       7.088  11.147   0.520  1.00  0.00     0.020 A 
ATOM     89  C   UNL     1       7.753  11.606  -0.609  1.00  0.00     0.054 A 
BRANCH  89  90
ATOM     90  S   UNL     1       8.870  13.027  -0.494  1.00  0.00     0.124 S 
ATOM     91  O   UNL     1      10.041  12.576  -1.242  1.00  0.00    -0.237 OA
ATOM     92  O   UNL     1       8.085  14.079  -1.133  1.00  0.00    -0.237 OA
ATOM     93  O   UNL     1       9.081  13.190   0.942  1.00  0.00    -0.744 OA
ENDBRANCH  89  90
ENDBRANCH  63  84
ENDBRANCH  37  38
ENDBRANCH  29  32
ENDBRANCH  27  28
ENDBRANCH   1  27
TORSDOF 17
