REMARK SMILES CC(C)c1ccc(-c2cnc([C@@H]3[NH2+][C@H](C(=O)NCCCNC(=O)c4ccc(-c5c6nc(c(-c7ccc(S(=O)(=O)[O-])cc7)c7ccc([nH]7)c(-c7ccc(S(=O)(=O)[O-])cc7)c7nc(c(-c8ccc(S(=O)(=O)[O-])cc8)c8ccc5[nH]8)C=C7)C=C6)cc4)C(C)(C)S3)s2)cc1
REMARK SMILES IDX 19 1 18 2 17 3 15 4 16 5 14 7 12 8 13 9 87 10 84 13 85 14
REMARK SMILES IDX 86 15 11 16 8 17 9 18 88 19 10 20 7 21 4 22 5 23 90 24 6 25
REMARK SMILES IDX 89 26 2 27 1 28 3 29 20 30 21 31 22 32 23 34 24 35 25 36
REMARK SMILES IDX 83 37 26 38 82 39 27 40 28 41 29 42 76 43 30 44 81 45 75 46
REMARK SMILES IDX 77 47 31 48 80 49 74 50 73 51 32 53 62 54 43 55 61 56 44 57
REMARK SMILES IDX 47 58 60 59 78 60 45 61 46 62 59 64 79 65 48 66 33 67 34 68
REMARK SMILES IDX 42 69 35 70 41 71 36 72 37 73 38 74 39 75 40 76 63 77 64 78
REMARK SMILES IDX 72 79 65 80 71 81 66 82 67 83 68 84 69 85 70 86 49 87 50 88
REMARK SMILES IDX 58 89 51 90 57 91 52 92 53 93 54 94 55 95 56 96
REMARK H PARENT 17 6 13 11 13 12 21 33 77 52 47 63
REMARK Flexibility Score: inf
ROOT
ATOM      1  C   UNL     1     -15.361  -1.723   0.324  1.00  0.00     0.042 C 
ENDROOT
BRANCH   1   2
ATOM      2  C   UNL     1     -14.108  -2.385  -0.259  1.00  0.00     0.118 C 
BRANCH   2   3
ATOM      3  N   UNL     1     -13.210  -1.405  -0.839  1.00  0.00    -0.351 N 
ATOM      4  C   UNL     1     -12.445  -0.524  -0.115  1.00  0.00     0.279 C 
ATOM      5  O   UNL     1     -12.570   0.664  -0.396  1.00  0.00    -0.268 OA
ATOM      6  H   UNL     1     -13.144  -1.368  -1.821  1.00  0.00     0.163 HD
BRANCH   4   7
ATOM      7  C   UNL     1     -11.496  -1.092   0.967  1.00  0.00     0.289 C 
ATOM      8  C   UNL     1      -9.310  -0.105   0.600  1.00  0.00     0.304 C 
ATOM      9  N   UNL     1     -10.126  -1.325   0.399  1.00  0.00    -0.318 N 
ATOM     10  S   UNL     1      -9.924   0.775   2.068  1.00  0.00    -0.079 SA
ATOM     11  H   UNL     1      -9.687  -2.113   0.875  1.00  0.00     0.348 HD
ATOM     12  H   UNL     1     -10.196  -1.533  -0.597  1.00  0.00     0.348 HD
ATOM     13  C   UNL     1     -11.379  -0.299   2.287  1.00  0.00     0.078 C 
ATOM     14  C   UNL     1     -11.056  -1.256   3.452  1.00  0.00     0.030 C 
ATOM     15  C   UNL     1     -12.612   0.524   2.661  1.00  0.00     0.030 C 
BRANCH   8  16
ATOM     16  C   UNL     1      -9.212   0.797  -0.615  1.00  0.00     0.162 A 
ATOM     17  C   UNL     1      -8.461   2.068  -2.569  1.00  0.00     0.055 A 
ATOM     18  C   UNL     1      -9.762   2.284  -2.157  1.00  0.00     0.132 A 
ATOM     19  S   UNL     1      -7.751   0.885  -1.540  1.00  0.00    -0.112 S 
ATOM     20  N   UNL     1     -10.164   1.596  -1.044  1.00  0.00    -0.242 NA
BRANCH  17  21
ATOM     21  C   UNL     1      -7.743   2.723  -3.666  1.00  0.00    -0.007 A 
ATOM     22  C   UNL     1      -6.519   4.044  -5.858  1.00  0.00    -0.045 A 
ATOM     23  C   UNL     1      -6.233   2.700  -5.575  1.00  0.00     0.004 A 
ATOM     24  C   UNL     1      -7.405   4.726  -5.018  1.00  0.00     0.004 A 
ATOM     25  C   UNL     1      -6.840   2.046  -4.493  1.00  0.00     0.010 A 
ATOM     26  C   UNL     1      -8.007   4.075  -3.939  1.00  0.00     0.010 A 
BRANCH  22  27
ATOM     27  C   UNL     1      -5.902   4.774  -7.036  1.00  0.00     0.013 C 
ATOM     28  C   UNL     1      -4.401   4.979  -6.835  1.00  0.00     0.012 C 
ATOM     29  C   UNL     1      -6.190   4.070  -8.364  1.00  0.00     0.012 C 
ENDBRANCH  22  27
ENDBRANCH  17  21
ENDBRANCH   8  16
ENDBRANCH   4   7
ENDBRANCH   2   3
ENDBRANCH   1   2
BRANCH   1  30
ATOM     30  C   UNL     1     -16.142  -0.847  -0.658  1.00  0.00     0.118 C 
BRANCH  30  31
ATOM     31  N   UNL     1     -16.637  -1.594  -1.804  1.00  0.00    -0.352 N 
ATOM     32  C   UNL     1     -17.915  -1.749  -2.276  1.00  0.00     0.251 C 
ATOM     33  H   UNL     1     -15.945  -2.063  -2.323  1.00  0.00     0.163 HD
ATOM     34  O   UNL     1     -18.125  -2.571  -3.170  1.00  0.00    -0.269 OA
BRANCH  32  35
ATOM     35  C   UNL     1     -19.042  -0.970  -1.716  1.00  0.00     0.039 A 
ATOM     36  C   UNL     1     -20.256  -1.626  -1.486  1.00  0.00     0.014 A 
ATOM     37  C   UNL     1     -18.934   0.401  -1.460  1.00  0.00     0.014 A 
ATOM     38  C   UNL     1     -21.339  -0.925  -0.947  1.00  0.00     0.010 A 
ATOM     39  C   UNL     1     -19.998   1.086  -0.870  1.00  0.00     0.010 A 
ATOM     40  C   UNL     1     -21.210   0.431  -0.606  1.00  0.00    -0.014 A 
BRANCH  40  41
ATOM     41  C   UNL     1     -22.330   1.165   0.040  1.00  0.00     0.031 A 
ATOM     42  C   UNL     1     -23.023   2.291  -0.678  1.00  0.00     0.074 A 
ATOM     43  C   UNL     1     -22.691   0.851   1.300  1.00  0.00     0.049 A 
ATOM     44  N   UNL     1     -23.985   3.071  -0.252  1.00  0.00    -0.248 NA
ATOM     45  C   UNL     1     -22.566   2.592  -2.043  1.00  0.00     0.031 C 
ATOM     46  C   UNL     1     -22.078  -0.196   2.121  1.00  0.00     0.029 A 
ATOM     47  N   UNL     1     -23.659   1.386   2.114  1.00  0.00    -0.354 N 
ATOM     48  C   UNL     1     -24.235   3.966  -1.286  1.00  0.00     0.074 A 
ATOM     49  C   UNL     1     -23.302   3.653  -2.347  1.00  0.00     0.031 C 
ATOM     50  C   UNL     1     -22.696  -0.238   3.312  1.00  0.00     0.029 A 
ATOM     51  C   UNL     1     -23.724   0.797   3.354  1.00  0.00     0.049 A 
ATOM     52  H   UNL     1     -24.250   2.123   1.835  1.00  0.00     0.167 HD
ATOM     53  C   UNL     1     -25.165   4.949  -1.353  1.00  0.00     0.031 A 
ATOM     54  C   UNL     1     -24.516   1.062   4.411  1.00  0.00     0.031 A 
ATOM     55  C   UNL     1     -26.103   5.255  -0.305  1.00  0.00     0.049 A 
ATOM     56  C   UNL     1     -25.544   2.154   4.311  1.00  0.00     0.074 A 
ATOM     57  C   UNL     1     -27.116   6.199  -0.304  1.00  0.00     0.029 A 
ATOM     58  N   UNL     1     -26.146   4.624   0.928  1.00  0.00    -0.354 N 
ATOM     59  N   UNL     1     -25.800   2.952   3.303  1.00  0.00    -0.248 NA
ATOM     60  C   UNL     1     -26.396   2.373   5.488  1.00  0.00     0.031 C 
ATOM     61  C   UNL     1     -27.747   6.164   0.944  1.00  0.00     0.029 A 
ATOM     62  C   UNL     1     -27.156   5.168   1.704  1.00  0.00     0.049 A 
ATOM     63  H   UNL     1     -25.547   3.896   1.212  1.00  0.00     0.167 HD
ATOM     64  C   UNL     1     -26.857   3.754   3.716  1.00  0.00     0.074 A 
ATOM     65  C   UNL     1     -27.201   3.336   5.060  1.00  0.00     0.031 C 
ATOM     66  C   UNL     1     -27.487   4.746   3.041  1.00  0.00     0.031 A 
BRANCH  53  67
ATOM     67  C   UNL     1     -25.207   5.776  -2.610  1.00  0.00    -0.014 A 
ATOM     68  C   UNL     1     -25.706   5.242  -3.811  1.00  0.00     0.010 A 
ATOM     69  C   UNL     1     -24.773   7.114  -2.582  1.00  0.00     0.010 A 
ATOM     70  C   UNL     1     -25.730   6.017  -4.974  1.00  0.00     0.020 A 
ATOM     71  C   UNL     1     -24.818   7.900  -3.738  1.00  0.00     0.020 A 
ATOM     72  C   UNL     1     -25.279   7.340  -4.931  1.00  0.00     0.054 A 
BRANCH  72  73
ATOM     73  S   UNL     1     -25.332   8.330  -6.450  1.00  0.00     0.124 S 
ATOM     74  O   UNL     1     -24.183   7.810  -7.187  1.00  0.00    -0.237 OA
ATOM     75  O   UNL     1     -26.639   7.994  -7.010  1.00  0.00    -0.237 OA
ATOM     76  O   UNL     1     -25.198   9.704  -5.973  1.00  0.00    -0.744 OA
ENDBRANCH  72  73
ENDBRANCH  53  67
BRANCH  54  77
ATOM     77  C   UNL     1     -24.377   0.261   5.656  1.00  0.00    -0.014 A 
ATOM     78  C   UNL     1     -25.341  -0.704   5.992  1.00  0.00     0.010 A 
ATOM     79  C   UNL     1     -23.266   0.445   6.499  1.00  0.00     0.010 A 
ATOM     80  C   UNL     1     -25.205  -1.465   7.157  1.00  0.00     0.020 A 
ATOM     81  C   UNL     1     -23.115  -0.329   7.653  1.00  0.00     0.020 A 
ATOM     82  C   UNL     1     -24.091  -1.273   7.979  1.00  0.00     0.054 A 
BRANCH  82  83
ATOM     83  S   UNL     1     -23.898  -2.314   9.453  1.00  0.00     0.124 S 
ATOM     84  O   UNL     1     -24.826  -1.690  10.390  1.00  0.00    -0.237 OA
ATOM     85  O   UNL     1     -24.285  -3.635   8.963  1.00  0.00    -0.237 OA
ATOM     86  O   UNL     1     -22.481  -2.174   9.783  1.00  0.00    -0.744 OA
ENDBRANCH  82  83
ENDBRANCH  54  77
BRANCH  66  87
ATOM     87  C   UNL     1     -28.633   5.432   3.733  1.00  0.00    -0.014 A 
ATOM     88  C   UNL     1     -28.407   6.357   4.768  1.00  0.00     0.010 A 
ATOM     89  C   UNL     1     -29.951   5.179   3.312  1.00  0.00     0.010 A 
ATOM     90  C   UNL     1     -29.483   6.997   5.389  1.00  0.00     0.020 A 
ATOM     91  C   UNL     1     -31.028   5.833   3.917  1.00  0.00     0.020 A 
ATOM     92  C   UNL     1     -30.788   6.728   4.962  1.00  0.00     0.054 A 
BRANCH  92  93
ATOM     93  S   UNL     1     -32.168   7.599   5.754  1.00  0.00     0.124 S 
ATOM     94  O   UNL     1     -32.306   6.868   7.011  1.00  0.00    -0.237 OA
ATOM     95  O   UNL     1     -31.663   8.964   5.874  1.00  0.00    -0.237 OA
ATOM     96  O   UNL     1     -33.270   7.430   4.809  1.00  0.00    -0.744 OA
ENDBRANCH  92  93
ENDBRANCH  66  87
ENDBRANCH  40  41
ENDBRANCH  32  35
ENDBRANCH  30  31
ENDBRANCH   1  30
TORSDOF 16
