REMARK SMILES Cc1cc(O[C@@H]2C[C@H](C)C[C@H](C)C2)cc(C(=O)NCCCNC(=O)c2ccc(-c3c4nc(c(-c5ccc(S(=O)(=O)[O-])cc5)c5ccc([nH]5)c(-c5ccc(S(=O)(=O)[O-])cc5)c5nc(c(-c6ccc(S(=O)(=O)[O-])cc6)c6ccc3[nH]6)C=C5)C=C4)cc2)c1N
REMARK SMILES IDX 20 1 19 2 18 3 16 4 17 5 15 7 1 8 2 9 3 10 85 11 4 12 14 13
REMARK SMILES IDX 86 14 5 17 6 18 13 19 7 20 11 21 8 22 12 23 10 24 9 25 21 26
REMARK SMILES IDX 22 27 23 28 24 30 25 31 26 32 84 33 27 34 83 35 28 36 29 37
REMARK SMILES IDX 30 38 77 39 31 40 82 41 76 42 78 43 32 44 81 45 75 46 74 47
REMARK SMILES IDX 33 49 63 50 44 51 62 52 45 53 48 54 61 55 79 56 46 57 47 58
REMARK SMILES IDX 60 60 80 61 49 62 34 63 35 64 43 65 36 66 42 67 37 68 38 69
REMARK SMILES IDX 39 70 40 71 41 72 64 73 65 74 73 75 66 76 72 77 67 78 68 79
REMARK SMILES IDX 69 80 70 81 71 82 50 83 51 84 59 85 52 86 58 87 53 88 54 89
REMARK SMILES IDX 55 90 56 91 57 92
REMARK H PARENT 18 6 86 15 86 16 22 29 78 48 48 59
REMARK Flexibility Score: inf
ROOT
ATOM      1  C   UNL     1      -4.108  -3.514  -0.659  1.00  0.00     0.042 C 
ENDROOT
BRANCH   1   2
ATOM      2  C   UNL     1      -3.260  -3.412   0.605  1.00  0.00     0.118 C 
BRANCH   2   3
ATOM      3  N   UNL     1      -1.880  -3.713   0.288  1.00  0.00    -0.352 N 
ATOM      4  C   UNL     1      -0.738  -2.973   0.181  1.00  0.00     0.253 C 
ATOM      5  O   UNL     1       0.259  -3.612  -0.172  1.00  0.00    -0.269 OA
ATOM      6  H   UNL     1      -1.731  -4.670   0.110  1.00  0.00     0.163 HD
BRANCH   4   7
ATOM      7  C   UNL     1      -0.627  -1.519   0.541  1.00  0.00     0.066 A 
ATOM      8  C   UNL     1       2.095   1.088   1.141  1.00  0.00     0.047 C 
ATOM      9  C   UNL     1       0.783   0.346   1.217  1.00  0.00    -0.024 A 
ATOM     10  C   UNL     1      -0.366   1.059   1.583  1.00  0.00     0.052 A 
ATOM     11  C   UNL     1       0.668  -0.972   0.738  1.00  0.00     0.048 A 
ATOM     12  C   UNL     1      -1.567   0.678   1.016  1.00  0.00     0.120 A 
ATOM     13  C   UNL     1      -1.723  -0.641   0.584  1.00  0.00     0.062 A 
BRANCH  11  14
ATOM     14  N   UNL     1       1.813  -1.624   0.270  1.00  0.00    -0.398 N 
ATOM     15  H   UNL     1       2.701  -1.226   0.418  1.00  0.00     0.156 HD
ATOM     16  H   UNL     1       1.731  -2.481  -0.208  1.00  0.00     0.156 HD
ENDBRANCH  11  14
BRANCH  12  17
ATOM     17  O   UNL     1      -2.568   1.560   0.677  1.00  0.00    -0.490 OA
BRANCH  17  18
ATOM     18  C   UNL     1      -2.223   2.895   0.183  1.00  0.00     0.173 C 
ATOM     19  C   UNL     1      -0.822   3.130  -0.372  1.00  0.00     0.048 C 
ATOM     20  C   UNL     1      -3.248   3.344  -0.917  1.00  0.00     0.048 C 
ATOM     21  C   UNL     1      -0.607   2.522  -1.760  1.00  0.00    -0.010 C 
ATOM     22  C   UNL     1      -2.711   3.796  -2.341  1.00  0.00    -0.010 C 
ATOM     23  C   UNL     1      -1.198   1.145  -2.090  1.00  0.00     0.008 C 
ATOM     24  C   UNL     1      -1.224   3.546  -2.682  1.00  0.00     0.007 C 
ATOM     25  C   UNL     1      -3.588   3.244  -3.477  1.00  0.00     0.008 C 
ENDBRANCH  17  18
ENDBRANCH  12  17
ENDBRANCH   4   7
ENDBRANCH   2   3
ENDBRANCH   1   2
BRANCH   1  26
ATOM     26  C   UNL     1      -4.365  -4.968  -1.052  1.00  0.00     0.118 C 
BRANCH  26  27
ATOM     27  N   UNL     1      -5.128  -5.666  -0.019  1.00  0.00    -0.352 N 
ATOM     28  C   UNL     1      -6.402  -6.155  -0.068  1.00  0.00     0.251 C 
ATOM     29  H   UNL     1      -4.656  -5.803   0.834  1.00  0.00     0.163 HD
ATOM     30  O   UNL     1      -7.009  -6.398   0.981  1.00  0.00    -0.269 OA
BRANCH  28  31
ATOM     31  C   UNL     1      -7.035  -6.405  -1.372  1.00  0.00     0.039 A 
ATOM     32  C   UNL     1      -8.384  -6.101  -1.556  1.00  0.00     0.014 A 
ATOM     33  C   UNL     1      -6.283  -6.963  -2.410  1.00  0.00     0.014 A 
ATOM     34  C   UNL     1      -8.967  -6.311  -2.805  1.00  0.00     0.010 A 
ATOM     35  C   UNL     1      -6.837  -7.080  -3.674  1.00  0.00     0.010 A 
ATOM     36  C   UNL     1      -8.189  -6.772  -3.880  1.00  0.00    -0.014 A 
BRANCH  36  37
ATOM     37  C   UNL     1      -8.763  -6.957  -5.232  1.00  0.00     0.031 A 
ATOM     38  C   UNL     1      -8.773  -8.326  -5.857  1.00  0.00     0.074 A 
ATOM     39  C   UNL     1      -9.194  -5.883  -5.921  1.00  0.00     0.049 A 
ATOM     40  N   UNL     1      -9.141  -8.678  -7.061  1.00  0.00    -0.248 NA
ATOM     41  C   UNL     1      -8.271  -9.440  -5.033  1.00  0.00     0.031 C 
ATOM     42  C   UNL     1      -9.186  -4.502  -5.430  1.00  0.00     0.029 A 
ATOM     43  N   UNL     1      -9.712  -5.781  -7.186  1.00  0.00    -0.354 N 
ATOM     44  C   UNL     1      -8.893 -10.043  -7.146  1.00  0.00     0.074 A 
ATOM     45  C   UNL     1      -8.291 -10.445  -5.895  1.00  0.00     0.031 C 
ATOM     46  C   UNL     1      -9.702  -3.697  -6.372  1.00  0.00     0.029 A 
ATOM     47  C   UNL     1     -10.030  -4.494  -7.549  1.00  0.00     0.049 A 
ATOM     48  H   UNL     1      -9.844  -6.556  -7.778  1.00  0.00     0.167 HD
ATOM     49  C   UNL     1      -9.162 -10.888  -8.168  1.00  0.00     0.031 A 
ATOM     50  C   UNL     1     -10.519  -4.009  -8.706  1.00  0.00     0.031 A 
ATOM     51  C   UNL     1      -9.777 -10.477  -9.401  1.00  0.00     0.049 A 
ATOM     52  C   UNL     1     -10.808  -4.967  -9.828  1.00  0.00     0.074 A 
ATOM     53  C   UNL     1     -10.153 -11.260 -10.477  1.00  0.00     0.029 A 
ATOM     54  N   UNL     1     -10.104  -9.167  -9.722  1.00  0.00    -0.354 N 
ATOM     55  N   UNL     1     -10.633  -6.268  -9.865  1.00  0.00    -0.248 NA
ATOM     56  C   UNL     1     -11.371  -4.398 -11.059  1.00  0.00     0.031 C 
ATOM     57  C   UNL     1     -10.653 -10.417 -11.473  1.00  0.00     0.029 A 
ATOM     58  C   UNL     1     -10.653  -9.117 -10.991  1.00  0.00     0.049 A 
ATOM     59  H   UNL     1      -9.966  -8.390  -9.135  1.00  0.00     0.167 HD
ATOM     60  C   UNL     1     -11.091  -6.675 -11.113  1.00  0.00     0.074 A 
ATOM     61  C   UNL     1     -11.564  -5.486 -11.793  1.00  0.00     0.031 C 
ATOM     62  C   UNL     1     -11.120  -7.921 -11.648  1.00  0.00     0.031 A 
BRANCH  49  63
ATOM     63  C   UNL     1      -8.791 -12.338  -7.995  1.00  0.00    -0.014 A 
ATOM     64  C   UNL     1      -9.463 -13.158  -7.070  1.00  0.00     0.010 A 
ATOM     65  C   UNL     1      -7.783 -12.901  -8.800  1.00  0.00     0.010 A 
ATOM     66  C   UNL     1      -9.108 -14.502  -6.926  1.00  0.00     0.020 A 
ATOM     67  C   UNL     1      -7.448 -14.253  -8.681  1.00  0.00     0.020 A 
ATOM     68  C   UNL     1      -8.103 -15.041  -7.733  1.00  0.00     0.054 A 
BRANCH  68  69
ATOM     69  S   UNL     1      -7.689 -16.797  -7.547  1.00  0.00     0.124 S 
ATOM     70  O   UNL     1      -7.013 -16.812  -6.252  1.00  0.00    -0.237 OA
ATOM     71  O   UNL     1      -9.001 -17.439  -7.577  1.00  0.00    -0.237 OA
ATOM     72  O   UNL     1      -6.834 -17.077  -8.698  1.00  0.00    -0.744 OA
ENDBRANCH  68  69
ENDBRANCH  49  63
BRANCH  50  73
ATOM     73  C   UNL     1     -10.775  -2.549  -8.850  1.00  0.00    -0.014 A 
ATOM     74  C   UNL     1     -12.089  -2.057  -8.925  1.00  0.00     0.010 A 
ATOM     75  C   UNL     1      -9.702  -1.639  -8.890  1.00  0.00     0.010 A 
ATOM     76  C   UNL     1     -12.326  -0.685  -9.057  1.00  0.00     0.020 A 
ATOM     77  C   UNL     1      -9.935  -0.265  -8.990  1.00  0.00     0.020 A 
ATOM     78  C   UNL     1     -11.247   0.202  -9.085  1.00  0.00     0.054 A 
BRANCH  78  79
ATOM     79  S   UNL     1     -11.582   1.982  -9.206  1.00  0.00     0.124 S 
ATOM     80  O   UNL     1     -12.034   2.112 -10.587  1.00  0.00    -0.237 OA
ATOM     81  O   UNL     1     -12.605   2.179  -8.183  1.00  0.00    -0.237 OA
ATOM     82  O   UNL     1     -10.288   2.594  -8.910  1.00  0.00    -0.744 OA
ENDBRANCH  78  79
ENDBRANCH  50  73
BRANCH  62  83
ATOM     83  C   UNL     1     -11.715  -8.073 -13.021  1.00  0.00    -0.014 A 
ATOM     84  C   UNL     1     -11.043  -7.609 -14.165  1.00  0.00     0.010 A 
ATOM     85  C   UNL     1     -12.936  -8.758 -13.172  1.00  0.00     0.010 A 
ATOM     86  C   UNL     1     -11.594  -7.806 -15.434  1.00  0.00     0.020 A 
ATOM     87  C   UNL     1     -13.473  -8.984 -14.440  1.00  0.00     0.020 A 
ATOM     88  C   UNL     1     -12.804  -8.495 -15.563  1.00  0.00     0.054 A 
BRANCH  88  89
ATOM     89  S   UNL     1     -13.467  -8.787 -17.225  1.00  0.00     0.124 S 
ATOM     90  O   UNL     1     -13.913  -7.452 -17.613  1.00  0.00    -0.237 OA
ATOM     91  O   UNL     1     -12.304  -9.296 -17.948  1.00  0.00    -0.237 OA
ATOM     92  O   UNL     1     -14.533  -9.761 -17.008  1.00  0.00    -0.744 OA
ENDBRANCH  88  89
ENDBRANCH  62  83
ENDBRANCH  36  37
ENDBRANCH  28  31
ENDBRANCH  26  27
ENDBRANCH   1  26
TORSDOF 16
