REMARK SMILES CC1(C)CCCC[C@@]1(CC(=O)NCCCNC(=O)c1ccc(-c2c3nc(c(-c4ccc(S(=O)(=O)[O-])cc4)c4ccc([nH]4)c(-c4ccc(S(=O)(=O)[O-])cc4)c4nc(c(-c5ccc(S(=O)(=O)[O-])cc5)c5ccc2[nH]5)C=C4)C=C3)cc1)[NH+]1CCCCCC1
REMARK SMILES IDX 13 1 12 2 10 3 11 4 9 6 8 7 1 8 2 9 3 10 4 11 5 12 7 13 6 14
REMARK SMILES IDX 79 15 80 17 81 18 82 19 85 21 84 22 83 23 14 25 15 26 16 27
REMARK SMILES IDX 17 28 18 30 19 31 20 32 78 33 21 34 77 35 22 36 23 37 24 38
REMARK SMILES IDX 71 39 25 40 76 41 70 42 72 43 26 44 75 45 69 46 68 47 27 49
REMARK SMILES IDX 57 50 38 51 56 52 39 53 42 54 55 55 73 56 40 57 41 58 54 60
REMARK SMILES IDX 74 61 43 62 28 63 29 64 37 65 30 66 36 67 31 68 32 69 33 70
REMARK SMILES IDX 34 71 35 72 58 73 59 74 67 75 60 76 66 77 61 78 62 79 63 80
REMARK SMILES IDX 64 81 65 82 44 83 45 84 53 85 46 86 52 87 47 88 48 89 49 90
REMARK SMILES IDX 50 91 51 92
REMARK H PARENT 12 5 79 16 16 29 72 48 42 59
REMARK Flexibility Score: 90.00
ROOT
ATOM      1  C   UNL     1       0.873  -1.801  -4.596  1.00  0.00     0.117 C 
ENDROOT
BRANCH   1   2
ATOM      2  N   UNL     1       0.942  -3.038  -3.829  1.00  0.00    -0.356 N 
ATOM      3  C   UNL     1       0.287  -3.510  -2.731  1.00  0.00     0.226 C 
ATOM      4  O   UNL     1       0.381  -4.729  -2.537  1.00  0.00    -0.275 OA
ATOM      5  H   UNL     1       1.607  -3.671  -4.181  1.00  0.00     0.163 HD
BRANCH   3   6
ATOM      6  C   UNL     1      -0.537  -2.654  -1.769  1.00  0.00     0.169 C 
BRANCH   6   7
ATOM      7  C   UNL     1       0.124  -2.156  -0.359  1.00  0.00     0.112 C 
ATOM      8  C   UNL     1       1.116   0.280   0.597  1.00  0.00     0.018 C 
ATOM      9  C   UNL     1       0.682  -0.616  -0.594  1.00  0.00     0.020 C 
ATOM     10  C   UNL     1      -0.363   0.265  -1.340  1.00  0.00     0.018 C 
ATOM     11  C   UNL     1       1.972  -0.703  -1.441  1.00  0.00     0.013 C 
ATOM     12  C   UNL     1       3.072  -1.565  -0.835  1.00  0.00     0.001 C 
ATOM     13  C   UNL     1       1.297  -3.131   0.020  1.00  0.00     0.070 C 
ATOM     14  C   UNL     1       2.619  -3.003  -0.726  1.00  0.00     0.006 C 
BRANCH   7  15
ATOM     15  N   UNL     1      -0.965  -2.304   0.705  1.00  0.00    -0.329 N 
ATOM     16  H   UNL     1      -1.612  -1.759   0.136  1.00  0.00     0.348 HD
BRANCH  15  17
ATOM     17  C   UNL     1      -0.943  -1.537   1.950  1.00  0.00     0.262 C 
BRANCH  17  18
ATOM     18  C   UNL     1       0.237  -1.742   2.908  1.00  0.00     0.061 C 
BRANCH  18  19
ATOM     19  C   UNL     1       0.321  -3.059   3.677  1.00  0.00     0.006 CG0
ATOM     20  G   UNL     1      -0.088  -4.341   2.959  1.00  0.00     0.000 G0
ENDBRANCH  18  19
ENDBRANCH  17  18
ENDBRANCH  15  17
BRANCH  15  21
ATOM     21  C   UNL     1      -1.527  -3.655   0.924  1.00  0.00     0.262 C 
BRANCH  21  22
ATOM     22  C   UNL     1      -1.475  -4.283   2.334  1.00  0.00     0.061 C 
BRANCH  22  23
ATOM     23  C   UNL     1      -0.088  -4.341   2.959  1.00  0.00     0.006 CG0
ATOM     24  G   UNL     1       0.321  -3.059   3.677  1.00  0.00     0.000 G0
ENDBRANCH  22  23
ENDBRANCH  21  22
ENDBRANCH  15  21
ENDBRANCH   7  15
ENDBRANCH   6   7
ENDBRANCH   3   6
ENDBRANCH   1   2
BRANCH   1  25
ATOM     25  C   UNL     1       2.201  -1.037  -4.826  1.00  0.00     0.042 C 
BRANCH  25  26
ATOM     26  C   UNL     1       3.506  -1.849  -4.832  1.00  0.00     0.118 C 
BRANCH  26  27
ATOM     27  N   UNL     1       4.340  -1.435  -5.952  1.00  0.00    -0.352 N 
ATOM     28  C   UNL     1       5.350  -0.513  -6.043  1.00  0.00     0.251 C 
ATOM     29  H   UNL     1       4.143  -1.902  -6.795  1.00  0.00     0.163 HD
ATOM     30  O   UNL     1       5.545   0.005  -7.144  1.00  0.00    -0.269 OA
BRANCH  28  31
ATOM     31  C   UNL     1       6.249  -0.155  -4.914  1.00  0.00     0.039 A 
ATOM     32  C   UNL     1       6.821   1.126  -4.919  1.00  0.00     0.014 A 
ATOM     33  C   UNL     1       6.713  -1.098  -3.993  1.00  0.00     0.014 A 
ATOM     34  C   UNL     1       7.862   1.452  -4.039  1.00  0.00     0.010 A 
ATOM     35  C   UNL     1       7.735  -0.759  -3.087  1.00  0.00     0.010 A 
ATOM     36  C   UNL     1       8.345   0.508  -3.121  1.00  0.00    -0.014 A 
BRANCH  36  37
ATOM     37  C   UNL     1       9.520   0.826  -2.255  1.00  0.00     0.031 A 
ATOM     38  C   UNL     1      10.846   0.134  -2.475  1.00  0.00     0.074 A 
ATOM     39  C   UNL     1       9.416   1.741  -1.270  1.00  0.00     0.049 A 
ATOM     40  N   UNL     1      11.968   0.262  -1.809  1.00  0.00    -0.248 NA
ATOM     41  C   UNL     1      10.916  -0.833  -3.582  1.00  0.00     0.031 C 
ATOM     42  C   UNL     1       8.207   2.497  -0.943  1.00  0.00     0.029 A 
ATOM     43  N   UNL     1      10.345   2.193  -0.362  1.00  0.00    -0.354 N 
ATOM     44  C   UNL     1      12.869  -0.619  -2.401  1.00  0.00     0.074 A 
ATOM     45  C   UNL     1      12.152  -1.298  -3.460  1.00  0.00     0.031 C 
ATOM     46  C   UNL     1       8.470   3.325   0.081  1.00  0.00     0.029 A 
ATOM     47  C   UNL     1       9.855   3.139   0.507  1.00  0.00     0.049 A 
ATOM     48  H   UNL     1      11.275   1.869  -0.337  1.00  0.00     0.167 HD
ATOM     49  C   UNL     1      14.174  -0.839  -2.103  1.00  0.00     0.031 A 
ATOM     50  C   UNL     1      10.444   3.781   1.537  1.00  0.00     0.031 A 
ATOM     51  C   UNL     1      14.902  -0.159  -1.062  1.00  0.00     0.049 A 
ATOM     52  C   UNL     1      11.886   3.504   1.866  1.00  0.00     0.074 A 
ATOM     53  C   UNL     1      16.237  -0.291  -0.717  1.00  0.00     0.029 A 
ATOM     54  N   UNL     1      14.361   0.782  -0.201  1.00  0.00    -0.354 N 
ATOM     55  N   UNL     1      12.725   2.690   1.271  1.00  0.00    -0.248 NA
ATOM     56  C   UNL     1      12.464   4.241   3.000  1.00  0.00     0.031 C 
ATOM     57  C   UNL     1      16.492   0.537   0.381  1.00  0.00     0.029 A 
ATOM     58  C   UNL     1      15.329   1.224   0.687  1.00  0.00     0.049 A 
ATOM     59  H   UNL     1      13.427   1.092  -0.217  1.00  0.00     0.167 HD
ATOM     60  C   UNL     1      13.934   2.836   1.944  1.00  0.00     0.074 A 
ATOM     61  C   UNL     1      13.723   3.824   2.981  1.00  0.00     0.031 C 
ATOM     62  C   UNL     1      15.114   2.207   1.718  1.00  0.00     0.031 A 
BRANCH  49  63
ATOM     63  C   UNL     1      14.909  -1.878  -2.912  1.00  0.00    -0.014 A 
ATOM     64  C   UNL     1      15.265  -1.639  -4.252  1.00  0.00     0.010 A 
ATOM     65  C   UNL     1      15.289  -3.092  -2.311  1.00  0.00     0.010 A 
ATOM     66  C   UNL     1      15.946  -2.613  -4.988  1.00  0.00     0.020 A 
ATOM     67  C   UNL     1      15.993  -4.059  -3.036  1.00  0.00     0.020 A 
ATOM     68  C   UNL     1      16.300  -3.820  -4.378  1.00  0.00     0.054 A 
BRANCH  68  69
ATOM     69  S   UNL     1      17.191  -5.063  -5.354  1.00  0.00     0.124 S 
ATOM     70  O   UNL     1      16.129  -5.595  -6.204  1.00  0.00    -0.237 OA
ATOM     71  O   UNL     1      18.206  -4.269  -6.039  1.00  0.00    -0.237 OA
ATOM     72  O   UNL     1      17.705  -5.991  -4.348  1.00  0.00    -0.744 OA
ENDBRANCH  68  69
ENDBRANCH  49  63
BRANCH  50  73
ATOM     73  C   UNL     1       9.662   4.761   2.341  1.00  0.00    -0.014 A 
ATOM     74  C   UNL     1       9.922   6.138   2.238  1.00  0.00     0.010 A 
ATOM     75  C   UNL     1       8.648   4.318   3.211  1.00  0.00     0.010 A 
ATOM     76  C   UNL     1       9.190   7.056   2.998  1.00  0.00     0.020 A 
ATOM     77  C   UNL     1       7.898   5.234   3.953  1.00  0.00     0.020 A 
ATOM     78  C   UNL     1       8.180   6.597   3.850  1.00  0.00     0.054 A 
BRANCH  78  79
ATOM     79  S   UNL     1       7.201   7.808   4.782  1.00  0.00     0.124 S 
ATOM     80  O   UNL     1       8.125   8.193   5.844  1.00  0.00    -0.237 OA
ATOM     81  O   UNL     1       6.926   8.834   3.778  1.00  0.00    -0.237 OA
ATOM     82  O   UNL     1       6.034   7.042   5.212  1.00  0.00    -0.744 OA
ENDBRANCH  78  79
ENDBRANCH  50  73
BRANCH  62  83
ATOM     83  C   UNL     1      16.284   2.587   2.587  1.00  0.00    -0.014 A 
ATOM     84  C   UNL     1      16.366   2.162   3.925  1.00  0.00     0.010 A 
ATOM     85  C   UNL     1      17.344   3.333   2.039  1.00  0.00     0.010 A 
ATOM     86  C   UNL     1      17.475   2.500   4.707  1.00  0.00     0.020 A 
ATOM     87  C   UNL     1      18.465   3.653   2.811  1.00  0.00     0.020 A 
ATOM     88  C   UNL     1      18.517   3.245   4.145  1.00  0.00     0.054 A 
BRANCH  88  89
ATOM     89  S   UNL     1      19.967   3.632   5.166  1.00  0.00     0.124 S 
ATOM     90  O   UNL     1      19.458   4.696   6.026  1.00  0.00    -0.237 OA
ATOM     91  O   UNL     1      20.240   2.361   5.833  1.00  0.00    -0.237 OA
ATOM     92  O   UNL     1      20.975   4.046   4.192  1.00  0.00    -0.744 OA
ENDBRANCH  88  89
ENDBRANCH  62  83
ENDBRANCH  36  37
ENDBRANCH  28  31
ENDBRANCH  26  27
ENDBRANCH  25  26
ENDBRANCH   1  25
TORSDOF 15
