REMARK SMILES Cc1cccc(-n2ncc(C(=O)Nc3cccc(C(=O)NCCCNC(=O)c4ccc(-c5c6nc(c(-c7ccc(S(=O)(=O)[O-])cc7)c7ccc([nH]7)c(-c7ccc(S(=O)(=O)[O-])cc7)c7nc(c(-c8ccc(S(=O)(=O)[O-])cc8)c8ccc5[nH]8)C=C7)C=C6)cc4)c3C)c2C)c1
REMARK SMILES IDX 23 1 22 2 21 3 19 4 20 5 18 7 14 8 15 9 88 10 16 11 89 12
REMARK SMILES IDX 17 13 13 14 11 15 12 16 10 18 7 19 8 20 90 21 9 22 91 23
REMARK SMILES IDX 6 24 1 25 2 26 3 27 92 28 4 29 5 30 24 31 25 32 26 33 27 35
REMARK SMILES IDX 28 36 29 37 87 38 30 39 86 40 31 41 32 42 33 43 80 44 34 45
REMARK SMILES IDX 85 46 79 47 81 48 35 49 84 50 78 51 77 52 36 54 66 55 47 56
REMARK SMILES IDX 65 57 48 58 51 59 64 60 82 61 49 62 50 63 63 65 83 66 52 67
REMARK SMILES IDX 37 68 38 69 46 70 39 71 45 72 40 73 41 74 42 75 43 76 44 77
REMARK SMILES IDX 67 78 68 79 76 80 69 81 75 82 70 83 71 84 72 85 73 86 74 87
REMARK SMILES IDX 53 88 54 89 62 90 55 91 61 92 56 93 57 94 58 95 59 96 60 97
REMARK H PARENT 21 6 13 17 25 34 81 53 51 64
REMARK Flexibility Score: inf
ROOT
ATOM      1  C   UNL     1      -1.792   9.287  -5.130  1.00  0.00     0.042 C 
ENDROOT
BRANCH   1   2
ATOM      2  C   UNL     1      -0.940   9.141  -3.869  1.00  0.00     0.118 C 
BRANCH   2   3
ATOM      3  N   UNL     1      -1.472   9.913  -2.754  1.00  0.00    -0.352 N 
ATOM      4  C   UNL     1      -2.349   9.648  -1.727  1.00  0.00     0.251 C 
ATOM      5  O   UNL     1      -2.477  10.553  -0.904  1.00  0.00    -0.269 OA
ATOM      6  H   UNL     1      -1.125  10.834  -2.730  1.00  0.00     0.163 HD
BRANCH   4   7
ATOM      7  C   UNL     1      -3.108   8.350  -1.552  1.00  0.00     0.044 A 
ATOM      8  C   UNL     1      -4.128   6.617  -0.164  1.00  0.00     0.045 A 
ATOM      9  C   UNL     1      -4.340   5.816  -1.291  1.00  0.00     0.026 A 
ATOM     10  C   UNL     1      -3.611   7.934  -0.283  1.00  0.00    -0.015 A 
ATOM     11  C   UNL     1      -3.974   6.276  -2.540  1.00  0.00     0.003 A 
ATOM     12  C   UNL     1      -3.496   8.783   0.962  1.00  0.00     0.047 C 
ATOM     13  C   UNL     1      -3.351   7.515  -2.655  1.00  0.00     0.014 A 
BRANCH   8  14
ATOM     14  N   UNL     1      -4.415   6.075   1.100  1.00  0.00    -0.322 N 
ATOM     15  C   UNL     1      -4.149   4.807   1.574  1.00  0.00     0.259 C 
ATOM     16  O   UNL     1      -4.788   4.406   2.549  1.00  0.00    -0.269 OA
ATOM     17  H   UNL     1      -4.866   6.681   1.732  1.00  0.00     0.170 HD
BRANCH  15  18
ATOM     18  C   UNL     1      -3.049   4.027   1.000  1.00  0.00     0.081 A 
ATOM     19  N   UNL     1      -1.639   2.366   0.498  1.00  0.00    -0.237 N 
ATOM     20  N   UNL     1      -1.083   3.476  -0.041  1.00  0.00    -0.175 NA
ATOM     21  C   UNL     1      -2.767   2.683   1.247  1.00  0.00     0.054 A 
ATOM     22  C   UNL     1      -1.943   4.451   0.231  1.00  0.00     0.149 A 
ATOM     23  C   UNL     1      -3.418   1.769   2.226  1.00  0.00     0.068 C 
BRANCH  19  24
ATOM     24  C   UNL     1      -1.006   1.110   0.285  1.00  0.00     0.065 A 
ATOM     25  C   UNL     1       2.549  -0.163  -0.239  1.00  0.00     0.044 C 
ATOM     26  C   UNL     1       1.057  -0.133  -0.087  1.00  0.00    -0.049 A 
ATOM     27  C   UNL     1       0.326  -1.325  -0.053  1.00  0.00     0.003 A 
ATOM     28  C   UNL     1       0.380   1.084   0.056  1.00  0.00     0.031 A 
ATOM     29  C   UNL     1      -1.060  -1.301   0.118  1.00  0.00     0.002 A 
ATOM     30  C   UNL     1      -1.728  -0.087   0.291  1.00  0.00     0.028 A 
ENDBRANCH  19  24
ENDBRANCH  15  18
ENDBRANCH   8  14
ENDBRANCH   4   7
ENDBRANCH   2   3
ENDBRANCH   1   2
BRANCH   1  31
ATOM     31  C   UNL     1      -1.440  10.501  -5.979  1.00  0.00     0.118 C 
BRANCH  31  32
ATOM     32  N   UNL     1      -1.145  10.121  -7.358  1.00  0.00    -0.352 N 
ATOM     33  C   UNL     1      -1.142  10.926  -8.489  1.00  0.00     0.251 C 
ATOM     34  H   UNL     1      -0.920   9.174  -7.504  1.00  0.00     0.163 HD
ATOM     35  O   UNL     1      -1.039  10.489  -9.607  1.00  0.00    -0.269 OA
BRANCH  33  36
ATOM     36  C   UNL     1      -1.162  12.380  -8.232  1.00  0.00     0.039 A 
ATOM     37  C   UNL     1       0.065  13.047  -8.317  1.00  0.00     0.014 A 
ATOM     38  C   UNL     1      -2.264  12.947  -7.600  1.00  0.00     0.014 A 
ATOM     39  C   UNL     1       0.247  14.222  -7.598  1.00  0.00     0.010 A 
ATOM     40  C   UNL     1      -2.051  14.063  -6.816  1.00  0.00     0.010 A 
ATOM     41  C   UNL     1      -0.782  14.667  -6.772  1.00  0.00    -0.014 A 
BRANCH  41  42
ATOM     42  C   UNL     1      -0.614  15.707  -5.763  1.00  0.00     0.031 A 
ATOM     43  C   UNL     1      -1.242  17.032  -5.969  1.00  0.00     0.074 A 
ATOM     44  C   UNL     1       0.013  15.435  -4.597  1.00  0.00     0.049 A 
ATOM     45  N   UNL     1      -0.941  18.101  -5.309  1.00  0.00    -0.248 NA
ATOM     46  C   UNL     1      -2.222  17.271  -7.025  1.00  0.00     0.031 C 
ATOM     47  C   UNL     1      -0.075  16.211  -3.362  1.00  0.00     0.029 A 
ATOM     48  N   UNL     1       1.048  14.530  -4.351  1.00  0.00    -0.354 N 
ATOM     49  C   UNL     1      -1.897  19.047  -5.605  1.00  0.00     0.074 A 
ATOM     50  C   UNL     1      -2.579  18.530  -6.766  1.00  0.00     0.031 C 
ATOM     51  C   UNL     1       1.022  15.976  -2.628  1.00  0.00     0.029 A 
ATOM     52  C   UNL     1       1.912  15.167  -3.442  1.00  0.00     0.049 A 
ATOM     53  H   UNL     1       1.152  13.629  -4.735  1.00  0.00     0.167 HD
ATOM     54  C   UNL     1      -2.109  20.078  -4.738  1.00  0.00     0.031 A 
ATOM     55  C   UNL     1       3.224  15.454  -3.691  1.00  0.00     0.031 A 
ATOM     56  C   UNL     1      -1.062  20.149  -3.718  1.00  0.00     0.049 A 
ATOM     57  C   UNL     1       3.557  16.921  -3.523  1.00  0.00     0.074 A 
ATOM     58  C   UNL     1      -1.008  19.809  -2.376  1.00  0.00     0.029 A 
ATOM     59  N   UNL     1       0.251  20.382  -4.115  1.00  0.00    -0.354 N 
ATOM     60  N   UNL     1       2.662  17.867  -3.459  1.00  0.00    -0.248 NA
ATOM     61  C   UNL     1       4.919  17.444  -3.461  1.00  0.00     0.031 C 
ATOM     62  C   UNL     1       0.359  19.759  -1.991  1.00  0.00     0.029 A 
ATOM     63  C   UNL     1       1.130  20.099  -3.089  1.00  0.00     0.049 A 
ATOM     64  H   UNL     1       0.516  20.704  -5.007  1.00  0.00     0.167 HD
ATOM     65  C   UNL     1       3.280  19.086  -3.353  1.00  0.00     0.074 A 
ATOM     66  C   UNL     1       4.696  18.767  -3.345  1.00  0.00     0.031 C 
ATOM     67  C   UNL     1       2.567  20.250  -3.294  1.00  0.00     0.031 A 
BRANCH  54  68
ATOM     68  C   UNL     1      -3.421  20.842  -4.647  1.00  0.00    -0.014 A 
ATOM     69  C   UNL     1      -3.743  21.543  -3.465  1.00  0.00     0.010 A 
ATOM     70  C   UNL     1      -4.423  20.831  -5.636  1.00  0.00     0.010 A 
ATOM     71  C   UNL     1      -5.011  22.113  -3.252  1.00  0.00     0.020 A 
ATOM     72  C   UNL     1      -5.698  21.380  -5.435  1.00  0.00     0.020 A 
ATOM     73  C   UNL     1      -5.993  22.004  -4.233  1.00  0.00     0.054 A 
BRANCH  73  74
ATOM     74  S   UNL     1      -7.651  22.666  -3.927  1.00  0.00     0.124 S 
ATOM     75  O   UNL     1      -8.078  21.912  -2.751  1.00  0.00    -0.237 OA
ATOM     76  O   UNL     1      -7.389  24.085  -3.708  1.00  0.00    -0.237 OA
ATOM     77  O   UNL     1      -8.381  22.354  -5.155  1.00  0.00    -0.744 OA
ENDBRANCH  73  74
ENDBRANCH  54  68
BRANCH  55  78
ATOM     78  C   UNL     1       3.888  14.526  -4.645  1.00  0.00    -0.014 A 
ATOM     79  C   UNL     1       4.133  13.211  -4.197  1.00  0.00     0.010 A 
ATOM     80  C   UNL     1       3.838  14.779  -6.028  1.00  0.00     0.010 A 
ATOM     81  C   UNL     1       4.131  12.145  -5.098  1.00  0.00     0.020 A 
ATOM     82  C   UNL     1       3.842  13.709  -6.934  1.00  0.00     0.020 A 
ATOM     83  C   UNL     1       3.912  12.398  -6.452  1.00  0.00     0.054 A 
BRANCH  83  84
ATOM     84  S   UNL     1       3.493  10.987  -7.520  1.00  0.00     0.124 S 
ATOM     85  O   UNL     1       4.660  10.124  -7.373  1.00  0.00    -0.237 OA
ATOM     86  O   UNL     1       2.264  10.496  -6.896  1.00  0.00    -0.237 OA
ATOM     87  O   UNL     1       3.321  11.599  -8.834  1.00  0.00    -0.744 OA
ENDBRANCH  83  84
ENDBRANCH  55  78
BRANCH  67  88
ATOM     88  C   UNL     1       3.130  21.654  -3.361  1.00  0.00    -0.014 A 
ATOM     89  C   UNL     1       4.382  21.984  -3.901  1.00  0.00     0.010 A 
ATOM     90  C   UNL     1       2.301  22.735  -2.970  1.00  0.00     0.010 A 
ATOM     91  C   UNL     1       4.809  23.319  -3.994  1.00  0.00     0.020 A 
ATOM     92  C   UNL     1       2.698  24.070  -3.099  1.00  0.00     0.020 A 
ATOM     93  C   UNL     1       3.965  24.354  -3.591  1.00  0.00     0.054 A 
BRANCH  93  94
ATOM     94  S   UNL     1       4.490  26.076  -3.787  1.00  0.00     0.124 S 
ATOM     95  O   UNL     1       5.171  26.329  -2.520  1.00  0.00    -0.237 OA
ATOM     96  O   UNL     1       5.356  26.024  -4.963  1.00  0.00    -0.237 OA
ATOM     97  O   UNL     1       3.234  26.795  -3.980  1.00  0.00    -0.744 OA
ENDBRANCH  93  94
ENDBRANCH  67  88
ENDBRANCH  41  42
ENDBRANCH  33  36
ENDBRANCH  31  32
ENDBRANCH   1  31
TORSDOF 16
