REMARK SMILES NS(=O)(=O)c1ccc(-n2nc(C(F)F)cc2-c2ccc(C(=O)NCCCNC(=O)c3ccc(-c4c5nc(c(-c6ccc(S(=O)(=O)[O-])cc6)c6ccc([nH]6)c(-c6ccc(S(=O)(=O)[O-])cc6)c6nc(c(-c7ccc(S(=O)(=O)[O-])cc7)c7ccc4[nH]7)C=C6)C=C5)cc3)cc2)cc1
REMARK SMILES IDX 24 1 23 2 21 3 22 4 20 6 17 7 18 8 91 9 19 10 90 11 16 12
REMARK SMILES IDX 9 13 10 14 11 15 15 16 8 17 5 18 6 19 93 20 7 21 92 22 2 23
REMARK SMILES IDX 3 24 4 25 1 26 12 29 13 30 14 31 25 32 26 33 27 34 28 35
REMARK SMILES IDX 29 37 30 38 31 39 89 40 32 41 88 42 33 43 34 44 35 45 82 46
REMARK SMILES IDX 36 47 87 48 81 49 83 50 37 51 86 52 80 53 79 54 38 56 68 57
REMARK SMILES IDX 49 58 67 59 50 60 53 61 66 62 84 63 51 64 52 65 65 67 85 68
REMARK SMILES IDX 54 69 39 70 40 71 48 72 41 73 47 74 42 75 43 76 44 77 45 78
REMARK SMILES IDX 46 79 69 80 70 81 78 82 71 83 77 84 72 85 73 86 74 87 75 88
REMARK SMILES IDX 76 89 55 90 56 91 64 92 57 93 63 94 58 95 59 96 60 97 61 98
REMARK SMILES IDX 62 99
REMARK H PARENT 23 5 1 27 1 28 27 36 83 55 53 66
REMARK Flexibility Score: inf
ROOT
ATOM      1  C   UNL     1      -5.026  -7.791  -4.118  1.00  0.00     0.118 C 
ENDROOT
BRANCH   1   2
ATOM      2  N   UNL     1      -5.146  -6.364  -3.861  1.00  0.00    -0.352 N 
ATOM      3  C   UNL     1      -4.188  -5.389  -3.720  1.00  0.00     0.251 C 
ATOM      4  O   UNL     1      -4.548  -4.217  -3.635  1.00  0.00    -0.269 OA
ATOM      5  H   UNL     1      -6.072  -6.042  -3.774  1.00  0.00     0.163 HD
BRANCH   3   6
ATOM      6  C   UNL     1      -2.734  -5.702  -3.730  1.00  0.00     0.039 A 
ATOM      7  C   UNL     1       0.010  -6.247  -3.894  1.00  0.00     0.000 A 
ATOM      8  C   UNL     1      -0.483  -4.996  -4.287  1.00  0.00     0.011 A 
ATOM      9  C   UNL     1      -0.860  -7.206  -3.390  1.00  0.00     0.011 A 
ATOM     10  C   UNL     1      -1.852  -4.726  -4.208  1.00  0.00     0.014 A 
ATOM     11  C   UNL     1      -2.210  -6.910  -3.267  1.00  0.00     0.014 A 
BRANCH   7  12
ATOM     12  C   UNL     1       1.431  -6.540  -3.897  1.00  0.00     0.075 A 
ATOM     13  N   UNL     1       2.365  -5.883  -3.112  1.00  0.00    -0.233 N 
ATOM     14  N   UNL     1       3.634  -6.237  -3.439  1.00  0.00    -0.166 NA
ATOM     15  C   UNL     1       3.488  -7.287  -4.271  1.00  0.00     0.129 A 
ATOM     16  C   UNL     1       2.131  -7.479  -4.618  1.00  0.00     0.060 A 
BRANCH  13  17
ATOM     17  C   UNL     1       2.090  -4.921  -2.109  1.00  0.00     0.065 A 
ATOM     18  C   UNL     1       1.298  -2.895  -0.379  1.00  0.00     0.082 A 
ATOM     19  C   UNL     1       0.663  -4.136  -0.315  1.00  0.00     0.024 A 
ATOM     20  C   UNL     1       2.343  -2.668  -1.284  1.00  0.00     0.024 A 
ATOM     21  C   UNL     1       1.059  -5.151  -1.182  1.00  0.00     0.030 A 
ATOM     22  C   UNL     1       2.761  -3.696  -2.137  1.00  0.00     0.030 A 
BRANCH  18  23
ATOM     23  S   UNL     1       0.724  -1.621   0.704  1.00  0.00     0.238 S 
ATOM     24  O   UNL     1       1.425  -1.743   1.949  1.00  0.00    -0.207 OA
ATOM     25  O   UNL     1      -0.724  -1.568   0.612  1.00  0.00    -0.207 OA
BRANCH  23  26
ATOM     26  N   UNL     1       1.258  -0.190   0.001  1.00  0.00    -0.225 NA
ATOM     27  H   UNL     1       0.963   0.601   0.574  1.00  0.00     0.137 HD
ATOM     28  H   UNL     1       0.860  -0.101  -0.933  1.00  0.00     0.137 HD
ENDBRANCH  23  26
ENDBRANCH  18  23
ENDBRANCH  13  17
BRANCH  15  29
ATOM     29  C   UNL     1       4.636  -8.121  -4.753  1.00  0.00     0.393 C 
ATOM     30  F   UNL     1       5.688  -7.375  -5.184  1.00  0.00    -0.203 F 
ATOM     31  F   UNL     1       5.110  -8.937  -3.770  1.00  0.00    -0.203 F 
ENDBRANCH  15  29
ENDBRANCH   7  12
ENDBRANCH   3   6
ENDBRANCH   1   2
BRANCH   1  32
ATOM     32  C   UNL     1      -5.093  -8.621  -2.825  1.00  0.00     0.042 C 
BRANCH  32  33
ATOM     33  C   UNL     1      -6.514  -8.959  -2.432  1.00  0.00     0.118 C 
BRANCH  33  34
ATOM     34  N   UNL     1      -7.127  -9.920  -3.357  1.00  0.00    -0.352 N 
ATOM     35  C   UNL     1      -8.432 -10.379  -3.397  1.00  0.00     0.251 C 
ATOM     36  H   UNL     1      -6.527 -10.289  -4.044  1.00  0.00     0.163 HD
ATOM     37  O   UNL     1      -8.705 -11.421  -3.981  1.00  0.00    -0.269 OA
BRANCH  35  38
ATOM     38  C   UNL     1      -9.479  -9.586  -2.733  1.00  0.00     0.039 A 
ATOM     39  C   UNL     1     -10.580 -10.155  -2.085  1.00  0.00     0.014 A 
ATOM     40  C   UNL     1      -9.303  -8.211  -2.743  1.00  0.00     0.014 A 
ATOM     41  C   UNL     1     -11.466  -9.313  -1.413  1.00  0.00     0.010 A 
ATOM     42  C   UNL     1      -9.977  -7.446  -1.847  1.00  0.00     0.010 A 
ATOM     43  C   UNL     1     -11.145  -7.955  -1.305  1.00  0.00    -0.014 A 
BRANCH  43  44
ATOM     44  C   UNL     1     -11.957  -6.973  -0.608  1.00  0.00     0.031 A 
ATOM     45  C   UNL     1     -11.940  -7.120   0.867  1.00  0.00     0.074 A 
ATOM     46  C   UNL     1     -12.330  -5.832  -1.234  1.00  0.00     0.049 A 
ATOM     47  N   UNL     1     -12.888  -7.548   1.631  1.00  0.00    -0.248 NA
ATOM     48  C   UNL     1     -10.644  -6.964   1.557  1.00  0.00     0.031 C 
ATOM     49  C   UNL     1     -12.020  -5.408  -2.611  1.00  0.00     0.029 A 
ATOM     50  N   UNL     1     -12.919  -4.724  -0.720  1.00  0.00    -0.354 N 
ATOM     51  C   UNL     1     -12.384  -7.451   2.925  1.00  0.00     0.074 A 
ATOM     52  C   UNL     1     -10.954  -7.383   2.785  1.00  0.00     0.031 C 
ATOM     53  C   UNL     1     -12.196  -4.073  -2.726  1.00  0.00     0.029 A 
ATOM     54  C   UNL     1     -12.778  -3.574  -1.494  1.00  0.00     0.049 A 
ATOM     55  H   UNL     1     -13.408  -4.731   0.135  1.00  0.00     0.167 HD
ATOM     56  C   UNL     1     -13.177  -7.087   3.974  1.00  0.00     0.031 A 
ATOM     57  C   UNL     1     -13.072  -2.301  -1.119  1.00  0.00     0.031 A 
ATOM     58  C   UNL     1     -14.569  -7.062   3.588  1.00  0.00     0.049 A 
ATOM     59  C   UNL     1     -13.954  -2.404   0.074  1.00  0.00     0.074 A 
ATOM     60  C   UNL     1     -15.454  -7.982   3.064  1.00  0.00     0.029 A 
ATOM     61  N   UNL     1     -15.108  -5.821   3.330  1.00  0.00    -0.354 N 
ATOM     62  N   UNL     1     -15.150  -2.925   0.038  1.00  0.00    -0.248 NA
ATOM     63  C   UNL     1     -13.326  -2.384   1.387  1.00  0.00     0.031 C 
ATOM     64  C   UNL     1     -16.226  -7.248   2.115  1.00  0.00     0.029 A 
ATOM     65  C   UNL     1     -15.836  -5.908   2.173  1.00  0.00     0.049 A 
ATOM     66  H   UNL     1     -14.991  -5.013   3.880  1.00  0.00     0.167 HD
ATOM     67  C   UNL     1     -15.242  -3.687   1.196  1.00  0.00     0.074 A 
ATOM     68  C   UNL     1     -14.131  -3.232   2.034  1.00  0.00     0.031 C 
ATOM     69  C   UNL     1     -16.016  -4.813   1.240  1.00  0.00     0.031 A 
BRANCH  56  70
ATOM     70  C   UNL     1     -12.691  -6.319   5.186  1.00  0.00    -0.014 A 
ATOM     71  C   UNL     1     -13.629  -6.003   6.191  1.00  0.00     0.010 A 
ATOM     72  C   UNL     1     -11.444  -5.666   5.257  1.00  0.00     0.010 A 
ATOM     73  C   UNL     1     -13.370  -5.010   7.144  1.00  0.00     0.020 A 
ATOM     74  C   UNL     1     -11.157  -4.708   6.231  1.00  0.00     0.020 A 
ATOM     75  C   UNL     1     -12.140  -4.355   7.143  1.00  0.00     0.054 A 
BRANCH  75  76
ATOM     76  S   UNL     1     -11.861  -2.989   8.292  1.00  0.00     0.124 S 
ATOM     77  O   UNL     1     -12.804  -1.990   7.801  1.00  0.00    -0.237 OA
ATOM     78  O   UNL     1     -12.189  -3.597   9.578  1.00  0.00    -0.237 OA
ATOM     79  O   UNL     1     -10.448  -2.667   8.102  1.00  0.00    -0.744 OA
ENDBRANCH  75  76
ENDBRANCH  56  70
BRANCH  57  80
ATOM     80  C   UNL     1     -12.410  -1.030  -1.520  1.00  0.00    -0.014 A 
ATOM     81  C   UNL     1     -13.001   0.220  -1.251  1.00  0.00     0.010 A 
ATOM     82  C   UNL     1     -11.058  -1.033  -1.924  1.00  0.00     0.010 A 
ATOM     83  C   UNL     1     -12.253   1.411  -1.320  1.00  0.00     0.020 A 
ATOM     84  C   UNL     1     -10.307   0.149  -2.000  1.00  0.00     0.020 A 
ATOM     85  C   UNL     1     -10.902   1.365  -1.673  1.00  0.00     0.054 A 
BRANCH  85  86
ATOM     86  S   UNL     1      -9.896   2.880  -1.581  1.00  0.00     0.124 S 
ATOM     87  O   UNL     1     -10.410   3.665  -2.700  1.00  0.00    -0.237 OA
ATOM     88  O   UNL     1     -10.213   3.394  -0.252  1.00  0.00    -0.237 OA
ATOM     89  O   UNL     1      -8.526   2.395  -1.743  1.00  0.00    -0.744 OA
ENDBRANCH  85  86
ENDBRANCH  57  80
BRANCH  69  90
ATOM     90  C   UNL     1     -16.991  -5.062   0.111  1.00  0.00    -0.014 A 
ATOM     91  C   UNL     1     -16.609  -5.282  -1.228  1.00  0.00     0.010 A 
ATOM     92  C   UNL     1     -18.339  -5.251   0.462  1.00  0.00     0.010 A 
ATOM     93  C   UNL     1     -17.558  -5.662  -2.191  1.00  0.00     0.020 A 
ATOM     94  C   UNL     1     -19.284  -5.646  -0.487  1.00  0.00     0.020 A 
ATOM     95  C   UNL     1     -18.892  -5.841  -1.811  1.00  0.00     0.054 A 
BRANCH  95  96
ATOM     96  S   UNL     1     -20.111  -6.377  -3.045  1.00  0.00     0.124 S 
ATOM     97  O   UNL     1     -20.220  -5.207  -3.912  1.00  0.00    -0.237 OA
ATOM     98  O   UNL     1     -19.476  -7.548  -3.644  1.00  0.00    -0.237 OA
ATOM     99  O   UNL     1     -21.304  -6.670  -2.251  1.00  0.00    -0.744 OA
ENDBRANCH  95  96
ENDBRANCH  69  90
ENDBRANCH  43  44
ENDBRANCH  35  38
ENDBRANCH  33  34
ENDBRANCH  32  33
ENDBRANCH   1  32
TORSDOF 18
