REMARK SMILES CCCN1CCC[C@@]2(CCN(c3ccc(C(=O)NCCCNC(=O)c4ccc(-c5c6nc(c(-c7ccc(S(=O)(=O)[O-])cc7)c7ccc([nH]7)c(-c7ccc(S(=O)(=O)[O-])cc7)c7nc(c(-c8ccc(S(=O)(=O)[O-])cc8)c8ccc5[nH]8)C=C7)C=C6)cc4)cn3)C2)C1=O
REMARK SMILES IDX 20 1 19 2 18 3 16 4 17 5 15 7 12 8 13 9 86 10 14 11 85 12
REMARK SMILES IDX 11 13 4 14 5 15 88 16 6 17 8 18 89 19 7 20 9 21 87 22 10 23
REMARK SMILES IDX 3 24 2 25 1 26 21 27 22 28 23 29 24 31 25 32 26 33 84 34
REMARK SMILES IDX 27 35 83 36 28 37 29 38 30 39 77 40 31 41 82 42 76 43 78 44
REMARK SMILES IDX 32 45 81 46 75 47 74 48 33 50 63 51 44 52 62 53 45 54 48 55
REMARK SMILES IDX 61 56 79 57 46 58 47 59 60 61 80 62 49 63 34 64 35 65 43 66
REMARK SMILES IDX 36 67 42 68 37 69 38 70 39 71 40 72 41 73 64 74 65 75 73 76
REMARK SMILES IDX 66 77 72 78 67 79 68 80 69 81 70 82 71 83 50 84 51 85 59 86
REMARK SMILES IDX 52 87 58 88 53 89 54 90 55 91 56 92 57 93
REMARK H PARENT 18 6 22 30 78 49 48 60
REMARK Flexibility Score: inf
ROOT
ATOM      1  C   UNL     1       4.547   8.806   8.600  1.00  0.00     0.042 C 
ENDROOT
BRANCH   1   2
ATOM      2  C   UNL     1       4.603   7.282   8.717  1.00  0.00     0.118 C 
BRANCH   2   3
ATOM      3  N   UNL     1       3.546   6.767   9.570  1.00  0.00    -0.352 N 
ATOM      4  C   UNL     1       2.309   6.235   9.299  1.00  0.00     0.252 C 
ATOM      5  O   UNL     1       1.668   5.788  10.251  1.00  0.00    -0.269 OA
ATOM      6  H   UNL     1       3.757   6.809  10.531  1.00  0.00     0.163 HD
BRANCH   4   7
ATOM      7  C   UNL     1       1.728   6.141   7.937  1.00  0.00     0.058 A 
ATOM      8  C   UNL     1       0.492   5.741   5.473  1.00  0.00     0.128 A 
ATOM      9  C   UNL     1       1.524   6.664   5.600  1.00  0.00     0.048 A 
ATOM     10  N   UNL     1       0.043   5.054   6.539  1.00  0.00    -0.239 NA
ATOM     11  C   UNL     1       2.115   6.893   6.839  1.00  0.00     0.019 A 
ATOM     12  C   UNL     1       0.674   5.254   7.732  1.00  0.00     0.127 A 
BRANCH   8  13
ATOM     13  N   UNL     1      -0.064   5.554   4.236  1.00  0.00    -0.356 N 
ATOM     14  N   UNL     1       0.632   2.421   1.430  1.00  0.00    -0.342 N 
ATOM     15  C   UNL     1       1.212   2.917   0.191  1.00  0.00     0.119 C 
ATOM     16  C   UNL     1      -0.417   3.104   2.037  1.00  0.00     0.230 C 
ATOM     17  C   UNL     1       1.472   4.413   0.229  1.00  0.00     0.023 C 
ATOM     18  C   UNL     1      -0.264   4.631   2.048  1.00  0.00     0.069 C 
ATOM     19  O   UNL     1      -1.314   2.520   2.642  1.00  0.00    -0.274 OA
ATOM     20  C   UNL     1       0.211   5.146   0.682  1.00  0.00     0.021 C 
ATOM     21  C   UNL     1      -1.563   5.321   2.511  1.00  0.00     0.040 C 
ATOM     22  C   UNL     1       0.748   4.991   3.167  1.00  0.00     0.135 C 
ATOM     23  C   UNL     1      -1.470   5.285   4.041  1.00  0.00     0.119 C 
BRANCH  14  24
ATOM     24  C   UNL     1       0.958   1.077   1.894  1.00  0.00     0.119 C 
BRANCH  24  25
ATOM     25  C   UNL     1       0.270  -0.073   1.162  1.00  0.00     0.018 C 
ATOM     26  C   UNL     1       0.846  -0.348  -0.217  1.00  0.00     0.006 C 
ENDBRANCH  24  25
ENDBRANCH  14  24
ENDBRANCH   8  13
ENDBRANCH   4   7
ENDBRANCH   2   3
ENDBRANCH   1   2
BRANCH   1  27
ATOM     27  C   UNL     1       5.092   9.530   9.829  1.00  0.00     0.118 C 
BRANCH  27  28
ATOM     28  N   UNL     1       6.528   9.343   9.973  1.00  0.00    -0.352 N 
ATOM     29  C   UNL     1       7.543  10.265  10.026  1.00  0.00     0.251 C 
ATOM     30  H   UNL     1       6.818   8.405  10.045  1.00  0.00     0.163 HD
ATOM     31  O   UNL     1       8.703   9.880   9.908  1.00  0.00    -0.269 OA
BRANCH  29  32
ATOM     32  C   UNL     1       7.256  11.705  10.214  1.00  0.00     0.039 A 
ATOM     33  C   UNL     1       8.035  12.638   9.523  1.00  0.00     0.014 A 
ATOM     34  C   UNL     1       6.273  12.143  11.106  1.00  0.00     0.014 A 
ATOM     35  C   UNL     1       7.795  14.005   9.689  1.00  0.00     0.010 A 
ATOM     36  C   UNL     1       5.989  13.503  11.219  1.00  0.00     0.010 A 
ATOM     37  C   UNL     1       6.751  14.448  10.516  1.00  0.00    -0.014 A 
BRANCH  37  38
ATOM     38  C   UNL     1       6.438  15.894  10.646  1.00  0.00     0.031 A 
ATOM     39  C   UNL     1       6.603  16.596  11.967  1.00  0.00     0.074 A 
ATOM     40  C   UNL     1       5.950  16.562   9.582  1.00  0.00     0.049 A 
ATOM     41  N   UNL     1       6.341  17.840  12.277  1.00  0.00    -0.248 NA
ATOM     42  C   UNL     1       7.107  15.791  13.092  1.00  0.00     0.031 C 
ATOM     43  C   UNL     1       5.705  15.982   8.259  1.00  0.00     0.029 A 
ATOM     44  N   UNL     1       5.567  17.872   9.445  1.00  0.00    -0.354 N 
ATOM     45  C   UNL     1       6.631  17.964  13.631  1.00  0.00     0.074 A 
ATOM     46  C   UNL     1       7.046  16.657  14.094  1.00  0.00     0.031 C 
ATOM     47  C   UNL     1       5.239  16.938   7.439  1.00  0.00     0.029 A 
ATOM     48  C   UNL     1       5.114  18.186   8.185  1.00  0.00     0.049 A 
ATOM     49  H   UNL     1       5.612  18.526  10.179  1.00  0.00     0.167 HD
ATOM     50  C   UNL     1       6.572  19.068  14.415  1.00  0.00     0.031 A 
ATOM     51  C   UNL     1       4.646  19.345   7.684  1.00  0.00     0.031 A 
ATOM     52  C   UNL     1       6.167  20.367  13.947  1.00  0.00     0.049 A 
ATOM     53  C   UNL     1       4.590  20.556   8.573  1.00  0.00     0.074 A 
ATOM     54  C   UNL     1       6.128  21.561  14.648  1.00  0.00     0.029 A 
ATOM     55  N   UNL     1       5.728  20.645  12.661  1.00  0.00    -0.354 N 
ATOM     56  N   UNL     1       4.932  20.668   9.835  1.00  0.00    -0.248 NA
ATOM     57  C   UNL     1       4.098  21.801   7.967  1.00  0.00     0.031 C 
ATOM     58  C   UNL     1       5.619  22.550  13.799  1.00  0.00     0.029 A 
ATOM     59  C   UNL     1       5.395  21.985  12.554  1.00  0.00     0.049 A 
ATOM     60  H   UNL     1       5.662  19.987  11.932  1.00  0.00     0.167 HD
ATOM     61  C   UNL     1       4.719  22.001  10.167  1.00  0.00     0.074 A 
ATOM     62  C   UNL     1       4.234  22.658   8.970  1.00  0.00     0.031 C 
ATOM     63  C   UNL     1       4.910  22.624  11.356  1.00  0.00     0.031 A 
BRANCH  50  64
ATOM     64  C   UNL     1       6.952  18.915  15.865  1.00  0.00    -0.014 A 
ATOM     65  C   UNL     1       8.287  18.683  16.246  1.00  0.00     0.010 A 
ATOM     66  C   UNL     1       5.970  19.044  16.864  1.00  0.00     0.010 A 
ATOM     67  C   UNL     1       8.624  18.539  17.594  1.00  0.00     0.020 A 
ATOM     68  C   UNL     1       6.308  18.930  18.216  1.00  0.00     0.020 A 
ATOM     69  C   UNL     1       7.631  18.659  18.571  1.00  0.00     0.054 A 
BRANCH  69  70
ATOM     70  S   UNL     1       8.101  18.486  20.315  1.00  0.00     0.124 S 
ATOM     71  O   UNL     1       8.329  17.047  20.423  1.00  0.00    -0.237 OA
ATOM     72  O   UNL     1       9.297  19.319  20.409  1.00  0.00    -0.237 OA
ATOM     73  O   UNL     1       6.937  18.988  21.040  1.00  0.00    -0.744 OA
ENDBRANCH  69  70
ENDBRANCH  50  64
BRANCH  51  74
ATOM     74  C   UNL     1       4.212  19.416   6.263  1.00  0.00    -0.014 A 
ATOM     75  C   UNL     1       4.982  20.114   5.316  1.00  0.00     0.010 A 
ATOM     76  C   UNL     1       3.038  18.763   5.843  1.00  0.00     0.010 A 
ATOM     77  C   UNL     1       4.580  20.170   3.978  1.00  0.00     0.020 A 
ATOM     78  C   UNL     1       2.647  18.795   4.501  1.00  0.00     0.020 A 
ATOM     79  C   UNL     1       3.416  19.507   3.579  1.00  0.00     0.054 A 
BRANCH  79  80
ATOM     80  S   UNL     1       2.946  19.542   1.827  1.00  0.00     0.124 S 
ATOM     81  O   UNL     1       2.436  20.901   1.676  1.00  0.00    -0.237 OA
ATOM     82  O   UNL     1       4.212  19.262   1.154  1.00  0.00    -0.237 OA
ATOM     83  O   UNL     1       1.946  18.482   1.721  1.00  0.00    -0.744 OA
ENDBRANCH  79  80
ENDBRANCH  51  74
BRANCH  63  84
ATOM     84  C   UNL     1       4.623  24.100  11.416  1.00  0.00    -0.014 A 
ATOM     85  C   UNL     1       3.304  24.587  11.398  1.00  0.00     0.010 A 
ATOM     86  C   UNL     1       5.689  25.009  11.545  1.00  0.00     0.010 A 
ATOM     87  C   UNL     1       3.059  25.961  11.477  1.00  0.00     0.020 A 
ATOM     88  C   UNL     1       5.447  26.380  11.651  1.00  0.00     0.020 A 
ATOM     89  C   UNL     1       4.132  26.849  11.602  1.00  0.00     0.054 A 
BRANCH  89  90
ATOM     90  S   UNL     1       3.786  28.623  11.747  1.00  0.00     0.124 S 
ATOM     91  O   UNL     1       3.419  28.973  10.377  1.00  0.00    -0.237 OA
ATOM     92  O   UNL     1       2.696  28.660  12.719  1.00  0.00    -0.237 OA
ATOM     93  O   UNL     1       5.050  29.186  12.216  1.00  0.00    -0.744 OA
ENDBRANCH  89  90
ENDBRANCH  63  84
ENDBRANCH  37  38
ENDBRANCH  29  32
ENDBRANCH  27  28
ENDBRANCH   1  27
TORSDOF 16
