REMARK SMILES CC[C@H]1CC[C@](C(=O)NCCCNC(=O)c2ccc(-c3c4nc(c(-c5ccc(S(=O)(=O)[O-])cc5)c5ccc([nH]5)c(-c5ccc(S(=O)(=O)[O-])cc5)c5nc(c(-c6ccc(S(=O)(=O)[O-])cc6)c6ccc3[nH]6)C=C5)C=C4)cc2)([C@H]2CCC[C@@H](S(C)(=O)=O)C2)CC1
REMARK SMILES IDX 11 1 10 2 9 3 7 4 8 5 6 7 3 8 87 9 4 10 86 11 5 12 2 13 1 14
REMARK SMILES IDX 76 15 77 16 85 17 78 18 80 19 79 20 81 21 82 22 83 23 84 24
REMARK SMILES IDX 12 25 13 26 14 27 15 29 16 30 17 31 75 32 18 33 74 34 19 35
REMARK SMILES IDX 20 36 21 37 68 38 22 39 73 40 67 41 69 42 23 43 72 44 66 45
REMARK SMILES IDX 65 46 24 48 54 49 35 50 53 51 36 52 39 53 52 54 70 55 37 56
REMARK SMILES IDX 38 57 51 59 71 60 40 61 25 62 26 63 34 64 27 65 33 66 28 67
REMARK SMILES IDX 29 68 30 69 31 70 32 71 55 72 56 73 64 74 57 75 63 76 58 77
REMARK SMILES IDX 59 78 60 79 61 80 62 81 41 82 42 83 50 84 43 85 49 86 44 87
REMARK SMILES IDX 45 88 46 89 47 90 48 91
REMARK H PARENT 9 6 13 28 69 47 39 58
REMARK Flexibility Score: inf
ROOT
ATOM      1  C   UNL     1      -1.090  11.087   0.861  1.00  0.00     0.042 C 
ENDROOT
BRANCH   1   2
ATOM      2  C   UNL     1      -0.293  10.086   0.054  1.00  0.00     0.117 C 
BRANCH   2   3
ATOM      3  N   UNL     1       0.846   9.577   0.763  1.00  0.00    -0.356 N 
ATOM      4  C   UNL     1       1.276   8.308   0.563  1.00  0.00     0.226 C 
ATOM      5  O   UNL     1       2.198   8.130  -0.235  1.00  0.00    -0.274 OA
ATOM      6  H   UNL     1       1.321  10.156   1.401  1.00  0.00     0.163 HD
BRANCH   4   7
ATOM      7  C   UNL     1       0.648   7.146   1.356  1.00  0.00     0.052 C 
ATOM      8  C   UNL     1      -2.201   6.969   0.127  1.00  0.00    -0.011 C 
ATOM      9  C   UNL     1      -0.910   6.614  -0.635  1.00  0.00     0.005 C 
ATOM     10  C   UNL     1      -1.967   7.611   1.501  1.00  0.00     0.005 C 
ATOM     11  C   UNL     1       0.240   6.106   0.267  1.00  0.00     0.017 C 
ATOM     12  C   UNL     1      -0.633   7.377   2.196  1.00  0.00     0.017 C 
BRANCH   8  13
ATOM     13  C   UNL     1      -3.171   7.899  -0.660  1.00  0.00    -0.000 C 
ATOM     14  C   UNL     1      -3.797   7.306  -1.904  1.00  0.00     0.004 C 
ENDBRANCH   8  13
BRANCH   7  15
ATOM     15  C   UNL     1       1.767   6.574   2.372  1.00  0.00     0.006 C 
ATOM     16  C   UNL     1       3.171   6.252   1.815  1.00  0.00     0.005 C 
ATOM     17  C   UNL     1       1.924   7.275   3.759  1.00  0.00     0.024 C 
ATOM     18  C   UNL     1       4.222   7.362   1.942  1.00  0.00     0.002 C 
ATOM     19  C   UNL     1       2.964   8.398   3.923  1.00  0.00     0.108 C 
ATOM     20  C   UNL     1       4.310   8.008   3.322  1.00  0.00     0.020 C 
BRANCH  19  21
ATOM     21  S   UNL     1       2.386  10.041   3.439  1.00  0.00     0.150 S 
ATOM     22  C   UNL     1       3.081  11.165   4.617  1.00  0.00     0.158 C 
ATOM     23  O   UNL     1       2.955  10.413   2.159  1.00  0.00    -0.229 OA
ATOM     24  O   UNL     1       0.952  10.109   3.662  1.00  0.00    -0.229 OA
ENDBRANCH  19  21
ENDBRANCH   7  15
ENDBRANCH   4   7
ENDBRANCH   2   3
ENDBRANCH   1   2
BRANCH   1  25
ATOM     25  C   UNL     1      -0.430  12.451   0.863  1.00  0.00     0.118 C 
BRANCH  25  26
ATOM     26  N   UNL     1      -0.375  13.014  -0.485  1.00  0.00    -0.352 N 
ATOM     27  C   UNL     1      -1.234  13.866  -1.133  1.00  0.00     0.251 C 
ATOM     28  H   UNL     1       0.407  12.737  -1.015  1.00  0.00     0.163 HD
ATOM     29  O   UNL     1      -1.215  13.925  -2.359  1.00  0.00    -0.269 OA
BRANCH  27  30
ATOM     30  C   UNL     1      -2.166  14.716  -0.363  1.00  0.00     0.039 A 
ATOM     31  C   UNL     1      -3.394  15.080  -0.920  1.00  0.00     0.014 A 
ATOM     32  C   UNL     1      -1.800  15.213   0.888  1.00  0.00     0.014 A 
ATOM     33  C   UNL     1      -4.261  15.907  -0.202  1.00  0.00     0.010 A 
ATOM     34  C   UNL     1      -2.716  15.910   1.658  1.00  0.00     0.010 A 
ATOM     35  C   UNL     1      -3.938  16.307   1.105  1.00  0.00    -0.014 A 
BRANCH  35  36
ATOM     36  C   UNL     1      -4.825  17.194   1.898  1.00  0.00     0.031 A 
ATOM     37  C   UNL     1      -4.307  18.524   2.387  1.00  0.00     0.074 A 
ATOM     38  C   UNL     1      -6.062  16.777   2.229  1.00  0.00     0.049 A 
ATOM     39  N   UNL     1      -4.897  19.410   3.147  1.00  0.00    -0.248 NA
ATOM     40  C   UNL     1      -2.930  18.891   2.007  1.00  0.00     0.031 C 
ATOM     41  C   UNL     1      -6.651  15.488   1.858  1.00  0.00     0.029 A 
ATOM     42  N   UNL     1      -7.048  17.395   2.954  1.00  0.00    -0.354 N 
ATOM     43  C   UNL     1      -3.958  20.416   3.354  1.00  0.00     0.074 A 
ATOM     44  C   UNL     1      -2.738  19.998   2.704  1.00  0.00     0.031 C 
ATOM     45  C   UNL     1      -7.912  15.433   2.314  1.00  0.00     0.029 A 
ATOM     46  C   UNL     1      -8.204  16.657   3.052  1.00  0.00     0.049 A 
ATOM     47  H   UNL     1      -6.939  18.283   3.364  1.00  0.00     0.167 HD
ATOM     48  C   UNL     1      -4.106  21.598   3.998  1.00  0.00     0.031 A 
ATOM     49  C   UNL     1      -9.368  16.937   3.667  1.00  0.00     0.031 A 
ATOM     50  C   UNL     1      -5.334  22.015   4.617  1.00  0.00     0.049 A 
ATOM     51  C   UNL     1      -9.513  18.258   4.373  1.00  0.00     0.074 A 
ATOM     52  C   UNL     1      -5.618  23.214   5.244  1.00  0.00     0.029 A 
ATOM     53  N   UNL     1      -6.486  21.244   4.682  1.00  0.00    -0.354 N 
ATOM     54  N   UNL     1      -8.635  19.224   4.503  1.00  0.00    -0.248 NA
ATOM     55  C   UNL     1     -10.811  18.531   5.003  1.00  0.00     0.031 C 
ATOM     56  C   UNL     1      -6.925  23.145   5.739  1.00  0.00     0.029 A 
ATOM     57  C   UNL     1      -7.477  21.932   5.358  1.00  0.00     0.049 A 
ATOM     58  H   UNL     1      -6.583  20.340   4.302  1.00  0.00     0.167 HD
ATOM     59  C   UNL     1      -9.285  20.235   5.201  1.00  0.00     0.074 A 
ATOM     60  C   UNL     1     -10.633  19.766   5.453  1.00  0.00     0.031 C 
ATOM     61  C   UNL     1      -8.813  21.444   5.595  1.00  0.00     0.031 A 
BRANCH  48  62
ATOM     62  C   UNL     1      -2.911  22.516   4.058  1.00  0.00    -0.014 A 
ATOM     63  C   UNL     1      -2.396  23.123   2.897  1.00  0.00     0.010 A 
ATOM     64  C   UNL     1      -2.307  22.798   5.297  1.00  0.00     0.010 A 
ATOM     65  C   UNL     1      -1.272  23.949   2.965  1.00  0.00     0.020 A 
ATOM     66  C   UNL     1      -1.203  23.653   5.375  1.00  0.00     0.020 A 
ATOM     67  C   UNL     1      -0.681  24.208   4.205  1.00  0.00     0.054 A 
BRANCH  67  68
ATOM     68  S   UNL     1       0.766  25.299   4.266  1.00  0.00     0.124 S 
ATOM     69  O   UNL     1       1.800  24.463   3.662  1.00  0.00    -0.237 OA
ATOM     70  O   UNL     1       0.337  26.443   3.465  1.00  0.00    -0.237 OA
ATOM     71  O   UNL     1       0.939  25.569   5.691  1.00  0.00    -0.744 OA
ENDBRANCH  67  68
ENDBRANCH  48  62
BRANCH  49  72
ATOM     72  C   UNL     1     -10.492  15.963   3.610  1.00  0.00    -0.014 A 
ATOM     73  C   UNL     1     -11.647  16.249   2.859  1.00  0.00     0.010 A 
ATOM     74  C   UNL     1     -10.406  14.730   4.283  1.00  0.00     0.010 A 
ATOM     75  C   UNL     1     -12.700  15.332   2.800  1.00  0.00     0.020 A 
ATOM     76  C   UNL     1     -11.444  13.798   4.201  1.00  0.00     0.020 A 
ATOM     77  C   UNL     1     -12.590  14.110   3.469  1.00  0.00     0.054 A 
BRANCH  77  78
ATOM     78  S   UNL     1     -13.950  12.917   3.336  1.00  0.00     0.124 S 
ATOM     79  O   UNL     1     -14.989  13.548   4.144  1.00  0.00    -0.237 OA
ATOM     80  O   UNL     1     -14.200  12.882   1.897  1.00  0.00    -0.237 OA
ATOM     81  O   UNL     1     -13.384  11.689   3.892  1.00  0.00    -0.744 OA
ENDBRANCH  77  78
ENDBRANCH  49  72
BRANCH  61  82
ATOM     82  C   UNL     1      -9.771  22.364   6.303  1.00  0.00    -0.014 A 
ATOM     83  C   UNL     1     -10.204  22.103   7.614  1.00  0.00     0.010 A 
ATOM     84  C   UNL     1     -10.195  23.543   5.661  1.00  0.00     0.010 A 
ATOM     85  C   UNL     1     -11.071  22.988   8.259  1.00  0.00     0.020 A 
ATOM     86  C   UNL     1     -11.034  24.446   6.314  1.00  0.00     0.020 A 
ATOM     87  C   UNL     1     -11.479  24.155   7.605  1.00  0.00     0.054 A 
BRANCH  87  88
ATOM     88  S   UNL     1     -12.567  25.310   8.483  1.00  0.00     0.124 S 
ATOM     89  O   UNL     1     -13.836  24.588   8.487  1.00  0.00    -0.237 OA
ATOM     90  O   UNL     1     -11.912  25.440   9.782  1.00  0.00    -0.237 OA
ATOM     91  O   UNL     1     -12.537  26.513   7.654  1.00  0.00    -0.744 OA
ENDBRANCH  87  88
ENDBRANCH  61  82
ENDBRANCH  35  36
ENDBRANCH  27  30
ENDBRANCH  25  26
ENDBRANCH   1  25
TORSDOF 16
