REMARK SMILES COc1ccc(S(=O)(=O)N[C@H]2C=C[C@@H](C(=O)NCCCNC(=O)c3ccc(-c4c5nc(c(-c6ccc(S(=O)(=O)[O-])cc6)c6ccc([nH]6)c(-c6ccc(S(=O)(=O)[O-])cc6)c6nc(c(-c7ccc(S(=O)(=O)[O-])cc7)c7ccc4[nH]7)C=C6)C=C5)cc3)C2)cc1
REMARK SMILES IDX 18 1 17 2 15 3 16 4 14 6 11 7 12 8 84 9 13 10 10 11 7 13
REMARK SMILES IDX 8 14 9 15 6 16 3 17 4 18 86 19 5 20 85 21 2 22 1 23 19 24
REMARK SMILES IDX 20 25 21 26 22 27 23 29 24 30 25 31 83 32 26 33 82 34 27 35
REMARK SMILES IDX 28 36 29 37 76 38 30 39 81 40 75 41 77 42 31 43 80 44 74 45
REMARK SMILES IDX 73 46 32 48 62 49 43 50 61 51 44 52 47 53 60 54 78 55 45 56
REMARK SMILES IDX 46 57 59 59 79 60 48 61 33 62 34 63 42 64 35 65 41 66 36 67
REMARK SMILES IDX 37 68 38 69 39 70 40 71 63 72 64 73 72 74 65 75 71 76 66 77
REMARK SMILES IDX 67 78 68 79 69 80 70 81 49 82 50 83 58 84 51 85 57 86 52 87
REMARK SMILES IDX 53 88 54 89 55 90 56 91
REMARK H PARENT 17 5 10 12 21 28 77 47 47 58
REMARK Flexibility Score: inf
ROOT
ATOM      1  C   UNL     1       3.415  -0.671   9.048  1.00  0.00     0.117 C 
ENDROOT
BRANCH   1   2
ATOM      2  N   UNL     1       4.774  -0.386   9.474  1.00  0.00    -0.356 N 
ATOM      3  C   UNL     1       5.936  -0.399   8.768  1.00  0.00     0.226 C 
ATOM      4  O   UNL     1       6.966  -0.072   9.367  1.00  0.00    -0.274 OA
ATOM      5  H   UNL     1       4.868  -0.146  10.424  1.00  0.00     0.163 HD
BRANCH   3   6
ATOM      6  C   UNL     1       6.011  -0.793   7.288  1.00  0.00     0.103 C 
ATOM      7  C   UNL     1       4.985  -2.171   5.566  1.00  0.00     0.093 C 
ATOM      8  C   UNL     1       4.558  -0.749   5.442  1.00  0.00    -0.011 C 
ATOM      9  C   UNL     1       5.606  -2.236   6.967  1.00  0.00     0.042 C 
ATOM     10  C   UNL     1       5.144   0.019   6.371  1.00  0.00    -0.016 C 
BRANCH   7  11
ATOM     11  N   UNL     1       3.972  -3.190   5.377  1.00  0.00    -0.204 NA
ATOM     12  H   UNL     1       4.117  -3.521   4.423  1.00  0.00     0.142 HD
BRANCH  11  13
ATOM     13  S   UNL     1       2.320  -3.052   5.521  1.00  0.00     0.241 S 
ATOM     14  O   UNL     1       2.026  -2.217   6.662  1.00  0.00    -0.207 OA
ATOM     15  O   UNL     1       1.815  -4.401   5.416  1.00  0.00    -0.207 OA
BRANCH  13  16
ATOM     16  C   UNL     1       1.770  -2.193   4.077  1.00  0.00     0.082 A 
ATOM     17  C   UNL     1       0.916  -0.693   1.883  1.00  0.00     0.118 A 
ATOM     18  C   UNL     1       0.147  -0.736   3.050  1.00  0.00     0.048 A 
ATOM     19  C   UNL     1       2.113  -1.413   1.819  1.00  0.00     0.048 A 
ATOM     20  C   UNL     1       0.571  -1.479   4.150  1.00  0.00     0.025 A 
ATOM     21  C   UNL     1       2.538  -2.174   2.912  1.00  0.00     0.025 A 
BRANCH  17  22
ATOM     22  O   UNL     1       0.399   0.092   0.889  1.00  0.00    -0.497 OA
ATOM     23  C   UNL     1       1.074   0.066  -0.361  1.00  0.00     0.278 C 
ENDBRANCH  17  22
ENDBRANCH  13  16
ENDBRANCH  11  13
ENDBRANCH   7  11
ENDBRANCH   3   6
ENDBRANCH   1   2
BRANCH   1  24
ATOM     24  C   UNL     1       2.874  -1.951   9.674  1.00  0.00     0.042 C 
BRANCH  24  25
ATOM     25  C   UNL     1       2.436  -1.782  11.120  1.00  0.00     0.118 C 
BRANCH  25  26
ATOM     26  N   UNL     1       1.263  -0.925  11.240  1.00  0.00    -0.352 N 
ATOM     27  C   UNL     1      -0.041  -1.208  11.561  1.00  0.00     0.251 C 
ATOM     28  H   UNL     1       1.437   0.026  11.059  1.00  0.00     0.163 HD
ATOM     29  O   UNL     1      -0.894  -0.346  11.356  1.00  0.00    -0.269 OA
BRANCH  27  30
ATOM     30  C   UNL     1      -0.442  -2.509  12.149  1.00  0.00     0.039 A 
ATOM     31  C   UNL     1      -1.729  -2.995  11.887  1.00  0.00     0.014 A 
ATOM     32  C   UNL     1       0.386  -3.210  13.028  1.00  0.00     0.014 A 
ATOM     33  C   UNL     1      -2.168  -4.183  12.480  1.00  0.00     0.010 A 
ATOM     34  C   UNL     1      -0.012  -4.444  13.537  1.00  0.00     0.010 A 
ATOM     35  C   UNL     1      -1.306  -4.926  13.301  1.00  0.00    -0.014 A 
BRANCH  35  36
ATOM     36  C   UNL     1      -1.757  -6.166  13.982  1.00  0.00     0.031 A 
ATOM     37  C   UNL     1      -1.789  -6.227  15.488  1.00  0.00     0.074 A 
ATOM     38  C   UNL     1      -2.077  -7.256  13.259  1.00  0.00     0.049 A 
ATOM     39  N   UNL     1      -2.070  -7.238  16.271  1.00  0.00    -0.248 NA
ATOM     40  C   UNL     1      -1.418  -4.998  16.209  1.00  0.00     0.031 C 
ATOM     41  C   UNL     1      -2.035  -7.350  11.799  1.00  0.00     0.029 A 
ATOM     42  N   UNL     1      -2.495  -8.500  13.661  1.00  0.00    -0.354 N 
ATOM     43  C   UNL     1      -1.863  -6.781  17.568  1.00  0.00     0.074 A 
ATOM     44  C   UNL     1      -1.395  -5.416  17.465  1.00  0.00     0.031 C 
ATOM     45  C   UNL     1      -2.437  -8.576  11.427  1.00  0.00     0.029 A 
ATOM     46  C   UNL     1      -2.740  -9.361  12.620  1.00  0.00     0.049 A 
ATOM     47  H   UNL     1      -2.609  -8.751  14.606  1.00  0.00     0.167 HD
ATOM     48  C   UNL     1      -2.061  -7.428  18.742  1.00  0.00     0.031 A 
ATOM     49  C   UNL     1      -3.167 -10.638  12.623  1.00  0.00     0.031 A 
ATOM     50  C   UNL     1      -2.569  -8.768  18.848  1.00  0.00     0.049 A 
ATOM     51  C   UNL     1      -3.474 -11.307  13.932  1.00  0.00     0.074 A 
ATOM     52  C   UNL     1      -2.858  -9.497  19.988  1.00  0.00     0.029 A 
ATOM     53  N   UNL     1      -2.882  -9.576  17.765  1.00  0.00    -0.354 N 
ATOM     54  N   UNL     1      -3.312 -10.845  15.149  1.00  0.00    -0.248 NA
ATOM     55  C   UNL     1      -4.046 -12.658  13.867  1.00  0.00     0.031 C 
ATOM     56  C   UNL     1      -3.333 -10.755  19.593  1.00  0.00     0.029 A 
ATOM     57  C   UNL     1      -3.369 -10.794  18.208  1.00  0.00     0.049 A 
ATOM     58  H   UNL     1      -2.774  -9.322  16.820  1.00  0.00     0.167 HD
ATOM     59  C   UNL     1      -3.781 -11.842  15.996  1.00  0.00     0.074 A 
ATOM     60  C   UNL     1      -4.245 -12.925  15.151  1.00  0.00     0.031 C 
ATOM     61  C   UNL     1      -3.826 -11.858  17.352  1.00  0.00     0.031 A 
BRANCH  48  62
ATOM     62  C   UNL     1      -1.714  -6.675  20.000  1.00  0.00    -0.014 A 
ATOM     63  C   UNL     1      -2.496  -5.589  20.436  1.00  0.00     0.010 A 
ATOM     64  C   UNL     1      -0.572  -7.035  20.736  1.00  0.00     0.010 A 
ATOM     65  C   UNL     1      -2.102  -4.832  21.542  1.00  0.00     0.020 A 
ATOM     66  C   UNL     1      -0.190  -6.297  21.860  1.00  0.00     0.020 A 
ATOM     67  C   UNL     1      -0.941  -5.181  22.238  1.00  0.00     0.054 A 
BRANCH  67  68
ATOM     68  S   UNL     1      -0.425  -4.168  23.651  1.00  0.00     0.124 S 
ATOM     69  O   UNL     1       0.253  -3.056  22.989  1.00  0.00    -0.237 OA
ATOM     70  O   UNL     1      -1.692  -3.835  24.296  1.00  0.00    -0.237 OA
ATOM     71  O   UNL     1       0.442  -5.062  24.415  1.00  0.00    -0.744 OA
ENDBRANCH  67  68
ENDBRANCH  48  62
BRANCH  49  72
ATOM     72  C   UNL     1      -3.381 -11.337  11.329  1.00  0.00    -0.014 A 
ATOM     73  C   UNL     1      -4.680 -11.486  10.814  1.00  0.00     0.010 A 
ATOM     74  C   UNL     1      -2.286 -11.799  10.578  1.00  0.00     0.010 A 
ATOM     75  C   UNL     1      -4.882 -12.087   9.568  1.00  0.00     0.020 A 
ATOM     76  C   UNL     1      -2.483 -12.383   9.323  1.00  0.00     0.020 A 
ATOM     77  C   UNL     1      -3.781 -12.527   8.828  1.00  0.00     0.054 A 
BRANCH  77  78
ATOM     78  S   UNL     1      -4.057 -13.222   7.174  1.00  0.00     0.124 S 
ATOM     79  O   UNL     1      -4.503 -14.576   7.484  1.00  0.00    -0.237 OA
ATOM     80  O   UNL     1      -5.074 -12.332   6.619  1.00  0.00    -0.237 OA
ATOM     81  O   UNL     1      -2.743 -13.123   6.541  1.00  0.00    -0.744 OA
ENDBRANCH  77  78
ENDBRANCH  49  72
BRANCH  61  82
ATOM     82  C   UNL     1      -4.428 -13.073  18.001  1.00  0.00    -0.014 A 
ATOM     83  C   UNL     1      -3.717 -14.284  18.076  1.00  0.00     0.010 A 
ATOM     84  C   UNL     1      -5.712 -12.990  18.568  1.00  0.00     0.010 A 
ATOM     85  C   UNL     1      -4.298 -15.404  18.675  1.00  0.00     0.020 A 
ATOM     86  C   UNL     1      -6.287 -14.103  19.185  1.00  0.00     0.020 A 
ATOM     87  C   UNL     1      -5.583 -15.309  19.219  1.00  0.00     0.054 A 
BRANCH  87  88
ATOM     88  S   UNL     1      -6.313 -16.767  20.014  1.00  0.00     0.124 S 
ATOM     89  O   UNL     1      -6.795 -17.528  18.864  1.00  0.00    -0.237 OA
ATOM     90  O   UNL     1      -5.179 -17.353  20.725  1.00  0.00    -0.237 OA
ATOM     91  O   UNL     1      -7.354 -16.205  20.872  1.00  0.00    -0.744 OA
ENDBRANCH  87  88
ENDBRANCH  61  82
ENDBRANCH  35  36
ENDBRANCH  27  30
ENDBRANCH  25  26
ENDBRANCH  24  25
ENDBRANCH   1  24
TORSDOF 17
