REMARK SMILES CC[C@@H]1CCCN1C(=O)N[C@H]1C=C[C@@H](C(=O)NCCCNC(=O)c2ccc(-c3c4nc(c(-c5ccc(S(=O)(=O)[O-])cc5)c5ccc([nH]5)c(-c5ccc(S(=O)(=O)[O-])cc5)c5nc(c(-c6ccc(S(=O)(=O)[O-])cc6)c6ccc3[nH]6)C=C5)C=C4)cc2)C1
REMARK SMILES IDX 19 1 18 2 17 3 15 4 16 5 14 7 11 8 12 9 84 10 13 11 10 12
REMARK SMILES IDX 8 13 9 14 7 16 3 17 4 18 5 19 6 20 2 21 1 22 20 23 21 24
REMARK SMILES IDX 22 25 23 27 24 28 25 29 83 30 26 31 82 32 27 33 28 34 29 35
REMARK SMILES IDX 76 36 30 37 81 38 75 39 77 40 31 41 80 42 74 43 73 44 32 46
REMARK SMILES IDX 62 47 43 48 61 49 44 50 47 51 60 52 78 53 45 54 46 55 59 57
REMARK SMILES IDX 79 58 48 59 33 60 34 61 42 62 35 63 41 64 36 65 37 66 38 67
REMARK SMILES IDX 39 68 40 69 63 70 64 71 72 72 65 73 71 74 66 75 67 76 68 77
REMARK SMILES IDX 69 78 70 79 49 80 50 81 58 82 51 83 57 84 52 85 53 86 54 87
REMARK SMILES IDX 55 88 56 89
REMARK H PARENT 17 6 10 15 21 26 77 45 47 56
REMARK Flexibility Score: inf
ROOT
ATOM      1  C   UNL     1       0.565   0.009  -4.742  1.00  0.00     0.042 C 
ENDROOT
BRANCH   1   2
ATOM      2  C   UNL     1      -0.055  -1.150  -3.984  1.00  0.00     0.117 C 
BRANCH   2   3
ATOM      3  N   UNL     1       0.824  -2.309  -3.953  1.00  0.00    -0.356 N 
ATOM      4  C   UNL     1       1.583  -2.829  -2.950  1.00  0.00     0.227 C 
ATOM      5  O   UNL     1       2.260  -3.830  -3.204  1.00  0.00    -0.274 OA
ATOM      6  H   UNL     1       0.880  -2.801  -4.803  1.00  0.00     0.163 HD
BRANCH   4   7
ATOM      7  C   UNL     1       1.603  -2.227  -1.549  1.00  0.00     0.103 C 
ATOM      8  C   UNL     1       1.415  -0.116  -0.376  1.00  0.00     0.107 C 
ATOM      9  C   UNL     1       0.102  -0.827  -0.447  1.00  0.00    -0.006 C 
ATOM     10  C   UNL     1       2.225  -0.825  -1.462  1.00  0.00     0.047 C 
ATOM     11  C   UNL     1       0.220  -2.034  -1.007  1.00  0.00    -0.016 C 
BRANCH   8  12
ATOM     12  N   UNL     1       1.186   1.269  -0.564  1.00  0.00    -0.332 N 
ATOM     13  C   UNL     1       0.816   2.231   0.289  1.00  0.00     0.318 C 
ATOM     14  O   UNL     1       0.569   3.312  -0.260  1.00  0.00    -0.249 OA
ATOM     15  H   UNL     1       1.323   1.579  -1.488  1.00  0.00     0.165 HD
BRANCH  13  16
ATOM     16  N   UNL     1       0.706   2.082   1.647  1.00  0.00    -0.322 N 
ATOM     17  C   UNL     1       0.997   1.040   2.684  1.00  0.00     0.086 C 
ATOM     18  C   UNL     1       0.382   1.686   3.950  1.00  0.00     0.027 C 
ATOM     19  C   UNL     1       0.689   3.150   3.803  1.00  0.00     0.024 C 
ATOM     20  C   UNL     1       0.486   3.371   2.320  1.00  0.00     0.122 C 
BRANCH  17  21
ATOM     21  C   UNL     1       0.407  -0.393   2.665  1.00  0.00     0.022 C 
ATOM     22  C   UNL     1       1.443  -1.524   2.585  1.00  0.00     0.006 C 
ENDBRANCH  17  21
ENDBRANCH  13  16
ENDBRANCH   8  12
ENDBRANCH   4   7
ENDBRANCH   2   3
ENDBRANCH   1   2
BRANCH   1  23
ATOM     23  C   UNL     1       0.654  -0.269  -6.228  1.00  0.00     0.118 C 
BRANCH  23  24
ATOM     24  N   UNL     1      -0.666  -0.317  -6.847  1.00  0.00    -0.352 N 
ATOM     25  C   UNL     1      -1.240   0.573  -7.720  1.00  0.00     0.251 C 
ATOM     26  H   UNL     1      -1.220  -1.094  -6.605  1.00  0.00     0.163 HD
ATOM     27  O   UNL     1      -2.447   0.536  -7.936  1.00  0.00    -0.269 OA
BRANCH  25  28
ATOM     28  C   UNL     1      -0.384   1.575  -8.382  1.00  0.00     0.039 A 
ATOM     29  C   UNL     1      -0.818   2.897  -8.495  1.00  0.00     0.014 A 
ATOM     30  C   UNL     1       0.871   1.198  -8.866  1.00  0.00     0.014 A 
ATOM     31  C   UNL     1       0.038   3.853  -9.045  1.00  0.00     0.010 A 
ATOM     32  C   UNL     1       1.761   2.167  -9.293  1.00  0.00     0.010 A 
ATOM     33  C   UNL     1       1.345   3.500  -9.419  1.00  0.00    -0.014 A 
BRANCH  33  34
ATOM     34  C   UNL     1       2.293   4.475 -10.009  1.00  0.00     0.031 A 
ATOM     35  C   UNL     1       2.839   4.215 -11.389  1.00  0.00     0.074 A 
ATOM     36  C   UNL     1       2.731   5.521  -9.282  1.00  0.00     0.049 A 
ATOM     37  N   UNL     1       3.791   4.839 -12.032  1.00  0.00    -0.248 NA
ATOM     38  C   UNL     1       2.271   3.070 -12.124  1.00  0.00     0.031 C 
ATOM     39  C   UNL     1       2.306   5.850  -7.919  1.00  0.00     0.029 A 
ATOM     40  N   UNL     1       3.647   6.495  -9.587  1.00  0.00    -0.354 N 
ATOM     41  C   UNL     1       3.958   4.140 -13.222  1.00  0.00     0.074 A 
ATOM     42  C   UNL     1       3.058   3.011 -13.186  1.00  0.00     0.031 C 
ATOM     43  C   UNL     1       2.943   6.962  -7.516  1.00  0.00     0.029 A 
ATOM     44  C   UNL     1       3.854   7.396  -8.570  1.00  0.00     0.049 A 
ATOM     45  H   UNL     1       4.113   6.544 -10.453  1.00  0.00     0.167 HD
ATOM     46  C   UNL     1       4.769   4.429 -14.267  1.00  0.00     0.031 A 
ATOM     47  C   UNL     1       4.694   8.447  -8.492  1.00  0.00     0.031 A 
ATOM     48  C   UNL     1       5.632   5.577 -14.308  1.00  0.00     0.049 A 
ATOM     49  C   UNL     1       5.574   8.761  -9.672  1.00  0.00     0.074 A 
ATOM     50  C   UNL     1       6.450   6.001 -15.339  1.00  0.00     0.029 A 
ATOM     51  N   UNL     1       5.776   6.491 -13.275  1.00  0.00    -0.354 N 
ATOM     52  N   UNL     1       5.683   8.120 -10.812  1.00  0.00    -0.248 NA
ATOM     53  C   UNL     1       6.435   9.947  -9.563  1.00  0.00     0.031 C 
ATOM     54  C   UNL     1       7.123   7.149 -14.912  1.00  0.00     0.029 A 
ATOM     55  C   UNL     1       6.679   7.473 -13.639  1.00  0.00     0.049 A 
ATOM     56  H   UNL     1       5.306   6.447 -12.411  1.00  0.00     0.167 HD
ATOM     57  C   UNL     1       6.597   8.844 -11.569  1.00  0.00     0.074 A 
ATOM     58  C   UNL     1       7.005   9.974 -10.760  1.00  0.00     0.031 C 
ATOM     59  C   UNL     1       7.055   8.598 -12.821  1.00  0.00     0.031 A 
BRANCH  46  60
ATOM     60  C   UNL     1       4.749   3.490 -15.444  1.00  0.00    -0.014 A 
ATOM     61  C   UNL     1       3.616   3.386 -16.272  1.00  0.00     0.010 A 
ATOM     62  C   UNL     1       5.886   2.717 -15.742  1.00  0.00     0.010 A 
ATOM     63  C   UNL     1       3.601   2.491 -17.344  1.00  0.00     0.020 A 
ATOM     64  C   UNL     1       5.887   1.845 -16.835  1.00  0.00     0.020 A 
ATOM     65  C   UNL     1       4.737   1.724 -17.617  1.00  0.00     0.054 A 
BRANCH  65  66
ATOM     66  S   UNL     1       4.696   0.586 -19.029  1.00  0.00     0.124 S 
ATOM     67  O   UNL     1       3.826  -0.478 -18.533  1.00  0.00    -0.237 OA
ATOM     68  O   UNL     1       4.131   1.414 -20.092  1.00  0.00    -0.237 OA
ATOM     69  O   UNL     1       6.096   0.210 -19.213  1.00  0.00    -0.744 OA
ENDBRANCH  65  66
ENDBRANCH  46  60
BRANCH  47  70
ATOM     70  C   UNL     1       4.725   9.286  -7.263  1.00  0.00    -0.014 A 
ATOM     71  C   UNL     1       4.213  10.596  -7.281  1.00  0.00     0.010 A 
ATOM     72  C   UNL     1       5.252   8.776  -6.062  1.00  0.00     0.010 A 
ATOM     73  C   UNL     1       4.248  11.387  -6.128  1.00  0.00     0.020 A 
ATOM     74  C   UNL     1       5.263   9.554  -4.900  1.00  0.00     0.020 A 
ATOM     75  C   UNL     1       4.772  10.861  -4.945  1.00  0.00     0.054 A 
BRANCH  75  76
ATOM     76  S   UNL     1       4.771  11.894  -3.453  1.00  0.00     0.124 S 
ATOM     77  O   UNL     1       5.825  12.858  -3.751  1.00  0.00    -0.237 OA
ATOM     78  O   UNL     1       3.411  12.426  -3.439  1.00  0.00    -0.237 OA
ATOM     79  O   UNL     1       5.073  10.948  -2.381  1.00  0.00    -0.744 OA
ENDBRANCH  75  76
ENDBRANCH  47  70
BRANCH  59  80
ATOM     80  C   UNL     1       8.008   9.595 -13.423  1.00  0.00    -0.014 A 
ATOM     81  C   UNL     1       9.346   9.673 -13.003  1.00  0.00     0.010 A 
ATOM     82  C   UNL     1       7.572  10.402 -14.491  1.00  0.00     0.010 A 
ATOM     83  C   UNL     1      10.229  10.557 -13.629  1.00  0.00     0.020 A 
ATOM     84  C   UNL     1       8.458  11.265 -15.137  1.00  0.00     0.020 A 
ATOM     85  C   UNL     1       9.780  11.343 -14.696  1.00  0.00     0.054 A 
BRANCH  85  86
ATOM     86  S   UNL     1      10.963  12.430 -15.537  1.00  0.00     0.124 S 
ATOM     87  O   UNL     1      11.147  13.496 -14.557  1.00  0.00    -0.237 OA
ATOM     88  O   UNL     1      12.115  11.554 -15.737  1.00  0.00    -0.237 OA
ATOM     89  O   UNL     1      10.266  12.821 -16.760  1.00  0.00    -0.744 OA
ENDBRANCH  85  86
ENDBRANCH  59  80
ENDBRANCH  33  34
ENDBRANCH  25  28
ENDBRANCH  23  24
ENDBRANCH   1  23
TORSDOF 16
