REMARK SMILES CC(/C=C1\SC(=S)N(CC(=O)NCC(=O)NCCCNC(=O)c2ccc(-c3c4nc(c(-c5ccc(S(=O)(=O)[O-])cc5)c5ccc([nH]5)c(-c5ccc(S(=O)(=O)[O-])cc5)c5nc(c(-c6ccc(S(=O)(=O)[O-])cc6)c6ccc3[nH]6)C=C5)C=C4)cc2)C1=O)=C\c1ccccc1
REMARK SMILES IDX 17 1 16 2 14 3 15 4 13 6 12 7 10 8 11 9 9 11 8 12 3 13 4 14
REMARK SMILES IDX 5 15 83 16 6 17 84 18 7 19 2 20 1 21 85 22 86 23 87 24 91 25
REMARK SMILES IDX 88 26 90 27 89 28 18 29 19 30 20 31 21 32 22 34 23 35 24 36
REMARK SMILES IDX 82 37 25 38 81 39 26 40 27 41 28 42 75 43 29 44 80 45 74 46
REMARK SMILES IDX 76 47 30 48 79 49 73 50 72 51 31 53 61 54 42 55 60 56 43 57
REMARK SMILES IDX 46 58 59 59 77 60 44 61 45 62 58 64 78 65 47 66 32 67 33 68
REMARK SMILES IDX 41 69 34 70 40 71 35 72 36 73 37 74 38 75 39 76 62 77 63 78
REMARK SMILES IDX 71 79 64 80 70 81 65 82 66 83 67 84 68 85 69 86 48 87 49 88
REMARK SMILES IDX 57 89 50 90 56 91 51 92 52 93 53 94 54 95 55 96
REMARK H PARENT 16 5 12 10 20 33 76 52 46 63
REMARK Flexibility Score: inf
ROOT
ATOM      1  C   UNL     1      -3.529  -2.367   1.239  1.00  0.00     0.117 C 
ENDROOT
BRANCH   1   2
ATOM      2  N   UNL     1      -4.809  -2.523   0.592  1.00  0.00    -0.355 N 
ATOM      3  C   UNL     1      -5.906  -1.718   0.733  1.00  0.00     0.239 C 
ATOM      4  O   UNL     1      -6.790  -1.783  -0.123  1.00  0.00    -0.273 OA
ATOM      5  H   UNL     1      -4.903  -3.291  -0.016  1.00  0.00     0.163 HD
BRANCH   3   6
ATOM      6  C   UNL     1      -5.934  -0.643   1.834  1.00  0.00     0.216 C 
BRANCH   6   7
ATOM      7  N   UNL     1      -5.561  -1.150   3.145  1.00  0.00    -0.345 N 
ATOM      8  C   UNL     1      -4.782  -0.655   4.142  1.00  0.00     0.240 C 
ATOM      9  O   UNL     1      -4.839  -1.266   5.215  1.00  0.00    -0.273 OA
ATOM     10  H   UNL     1      -5.951  -2.030   3.352  1.00  0.00     0.164 HD
BRANCH   8  11
ATOM     11  C   UNL     1      -4.014   0.678   4.060  1.00  0.00     0.227 C 
BRANCH  11  12
ATOM     12  N   UNL     1      -3.111   0.879   2.919  1.00  0.00    -0.283 N 
ATOM     13  C   UNL     1      -0.097  -0.280   1.266  1.00  0.00     0.024 C 
ATOM     14  C   UNL     1      -1.180   0.429   1.621  1.00  0.00     0.080 C 
ATOM     15  S   UNL     1      -1.985   1.654   0.731  1.00  0.00    -0.054 SA
ATOM     16  C   UNL     1      -1.934   0.148   2.879  1.00  0.00     0.266 C 
ATOM     17  C   UNL     1      -3.252   1.839   1.941  1.00  0.00     0.148 C 
ATOM     18  O   UNL     1      -1.575  -0.668   3.716  1.00  0.00    -0.268 OA
ATOM     19  S   UNL     1      -4.409   3.036   1.823  1.00  0.00    -0.052 S 
BRANCH  13  20
ATOM     20  C   UNL     1       0.714  -0.194   0.049  1.00  0.00    -0.049 C 
ATOM     21  C   UNL     1       1.440   1.098  -0.193  1.00  0.00     0.044 C 
ATOM     22  C   UNL     1       0.848  -1.289  -0.731  1.00  0.00     0.011 C 
BRANCH  22  23
ATOM     23  C   UNL     1       1.767  -1.551  -1.855  1.00  0.00    -0.025 A 
ATOM     24  C   UNL     1       1.329  -2.355  -2.918  1.00  0.00     0.008 A 
ATOM     25  C   UNL     1       3.118  -1.185  -1.812  1.00  0.00     0.008 A 
ATOM     26  C   UNL     1       2.207  -2.738  -3.937  1.00  0.00     0.001 A 
ATOM     27  C   UNL     1       3.994  -1.557  -2.836  1.00  0.00     0.001 A 
ATOM     28  C   UNL     1       3.538  -2.330  -3.900  1.00  0.00     0.000 A 
ENDBRANCH  22  23
ENDBRANCH  13  20
ENDBRANCH  11  12
ENDBRANCH   8  11
ENDBRANCH   6   7
ENDBRANCH   3   6
ENDBRANCH   1   2
BRANCH   1  29
ATOM     29  C   UNL     1      -3.198  -3.471   2.235  1.00  0.00     0.042 C 
BRANCH  29  30
ATOM     30  C   UNL     1      -2.163  -4.446   1.690  1.00  0.00     0.118 C 
BRANCH  30  31
ATOM     31  N   UNL     1      -0.897  -3.783   1.397  1.00  0.00    -0.352 N 
ATOM     32  C   UNL     1       0.400  -4.182   1.582  1.00  0.00     0.251 C 
ATOM     33  H   UNL     1      -0.992  -2.890   0.993  1.00  0.00     0.163 HD
ATOM     34  O   UNL     1       1.313  -3.379   1.412  1.00  0.00    -0.269 OA
BRANCH  32  35
ATOM     35  C   UNL     1       0.718  -5.537   2.038  1.00  0.00     0.039 A 
ATOM     36  C   UNL     1       1.814  -5.688   2.894  1.00  0.00     0.014 A 
ATOM     37  C   UNL     1      -0.056  -6.633   1.665  1.00  0.00     0.014 A 
ATOM     38  C   UNL     1       2.069  -6.925   3.464  1.00  0.00     0.010 A 
ATOM     39  C   UNL     1       0.132  -7.839   2.312  1.00  0.00     0.010 A 
ATOM     40  C   UNL     1       1.185  -7.984   3.226  1.00  0.00    -0.014 A 
BRANCH  40  41
ATOM     41  C   UNL     1       1.313  -9.256   3.955  1.00  0.00     0.031 A 
ATOM     42  C   UNL     1       1.588 -10.512   3.189  1.00  0.00     0.074 A 
ATOM     43  C   UNL     1       1.072  -9.259   5.279  1.00  0.00     0.049 A 
ATOM     44  N   UNL     1       1.601 -11.745   3.614  1.00  0.00    -0.248 NA
ATOM     45  C   UNL     1       1.837 -10.366   1.744  1.00  0.00     0.031 C 
ATOM     46  C   UNL     1       0.745  -8.077   6.086  1.00  0.00     0.029 A 
ATOM     47  N   UNL     1       1.054 -10.287   6.180  1.00  0.00    -0.354 N 
ATOM     48  C   UNL     1       1.826 -12.523   2.486  1.00  0.00     0.074 A 
ATOM     49  C   UNL     1       1.894 -11.629   1.352  1.00  0.00     0.031 C 
ATOM     50  C   UNL     1       0.595  -8.444   7.367  1.00  0.00     0.029 A 
ATOM     51  C   UNL     1       0.762  -9.887   7.463  1.00  0.00     0.049 A 
ATOM     52  H   UNL     1       1.232 -11.224   5.934  1.00  0.00     0.167 HD
ATOM     53  C   UNL     1       1.978 -13.866   2.415  1.00  0.00     0.031 A 
ATOM     54  C   UNL     1       0.637 -10.615   8.587  1.00  0.00     0.031 A 
ATOM     55  C   UNL     1       1.921 -14.721   3.569  1.00  0.00     0.049 A 
ATOM     56  C   UNL     1       0.841 -12.100   8.487  1.00  0.00     0.074 A 
ATOM     57  C   UNL     1       2.105 -16.088   3.642  1.00  0.00     0.029 A 
ATOM     58  N   UNL     1       1.664 -14.277   4.861  1.00  0.00    -0.354 N 
ATOM     59  N   UNL     1       1.100 -12.822   7.420  1.00  0.00    -0.248 NA
ATOM     60  C   UNL     1       0.747 -12.866   9.733  1.00  0.00     0.031 C 
ATOM     61  C   UNL     1       1.924 -16.476   4.974  1.00  0.00     0.029 A 
ATOM     62  C   UNL     1       1.677 -15.345   5.738  1.00  0.00     0.049 A 
ATOM     63  H   UNL     1       1.498 -13.340   5.114  1.00  0.00     0.167 HD
ATOM     64  C   UNL     1       1.221 -14.129   7.869  1.00  0.00     0.074 A 
ATOM     65  C   UNL     1       1.023 -14.092   9.307  1.00  0.00     0.031 C 
ATOM     66  C   UNL     1       1.473 -15.259   7.164  1.00  0.00     0.031 A 
BRANCH  53  67
ATOM     67  C   UNL     1       2.205 -14.464   1.053  1.00  0.00    -0.014 A 
ATOM     68  C   UNL     1       3.395 -14.221   0.340  1.00  0.00     0.010 A 
ATOM     69  C   UNL     1       1.213 -15.270   0.467  1.00  0.00     0.010 A 
ATOM     70  C   UNL     1       3.564 -14.724  -0.953  1.00  0.00     0.020 A 
ATOM     71  C   UNL     1       1.391 -15.802  -0.815  1.00  0.00     0.020 A 
ATOM     72  C   UNL     1       2.557 -15.506  -1.525  1.00  0.00     0.054 A 
BRANCH  72  73
ATOM     73  S   UNL     1       2.801 -16.146  -3.204  1.00  0.00     0.124 S 
ATOM     74  O   UNL     1       2.599 -14.947  -4.015  1.00  0.00    -0.237 OA
ATOM     75  O   UNL     1       4.171 -16.650  -3.160  1.00  0.00    -0.237 OA
ATOM     76  O   UNL     1       1.768 -17.170  -3.339  1.00  0.00    -0.744 OA
ENDBRANCH  72  73
ENDBRANCH  53  67
BRANCH  54  77
ATOM     77  C   UNL     1       0.342  -9.943   9.880  1.00  0.00    -0.014 A 
ATOM     78  C   UNL     1       1.339  -9.829  10.864  1.00  0.00     0.010 A 
ATOM     79  C   UNL     1      -0.919  -9.364  10.117  1.00  0.00     0.010 A 
ATOM     80  C   UNL     1       1.079  -9.162  12.065  1.00  0.00     0.020 A 
ATOM     81  C   UNL     1      -1.176  -8.674  11.307  1.00  0.00     0.020 A 
ATOM     82  C   UNL     1      -0.177  -8.587  12.278  1.00  0.00     0.054 A 
BRANCH  82  83
ATOM     83  S   UNL     1      -0.472  -7.680  13.823  1.00  0.00     0.124 S 
ATOM     84  O   UNL     1      -0.577  -8.763  14.795  1.00  0.00    -0.237 OA
ATOM     85  O   UNL     1       0.721  -6.845  13.932  1.00  0.00    -0.237 OA
ATOM     86  O   UNL     1      -1.711  -6.951  13.560  1.00  0.00    -0.744 OA
ENDBRANCH  82  83
ENDBRANCH  54  77
BRANCH  66  87
ATOM     87  C   UNL     1       1.575 -16.536   7.947  1.00  0.00    -0.014 A 
ATOM     88  C   UNL     1       0.427 -17.163   8.461  1.00  0.00     0.010 A 
ATOM     89  C   UNL     1       2.832 -17.145   8.111  1.00  0.00     0.010 A 
ATOM     90  C   UNL     1       0.540 -18.371   9.151  1.00  0.00     0.020 A 
ATOM     91  C   UNL     1       2.944 -18.365   8.778  1.00  0.00     0.020 A 
ATOM     92  C   UNL     1       1.797 -18.965   9.303  1.00  0.00     0.054 A 
BRANCH  92  93
ATOM     93  S   UNL     1       1.909 -20.561  10.154  1.00  0.00     0.124 S 
ATOM     94  O   UNL     1       1.733 -20.173  11.551  1.00  0.00    -0.237 OA
ATOM     95  O   UNL     1       0.805 -21.316   9.567  1.00  0.00    -0.237 OA
ATOM     96  O   UNL     1       3.242 -21.046   9.805  1.00  0.00    -0.744 OA
ENDBRANCH  92  93
ENDBRANCH  66  87
ENDBRANCH  40  41
ENDBRANCH  32  35
ENDBRANCH  30  31
ENDBRANCH  29  30
ENDBRANCH   1  29
TORSDOF 18
