REMARK SMILES C[C@@H]1[C@H](C)CCC[C@H]1NC(=O)C[N@H+]1CCC[C@@H]1C(=O)NCCCNC(=O)c1ccc(-c2c3nc(c(-c4ccc(S(=O)(=O)[O-])cc4)c4ccc([nH]4)c(-c4ccc(S(=O)(=O)[O-])cc4)c4nc(c(-c5ccc(S(=O)(=O)[O-])cc5)c5ccc2[nH]5)C=C4)C=C3)cc1
REMARK SMILES IDX 22 1 21 2 20 3 18 4 19 5 17 7 13 8 14 9 15 11 16 12 12 13
REMARK SMILES IDX 10 14 9 15 11 17 8 18 1 19 2 20 3 21 4 22 5 23 7 24 6 25
REMARK SMILES IDX 23 26 24 27 25 28 26 30 27 31 28 32 86 33 29 34 85 35 30 36
REMARK SMILES IDX 31 37 32 38 79 39 33 40 84 41 78 42 80 43 34 44 83 45 77 46
REMARK SMILES IDX 76 47 35 49 65 50 46 51 64 52 47 53 50 54 63 55 81 56 48 57
REMARK SMILES IDX 49 58 62 60 82 61 51 62 36 63 37 64 45 65 38 66 44 67 39 68
REMARK SMILES IDX 40 69 41 70 42 71 43 72 66 73 67 74 75 75 68 76 74 77 69 78
REMARK SMILES IDX 70 79 71 80 72 81 73 82 52 83 53 84 61 85 54 86 60 87 55 88
REMARK SMILES IDX 56 89 57 90 58 91 59 92
REMARK H PARENT 20 6 13 10 9 16 24 29 80 48 50 59
REMARK Flexibility Score: inf
ROOT
ATOM      1  C   UNL     1       1.311   1.435   7.422  1.00  0.00     0.042 C 
ENDROOT
BRANCH   1   2
ATOM      2  C   UNL     1       1.929   2.013   6.171  1.00  0.00     0.118 C 
BRANCH   2   3
ATOM      3  N   UNL     1       3.166   2.728   6.430  1.00  0.00    -0.351 N 
ATOM      4  C   UNL     1       4.354   2.654   5.765  1.00  0.00     0.278 C 
ATOM      5  O   UNL     1       5.264   3.417   6.105  1.00  0.00    -0.268 OA
ATOM      6  H   UNL     1       3.143   3.353   7.190  1.00  0.00     0.163 HD
BRANCH   4   7
ATOM      7  C   UNL     1       4.584   1.623   4.653  1.00  0.00     0.274 C 
ATOM      8  N   UNL     1       3.475   1.570   3.693  1.00  0.00    -0.317 N 
ATOM      9  C   UNL     1       3.511   0.263   3.074  1.00  0.00     0.263 C 
ATOM     10  H   UNL     1       2.589   1.664   4.189  1.00  0.00     0.349 HD
ATOM     11  C   UNL     1       3.759  -0.633   4.278  1.00  0.00     0.068 C 
ATOM     12  C   UNL     1       4.664   0.190   5.191  1.00  0.00     0.081 C 
BRANCH   8  13
ATOM     13  C   UNL     1       3.263   2.737   2.845  1.00  0.00     0.364 C 
BRANCH  13  14
ATOM     14  C   UNL     1       1.797   3.183   3.016  1.00  0.00     0.275 C 
ATOM     15  N   UNL     1       0.791   2.479   2.405  1.00  0.00    -0.348 N 
ATOM     16  H   UNL     1      -0.038   2.348   2.919  1.00  0.00     0.163 HD
ATOM     17  O   UNL     1       1.483   4.115   3.760  1.00  0.00    -0.268 OA
BRANCH  15  18
ATOM     18  C   UNL     1       0.839   1.909   1.067  1.00  0.00     0.085 C 
ATOM     19  C   UNL     1       0.888  -0.240  -0.228  1.00  0.00     0.010 C 
ATOM     20  C   UNL     1       0.297   0.460   1.008  1.00  0.00     0.011 C 
ATOM     21  C   UNL     1      -1.248   0.394   1.079  1.00  0.00    -0.009 C 
ATOM     22  C   UNL     1      -1.787  -1.029   0.903  1.00  0.00     0.008 C 
ATOM     23  C   UNL     1      -1.917   1.345   0.081  1.00  0.00     0.004 C 
ATOM     24  C   UNL     1       0.100   2.857   0.109  1.00  0.00     0.025 C 
ATOM     25  C   UNL     1      -1.417   2.774   0.255  1.00  0.00     0.002 C 
ENDBRANCH  15  18
ENDBRANCH  13  14
ENDBRANCH   8  13
ENDBRANCH   4   7
ENDBRANCH   2   3
ENDBRANCH   1   2
BRANCH   1  26
ATOM     26  C   UNL     1       0.790   2.503   8.360  1.00  0.00     0.118 C 
BRANCH  26  27
ATOM     27  N   UNL     1      -0.273   3.313   7.774  1.00  0.00    -0.352 N 
ATOM     28  C   UNL     1      -1.547   3.549   8.236  1.00  0.00     0.251 C 
ATOM     29  H   UNL     1      -0.045   3.756   6.924  1.00  0.00     0.163 HD
ATOM     30  O   UNL     1      -2.369   4.115   7.530  1.00  0.00    -0.269 OA
BRANCH  28  31
ATOM     31  C   UNL     1      -1.916   3.079   9.588  1.00  0.00     0.039 A 
ATOM     32  C   UNL     1      -3.159   2.477   9.785  1.00  0.00     0.014 A 
ATOM     33  C   UNL     1      -1.013   3.197  10.646  1.00  0.00     0.014 A 
ATOM     34  C   UNL     1      -3.465   1.934  11.033  1.00  0.00     0.010 A 
ATOM     35  C   UNL     1      -1.264   2.541  11.840  1.00  0.00     0.010 A 
ATOM     36  C   UNL     1      -2.505   1.929  12.058  1.00  0.00    -0.014 A 
BRANCH  36  37
ATOM     37  C   UNL     1      -2.789   1.325  13.381  1.00  0.00     0.031 A 
ATOM     38  C   UNL     1      -2.740   2.181  14.619  1.00  0.00     0.074 A 
ATOM     39  C   UNL     1      -3.025   0.003  13.474  1.00  0.00     0.049 A 
ATOM     40  N   UNL     1      -2.928   1.837  15.867  1.00  0.00    -0.248 NA
ATOM     41  C   UNL     1      -2.392   3.601  14.436  1.00  0.00     0.031 C 
ATOM     42  C   UNL     1      -3.014  -0.944  12.354  1.00  0.00     0.029 A 
ATOM     43  N   UNL     1      -3.317  -0.776  14.563  1.00  0.00    -0.354 N 
ATOM     44  C   UNL     1      -2.698   2.989  16.611  1.00  0.00     0.074 A 
ATOM     45  C   UNL     1      -2.283   4.018  15.687  1.00  0.00     0.031 C 
ATOM     46  C   UNL     1      -3.322  -2.168  12.811  1.00  0.00     0.029 A 
ATOM     47  C   UNL     1      -3.523  -2.100  14.254  1.00  0.00     0.049 A 
ATOM     48  H   UNL     1      -3.374  -0.422  15.479  1.00  0.00     0.167 HD
ATOM     49  C   UNL     1      -2.853   3.185  17.942  1.00  0.00     0.031 A 
ATOM     50  C   UNL     1      -3.844  -3.140  15.046  1.00  0.00     0.031 A 
ATOM     51  C   UNL     1      -3.286   2.161  18.853  1.00  0.00     0.049 A 
ATOM     52  C   UNL     1      -4.067  -2.893  16.511  1.00  0.00     0.074 A 
ATOM     53  C   UNL     1      -3.535   2.260  20.209  1.00  0.00     0.029 A 
ATOM     54  N   UNL     1      -3.538   0.845  18.492  1.00  0.00    -0.354 N 
ATOM     55  N   UNL     1      -3.923  -1.778  17.189  1.00  0.00    -0.248 NA
ATOM     56  C   UNL     1      -4.521  -4.036  17.313  1.00  0.00     0.031 C 
ATOM     57  C   UNL     1      -3.901   0.992  20.677  1.00  0.00     0.029 A 
ATOM     58  C   UNL     1      -3.932   0.117  19.602  1.00  0.00     0.049 A 
ATOM     59  H   UNL     1      -3.451   0.482  17.581  1.00  0.00     0.167 HD
ATOM     60  C   UNL     1      -4.289  -2.080  18.496  1.00  0.00     0.074 A 
ATOM     61  C   UNL     1      -4.680  -3.476  18.505  1.00  0.00     0.031 C 
ATOM     62  C   UNL     1      -4.303  -1.276  19.589  1.00  0.00     0.031 A 
BRANCH  49  63
ATOM     63  C   UNL     1      -2.549   4.563  18.471  1.00  0.00    -0.014 A 
ATOM     64  C   UNL     1      -3.350   5.668  18.123  1.00  0.00     0.010 A 
ATOM     65  C   UNL     1      -1.437   4.765  19.307  1.00  0.00     0.010 A 
ATOM     66  C   UNL     1      -3.007   6.955  18.544  1.00  0.00     0.020 A 
ATOM     67  C   UNL     1      -1.109   6.047  19.759  1.00  0.00     0.020 A 
ATOM     68  C   UNL     1      -1.882   7.138  19.352  1.00  0.00     0.054 A 
BRANCH  68  69
ATOM     69  S   UNL     1      -1.449   8.820  19.875  1.00  0.00     0.124 S 
ATOM     70  O   UNL     1      -0.880   9.377  18.650  1.00  0.00    -0.237 OA
ATOM     71  O   UNL     1      -2.740   9.375  20.275  1.00  0.00    -0.237 OA
ATOM     72  O   UNL     1      -0.500   8.610  20.965  1.00  0.00    -0.744 OA
ENDBRANCH  68  69
ENDBRANCH  49  63
BRANCH  50  73
ATOM     73  C   UNL     1      -4.014  -4.492  14.448  1.00  0.00    -0.014 A 
ATOM     74  C   UNL     1      -5.295  -5.047  14.284  1.00  0.00     0.010 A 
ATOM     75  C   UNL     1      -2.894  -5.207  13.985  1.00  0.00     0.010 A 
ATOM     76  C   UNL     1      -5.453  -6.296  13.674  1.00  0.00     0.020 A 
ATOM     77  C   UNL     1      -3.050  -6.444  13.353  1.00  0.00     0.020 A 
ATOM     78  C   UNL     1      -4.330  -6.984  13.207  1.00  0.00     0.054 A 
BRANCH  78  79
ATOM     79  S   UNL     1      -4.565  -8.564  12.345  1.00  0.00     0.124 S 
ATOM     80  O   UNL     1      -4.879  -9.468  13.446  1.00  0.00    -0.237 OA
ATOM     81  O   UNL     1      -5.668  -8.266  11.434  1.00  0.00    -0.237 OA
ATOM     82  O   UNL     1      -3.276  -8.792  11.693  1.00  0.00    -0.744 OA
ENDBRANCH  78  79
ENDBRANCH  50  73
BRANCH  62  83
ATOM     83  C   UNL     1      -4.780  -1.885  20.879  1.00  0.00    -0.014 A 
ATOM     84  C   UNL     1      -3.999  -2.826  21.574  1.00  0.00     0.010 A 
ATOM     85  C   UNL     1      -6.016  -1.486  21.417  1.00  0.00     0.010 A 
ATOM     86  C   UNL     1      -4.470  -3.393  22.760  1.00  0.00     0.020 A 
ATOM     87  C   UNL     1      -6.477  -2.029  22.618  1.00  0.00     0.020 A 
ATOM     88  C   UNL     1      -5.710  -2.995  23.271  1.00  0.00     0.054 A 
BRANCH  88  89
ATOM     89  S   UNL     1      -6.296  -3.735  24.819  1.00  0.00     0.124 S 
ATOM     90  O   UNL     1      -6.719  -5.062  24.379  1.00  0.00    -0.237 OA
ATOM     91  O   UNL     1      -5.104  -3.704  25.663  1.00  0.00    -0.237 OA
ATOM     92  O   UNL     1      -7.374  -2.845  25.242  1.00  0.00    -0.744 OA
ENDBRANCH  88  89
ENDBRANCH  62  83
ENDBRANCH  36  37
ENDBRANCH  28  31
ENDBRANCH  26  27
ENDBRANCH   1  26
TORSDOF 16
