REMARK SMILES O=C(NCCCNC(=O)c1ccc(N2C(=O)N=C(O)/C(=C\c3cccs3)C2=O)cc1)c1ccc(-c2c3nc(c(-c4ccc(S(=O)(=O)[O-])cc4)c4ccc([nH]4)c(-c4ccc(S(=O)(=O)[O-])cc4)c4nc(c(-c5ccc(S(=O)(=O)[O-])cc5)c5ccc2[nH]5)C=C4)C=C3)cc1
REMARK SMILES IDX 4 1 3 2 1 3 2 4 31 6 32 7 90 8 33 9 89 10 34 11 35 12 36 13
REMARK SMILES IDX 83 14 37 15 88 16 82 17 84 18 38 19 87 20 81 21 80 22 39 24
REMARK SMILES IDX 69 25 50 26 68 27 51 28 54 29 67 30 85 31 52 32 53 33 66 35
REMARK SMILES IDX 86 36 55 37 40 38 41 39 49 40 42 41 48 42 43 43 44 44 45 45
REMARK SMILES IDX 46 46 47 47 70 48 71 49 79 50 72 51 78 52 73 53 74 54 75 55
REMARK SMILES IDX 76 56 77 57 56 58 57 59 65 60 58 61 64 62 59 63 60 64 61 65
REMARK SMILES IDX 62 66 63 67 5 68 6 69 7 70 8 71 9 73 10 74 11 75 30 76 12 77
REMARK SMILES IDX 29 78 13 79 14 80 15 81 27 82 16 83 17 84 20 85 28 86 18 87
REMARK SMILES IDX 21 88 19 89 22 91 23 92 26 93 24 94 25 95
REMARK H PARENT 3 5 84 23 54 34 7 72 19 90
REMARK Flexibility Score: inf
ROOT
ATOM      1  C   UNL     1       4.461   0.942   0.913  1.00  0.00     0.118 C 
ENDROOT
BRANCH   1   2
ATOM      2  N   UNL     1       3.020   0.752   0.811  1.00  0.00    -0.352 N 
ATOM      3  O   UNL     1       1.081   0.120  -0.147  1.00  0.00    -0.269 OA
ATOM      4  C   UNL     1       2.301  -0.000  -0.087  1.00  0.00     0.251 C 
ATOM      5  H   UNL     1       2.483   1.232   1.482  1.00  0.00     0.163 HD
BRANCH   4   6
ATOM      6  C   UNL     1       3.007  -0.941  -0.982  1.00  0.00     0.039 A 
ATOM      7  C   UNL     1       4.046  -1.734  -0.489  1.00  0.00     0.014 A 
ATOM      8  C   UNL     1       2.616  -1.047  -2.319  1.00  0.00     0.014 A 
ATOM      9  C   UNL     1       4.788  -2.521  -1.356  1.00  0.00     0.010 A 
ATOM     10  C   UNL     1       3.292  -1.928  -3.168  1.00  0.00     0.010 A 
ATOM     11  C   UNL     1       4.389  -2.664  -2.693  1.00  0.00    -0.014 A 
BRANCH  11  12
ATOM     12  C   UNL     1       5.037  -3.709  -3.523  1.00  0.00     0.031 A 
ATOM     13  C   UNL     1       5.822  -3.364  -4.755  1.00  0.00     0.074 A 
ATOM     14  C   UNL     1       4.895  -4.993  -3.133  1.00  0.00     0.049 A 
ATOM     15  N   UNL     1       6.423  -4.172  -5.589  1.00  0.00    -0.248 NA
ATOM     16  C   UNL     1       5.947  -1.940  -5.104  1.00  0.00     0.031 C 
ATOM     17  C   UNL     1       4.141  -5.437  -1.954  1.00  0.00     0.029 A 
ATOM     18  N   UNL     1       5.374  -6.158  -3.672  1.00  0.00    -0.354 N 
ATOM     19  C   UNL     1       6.974  -3.364  -6.576  1.00  0.00     0.074 A 
ATOM     20  C   UNL     1       6.633  -1.998  -6.241  1.00  0.00     0.031 C 
ATOM     21  C   UNL     1       4.237  -6.768  -1.842  1.00  0.00     0.029 A 
ATOM     22  C   UNL     1       4.982  -7.281  -2.983  1.00  0.00     0.049 A 
ATOM     23  H   UNL     1       5.943  -6.188  -4.475  1.00  0.00     0.167 HD
ATOM     24  C   UNL     1       7.692  -3.739  -7.661  1.00  0.00     0.031 A 
ATOM     25  C   UNL     1       5.158  -8.587  -3.257  1.00  0.00     0.031 A 
ATOM     26  C   UNL     1       8.028  -5.105  -7.973  1.00  0.00     0.049 A 
ATOM     27  C   UNL     1       5.917  -8.963  -4.496  1.00  0.00     0.074 A 
ATOM     28  C   UNL     1       8.810  -5.578  -9.014  1.00  0.00     0.029 A 
ATOM     29  N   UNL     1       7.591  -6.216  -7.267  1.00  0.00    -0.354 N 
ATOM     30  N   UNL     1       6.503  -8.180  -5.369  1.00  0.00    -0.248 NA
ATOM     31  C   UNL     1       6.035 -10.397  -4.791  1.00  0.00     0.031 C 
ATOM     32  C   UNL     1       8.778  -6.974  -8.985  1.00  0.00     0.029 A 
ATOM     33  C   UNL     1       8.039  -7.373  -7.883  1.00  0.00     0.049 A 
ATOM     34  H   UNL     1       7.043  -6.186  -6.450  1.00  0.00     0.167 HD
ATOM     35  C   UNL     1       7.067  -9.028  -6.314  1.00  0.00     0.074 A 
ATOM     36  C   UNL     1       6.784 -10.382  -5.884  1.00  0.00     0.031 C 
ATOM     37  C   UNL     1       7.746  -8.713  -7.443  1.00  0.00     0.031 A 
BRANCH  24  38
ATOM     38  C   UNL     1       8.145  -2.676  -8.629  1.00  0.00    -0.014 A 
ATOM     39  C   UNL     1       9.200  -1.802  -8.320  1.00  0.00     0.010 A 
ATOM     40  C   UNL     1       7.587  -2.645  -9.922  1.00  0.00     0.010 A 
ATOM     41  C   UNL     1       9.687  -0.913  -9.285  1.00  0.00     0.020 A 
ATOM     42  C   UNL     1       8.086  -1.775 -10.896  1.00  0.00     0.020 A 
ATOM     43  C   UNL     1       9.132  -0.911 -10.569  1.00  0.00     0.054 A 
BRANCH  43  44
ATOM     44  S   UNL     1       9.839   0.195 -11.822  1.00  0.00     0.124 S 
ATOM     45  O   UNL     1       9.423   1.508 -11.335  1.00  0.00    -0.237 OA
ATOM     46  O   UNL     1      11.269  -0.087 -11.725  1.00  0.00    -0.237 OA
ATOM     47  O   UNL     1       9.205  -0.236 -13.066  1.00  0.00    -0.744 OA
ENDBRANCH  43  44
ENDBRANCH  24  38
BRANCH  25  48
ATOM     48  C   UNL     1       4.538  -9.623  -2.388  1.00  0.00    -0.014 A 
ATOM     49  C   UNL     1       5.330 -10.527  -1.660  1.00  0.00     0.010 A 
ATOM     50  C   UNL     1       3.135  -9.722  -2.302  1.00  0.00     0.010 A 
ATOM     51  C   UNL     1       4.732 -11.534  -0.898  1.00  0.00     0.020 A 
ATOM     52  C   UNL     1       2.534 -10.701  -1.510  1.00  0.00     0.020 A 
ATOM     53  C   UNL     1       3.338 -11.617  -0.832  1.00  0.00     0.054 A 
BRANCH  53  54
ATOM     54  S   UNL     1       2.584 -12.934   0.161  1.00  0.00     0.124 S 
ATOM     55  O   UNL     1       2.844 -14.114  -0.657  1.00  0.00    -0.237 OA
ATOM     56  O   UNL     1       3.332 -12.852   1.413  1.00  0.00    -0.237 OA
ATOM     57  O   UNL     1       1.182 -12.532   0.253  1.00  0.00    -0.744 OA
ENDBRANCH  53  54
ENDBRANCH  25  48
BRANCH  37  58
ATOM     58  C   UNL     1       8.239  -9.855  -8.289  1.00  0.00    -0.014 A 
ATOM     59  C   UNL     1       7.343 -10.639  -9.037  1.00  0.00     0.010 A 
ATOM     60  C   UNL     1       9.620 -10.107  -8.386  1.00  0.00     0.010 A 
ATOM     61  C   UNL     1       7.818 -11.669  -9.851  1.00  0.00     0.020 A 
ATOM     62  C   UNL     1      10.100 -11.115  -9.224  1.00  0.00     0.020 A 
ATOM     63  C   UNL     1       9.195 -11.896  -9.944  1.00  0.00     0.054 A 
BRANCH  63  64
ATOM     64  S   UNL     1       9.786 -13.197 -11.061  1.00  0.00     0.124 S 
ATOM     65  O   UNL     1       9.368 -14.410 -10.364  1.00  0.00    -0.237 OA
ATOM     66  O   UNL     1       9.069 -12.904 -12.299  1.00  0.00    -0.237 OA
ATOM     67  O   UNL     1      11.229 -12.977 -11.116  1.00  0.00    -0.744 OA
ENDBRANCH  63  64
ENDBRANCH  37  58
ENDBRANCH  11  12
ENDBRANCH   4   6
ENDBRANCH   1   2
BRANCH   1  68
ATOM     68  C   UNL     1       4.880   2.373   0.630  1.00  0.00     0.042 C 
BRANCH  68  69
ATOM     69  C   UNL     1       4.354   3.368   1.651  1.00  0.00     0.118 C 
BRANCH  69  70
ATOM     70  N   UNL     1       4.877   3.116   2.988  1.00  0.00    -0.352 N 
ATOM     71  C   UNL     1       5.700   3.902   3.753  1.00  0.00     0.251 C 
ATOM     72  H   UNL     1       4.601   2.264   3.399  1.00  0.00     0.163 HD
ATOM     73  O   UNL     1       6.202   3.478   4.787  1.00  0.00    -0.269 OA
BRANCH  71  74
ATOM     74  C   UNL     1       5.984   5.275   3.303  1.00  0.00     0.039 A 
ATOM     75  C   UNL     1       7.308   5.673   3.128  1.00  0.00     0.016 A 
ATOM     76  C   UNL     1       4.933   6.147   3.014  1.00  0.00     0.016 A 
ATOM     77  C   UNL     1       7.577   6.923   2.567  1.00  0.00     0.028 A 
ATOM     78  C   UNL     1       5.205   7.391   2.453  1.00  0.00     0.028 A 
ATOM     79  C   UNL     1       6.529   7.785   2.199  1.00  0.00     0.054 A 
BRANCH  79  80
ATOM     80  N   UNL     1       6.795   9.036   1.546  1.00  0.00    -0.226 N 
ATOM     81  C   UNL     1       7.722   9.052   0.490  1.00  0.00     0.358 C 
ATOM     82  C   UNL     1       6.078  10.155   1.958  1.00  0.00     0.272 C 
ATOM     83  O   UNL     1       8.254   8.024   0.069  1.00  0.00    -0.245 OA
ATOM     84  N   UNL     1       8.022  10.234  -0.120  1.00  0.00    -0.156 NA
ATOM     85  C   UNL     1       6.314  11.396   1.167  1.00  0.00     0.104 C 
ATOM     86  O   UNL     1       5.309  10.180   2.921  1.00  0.00    -0.268 OA
ATOM     87  C   UNL     1       7.386  11.303   0.174  1.00  0.00     0.228 C 
ATOM     88  C   UNL     1       5.494  12.422   1.477  1.00  0.00     0.038 C 
BRANCH  87  89
ATOM     89  O   UNL     1       7.794  12.407  -0.467  1.00  0.00    -0.493 OA
ATOM     90  H   UNL     1       8.479  12.352  -1.103  1.00  0.00     0.295 HD
ENDBRANCH  87  89
BRANCH  88  91
ATOM     91  C   UNL     1       5.481  13.672   0.817  1.00  0.00     0.028 A 
ATOM     92  C   UNL     1       4.969  13.994  -0.426  1.00  0.00     0.020 A 
ATOM     93  S   UNL     1       6.196  15.041   1.567  1.00  0.00    -0.144 S 
ATOM     94  C   UNL     1       5.234  15.345  -0.790  1.00  0.00     0.012 A 
ATOM     95  C   UNL     1       5.903  16.025   0.202  1.00  0.00     0.065 A 
ENDBRANCH  88  91
ENDBRANCH  79  80
ENDBRANCH  71  74
ENDBRANCH  69  70
ENDBRANCH  68  69
ENDBRANCH   1  68
TORSDOF 16
