REMARK SMILES O=C(NCCCNC(=O)[C@@H]1CCCC[C@H]1C(=O)Nc1ccccc1C(=O)N1CCOCC1)c1ccc(-c2c3nc(c(-c4ccc(S(=O)(=O)[O-])cc4)c4ccc([nH]4)c(-c4ccc(S(=O)(=O)[O-])cc4)c4nc(c(-c5ccc(S(=O)(=O)[O-])cc5)c5ccc2[nH]5)C=C4)C=C3)cc1
REMARK SMILES IDX 5 1 4 2 3 3 1 4 2 5 33 7 34 8 92 9 35 10 91 11 36 12 37 13
REMARK SMILES IDX 38 14 85 15 39 16 90 17 84 18 86 19 40 20 89 21 83 22 82 23
REMARK SMILES IDX 41 25 71 26 52 27 70 28 53 29 56 30 69 31 87 32 54 33 55 34
REMARK SMILES IDX 68 36 88 37 57 38 42 39 43 40 51 41 44 42 50 43 45 44 46 45
REMARK SMILES IDX 47 46 48 47 49 48 72 49 73 50 81 51 74 52 80 53 75 54 76 55
REMARK SMILES IDX 77 56 78 57 79 58 58 59 59 60 67 61 60 62 66 63 61 64 62 65
REMARK SMILES IDX 63 66 64 67 65 68 6 69 7 70 8 71 9 73 10 74 11 75 15 76
REMARK SMILES IDX 12 77 14 78 13 79 16 80 17 81 18 82 19 84 20 85 24 86 21 87
REMARK SMILES IDX 23 88 22 89 25 90 26 91 27 92 28 93 32 94 29 95 31 96 30 97
REMARK H PARENT 3 6 86 24 56 35 7 72 18 83
REMARK Flexibility Score: inf
ROOT
ATOM      1  C   UNL     1       4.845  -2.836  -1.034  1.00  0.00     0.042 C 
ENDROOT
BRANCH   1   2
ATOM      2  C   UNL     1       3.894  -1.840  -1.734  1.00  0.00     0.118 C 
BRANCH   2   3
ATOM      3  N   UNL     1       2.754  -1.350  -0.949  1.00  0.00    -0.352 N 
ATOM      4  O   UNL     1       1.210  -0.156   0.106  1.00  0.00    -0.269 OA
ATOM      5  C   UNL     1       2.347  -0.153  -0.382  1.00  0.00     0.251 C 
ATOM      6  H   UNL     1       2.101  -2.067  -0.780  1.00  0.00     0.163 HD
BRANCH   5   7
ATOM      7  C   UNL     1       3.131   1.126  -0.294  1.00  0.00     0.039 A 
ATOM      8  C   UNL     1       4.209   1.450  -1.106  1.00  0.00     0.014 A 
ATOM      9  C   UNL     1       2.707   2.116   0.624  1.00  0.00     0.014 A 
ATOM     10  C   UNL     1       4.915   2.650  -0.931  1.00  0.00     0.010 A 
ATOM     11  C   UNL     1       3.352   3.369   0.729  1.00  0.00     0.010 A 
ATOM     12  C   UNL     1       4.482   3.650  -0.044  1.00  0.00    -0.014 A 
BRANCH  12  13
ATOM     13  C   UNL     1       5.173   4.981  -0.057  1.00  0.00     0.031 A 
ATOM     14  C   UNL     1       5.855   5.552   1.163  1.00  0.00     0.074 A 
ATOM     15  C   UNL     1       5.244   5.662  -1.224  1.00  0.00     0.049 A 
ATOM     16  N   UNL     1       6.568   6.649   1.270  1.00  0.00    -0.248 NA
ATOM     17  C   UNL     1       5.719   4.809   2.425  1.00  0.00     0.031 C 
ATOM     18  C   UNL     1       4.608   5.242  -2.478  1.00  0.00     0.029 A 
ATOM     19  N   UNL     1       5.908   6.815  -1.570  1.00  0.00    -0.354 N 
ATOM     20  C   UNL     1       6.946   6.740   2.607  1.00  0.00     0.074 A 
ATOM     21  C   UNL     1       6.366   5.595   3.277  1.00  0.00     0.031 C 
ATOM     22  C   UNL     1       4.990   6.061  -3.466  1.00  0.00     0.029 A 
ATOM     23  C   UNL     1       5.816   7.125  -2.909  1.00  0.00     0.049 A 
ATOM     24  H   UNL     1       6.403   7.367  -0.922  1.00  0.00     0.167 HD
ATOM     25  C   UNL     1       7.704   7.686   3.219  1.00  0.00     0.031 A 
ATOM     26  C   UNL     1       6.315   8.154  -3.622  1.00  0.00     0.031 A 
ATOM     27  C   UNL     1       8.277   8.829   2.549  1.00  0.00     0.049 A 
ATOM     28  C   UNL     1       7.129   9.200  -2.916  1.00  0.00     0.074 A 
ATOM     29  C   UNL     1       9.078   9.828   3.082  1.00  0.00     0.029 A 
ATOM     30  N   UNL     1       8.108   9.134   1.206  1.00  0.00    -0.354 N 
ATOM     31  N   UNL     1       7.493   9.244  -1.657  1.00  0.00    -0.248 NA
ATOM     32  C   UNL     1       7.589  10.338  -3.721  1.00  0.00     0.031 C 
ATOM     33  C   UNL     1       9.342  10.764   2.076  1.00  0.00     0.029 A 
ATOM     34  C   UNL     1       8.765  10.316   0.899  1.00  0.00     0.049 A 
ATOM     35  H   UNL     1       7.597   8.590   0.564  1.00  0.00     0.167 HD
ATOM     36  C   UNL     1       8.233  10.411  -1.520  1.00  0.00     0.074 A 
ATOM     37  C   UNL     1       8.290  11.027  -2.830  1.00  0.00     0.031 C 
ATOM     38  C   UNL     1       8.808  10.928  -0.406  1.00  0.00     0.031 A 
BRANCH  25  39
ATOM     39  C   UNL     1       7.938   7.550   4.706  1.00  0.00    -0.014 A 
ATOM     40  C   UNL     1       8.767   6.542   5.230  1.00  0.00     0.010 A 
ATOM     41  C   UNL     1       7.362   8.482   5.591  1.00  0.00     0.010 A 
ATOM     42  C   UNL     1       8.977   6.440   6.610  1.00  0.00     0.020 A 
ATOM     43  C   UNL     1       7.592   8.402   6.969  1.00  0.00     0.020 A 
ATOM     44  C   UNL     1       8.383   7.368   7.472  1.00  0.00     0.054 A 
BRANCH  44  45
ATOM     45  S   UNL     1       8.682   7.211   9.255  1.00  0.00     0.124 S 
ATOM     46  O   UNL     1       7.902   6.024   9.588  1.00  0.00    -0.237 OA
ATOM     47  O   UNL     1      10.130   7.053   9.326  1.00  0.00    -0.237 OA
ATOM     48  O   UNL     1       8.167   8.468   9.805  1.00  0.00    -0.744 OA
ENDBRANCH  44  45
ENDBRANCH  25  39
BRANCH  26  49
ATOM     49  C   UNL     1       6.021   8.261  -5.080  1.00  0.00    -0.014 A 
ATOM     50  C   UNL     1       7.041   8.124  -6.038  1.00  0.00     0.010 A 
ATOM     51  C   UNL     1       4.701   8.477  -5.518  1.00  0.00     0.010 A 
ATOM     52  C   UNL     1       6.746   8.208  -7.404  1.00  0.00     0.020 A 
ATOM     53  C   UNL     1       4.396   8.526  -6.880  1.00  0.00     0.020 A 
ATOM     54  C   UNL     1       5.424   8.403  -7.816  1.00  0.00     0.054 A 
BRANCH  54  55
ATOM     55  S   UNL     1       5.054   8.448  -9.591  1.00  0.00     0.124 S 
ATOM     56  O   UNL     1       5.585   9.751  -9.979  1.00  0.00    -0.237 OA
ATOM     57  O   UNL     1       5.786   7.289 -10.096  1.00  0.00    -0.237 OA
ATOM     58  O   UNL     1       3.598   8.324  -9.640  1.00  0.00    -0.744 OA
ENDBRANCH  54  55
ENDBRANCH  26  49
BRANCH  38  59
ATOM     59  C   UNL     1       9.573  12.215  -0.562  1.00  0.00    -0.014 A 
ATOM     60  C   UNL     1       8.912  13.435  -0.793  1.00  0.00     0.010 A 
ATOM     61  C   UNL     1      10.975  12.207  -0.442  1.00  0.00     0.010 A 
ATOM     62  C   UNL     1       9.642  14.618  -0.934  1.00  0.00     0.020 A 
ATOM     63  C   UNL     1      11.706  13.393  -0.552  1.00  0.00     0.020 A 
ATOM     64  C   UNL     1      11.035  14.589  -0.812  1.00  0.00     0.054 A 
BRANCH  64  65
ATOM     65  S   UNL     1      11.957  16.144  -0.960  1.00  0.00     0.124 S 
ATOM     66  O   UNL     1      11.870  16.415  -2.392  1.00  0.00    -0.237 OA
ATOM     67  O   UNL     1      11.197  17.049  -0.101  1.00  0.00    -0.237 OA
ATOM     68  O   UNL     1      13.291  15.804  -0.470  1.00  0.00    -0.744 OA
ENDBRANCH  64  65
ENDBRANCH  38  59
ENDBRANCH  12  13
ENDBRANCH   5   7
ENDBRANCH   2   3
ENDBRANCH   1   2
BRANCH   1  69
ATOM     69  C   UNL     1       4.339  -4.298  -0.762  1.00  0.00     0.117 C 
BRANCH  69  70
ATOM     70  N   UNL     1       5.194  -5.105   0.182  1.00  0.00    -0.356 N 
ATOM     71  C   UNL     1       4.718  -6.050   1.092  1.00  0.00     0.223 C 
ATOM     72  H   UNL     1       6.167  -4.954   0.153  1.00  0.00     0.163 HD
ATOM     73  O   UNL     1       3.563  -6.466   0.968  1.00  0.00    -0.275 OA
BRANCH  71  74
ATOM     74  C   UNL     1       5.671  -6.613   2.293  1.00  0.00     0.091 C 
ATOM     75  C   UNL     1       5.421  -8.169   2.211  1.00  0.00     0.014 C 
ATOM     76  C   UNL     1       5.373  -6.156   3.817  1.00  0.00     0.091 C 
ATOM     77  C   UNL     1       5.966  -9.029   3.348  1.00  0.00     0.001 C 
ATOM     78  C   UNL     1       5.970  -7.125   4.869  1.00  0.00     0.014 C 
ATOM     79  C   UNL     1       5.469  -8.531   4.687  1.00  0.00     0.001 C 
BRANCH  76  80
ATOM     80  C   UNL     1       5.570  -4.801   4.606  1.00  0.00     0.228 C 
ATOM     81  O   UNL     1       4.573  -4.309   5.159  1.00  0.00    -0.274 OA
ATOM     82  N   UNL     1       6.762  -4.224   4.950  1.00  0.00    -0.325 N 
ATOM     83  H   UNL     1       6.717  -3.571   5.685  1.00  0.00     0.169 HD
BRANCH  82  84
ATOM     84  C   UNL     1       8.030  -4.428   4.412  1.00  0.00     0.054 A 
ATOM     85  C   UNL     1       9.111  -4.518   5.294  1.00  0.00     0.027 A 
ATOM     86  C   UNL     1       8.233  -4.612   3.053  1.00  0.00     0.063 A 
ATOM     87  C   UNL     1      10.299  -5.113   4.869  1.00  0.00     0.002 A 
ATOM     88  C   UNL     1       9.389  -5.297   2.642  1.00  0.00     0.016 A 
ATOM     89  C   UNL     1      10.400  -5.591   3.564  1.00  0.00     0.001 A 
BRANCH  86  90
ATOM     90  C   UNL     1       7.323  -3.979   2.038  1.00  0.00     0.256 C 
ATOM     91  O   UNL     1       7.508  -4.245   0.851  1.00  0.00    -0.269 OA
ATOM     92  N   UNL     1       6.388  -3.016   2.470  1.00  0.00    -0.334 N 
ATOM     93  C   UNL     1       6.784  -1.641   2.205  1.00  0.00     0.148 C 
ATOM     94  C   UNL     1       4.919  -3.201   2.355  1.00  0.00     0.148 C 
ATOM     95  C   UNL     1       5.856  -0.640   2.897  1.00  0.00     0.181 C 
ATOM     96  C   UNL     1       4.050  -2.124   2.981  1.00  0.00     0.181 C 
ATOM     97  O   UNL     1       4.486  -0.842   2.526  1.00  0.00    -0.378 OA
ENDBRANCH  86  90
ENDBRANCH  82  84
ENDBRANCH  76  80
ENDBRANCH  71  74
ENDBRANCH  69  70
ENDBRANCH   1  69
TORSDOF 16
