REMARK SMILES CN(C(=O)N1Cc2nc[nH]c2C[C@@H]1C(=O)NCCCNC(=O)c1ccc(-c2c3nc(c(-c4ccc(S(=O)(=O)[O-])cc4)c4ccc([nH]4)c(-c4ccc(S(=O)(=O)[O-])cc4)c4nc(c(-c5ccc(S(=O)(=O)[O-])cc5)c5ccc2[nH]5)C=C4)C=C3)cc1)C1CC1
REMARK SMILES IDX 18 1 17 2 16 3 14 4 15 5 13 7 5 8 6 9 7 10 12 11 8 12 11 13
REMARK SMILES IDX 9 14 10 15 3 17 4 18 2 19 1 20 83 21 84 22 85 23 19 24 20 25
REMARK SMILES IDX 21 26 22 28 23 29 24 30 82 31 25 32 81 33 26 34 27 35 28 36
REMARK SMILES IDX 75 37 29 38 80 39 74 40 76 41 30 42 79 43 73 44 72 45 31 47
REMARK SMILES IDX 61 48 42 49 60 50 43 51 46 52 59 53 77 54 44 55 45 56 58 58
REMARK SMILES IDX 78 59 47 60 32 61 33 62 41 63 34 64 40 65 35 66 36 67 37 68
REMARK SMILES IDX 38 69 39 70 62 71 63 72 71 73 64 74 70 75 65 76 66 77 67 78
REMARK SMILES IDX 68 79 69 80 48 81 49 82 57 83 50 84 56 85 51 86 52 87 53 88
REMARK SMILES IDX 54 89 55 90
REMARK H PARENT 16 6 10 16 20 27 76 46 46 57
REMARK Flexibility Score: inf
ROOT
ATOM      1  C   UNL     1      -3.992  -0.671  -1.514  1.00  0.00     0.042 C 
ENDROOT
BRANCH   1   2
ATOM      2  C   UNL     1      -2.606  -0.901  -0.925  1.00  0.00     0.117 C 
BRANCH   2   3
ATOM      3  N   UNL     1      -2.011   0.306  -0.379  1.00  0.00    -0.354 N 
ATOM      4  C   UNL     1      -1.293   0.459   0.768  1.00  0.00     0.243 C 
ATOM      5  O   UNL     1      -0.895   1.595   1.048  1.00  0.00    -0.273 OA
ATOM      6  H   UNL     1      -2.145   1.124  -0.909  1.00  0.00     0.163 HD
BRANCH   4   7
ATOM      7  C   UNL     1      -1.123  -0.686   1.778  1.00  0.00     0.182 C 
ATOM      8  N   UNL     1      -0.621  -2.027   1.290  1.00  0.00    -0.306 N 
ATOM      9  C   UNL     1      -0.687  -3.149   2.261  1.00  0.00     0.180 C 
ATOM     10  C   UNL     1      -1.968  -3.134   3.005  1.00  0.00     0.081 A 
ATOM     11  C   UNL     1      -2.535  -0.730   2.481  1.00  0.00     0.091 C 
ATOM     12  N   UNL     1      -2.509  -4.197   3.682  1.00  0.00    -0.240 NA
ATOM     13  C   UNL     1      -2.780  -2.038   3.111  1.00  0.00     0.042 A 
ATOM     14  C   UNL     1      -3.655  -3.753   4.155  1.00  0.00     0.197 A 
ATOM     15  N   UNL     1      -3.868  -2.440   3.826  1.00  0.00    -0.348 N 
ATOM     16  H   UNL     1      -4.654  -1.895   4.060  1.00  0.00     0.167 HD
BRANCH   8  17
ATOM     17  C   UNL     1       0.132  -2.322   0.161  1.00  0.00     0.321 C 
ATOM     18  O   UNL     1       0.201  -3.492  -0.235  1.00  0.00    -0.248 OA
BRANCH  17  19
ATOM     19  N   UNL     1       0.768  -1.323  -0.554  1.00  0.00    -0.325 N 
ATOM     20  C   UNL     1       1.495  -0.218   0.071  1.00  0.00     0.149 C 
BRANCH  19  21
ATOM     21  C   UNL     1       1.200  -1.593  -1.923  1.00  0.00     0.086 C 
ATOM     22  C   UNL     1       0.358  -2.290  -2.961  1.00  0.00     0.027 C 
ATOM     23  C   UNL     1       0.603  -0.816  -3.072  1.00  0.00     0.027 C 
ENDBRANCH  19  21
ENDBRANCH  17  19
ENDBRANCH   8  17
ENDBRANCH   4   7
ENDBRANCH   2   3
ENDBRANCH   1   2
BRANCH   1  24
ATOM     24  C   UNL     1      -3.971   0.186  -2.770  1.00  0.00     0.118 C 
BRANCH  24  25
ATOM     25  N   UNL     1      -3.328  -0.468  -3.908  1.00  0.00    -0.352 N 
ATOM     26  C   UNL     1      -3.116   0.059  -5.172  1.00  0.00     0.251 C 
ATOM     27  H   UNL     1      -3.009  -1.388  -3.760  1.00  0.00     0.163 HD
ATOM     28  O   UNL     1      -2.891  -0.659  -6.127  1.00  0.00    -0.269 OA
BRANCH  26  29
ATOM     29  C   UNL     1      -3.189   1.525  -5.325  1.00  0.00     0.039 A 
ATOM     30  C   UNL     1      -3.975   2.100  -6.326  1.00  0.00     0.014 A 
ATOM     31  C   UNL     1      -2.528   2.314  -4.386  1.00  0.00     0.014 A 
ATOM     32  C   UNL     1      -4.189   3.476  -6.302  1.00  0.00     0.010 A 
ATOM     33  C   UNL     1      -2.839   3.651  -4.292  1.00  0.00     0.010 A 
ATOM     34  C   UNL     1      -3.653   4.244  -5.257  1.00  0.00    -0.014 A 
BRANCH  34  35
ATOM     35  C   UNL     1      -4.068   5.635  -5.075  1.00  0.00     0.031 A 
ATOM     36  C   UNL     1      -5.541   5.854  -4.995  1.00  0.00     0.074 A 
ATOM     37  C   UNL     1      -3.210   6.629  -4.760  1.00  0.00     0.049 A 
ATOM     38  N   UNL     1      -6.287   6.481  -5.842  1.00  0.00    -0.248 NA
ATOM     39  C   UNL     1      -6.297   5.196  -3.916  1.00  0.00     0.031 C 
ATOM     40  C   UNL     1      -1.769   6.528  -4.508  1.00  0.00     0.029 A 
ATOM     41  N   UNL     1      -3.477   7.929  -4.456  1.00  0.00    -0.354 N 
ATOM     42  C   UNL     1      -7.570   6.491  -5.301  1.00  0.00     0.074 A 
ATOM     43  C   UNL     1      -7.552   5.535  -4.221  1.00  0.00     0.031 C 
ATOM     44  C   UNL     1      -1.352   7.628  -3.846  1.00  0.00     0.029 A 
ATOM     45  C   UNL     1      -2.451   8.575  -3.775  1.00  0.00     0.049 A 
ATOM     46  H   UNL     1      -4.322   8.373  -4.697  1.00  0.00     0.167 HD
ATOM     47  C   UNL     1      -8.478   7.455  -5.629  1.00  0.00     0.031 A 
ATOM     48  C   UNL     1      -2.509   9.781  -3.156  1.00  0.00     0.031 A 
ATOM     49  C   UNL     1      -8.032   8.241  -6.753  1.00  0.00     0.049 A 
ATOM     50  C   UNL     1      -3.650  10.520  -3.751  1.00  0.00     0.074 A 
ATOM     51  C   UNL     1      -7.670   7.958  -8.055  1.00  0.00     0.029 A 
ATOM     52  N   UNL     1      -7.515   9.486  -6.474  1.00  0.00    -0.354 N 
ATOM     53  N   UNL     1      -3.661  10.927  -4.989  1.00  0.00    -0.248 NA
ATOM     54  C   UNL     1      -4.958  10.410  -3.124  1.00  0.00     0.031 C 
ATOM     55  C   UNL     1      -6.554   8.806  -8.313  1.00  0.00     0.029 A 
ATOM     56  C   UNL     1      -6.355   9.616  -7.192  1.00  0.00     0.049 A 
ATOM     57  H   UNL     1      -7.906  10.159  -5.871  1.00  0.00     0.167 HD
ATOM     58  C   UNL     1      -4.951  10.674  -5.431  1.00  0.00     0.074 A 
ATOM     59  C   UNL     1      -5.734  10.473  -4.212  1.00  0.00     0.031 C 
ATOM     60  C   UNL     1      -5.201  10.362  -6.739  1.00  0.00     0.031 A 
BRANCH  47  61
ATOM     61  C   UNL     1      -9.565   7.962  -4.709  1.00  0.00    -0.014 A 
ATOM     62  C   UNL     1     -10.456   8.946  -5.193  1.00  0.00     0.010 A 
ATOM     63  C   UNL     1      -9.566   7.731  -3.320  1.00  0.00     0.010 A 
ATOM     64  C   UNL     1     -11.230   9.723  -4.321  1.00  0.00     0.020 A 
ATOM     65  C   UNL     1     -10.369   8.468  -2.446  1.00  0.00     0.020 A 
ATOM     66  C   UNL     1     -11.165   9.488  -2.948  1.00  0.00     0.054 A 
BRANCH  66  67
ATOM     67  S   UNL     1     -12.067  10.576  -1.819  1.00  0.00     0.124 S 
ATOM     68  O   UNL     1     -11.358  11.840  -1.991  1.00  0.00    -0.237 OA
ATOM     69  O   UNL     1     -13.422  10.529  -2.361  1.00  0.00    -0.237 OA
ATOM     70  O   UNL     1     -11.898   9.933  -0.518  1.00  0.00    -0.744 OA
ENDBRANCH  66  67
ENDBRANCH  47  61
BRANCH  48  71
ATOM     71  C   UNL     1      -1.801  10.222  -1.926  1.00  0.00    -0.014 A 
ATOM     72  C   UNL     1      -1.847  11.564  -1.504  1.00  0.00     0.010 A 
ATOM     73  C   UNL     1      -1.304   9.270  -1.012  1.00  0.00     0.010 A 
ATOM     74  C   UNL     1      -1.494  11.924  -0.191  1.00  0.00     0.020 A 
ATOM     75  C   UNL     1      -0.936   9.622   0.292  1.00  0.00     0.020 A 
ATOM     76  C   UNL     1      -1.065  10.943   0.707  1.00  0.00     0.054 A 
BRANCH  76  77
ATOM     77  S   UNL     1      -0.830  11.369   2.459  1.00  0.00     0.124 S 
ATOM     78  O   UNL     1       0.406  12.144   2.429  1.00  0.00    -0.237 OA
ATOM     79  O   UNL     1      -2.043  12.122   2.769  1.00  0.00    -0.237 OA
ATOM     80  O   UNL     1      -0.732  10.068   3.118  1.00  0.00    -0.744 OA
ENDBRANCH  76  77
ENDBRANCH  48  71
BRANCH  60  81
ATOM     81  C   UNL     1      -4.104  10.577  -7.757  1.00  0.00    -0.014 A 
ATOM     82  C   UNL     1      -2.835   9.968  -7.685  1.00  0.00     0.010 A 
ATOM     83  C   UNL     1      -4.428  11.305  -8.916  1.00  0.00     0.010 A 
ATOM     84  C   UNL     1      -1.906  10.117  -8.725  1.00  0.00     0.020 A 
ATOM     85  C   UNL     1      -3.517  11.438  -9.965  1.00  0.00     0.020 A 
ATOM     86  C   UNL     1      -2.254  10.855  -9.859  1.00  0.00     0.054 A 
BRANCH  86  87
ATOM     87  S   UNL     1      -1.063  11.020 -11.218  1.00  0.00     0.124 S 
ATOM     88  O   UNL     1      -0.038  11.882 -10.637  1.00  0.00    -0.237 OA
ATOM     89  O   UNL     1      -0.657   9.638 -11.465  1.00  0.00    -0.237 OA
ATOM     90  O   UNL     1      -1.844  11.628 -12.294  1.00  0.00    -0.744 OA
ENDBRANCH  86  87
ENDBRANCH  60  81
ENDBRANCH  34  35
ENDBRANCH  26  29
ENDBRANCH  24  25
ENDBRANCH   1  24
TORSDOF 16
