REMARK SMILES CC[C@@H](Sc1nnc2ccc3ccccc3n12)C(=O)Nc1cccc(C(=O)NCCCNC(=O)c2ccc(-c3c4nc(c(-c5ccc(S(=O)(=O)[O-])cc5)c5ccc([nH]5)c(-c5ccc(S(=O)(=O)[O-])cc5)c5nc(c(-c6ccc(S(=O)(=O)[O-])cc6)c6ccc3[nH]6)C=C5)C=C4)cc2)c1
REMARK SMILES IDX 29 1 28 2 26 3 27 4 25 6 21 7 22 8 95 9 23 10 24 11 20 12
REMARK SMILES IDX 18 13 19 14 3 16 2 17 1 18 4 19 5 20 6 21 17 22 7 23 8 24
REMARK SMILES IDX 16 25 9 26 11 27 15 28 10 29 12 30 14 31 13 32 30 33 31 34
REMARK SMILES IDX 32 35 33 36 34 38 35 39 36 40 94 41 37 42 93 43 38 44 39 45
REMARK SMILES IDX 40 46 87 47 41 48 92 49 86 50 88 51 42 52 91 53 85 54 84 55
REMARK SMILES IDX 43 57 73 58 54 59 72 60 55 61 58 62 71 63 89 64 56 65 57 66
REMARK SMILES IDX 70 68 90 69 59 70 44 71 45 72 53 73 46 74 52 75 47 76 48 77
REMARK SMILES IDX 49 78 50 79 51 80 74 81 75 82 83 83 76 84 82 85 77 86 78 87
REMARK SMILES IDX 79 88 80 89 81 90 60 91 61 92 69 93 62 94 68 95 63 96 64 97
REMARK SMILES IDX 65 98 66 99 67 100
REMARK H PARENT 28 5 20 15 32 37 88 56 58 67
REMARK Flexibility Score: inf
ROOT
ATOM      1  C   UNL     1      -4.055  -4.949  -3.429  1.00  0.00     0.118 C 
ENDROOT
BRANCH   1   2
ATOM      2  N   UNL     1      -4.745  -4.595  -2.203  1.00  0.00    -0.352 N 
ATOM      3  C   UNL     1      -4.766  -3.501  -1.377  1.00  0.00     0.251 C 
ATOM      4  O   UNL     1      -5.579  -3.552  -0.448  1.00  0.00    -0.269 OA
ATOM      5  H   UNL     1      -5.341  -5.313  -1.888  1.00  0.00     0.163 HD
BRANCH   3   6
ATOM      6  C   UNL     1      -3.884  -2.298  -1.481  1.00  0.00     0.041 A 
ATOM      7  C   UNL     1      -2.062  -0.991  -2.408  1.00  0.00     0.041 A 
ATOM      8  C   UNL     1      -2.225  -0.035  -1.418  1.00  0.00     0.026 A 
ATOM      9  C   UNL     1      -3.001  -2.015  -2.522  1.00  0.00     0.040 A 
ATOM     10  C   UNL     1      -3.148  -0.240  -0.401  1.00  0.00     0.003 A 
ATOM     11  C   UNL     1      -3.927  -1.395  -0.402  1.00  0.00     0.014 A 
BRANCH   7  12
ATOM     12  N   UNL     1      -0.968  -1.030  -3.292  1.00  0.00    -0.325 N 
ATOM     13  C   UNL     1       0.318  -1.433  -2.982  1.00  0.00     0.237 C 
ATOM     14  O   UNL     1       0.974  -1.926  -3.906  1.00  0.00    -0.273 OA
ATOM     15  H   UNL     1      -1.134  -0.744  -4.219  1.00  0.00     0.169 HD
BRANCH  13  16
ATOM     16  C   UNL     1       0.966  -1.306  -1.580  1.00  0.00     0.144 C 
BRANCH  16  17
ATOM     17  C   UNL     1       1.098   0.206  -1.300  1.00  0.00     0.021 C 
ATOM     18  C   UNL     1       1.651   0.716   0.009  1.00  0.00     0.005 C 
ENDBRANCH  16  17
BRANCH  16  19
ATOM     19  S   UNL     1       0.217  -2.626  -0.499  1.00  0.00    -0.072 SA
BRANCH  19  20
ATOM     20  C   UNL     1       1.129  -2.612   0.973  1.00  0.00     0.196 A 
ATOM     21  N   UNL     1       1.354  -1.484   1.604  1.00  0.00    -0.122 NA
ATOM     22  N   UNL     1       1.505  -3.676   1.793  1.00  0.00    -0.270 N 
ATOM     23  N   UNL     1       1.871  -1.737   2.829  1.00  0.00    -0.129 NA
ATOM     24  C   UNL     1       1.929  -3.038   2.964  1.00  0.00     0.161 A 
ATOM     25  C   UNL     1       1.535  -5.100   1.674  1.00  0.00     0.057 A 
ATOM     26  C   UNL     1       2.331  -3.784   4.092  1.00  0.00     0.050 A 
ATOM     27  C   UNL     1       1.963  -5.819   2.821  1.00  0.00    -0.001 A 
ATOM     28  C   UNL     1       1.211  -5.804   0.514  1.00  0.00     0.027 A 
ATOM     29  C   UNL     1       2.346  -5.119   4.050  1.00  0.00     0.014 A 
ATOM     30  C   UNL     1       2.044  -7.216   2.798  1.00  0.00     0.010 A 
ATOM     31  C   UNL     1       1.303  -7.206   0.505  1.00  0.00     0.002 A 
ATOM     32  C   UNL     1       1.714  -7.909   1.639  1.00  0.00     0.001 A 
ENDBRANCH  19  20
ENDBRANCH  16  19
ENDBRANCH  13  16
ENDBRANCH   7  12
ENDBRANCH   3   6
ENDBRANCH   1   2
BRANCH   1  33
ATOM     33  C   UNL     1      -3.379  -6.310  -3.391  1.00  0.00     0.042 C 
BRANCH  33  34
ATOM     34  C   UNL     1      -4.314  -7.509  -3.318  1.00  0.00     0.118 C 
BRANCH  34  35
ATOM     35  N   UNL     1      -5.414  -7.484  -4.260  1.00  0.00    -0.352 N 
ATOM     36  C   UNL     1      -5.599  -7.905  -5.546  1.00  0.00     0.251 C 
ATOM     37  H   UNL     1      -6.221  -7.064  -3.883  1.00  0.00     0.163 HD
ATOM     38  O   UNL     1      -6.767  -7.881  -5.947  1.00  0.00    -0.269 OA
BRANCH  36  39
ATOM     39  C   UNL     1      -4.525  -8.308  -6.497  1.00  0.00     0.039 A 
ATOM     40  C   UNL     1      -3.156  -8.298  -6.238  1.00  0.00     0.014 A 
ATOM     41  C   UNL     1      -4.954  -8.628  -7.800  1.00  0.00     0.014 A 
ATOM     42  C   UNL     1      -2.240  -8.454  -7.279  1.00  0.00     0.010 A 
ATOM     43  C   UNL     1      -4.045  -8.822  -8.835  1.00  0.00     0.010 A 
ATOM     44  C   UNL     1      -2.686  -8.670  -8.587  1.00  0.00    -0.014 A 
BRANCH  44  45
ATOM     45  C   UNL     1      -1.690  -8.791  -9.650  1.00  0.00     0.031 A 
ATOM     46  C   UNL     1      -0.717  -9.913  -9.503  1.00  0.00     0.074 A 
ATOM     47  C   UNL     1      -1.669  -8.015 -10.754  1.00  0.00     0.049 A 
ATOM     48  N   UNL     1       0.567  -9.840  -9.374  1.00  0.00    -0.248 NA
ATOM     49  C   UNL     1      -1.252 -11.278  -9.400  1.00  0.00     0.031 C 
ATOM     50  C   UNL     1      -2.675  -7.058 -11.223  1.00  0.00     0.029 A 
ATOM     51  N   UNL     1      -0.749  -8.004 -11.758  1.00  0.00    -0.354 N 
ATOM     52  C   UNL     1       1.034 -11.152  -9.302  1.00  0.00     0.074 A 
ATOM     53  C   UNL     1      -0.137 -11.992  -9.229  1.00  0.00     0.031 C 
ATOM     54  C   UNL     1      -2.427  -6.747 -12.517  1.00  0.00     0.029 A 
ATOM     55  C   UNL     1      -1.165  -7.351 -12.911  1.00  0.00     0.049 A 
ATOM     56  H   UNL     1       0.138  -8.424 -11.674  1.00  0.00     0.167 HD
ATOM     57  C   UNL     1       2.353 -11.473  -9.423  1.00  0.00     0.031 A 
ATOM     58  C   UNL     1      -0.542  -7.366 -14.117  1.00  0.00     0.031 A 
ATOM     59  C   UNL     1       3.201 -10.322  -9.291  1.00  0.00     0.049 A 
ATOM     60  C   UNL     1       0.877  -7.722 -13.870  1.00  0.00     0.074 A 
ATOM     61  C   UNL     1       3.485  -9.448  -8.261  1.00  0.00     0.029 A 
ATOM     62  N   UNL     1       3.637  -9.710 -10.441  1.00  0.00    -0.354 N 
ATOM     63  N   UNL     1       1.715  -6.954 -13.232  1.00  0.00    -0.248 NA
ATOM     64  C   UNL     1       1.259  -9.122 -13.968  1.00  0.00     0.031 C 
ATOM     65  C   UNL     1       3.609  -8.177  -8.888  1.00  0.00     0.029 A 
ATOM     66  C   UNL     1       3.463  -8.361 -10.265  1.00  0.00     0.049 A 
ATOM     67  H   UNL     1       4.004 -10.155 -11.239  1.00  0.00     0.167 HD
ATOM     68  C   UNL     1       2.495  -7.826 -12.489  1.00  0.00     0.074 A 
ATOM     69  C   UNL     1       2.229  -9.149 -13.052  1.00  0.00     0.031 C 
ATOM     70  C   UNL     1       3.077  -7.440 -11.316  1.00  0.00     0.031 A 
BRANCH  57  71
ATOM     71  C   UNL     1       2.880 -12.805  -9.883  1.00  0.00    -0.014 A 
ATOM     72  C   UNL     1       2.093 -13.727 -10.602  1.00  0.00     0.010 A 
ATOM     73  C   UNL     1       4.263 -13.073  -9.800  1.00  0.00     0.010 A 
ATOM     74  C   UNL     1       2.643 -14.875 -11.179  1.00  0.00     0.020 A 
ATOM     75  C   UNL     1       4.832 -14.200 -10.411  1.00  0.00     0.020 A 
ATOM     76  C   UNL     1       4.012 -15.100 -11.090  1.00  0.00     0.054 A 
BRANCH  76  77
ATOM     77  S   UNL     1       4.699 -16.549 -11.930  1.00  0.00     0.124 S 
ATOM     78  O   UNL     1       4.129 -17.646 -11.151  1.00  0.00    -0.237 OA
ATOM     79  O   UNL     1       4.177 -16.402 -13.285  1.00  0.00    -0.237 OA
ATOM     80  O   UNL     1       6.143 -16.374 -11.796  1.00  0.00    -0.744 OA
ENDBRANCH  76  77
ENDBRANCH  57  71
BRANCH  58  81
ATOM     81  C   UNL     1      -1.176  -7.603 -15.442  1.00  0.00    -0.014 A 
ATOM     82  C   UNL     1      -2.414  -8.273 -15.521  1.00  0.00     0.010 A 
ATOM     83  C   UNL     1      -0.408  -7.497 -16.620  1.00  0.00     0.010 A 
ATOM     84  C   UNL     1      -2.814  -8.918 -16.695  1.00  0.00     0.020 A 
ATOM     85  C   UNL     1      -0.803  -8.146 -17.802  1.00  0.00     0.020 A 
ATOM     86  C   UNL     1      -1.982  -8.894 -17.812  1.00  0.00     0.054 A 
BRANCH  86  87
ATOM     87  S   UNL     1      -2.405  -9.954 -19.225  1.00  0.00     0.124 S 
ATOM     88  O   UNL     1      -2.217 -11.292 -18.661  1.00  0.00    -0.237 OA
ATOM     89  O   UNL     1      -3.796  -9.582 -19.492  1.00  0.00    -0.237 OA
ATOM     90  O   UNL     1      -1.451  -9.568 -20.251  1.00  0.00    -0.744 OA
ENDBRANCH  86  87
ENDBRANCH  58  81
BRANCH  70  91
ATOM     91  C   UNL     1       3.087  -5.972 -10.943  1.00  0.00    -0.014 A 
ATOM     92  C   UNL     1       4.315  -5.422 -10.528  1.00  0.00     0.010 A 
ATOM     93  C   UNL     1       1.921  -5.196 -10.786  1.00  0.00     0.010 A 
ATOM     94  C   UNL     1       4.377  -4.158  -9.940  1.00  0.00     0.020 A 
ATOM     95  C   UNL     1       1.980  -3.912 -10.221  1.00  0.00     0.020 A 
ATOM     96  C   UNL     1       3.208  -3.413  -9.781  1.00  0.00     0.054 A 
BRANCH  96  97
ATOM     97  S   UNL     1       3.336  -1.802  -8.956  1.00  0.00     0.124 S 
ATOM     98  O   UNL     1       3.687  -2.183  -7.590  1.00  0.00    -0.237 OA
ATOM     99  O   UNL     1       4.399  -1.141  -9.710  1.00  0.00    -0.237 OA
ATOM    100  O   UNL     1       2.007  -1.215  -9.117  1.00  0.00    -0.744 OA
ENDBRANCH  96  97
ENDBRANCH  70  91
ENDBRANCH  44  45
ENDBRANCH  36  39
ENDBRANCH  34  35
ENDBRANCH  33  34
ENDBRANCH   1  33
TORSDOF 18
