REMARK SMILES O=C(C[C@H]1S/C(=[NH+]\c2ccccc2)N(NC(=O)c2ccc([N+](=O)[O-])cc2)C1=O)NCCCNC(=O)c1ccc(-c2c3nc(c(-c4ccc(S(=O)(=O)[O-])cc4)c4ccc([nH]4)c(-c4ccc(S(=O)(=O)[O-])cc4)c4nc(c(-c5ccc(S(=O)(=O)[O-])cc5)c5ccc2[nH]5)C=C4)C=C3)cc1
REMARK SMILES IDX 30 1 29 2 1 3 2 4 3 6 4 7 5 8 27 9 6 10 14 11 28 12 7 13
REMARK SMILES IDX 15 15 16 16 17 18 18 19 19 20 26 21 20 22 25 23 21 24 22 25
REMARK SMILES IDX 23 26 24 27 8 28 9 29 13 30 10 31 12 32 11 33 31 34 32 35
REMARK SMILES IDX 33 36 34 37 35 39 36 40 37 41 95 42 38 43 94 44 39 45 40 46
REMARK SMILES IDX 41 47 88 48 42 49 93 50 87 51 89 52 43 53 92 54 86 55 85 56
REMARK SMILES IDX 44 58 74 59 55 60 73 61 56 62 59 63 72 64 90 65 57 66 58 67
REMARK SMILES IDX 71 69 91 70 60 71 45 72 46 73 54 74 47 75 53 76 48 77 49 78
REMARK SMILES IDX 50 79 51 80 52 81 75 82 76 83 84 84 77 85 83 86 78 87 79 88
REMARK SMILES IDX 80 89 81 90 82 91 61 92 62 93 70 94 63 95 69 96 64 97 65 98
REMARK SMILES IDX 66 99 67 100 68 101
REMARK H PARENT 29 5 7 14 15 17 33 38 89 57 59 68
REMARK Flexibility Score: inf
ROOT
ATOM      1  C   UNL     1       2.156  -2.346   0.938  1.00  0.00     0.117 C 
ENDROOT
BRANCH   1   2
ATOM      2  N   UNL     1       2.775  -1.134   0.431  1.00  0.00    -0.356 N 
ATOM      3  O   UNL     1       0.838   0.035   0.023  1.00  0.00    -0.275 OA
ATOM      4  C   UNL     1       2.061  -0.032   0.022  1.00  0.00     0.221 C 
ATOM      5  H   UNL     1       3.757  -1.099   0.378  1.00  0.00     0.163 HD
BRANCH   4   6
ATOM      6  C   UNL     1       2.923   1.123  -0.446  1.00  0.00     0.127 C 
BRANCH   6   7
ATOM      7  C   UNL     1       3.727   1.714   0.705  1.00  0.00     0.185 C 
ATOM      8  S   UNL     1       5.250   0.771   1.014  1.00  0.00    -0.019 SA
ATOM      9  C   UNL     1       4.181   3.124   0.398  1.00  0.00     0.347 C 
ATOM     10  C   UNL     1       6.304   2.119   0.665  1.00  0.00     0.343 C 
ATOM     11  N   UNL     1       5.563   3.238   0.364  1.00  0.00    -0.078 N 
ATOM     12  O   UNL     1       3.405   4.062   0.229  1.00  0.00    -0.243 OA
ATOM     13  N   UNL     1       7.589   2.088   0.657  1.00  0.00    -0.233 N 
ATOM     14  H   UNL     1       8.073   2.945   0.670  1.00  0.00     0.313 HD
BRANCH  11  15
ATOM     15  N   UNL     1       6.052   4.547   0.165  1.00  0.00    -0.182 N 
ATOM     16  C   UNL     1       7.151   5.043  -0.497  1.00  0.00     0.286 C 
ATOM     17  H   UNL     1       5.495   5.244   0.582  1.00  0.00     0.217 HD
ATOM     18  O   UNL     1       7.271   6.263  -0.623  1.00  0.00    -0.266 OA
BRANCH  16  19
ATOM     19  C   UNL     1       8.253   4.214  -1.004  1.00  0.00     0.043 A 
ATOM     20  C   UNL     1       9.505   4.377  -0.387  1.00  0.00     0.021 A 
ATOM     21  C   UNL     1       8.091   3.315  -2.062  1.00  0.00     0.021 A 
ATOM     22  C   UNL     1      10.577   3.563  -0.753  1.00  0.00     0.086 A 
ATOM     23  C   UNL     1       9.168   2.502  -2.439  1.00  0.00     0.086 A 
ATOM     24  C   UNL     1      10.395   2.604  -1.758  1.00  0.00     0.269 A 
BRANCH  24  25
ATOM     25  N   UNL     1      11.485   1.667  -2.065  1.00  0.00     0.062 N 
ATOM     26  O   UNL     1      12.522   1.750  -1.390  1.00  0.00    -0.258 OA
ATOM     27  O   UNL     1      11.304   0.857  -2.984  1.00  0.00    -0.258 OA
ENDBRANCH  24  25
ENDBRANCH  16  19
ENDBRANCH  11  15
BRANCH  13  28
ATOM     28  C   UNL     1       8.344   0.905   0.632  1.00  0.00     0.125 A 
ATOM     29  C   UNL     1       9.486   0.821   1.430  1.00  0.00     0.051 A 
ATOM     30  C   UNL     1       8.154  -0.062  -0.370  1.00  0.00     0.051 A 
ATOM     31  C   UNL     1      10.418  -0.203   1.232  1.00  0.00     0.004 A 
ATOM     32  C   UNL     1       9.075  -1.093  -0.561  1.00  0.00     0.004 A 
ATOM     33  C   UNL     1      10.213  -1.156   0.236  1.00  0.00     0.000 A 
ENDBRANCH  13  28
ENDBRANCH   6   7
ENDBRANCH   4   6
ENDBRANCH   1   2
BRANCH   1  34
ATOM     34  C   UNL     1       2.518  -3.570   0.104  1.00  0.00     0.042 C 
BRANCH  34  35
ATOM     35  C   UNL     1       4.009  -3.897   0.054  1.00  0.00     0.118 C 
BRANCH  35  36
ATOM     36  N   UNL     1       4.563  -4.278   1.346  1.00  0.00    -0.352 N 
ATOM     37  C   UNL     1       5.177  -5.445   1.742  1.00  0.00     0.251 C 
ATOM     38  H   UNL     1       4.487  -3.591   2.047  1.00  0.00     0.163 HD
ATOM     39  O   UNL     1       5.447  -5.610   2.926  1.00  0.00    -0.269 OA
BRANCH  37  40
ATOM     40  C   UNL     1       5.479  -6.512   0.759  1.00  0.00     0.039 A 
ATOM     41  C   UNL     1       5.178  -7.836   1.093  1.00  0.00     0.014 A 
ATOM     42  C   UNL     1       6.059  -6.222  -0.478  1.00  0.00     0.014 A 
ATOM     43  C   UNL     1       5.369  -8.852   0.152  1.00  0.00     0.010 A 
ATOM     44  C   UNL     1       6.183  -7.225  -1.440  1.00  0.00     0.010 A 
ATOM     45  C   UNL     1       5.823  -8.549  -1.141  1.00  0.00    -0.014 A 
BRANCH  45  46
ATOM     46  C   UNL     1       5.878  -9.587  -2.206  1.00  0.00     0.031 A 
ATOM     47  C   UNL     1       7.189  -9.973  -2.837  1.00  0.00     0.074 A 
ATOM     48  C   UNL     1       4.730 -10.130  -2.661  1.00  0.00     0.049 A 
ATOM     49  N   UNL     1       7.414 -10.796  -3.830  1.00  0.00    -0.248 NA
ATOM     50  C   UNL     1       8.401  -9.339  -2.296  1.00  0.00     0.031 C 
ATOM     51  C   UNL     1       3.389  -9.821  -2.158  1.00  0.00     0.029 A 
ATOM     52  N   UNL     1       4.504 -11.049  -3.657  1.00  0.00    -0.354 N 
ATOM     53  C   UNL     1       8.787 -10.770  -4.042  1.00  0.00     0.074 A 
ATOM     54  C   UNL     1       9.338  -9.816  -3.103  1.00  0.00     0.031 C 
ATOM     55  C   UNL     1       2.486 -10.551  -2.832  1.00  0.00     0.029 A 
ATOM     56  C   UNL     1       3.173 -11.342  -3.847  1.00  0.00     0.049 A 
ATOM     57  H   UNL     1       5.226 -11.459  -4.185  1.00  0.00     0.167 HD
ATOM     58  C   UNL     1       9.524 -11.484  -4.927  1.00  0.00     0.031 A 
ATOM     59  C   UNL     1       2.567 -12.142  -4.747  1.00  0.00     0.031 A 
ATOM     60  C   UNL     1       8.974 -12.432  -5.862  1.00  0.00     0.049 A 
ATOM     61  C   UNL     1       3.404 -12.894  -5.744  1.00  0.00     0.074 A 
ATOM     62  C   UNL     1       9.648 -13.241  -6.762  1.00  0.00     0.029 A 
ATOM     63  N   UNL     1       7.622 -12.694  -6.026  1.00  0.00    -0.354 N 
ATOM     64  N   UNL     1       4.708 -12.904  -5.884  1.00  0.00    -0.248 NA
ATOM     65  C   UNL     1       2.688 -13.748  -6.702  1.00  0.00     0.031 C 
ATOM     66  C   UNL     1       8.700 -13.944  -7.513  1.00  0.00     0.029 A 
ATOM     67  C   UNL     1       7.439 -13.625  -7.036  1.00  0.00     0.049 A 
ATOM     68  H   UNL     1       6.899 -12.280  -5.502  1.00  0.00     0.167 HD
ATOM     69  C   UNL     1       4.969 -13.781  -6.931  1.00  0.00     0.074 A 
ATOM     70  C   UNL     1       3.690 -14.297  -7.374  1.00  0.00     0.031 C 
ATOM     71  C   UNL     1       6.162 -14.127  -7.476  1.00  0.00     0.031 A 
BRANCH  58  72
ATOM     72  C   UNL     1      11.015 -11.257  -4.939  1.00  0.00    -0.014 A 
ATOM     73  C   UNL     1      11.824 -11.685  -3.870  1.00  0.00     0.010 A 
ATOM     74  C   UNL     1      11.622 -10.653  -6.055  1.00  0.00     0.010 A 
ATOM     75  C   UNL     1      13.205 -11.474  -3.899  1.00  0.00     0.020 A 
ATOM     76  C   UNL     1      13.007 -10.468  -6.101  1.00  0.00     0.020 A 
ATOM     77  C   UNL     1      13.788 -10.864  -5.014  1.00  0.00     0.054 A 
BRANCH  77  78
ATOM     78  S   UNL     1      15.585 -10.623  -5.032  1.00  0.00     0.124 S 
ATOM     79  O   UNL     1      15.755  -9.559  -4.045  1.00  0.00    -0.237 OA
ATOM     80  O   UNL     1      16.087 -11.935  -4.633  1.00  0.00    -0.237 OA
ATOM     81  O   UNL     1      15.872 -10.243  -6.413  1.00  0.00    -0.744 OA
ENDBRANCH  77  78
ENDBRANCH  58  72
BRANCH  59  82
ATOM     82  C   UNL     1       1.083 -12.269  -4.747  1.00  0.00    -0.014 A 
ATOM     83  C   UNL     1       0.469 -13.472  -4.357  1.00  0.00     0.010 A 
ATOM     84  C   UNL     1       0.275 -11.182  -5.130  1.00  0.00     0.010 A 
ATOM     85  C   UNL     1      -0.924 -13.592  -4.367  1.00  0.00     0.020 A 
ATOM     86  C   UNL     1      -1.119 -11.289  -5.112  1.00  0.00     0.020 A 
ATOM     87  C   UNL     1      -1.709 -12.498  -4.741  1.00  0.00     0.054 A 
BRANCH  87  88
ATOM     88  S   UNL     1      -3.516 -12.661  -4.696  1.00  0.00     0.124 S 
ATOM     89  O   UNL     1      -3.771 -13.525  -5.844  1.00  0.00    -0.237 OA
ATOM     90  O   UNL     1      -3.744 -13.265  -3.386  1.00  0.00    -0.237 OA
ATOM     91  O   UNL     1      -3.987 -11.284  -4.830  1.00  0.00    -0.744 OA
ENDBRANCH  87  88
ENDBRANCH  59  82
BRANCH  71  92
ATOM     92  C   UNL     1       6.147 -15.130  -8.600  1.00  0.00    -0.014 A 
ATOM     93  C   UNL     1       5.662 -14.790  -9.875  1.00  0.00     0.010 A 
ATOM     94  C   UNL     1       6.678 -16.417  -8.391  1.00  0.00     0.010 A 
ATOM     95  C   UNL     1       5.681 -15.726 -10.913  1.00  0.00     0.020 A 
ATOM     96  C   UNL     1       6.726 -17.346  -9.434  1.00  0.00     0.020 A 
ATOM     97  C   UNL     1       6.215 -16.999 -10.686  1.00  0.00     0.054 A 
BRANCH  97  98
ATOM     98  S   UNL     1       6.271 -18.179 -12.062  1.00  0.00     0.124 S 
ATOM     99  O   UNL     1       4.865 -18.542 -12.210  1.00  0.00    -0.237 OA
ATOM    100  O   UNL     1       6.830 -17.377 -13.148  1.00  0.00    -0.237 OA
ATOM    101  O   UNL     1       7.142 -19.244 -11.571  1.00  0.00    -0.744 OA
ENDBRANCH  97  98
ENDBRANCH  71  92
ENDBRANCH  45  46
ENDBRANCH  37  40
ENDBRANCH  35  36
ENDBRANCH  34  35
ENDBRANCH   1  34
TORSDOF 18
