REMARK SMILES Cc1ccc([C@@]23C[C@@H]4C[C@@H](C[C@@](C(=O)N5CCC(C(=O)NCCCNC(=O)c6ccc(-c7c8nc(c(-c9ccc(S(=O)(=O)[O-])cc9)c9ccc([nH]9)c(-c9ccc(S(=O)(=O)[O-])cc9)c9nc(c(-c%10ccc(S(=O)(=O)[O-])cc%10)c%10ccc7[nH]%10)C=C9)C=C8)cc6)CC5)(C4)C2)C3)cc1
REMARK SMILES IDX 23 1 22 2 21 3 19 4 20 5 18 7 13 8 14 9 15 10 16 11 89 12
REMARK SMILES IDX 17 13 88 14 12 15 6 16 7 17 91 18 92 19 8 20 10 21 9 22
REMARK SMILES IDX 90 23 11 24 5 25 1 26 2 27 3 28 94 29 4 30 93 31 24 32 25 33
REMARK SMILES IDX 26 34 27 36 28 37 29 38 87 39 30 40 86 41 31 42 32 43 33 44
REMARK SMILES IDX 80 45 34 46 85 47 79 48 81 49 35 50 84 51 78 52 77 53 36 55
REMARK SMILES IDX 66 56 47 57 65 58 48 59 51 60 64 61 82 62 49 63 50 64 63 66
REMARK SMILES IDX 83 67 52 68 37 69 38 70 46 71 39 72 45 73 40 74 41 75 42 76
REMARK SMILES IDX 43 77 44 78 67 79 68 80 76 81 69 82 75 83 70 84 71 85 72 86
REMARK SMILES IDX 73 87 74 88 53 89 54 90 62 91 55 92 61 93 56 94 57 95 58 96
REMARK SMILES IDX 59 97 60 98
REMARK H PARENT 21 6 25 35 81 54 51 65
REMARK Flexibility Score: inf
ROOT
ATOM      1  C   UNL     1      -8.932  -1.884  -3.244  1.00  0.00     0.042 C 
ENDROOT
BRANCH   1   2
ATOM      2  C   UNL     1      -8.813  -3.377  -2.974  1.00  0.00     0.117 C 
BRANCH   2   3
ATOM      3  N   UNL     1      -8.450  -4.141  -4.169  1.00  0.00    -0.356 N 
ATOM      4  C   UNL     1      -7.283  -4.744  -4.533  1.00  0.00     0.223 C 
ATOM      5  O   UNL     1      -7.242  -5.355  -5.604  1.00  0.00    -0.275 OA
ATOM      6  H   UNL     1      -9.177  -4.236  -4.825  1.00  0.00     0.163 HD
BRANCH   4   7
ATOM      7  C   UNL     1      -6.029  -4.657  -3.671  1.00  0.00     0.082 C 
ATOM      8  C   UNL     1      -5.724  -2.525  -0.311  1.00  0.00     0.228 C 
ATOM      9  O   UNL     1      -6.502  -2.992   0.526  1.00  0.00    -0.274 OA
ATOM     10  N   UNL     1      -5.159  -3.351  -1.284  1.00  0.00    -0.342 N 
ATOM     11  C   UNL     1      -5.345  -4.793  -1.185  1.00  0.00     0.120 C 
ATOM     12  C   UNL     1      -4.520  -2.965  -2.538  1.00  0.00     0.120 C 
ATOM     13  C   UNL     1      -6.227  -5.337  -2.303  1.00  0.00     0.035 C 
ATOM     14  C   UNL     1      -5.490  -3.221  -3.672  1.00  0.00     0.035 C 
BRANCH   8  15
ATOM     15  C   UNL     1      -5.288  -1.041  -0.196  1.00  0.00     0.051 C 
ATOM     16  C   UNL     1      -3.160   0.392   0.067  1.00  0.00    -0.003 C 
ATOM     17  C   UNL     1      -3.663   1.197  -1.169  1.00  0.00     0.015 C 
ATOM     18  C   UNL     1      -3.757  -1.027  -0.044  1.00  0.00     0.028 C 
ATOM     19  C   UNL     1      -3.752   1.029   1.350  1.00  0.00     0.015 C 
ATOM     20  C   UNL     1      -5.203   1.268  -1.212  1.00  0.00    -0.009 C 
ATOM     21  C   UNL     1      -5.293   1.046   1.285  1.00  0.00    -0.009 C 
ATOM     22  C   UNL     1      -5.725   1.901   0.085  1.00  0.00     0.007 C 
ATOM     23  C   UNL     1      -5.787  -0.146  -1.348  1.00  0.00     0.020 C 
ATOM     24  C   UNL     1      -5.838  -0.391   1.113  1.00  0.00     0.020 C 
BRANCH  16  25
ATOM     25  C   UNL     1      -1.621   0.341   0.115  1.00  0.00    -0.042 A 
ATOM     26  C   UNL     1       2.719   0.183   0.010  1.00  0.00     0.044 C 
ATOM     27  C   UNL     1       1.224   0.257   0.074  1.00  0.00    -0.051 A 
ATOM     28  C   UNL     1       0.484  -0.920   0.143  1.00  0.00     0.004 A 
ATOM     29  C   UNL     1       0.543   1.477   0.050  1.00  0.00     0.004 A 
ATOM     30  C   UNL     1      -0.911  -0.875   0.172  1.00  0.00     0.004 A 
ATOM     31  C   UNL     1      -0.858   1.518   0.075  1.00  0.00     0.004 A 
ENDBRANCH  16  25
ENDBRANCH   8  15
ENDBRANCH   4   7
ENDBRANCH   2   3
ENDBRANCH   1   2
BRANCH   1  32
ATOM     32  C   UNL     1     -10.257  -1.500  -3.877  1.00  0.00     0.118 C 
BRANCH  32  33
ATOM     33  N   UNL     1     -11.092  -0.702  -2.986  1.00  0.00    -0.352 N 
ATOM     34  C   UNL     1     -12.161   0.094  -3.341  1.00  0.00     0.251 C 
ATOM     35  H   UNL     1     -10.869  -0.735  -2.028  1.00  0.00     0.163 HD
ATOM     36  O   UNL     1     -12.678   0.907  -2.575  1.00  0.00    -0.269 OA
BRANCH  34  37
ATOM     37  C   UNL     1     -12.745  -0.164  -4.665  1.00  0.00     0.039 A 
ATOM     38  C   UNL     1     -13.893  -0.965  -4.698  1.00  0.00     0.014 A 
ATOM     39  C   UNL     1     -11.967   0.047  -5.800  1.00  0.00     0.014 A 
ATOM     40  C   UNL     1     -14.165  -1.711  -5.838  1.00  0.00     0.010 A 
ATOM     41  C   UNL     1     -12.185  -0.770  -6.891  1.00  0.00     0.010 A 
ATOM     42  C   UNL     1     -13.254  -1.680  -6.892  1.00  0.00    -0.014 A 
BRANCH  42  43
ATOM     43  C   UNL     1     -13.303  -2.598  -8.021  1.00  0.00     0.031 A 
ATOM     44  C   UNL     1     -13.737  -2.091  -9.344  1.00  0.00     0.074 A 
ATOM     45  C   UNL     1     -12.910  -3.886  -7.899  1.00  0.00     0.049 A 
ATOM     46  N   UNL     1     -14.178  -2.839 -10.300  1.00  0.00    -0.248 NA
ATOM     47  C   UNL     1     -13.743  -0.668  -9.679  1.00  0.00     0.031 C 
ATOM     48  C   UNL     1     -12.618  -4.819  -8.988  1.00  0.00     0.029 A 
ATOM     49  N   UNL     1     -12.794  -4.695  -6.781  1.00  0.00    -0.354 N 
ATOM     50  C   UNL     1     -14.204  -2.068 -11.435  1.00  0.00     0.074 A 
ATOM     51  C   UNL     1     -14.005  -0.709 -10.987  1.00  0.00     0.031 C 
ATOM     52  C   UNL     1     -12.669  -6.073  -8.509  1.00  0.00     0.029 A 
ATOM     53  C   UNL     1     -13.167  -5.991  -7.149  1.00  0.00     0.049 A 
ATOM     54  H   UNL     1     -12.501  -4.408  -5.886  1.00  0.00     0.167 HD
ATOM     55  C   UNL     1     -14.240  -2.659 -12.661  1.00  0.00     0.031 A 
ATOM     56  C   UNL     1     -14.305  -6.610  -6.705  1.00  0.00     0.031 A 
ATOM     57  C   UNL     1     -14.346  -4.114 -12.582  1.00  0.00     0.049 A 
ATOM     58  C   UNL     1     -15.299  -6.960  -7.812  1.00  0.00     0.074 A 
ATOM     59  C   UNL     1     -13.468  -5.168 -12.774  1.00  0.00     0.029 A 
ATOM     60  N   UNL     1     -15.458  -4.659 -11.957  1.00  0.00    -0.354 N 
ATOM     61  N   UNL     1     -15.128  -6.695  -9.079  1.00  0.00    -0.248 NA
ATOM     62  C   UNL     1     -16.612  -7.559  -7.557  1.00  0.00     0.031 C 
ATOM     63  C   UNL     1     -14.066  -6.352 -12.248  1.00  0.00     0.029 A 
ATOM     64  C   UNL     1     -15.313  -6.019 -11.754  1.00  0.00     0.049 A 
ATOM     65  H   UNL     1     -16.252  -4.141 -11.690  1.00  0.00     0.167 HD
ATOM     66  C   UNL     1     -16.264  -7.006  -9.782  1.00  0.00     0.074 A 
ATOM     67  C   UNL     1     -17.163  -7.556  -8.784  1.00  0.00     0.031 C 
ATOM     68  C   UNL     1     -16.402  -6.746 -11.117  1.00  0.00     0.031 A 
BRANCH  55  69
ATOM     69  C   UNL     1     -13.884  -1.875 -13.896  1.00  0.00    -0.014 A 
ATOM     70  C   UNL     1     -13.053  -2.449 -14.876  1.00  0.00     0.010 A 
ATOM     71  C   UNL     1     -14.272  -0.535 -14.098  1.00  0.00     0.010 A 
ATOM     72  C   UNL     1     -12.540  -1.694 -15.939  1.00  0.00     0.020 A 
ATOM     73  C   UNL     1     -13.729   0.244 -15.130  1.00  0.00     0.020 A 
ATOM     74  C   UNL     1     -12.854  -0.340 -16.041  1.00  0.00     0.054 A 
BRANCH  74  75
ATOM     75  S   UNL     1     -12.075   0.648 -17.345  1.00  0.00     0.124 S 
ATOM     76  O   UNL     1     -10.662   0.298 -17.211  1.00  0.00    -0.237 OA
ATOM     77  O   UNL     1     -12.736   0.150 -18.548  1.00  0.00    -0.237 OA
ATOM     78  O   UNL     1     -12.402   2.025 -16.978  1.00  0.00    -0.744 OA
ENDBRANCH  74  75
ENDBRANCH  55  69
BRANCH  56  79
ATOM     79  C   UNL     1     -14.673  -6.251  -5.305  1.00  0.00    -0.014 A 
ATOM     80  C   UNL     1     -13.803  -6.678  -4.278  1.00  0.00     0.010 A 
ATOM     81  C   UNL     1     -15.565  -5.197  -5.045  1.00  0.00     0.010 A 
ATOM     82  C   UNL     1     -13.686  -5.943  -3.096  1.00  0.00     0.020 A 
ATOM     83  C   UNL     1     -15.459  -4.468  -3.851  1.00  0.00     0.020 A 
ATOM     84  C   UNL     1     -14.469  -4.802  -2.923  1.00  0.00     0.054 A 
BRANCH  84  85
ATOM     85  S   UNL     1     -14.019  -3.659  -1.582  1.00  0.00     0.124 S 
ATOM     86  O   UNL     1     -14.196  -4.486  -0.394  1.00  0.00    -0.237 OA
ATOM     87  O   UNL     1     -12.634  -3.327  -1.921  1.00  0.00    -0.237 OA
ATOM     88  O   UNL     1     -14.974  -2.565  -1.737  1.00  0.00    -0.744 OA
ENDBRANCH  84  85
ENDBRANCH  56  79
BRANCH  68  89
ATOM     89  C   UNL     1     -17.613  -7.101 -11.950  1.00  0.00    -0.014 A 
ATOM     90  C   UNL     1     -18.399  -8.243 -11.726  1.00  0.00     0.010 A 
ATOM     91  C   UNL     1     -17.929  -6.325 -13.091  1.00  0.00     0.010 A 
ATOM     92  C   UNL     1     -19.500  -8.540 -12.544  1.00  0.00     0.020 A 
ATOM     93  C   UNL     1     -19.009  -6.622 -13.926  1.00  0.00     0.020 A 
ATOM     94  C   UNL     1     -19.808  -7.718 -13.631  1.00  0.00     0.054 A 
BRANCH  94  95
ATOM     95  S   UNL     1     -21.226  -8.124 -14.679  1.00  0.00     0.124 S 
ATOM     96  O   UNL     1     -21.042  -9.553 -14.925  1.00  0.00    -0.237 OA
ATOM     97  O   UNL     1     -22.351  -7.777 -13.814  1.00  0.00    -0.237 OA
ATOM     98  O   UNL     1     -21.054  -7.269 -15.851  1.00  0.00    -0.744 OA
ENDBRANCH  94  95
ENDBRANCH  68  89
ENDBRANCH  42  43
ENDBRANCH  34  37
ENDBRANCH  32  33
ENDBRANCH   1  32
TORSDOF 15
