REMARK SMILES CCc1cc2c(=O)c(-c3nc(C)cs3)coc2cc1O[C@H](C)C(=O)NCCCNC(=O)c1ccc(-c2c3nc(c(-c4ccc(S(=O)(=O)[O-])cc4)c4ccc([nH]4)c(-c4ccc(S(=O)(=O)[O-])cc4)c4nc(c(-c5ccc(S(=O)(=O)[O-])cc5)c5ccc2[nH]5)C=C4)C=C3)cc1
REMARK SMILES IDX 27 1 26 2 25 3 23 4 24 5 21 7 22 8 20 9 19 10 3 11 4 12 5 13
REMARK SMILES IDX 18 14 6 15 17 16 7 17 8 18 16 19 15 20 2 21 1 22 9 23 10 24
REMARK SMILES IDX 14 25 11 26 13 27 12 28 28 29 29 30 30 31 31 33 32 34 33 35
REMARK SMILES IDX 91 36 34 37 90 38 35 39 36 40 37 41 84 42 38 43 89 44 83 45
REMARK SMILES IDX 85 46 39 47 88 48 82 49 81 50 40 52 70 53 51 54 69 55 52 56
REMARK SMILES IDX 55 57 68 58 86 59 53 60 54 61 67 63 87 64 56 65 41 66 42 67
REMARK SMILES IDX 50 68 43 69 49 70 44 71 45 72 46 73 47 74 48 75 71 76 72 77
REMARK SMILES IDX 80 78 73 79 79 80 74 81 75 82 76 83 77 84 78 85 57 86 58 87
REMARK SMILES IDX 66 88 59 89 65 90 60 91 61 92 62 93 63 94 64 95
REMARK H PARENT 25 6 29 32 85 51 55 62
REMARK Flexibility Score: inf
ROOT
ATOM      1  C   UNL     1       1.721   1.834   2.629  1.00  0.00     0.042 C 
ENDROOT
BRANCH   1   2
ATOM      2  C   UNL     1       1.157   0.758   1.709  1.00  0.00     0.118 C 
BRANCH   2   3
ATOM      3  N   UNL     1      -0.112   0.215   2.151  1.00  0.00    -0.353 N 
ATOM      4  C   UNL     1      -1.369   0.389   1.653  1.00  0.00     0.260 C 
ATOM      5  O   UNL     1      -2.272  -0.288   2.155  1.00  0.00    -0.271 OA
ATOM      6  H   UNL     1      -0.057  -0.374   2.938  1.00  0.00     0.163 HD
BRANCH   4   7
ATOM      7  C   UNL     1      -1.688   1.438   0.564  1.00  0.00     0.258 C 
ATOM      8  C   UNL     1      -1.588   2.833   1.164  1.00  0.00     0.064 C 
BRANCH   7   9
ATOM      9  O   UNL     1      -1.113   1.101  -0.696  1.00  0.00    -0.480 OA
BRANCH   9  10
ATOM     10  C   UNL     1      -0.168   1.770  -1.404  1.00  0.00     0.127 A 
ATOM     11  C   UNL     1       0.632   0.969  -2.253  1.00  0.00    -0.005 A 
ATOM     12  C   UNL     1       1.627   1.565  -3.051  1.00  0.00     0.023 A 
ATOM     13  C   UNL     1       1.845   2.941  -2.991  1.00  0.00     0.066 A 
ATOM     14  C   UNL     1       0.041   3.147  -1.393  1.00  0.00     0.094 A 
ATOM     15  C   UNL     1       2.882   3.587  -3.820  1.00  0.00     0.202 A 
ATOM     16  C   UNL     1       1.064   3.722  -2.152  1.00  0.00     0.141 A 
ATOM     17  O   UNL     1       3.537   2.928  -4.621  1.00  0.00    -0.288 OA
ATOM     18  C   UNL     1       3.067   5.042  -3.610  1.00  0.00     0.094 A 
ATOM     19  O   UNL     1       1.244   5.076  -2.014  1.00  0.00    -0.463 OA
ATOM     20  C   UNL     1       2.269   5.653  -2.721  1.00  0.00     0.211 A 
BRANCH  11  21
ATOM     21  C   UNL     1       0.438  -0.530  -2.350  1.00  0.00     0.036 C 
ATOM     22  C   UNL     1      -0.503  -0.904  -3.486  1.00  0.00     0.009 C 
ENDBRANCH  11  21
BRANCH  18  23
ATOM     23  C   UNL     1       4.066   5.799  -4.278  1.00  0.00     0.130 A 
ATOM     24  N   UNL     1       4.930   6.611  -3.694  1.00  0.00    -0.241 NA
ATOM     25  S   UNL     1       4.142   5.830  -6.009  1.00  0.00    -0.122 S 
ATOM     26  C   UNL     1       5.731   7.249  -4.625  1.00  0.00     0.049 A 
ATOM     27  C   UNL     1       5.425   6.958  -5.937  1.00  0.00     0.090 A 
ATOM     28  C   UNL     1       6.799   8.157  -4.135  1.00  0.00     0.067 C 
ENDBRANCH  18  23
ENDBRANCH   9  10
ENDBRANCH   7   9
ENDBRANCH   4   7
ENDBRANCH   2   3
ENDBRANCH   1   2
BRANCH   1  29
ATOM     29  C   UNL     1       2.072   1.363   4.036  1.00  0.00     0.118 C 
BRANCH  29  30
ATOM     30  N   UNL     1       3.099   0.336   4.047  1.00  0.00    -0.352 N 
ATOM     31  C   UNL     1       4.337   0.299   4.637  1.00  0.00     0.251 C 
ATOM     32  H   UNL     1       2.866  -0.477   3.543  1.00  0.00     0.163 HD
ATOM     33  O   UNL     1       5.091  -0.629   4.349  1.00  0.00    -0.269 OA
BRANCH  31  34
ATOM     34  C   UNL     1       4.788   1.338   5.596  1.00  0.00     0.039 A 
ATOM     35  C   UNL     1       6.150   1.665   5.621  1.00  0.00     0.014 A 
ATOM     36  C   UNL     1       3.927   1.926   6.526  1.00  0.00     0.014 A 
ATOM     37  C   UNL     1       6.637   2.588   6.552  1.00  0.00     0.010 A 
ATOM     38  C   UNL     1       4.398   2.904   7.403  1.00  0.00     0.010 A 
ATOM     39  C   UNL     1       5.763   3.224   7.446  1.00  0.00    -0.014 A 
BRANCH  39  40
ATOM     40  C   UNL     1       6.275   4.181   8.461  1.00  0.00     0.031 A 
ATOM     41  C   UNL     1       6.191   3.849   9.928  1.00  0.00     0.074 A 
ATOM     42  C   UNL     1       6.778   5.367   8.073  1.00  0.00     0.049 A 
ATOM     43  N   UNL     1       6.582   4.556  10.959  1.00  0.00    -0.248 NA
ATOM     44  C   UNL     1       5.560   2.569  10.284  1.00  0.00     0.031 C 
ATOM     45  C   UNL     1       6.859   5.841   6.690  1.00  0.00     0.029 A 
ATOM     46  N   UNL     1       7.312   6.394   8.810  1.00  0.00    -0.354 N 
ATOM     47  C   UNL     1       6.216   3.823  12.082  1.00  0.00     0.074 A 
ATOM     48  C   UNL     1       5.536   2.637  11.607  1.00  0.00     0.031 C 
ATOM     49  C   UNL     1       7.429   7.058   6.677  1.00  0.00     0.029 A 
ATOM     50  C   UNL     1       7.738   7.455   8.048  1.00  0.00     0.049 A 
ATOM     51  H   UNL     1       7.383   6.373   9.792  1.00  0.00     0.167 HD
ATOM     52  C   UNL     1       6.437   4.098  13.391  1.00  0.00     0.031 A 
ATOM     53  C   UNL     1       8.323   8.614   8.408  1.00  0.00     0.031 A 
ATOM     54  C   UNL     1       7.133   5.263  13.866  1.00  0.00     0.049 A 
ATOM     55  C   UNL     1       8.639   8.864   9.854  1.00  0.00     0.074 A 
ATOM     56  C   UNL     1       7.463   5.603  15.167  1.00  0.00     0.029 A 
ATOM     57  N   UNL     1       7.614   6.279  13.054  1.00  0.00    -0.354 N 
ATOM     58  N   UNL     1       8.350   8.124  10.899  1.00  0.00    -0.248 NA
ATOM     59  C   UNL     1       9.386  10.089  10.167  1.00  0.00     0.031 C 
ATOM     60  C   UNL     1       8.123   6.838  15.143  1.00  0.00     0.029 A 
ATOM     61  C   UNL     1       8.235   7.249  13.824  1.00  0.00     0.049 A 
ATOM     62  H   UNL     1       7.527   6.307  12.074  1.00  0.00     0.167 HD
ATOM     63  C   UNL     1       8.898   8.784  11.992  1.00  0.00     0.074 A 
ATOM     64  C   UNL     1       9.546   9.975  11.479  1.00  0.00     0.031 C 
ATOM     65  C   UNL     1       8.870   8.432  13.302  1.00  0.00     0.031 A 
BRANCH  52  66
ATOM     66  C   UNL     1       5.897   3.112  14.392  1.00  0.00    -0.014 A 
ATOM     67  C   UNL     1       6.471   1.835  14.537  1.00  0.00     0.010 A 
ATOM     68  C   UNL     1       4.780   3.453  15.175  1.00  0.00     0.010 A 
ATOM     69  C   UNL     1       5.894   0.892  15.391  1.00  0.00     0.020 A 
ATOM     70  C   UNL     1       4.215   2.521  16.051  1.00  0.00     0.020 A 
ATOM     71  C   UNL     1       4.758   1.236  16.129  1.00  0.00     0.054 A 
BRANCH  71  72
ATOM     72  S   UNL     1       3.996  -0.012  17.203  1.00  0.00     0.124 S 
ATOM     73  O   UNL     1       3.209  -0.787  16.246  1.00  0.00    -0.237 OA
ATOM     74  O   UNL     1       5.150  -0.704  17.771  1.00  0.00    -0.237 OA
ATOM     75  O   UNL     1       3.219   0.780  18.153  1.00  0.00    -0.744 OA
ENDBRANCH  71  72
ENDBRANCH  52  66
BRANCH  53  76
ATOM     76  C   UNL     1       8.693   9.594   7.355  1.00  0.00    -0.014 A 
ATOM     77  C   UNL     1      10.024   9.694   6.913  1.00  0.00     0.010 A 
ATOM     78  C   UNL     1       7.703  10.378   6.736  1.00  0.00     0.010 A 
ATOM     79  C   UNL     1      10.358  10.556   5.865  1.00  0.00     0.020 A 
ATOM     80  C   UNL     1       8.030  11.228   5.676  1.00  0.00     0.020 A 
ATOM     81  C   UNL     1       9.357  11.313   5.248  1.00  0.00     0.054 A 
BRANCH  81  82
ATOM     82  S   UNL     1       9.791  12.345   3.820  1.00  0.00     0.124 S 
ATOM     83  O   UNL     1      10.395  13.510   4.459  1.00  0.00    -0.237 OA
ATOM     84  O   UNL     1      10.708  11.487   3.072  1.00  0.00    -0.237 OA
ATOM     85  O   UNL     1       8.505  12.581   3.168  1.00  0.00    -0.744 OA
ENDBRANCH  81  82
ENDBRANCH  53  76
BRANCH  65  86
ATOM     86  C   UNL     1       9.585   9.335  14.269  1.00  0.00    -0.014 A 
ATOM     87  C   UNL     1       9.039  10.575  14.644  1.00  0.00     0.010 A 
ATOM     88  C   UNL     1      10.806   8.923  14.830  1.00  0.00     0.010 A 
ATOM     89  C   UNL     1       9.725  11.407  15.533  1.00  0.00     0.020 A 
ATOM     90  C   UNL     1      11.485   9.743  15.735  1.00  0.00     0.020 A 
ATOM     91  C   UNL     1      10.948  10.989  16.067  1.00  0.00     0.054 A 
BRANCH  91  92
ATOM     92  S   UNL     1      11.816  12.072  17.235  1.00  0.00     0.124 S 
ATOM     93  O   UNL     1      12.461  13.028  16.339  1.00  0.00    -0.237 OA
ATOM     94  O   UNL     1      10.729  12.610  18.050  1.00  0.00    -0.237 OA
ATOM     95  O   UNL     1      12.721  11.165  17.937  1.00  0.00    -0.744 OA
ENDBRANCH  91  92
ENDBRANCH  65  86
ENDBRANCH  39  40
ENDBRANCH  31  34
ENDBRANCH  29  30
ENDBRANCH   1  29
TORSDOF 17
