REMARK SMILES Cc1cccc(Nc2nc(C)c(CCO)c(OCC(=O)NCCCNC(=O)c3ccc(-c4c5nc(c(-c6ccc(S(=O)(=O)[O-])cc6)c6ccc([nH]6)c(-c6ccc(S(=O)(=O)[O-])cc6)c6nc(c(-c7ccc(S(=O)(=O)[O-])cc7)c7ccc4[nH]7)C=C6)C=C5)cc3)n2)c1
REMARK SMILES IDX 22 1 21 2 19 3 20 4 18 6 17 7 16 8 8 9 9 10 88 11 10 12
REMARK SMILES IDX 11 13 12 14 7 15 6 17 1 18 2 19 3 20 89 21 4 22 5 23 13 24
REMARK SMILES IDX 14 25 15 26 23 28 24 29 25 30 26 31 27 33 28 34 29 35 87 36
REMARK SMILES IDX 30 37 86 38 31 39 32 40 33 41 80 42 34 43 85 44 79 45 81 46
REMARK SMILES IDX 35 47 84 48 78 49 77 50 36 52 66 53 47 54 65 55 48 56 51 57
REMARK SMILES IDX 64 58 82 59 49 60 50 61 63 63 83 64 52 65 37 66 38 67 46 68
REMARK SMILES IDX 39 69 45 70 40 71 41 72 42 73 43 74 44 75 67 76 68 77 76 78
REMARK SMILES IDX 69 79 75 80 70 81 71 82 72 83 73 84 74 85 53 86 54 87 62 88
REMARK SMILES IDX 55 89 61 90 56 91 57 92 58 93 59 94 60 95
REMARK H PARENT 21 5 7 16 15 27 25 32 81 51 51 62
REMARK Flexibility Score: inf
ROOT
ATOM      1  C   UNL     1      -6.788   2.120   5.196  1.00  0.00     0.117 C 
ENDROOT
BRANCH   1   2
ATOM      2  N   UNL     1      -7.548   2.645   4.065  1.00  0.00    -0.353 N 
ATOM      3  C   UNL     1      -7.973   2.155   2.863  1.00  0.00     0.258 C 
ATOM      4  O   UNL     1      -8.898   2.730   2.271  1.00  0.00    -0.271 OA
ATOM      5  H   UNL     1      -7.820   3.581   4.203  1.00  0.00     0.163 HD
BRANCH   3   6
ATOM      6  C   UNL     1      -7.411   0.869   2.252  1.00  0.00     0.331 C 
BRANCH   6   7
ATOM      7  O   UNL     1      -6.106   0.761   1.727  1.00  0.00    -0.467 OA
BRANCH   7   8
ATOM      8  C   UNL     1      -5.560   1.630   0.836  1.00  0.00     0.222 A 
ATOM      9  C   UNL     1      -3.463   2.376   0.207  1.00  0.00     0.230 A 
ATOM     10  N   UNL     1      -3.959   3.140  -0.763  1.00  0.00    -0.218 NA
ATOM     11  N   UNL     1      -4.226   1.643   1.019  1.00  0.00    -0.177 NA
ATOM     12  C   UNL     1      -5.285   3.059  -1.011  1.00  0.00     0.050 A 
ATOM     13  C   UNL     1      -5.690   3.838  -2.232  1.00  0.00     0.067 C 
ATOM     14  C   UNL     1      -6.146   2.230  -0.277  1.00  0.00     0.038 A 
BRANCH   9  15
ATOM     15  N   UNL     1      -2.072   2.260   0.225  1.00  0.00    -0.324 N 
ATOM     16  H   UNL     1      -1.571   3.105   0.283  1.00  0.00     0.170 HD
BRANCH  15  17
ATOM     17  C   UNL     1      -1.296   1.089   0.172  1.00  0.00     0.041 A 
ATOM     18  C   UNL     1       2.411   0.153   0.013  1.00  0.00     0.044 C 
ATOM     19  C   UNL     1       0.917   0.043   0.058  1.00  0.00    -0.049 A 
ATOM     20  C   UNL     1       0.317  -1.219   0.020  1.00  0.00     0.003 A 
ATOM     21  C   UNL     1       0.104   1.187   0.143  1.00  0.00     0.029 A 
ATOM     22  C   UNL     1      -1.068  -1.337   0.083  1.00  0.00     0.002 A 
ATOM     23  C   UNL     1      -1.861  -0.193   0.172  1.00  0.00     0.026 A 
ENDBRANCH  15  17
ENDBRANCH   9  15
BRANCH  14  24
ATOM     24  C   UNL     1      -7.548   1.953  -0.755  1.00  0.00     0.071 C 
BRANCH  24  25
ATOM     25  C   UNL     1      -7.780   0.571  -1.390  1.00  0.00     0.161 C 
BRANCH  25  26
ATOM     26  O   UNL     1      -7.284  -0.530  -0.641  1.00  0.00    -0.396 OA
ATOM     27  H   UNL     1      -6.319  -0.461  -0.566  1.00  0.00     0.210 HD
ENDBRANCH  25  26
ENDBRANCH  24  25
ENDBRANCH  14  24
ENDBRANCH   7   8
ENDBRANCH   6   7
ENDBRANCH   3   6
ENDBRANCH   1   2
BRANCH   1  28
ATOM     28  C   UNL     1      -5.814   3.100   5.985  1.00  0.00     0.042 C 
BRANCH  28  29
ATOM     29  C   UNL     1      -6.428   4.190   6.954  1.00  0.00     0.118 C 
BRANCH  29  30
ATOM     30  N   UNL     1      -5.520   5.043   7.871  1.00  0.00    -0.352 N 
ATOM     31  C   UNL     1      -5.330   6.391   8.292  1.00  0.00     0.251 C 
ATOM     32  H   UNL     1      -4.854   4.464   8.307  1.00  0.00     0.163 HD
ATOM     33  O   UNL     1      -5.186   6.510   9.522  1.00  0.00    -0.269 OA
BRANCH  31  34
ATOM     34  C   UNL     1      -5.243   7.725   7.534  1.00  0.00     0.039 A 
ATOM     35  C   UNL     1      -5.928   8.877   8.019  1.00  0.00     0.014 A 
ATOM     36  C   UNL     1      -4.577   7.913   6.330  1.00  0.00     0.014 A 
ATOM     37  C   UNL     1      -6.319   9.935   7.131  1.00  0.00     0.010 A 
ATOM     38  C   UNL     1      -4.966   8.958   5.446  1.00  0.00     0.010 A 
ATOM     39  C   UNL     1      -5.977   9.873   5.772  1.00  0.00    -0.014 A 
BRANCH  39  40
ATOM     40  C   UNL     1      -6.761  10.544   4.678  1.00  0.00     0.031 A 
ATOM     41  C   UNL     1      -6.317  11.765   4.020  1.00  0.00     0.074 A 
ATOM     42  C   UNL     1      -7.878  10.053   4.078  1.00  0.00     0.049 A 
ATOM     43  N   UNL     1      -7.027  12.841   3.906  1.00  0.00    -0.248 NA
ATOM     44  C   UNL     1      -5.061  11.771   3.290  1.00  0.00     0.031 C 
ATOM     45  C   UNL     1      -8.694  10.497   2.941  1.00  0.00     0.029 A 
ATOM     46  N   UNL     1      -8.545   8.906   4.418  1.00  0.00    -0.354 N 
ATOM     47  C   UNL     1      -6.482  13.509   2.831  1.00  0.00     0.074 A 
ATOM     48  C   UNL     1      -5.165  12.927   2.631  1.00  0.00     0.031 C 
ATOM     49  C   UNL     1      -9.884   9.853   2.959  1.00  0.00     0.029 A 
ATOM     50  C   UNL     1      -9.905   8.986   4.120  1.00  0.00     0.049 A 
ATOM     51  H   UNL     1      -8.116   8.119   4.826  1.00  0.00     0.167 HD
ATOM     52  C   UNL     1      -7.248  14.232   1.958  1.00  0.00     0.031 A 
ATOM     53  C   UNL     1     -10.810   8.906   5.146  1.00  0.00     0.031 A 
ATOM     54  C   UNL     1      -8.690  13.980   2.116  1.00  0.00     0.049 A 
ATOM     55  C   UNL     1     -11.392  10.274   5.418  1.00  0.00     0.074 A 
ATOM     56  C   UNL     1      -9.633  13.384   1.286  1.00  0.00     0.029 A 
ATOM     57  N   UNL     1      -9.300  14.075   3.363  1.00  0.00    -0.354 N 
ATOM     58  N   UNL     1     -11.050  11.319   4.720  1.00  0.00    -0.248 NA
ATOM     59  C   UNL     1     -12.365  10.625   6.447  1.00  0.00     0.031 C 
ATOM     60  C   UNL     1     -10.802  13.110   2.047  1.00  0.00     0.029 A 
ATOM     61  C   UNL     1     -10.585  13.559   3.337  1.00  0.00     0.049 A 
ATOM     62  H   UNL     1      -8.872  14.459   4.162  1.00  0.00     0.167 HD
ATOM     63  C   UNL     1     -11.687  12.441   5.148  1.00  0.00     0.074 A 
ATOM     64  C   UNL     1     -12.517  11.952   6.237  1.00  0.00     0.031 C 
ATOM     65  C   UNL     1     -11.438  13.636   4.528  1.00  0.00     0.031 A 
BRANCH  52  66
ATOM     66  C   UNL     1      -6.644  14.905   0.735  1.00  0.00    -0.014 A 
ATOM     67  C   UNL     1      -7.428  15.228  -0.389  1.00  0.00     0.010 A 
ATOM     68  C   UNL     1      -5.289  15.297   0.672  1.00  0.00     0.010 A 
ATOM     69  C   UNL     1      -6.876  15.814  -1.540  1.00  0.00     0.020 A 
ATOM     70  C   UNL     1      -4.710  15.830  -0.488  1.00  0.00     0.020 A 
ATOM     71  C   UNL     1      -5.512  16.093  -1.590  1.00  0.00     0.054 A 
BRANCH  71  72
ATOM     72  S   UNL     1      -4.815  16.860  -3.076  1.00  0.00     0.124 S 
ATOM     73  O   UNL     1      -5.213  15.933  -4.132  1.00  0.00    -0.237 OA
ATOM     74  O   UNL     1      -5.479  18.160  -3.095  1.00  0.00    -0.237 OA
ATOM     75  O   UNL     1      -3.379  16.903  -2.804  1.00  0.00    -0.744 OA
ENDBRANCH  71  72
ENDBRANCH  52  66
BRANCH  53  76
ATOM     76  C   UNL     1     -10.509   7.774   6.151  1.00  0.00    -0.014 A 
ATOM     77  C   UNL     1     -10.638   6.485   5.566  1.00  0.00     0.010 A 
ATOM     78  C   UNL     1      -9.355   7.962   6.909  1.00  0.00     0.010 A 
ATOM     79  C   UNL     1      -9.496   5.793   5.122  1.00  0.00     0.020 A 
ATOM     80  C   UNL     1      -8.216   7.270   6.449  1.00  0.00     0.020 A 
ATOM     81  C   UNL     1      -8.265   6.338   5.417  1.00  0.00     0.054 A 
BRANCH  81  82
ATOM     82  S   UNL     1      -6.823   6.122   4.202  1.00  0.00     0.124 S 
ATOM     83  O   UNL     1      -7.285   4.997   3.418  1.00  0.00    -0.237 OA
ATOM     84  O   UNL     1      -6.787   7.375   3.449  1.00  0.00    -0.237 OA
ATOM     85  O   UNL     1      -5.652   5.855   5.000  1.00  0.00    -0.744 OA
ENDBRANCH  81  82
ENDBRANCH  53  76
BRANCH  65  86
ATOM     86  C   UNL     1     -11.977  15.008   4.875  1.00  0.00    -0.014 A 
ATOM     87  C   UNL     1     -12.816  15.309   5.951  1.00  0.00     0.010 A 
ATOM     88  C   UNL     1     -11.581  16.104   4.060  1.00  0.00     0.010 A 
ATOM     89  C   UNL     1     -13.227  16.629   6.204  1.00  0.00     0.020 A 
ATOM     90  C   UNL     1     -11.952  17.421   4.317  1.00  0.00     0.020 A 
ATOM     91  C   UNL     1     -12.786  17.675   5.390  1.00  0.00     0.054 A 
BRANCH  91  92
ATOM     92  S   UNL     1     -13.290  19.368   5.767  1.00  0.00     0.124 S 
ATOM     93  O   UNL     1     -14.709  19.345   5.422  1.00  0.00    -0.237 OA
ATOM     94  O   UNL     1     -12.992  19.474   7.193  1.00  0.00    -0.237 OA
ATOM     95  O   UNL     1     -12.450  20.188   4.898  1.00  0.00    -0.744 OA
ENDBRANCH  91  92
ENDBRANCH  65  86
ENDBRANCH  39  40
ENDBRANCH  31  34
ENDBRANCH  29  30
ENDBRANCH  28  29
ENDBRANCH   1  28
TORSDOF 20
