REMARK SMILES COc1cc(C(=O)CCC(=O)NCCCNC(=O)c2ccc(-c3c4nc(c(-c5ccc(S(=O)(=O)[O-])cc5)c5ccc([nH]5)c(-c5ccc(S(=O)(=O)[O-])cc5)c5nc(c(-c6ccc(S(=O)(=O)[O-])cc6)c6ccc3[nH]6)C=C5)C=C4)cc2)cc(OC)c1OC
REMARK SMILES IDX 13 1 12 2 10 3 11 4 9 6 8 7 6 8 7 9 5 10 3 11 4 12 83 13
REMARK SMILES IDX 80 14 79 15 2 16 1 17 84 18 85 19 81 20 82 21 14 22 15 23
REMARK SMILES IDX 16 24 17 25 18 27 19 28 20 29 78 30 21 31 77 32 22 33 23 34
REMARK SMILES IDX 24 35 71 36 25 37 76 38 70 39 72 40 26 41 75 42 69 43 68 44
REMARK SMILES IDX 27 46 57 47 38 48 56 49 39 50 42 51 55 52 73 53 40 54 41 55
REMARK SMILES IDX 54 57 74 58 43 59 28 60 29 61 37 62 30 63 36 64 31 65 32 66
REMARK SMILES IDX 33 67 34 68 35 69 58 70 59 71 67 72 60 73 66 74 61 75 62 76
REMARK SMILES IDX 63 77 64 78 65 79 44 80 45 81 53 82 46 83 52 84 47 85 48 86
REMARK SMILES IDX 49 87 50 88 51 89
REMARK H PARENT 12 5 16 26 72 45 42 56
REMARK Flexibility Score: inf
ROOT
ATOM      1  C   UNL     1      -0.471  -0.025  -4.817  1.00  0.00     0.117 C 
ENDROOT
BRANCH   1   2
ATOM      2  N   UNL     1       0.561  -0.599  -5.684  1.00  0.00    -0.356 N 
ATOM      3  C   UNL     1       0.649  -1.795  -6.327  1.00  0.00     0.220 C 
ATOM      4  O   UNL     1       1.672  -2.040  -6.970  1.00  0.00    -0.275 OA
ATOM      5  H   UNL     1       1.336  -0.009  -5.829  1.00  0.00     0.163 HD
BRANCH   3   6
ATOM      6  C   UNL     1      -0.466  -2.809  -6.238  1.00  0.00     0.108 C 
BRANCH   6   7
ATOM      7  C   UNL     1       0.014  -4.082  -5.546  1.00  0.00     0.091 C 
BRANCH   7   8
ATOM      8  C   UNL     1       0.118  -3.862  -4.049  1.00  0.00     0.163 C 
ATOM      9  O   UNL     1      -0.906  -3.856  -3.362  1.00  0.00    -0.294 OA
BRANCH   8  10
ATOM     10  C   UNL     1       1.430  -3.519  -3.411  1.00  0.00     0.025 A 
ATOM     11  C   UNL     1       2.591  -2.414  -1.559  1.00  0.00     0.165 A 
ATOM     12  C   UNL     1       1.417  -2.917  -2.145  1.00  0.00     0.062 A 
ATOM     13  C   UNL     1       3.830  -2.633  -2.159  1.00  0.00     0.203 A 
ATOM     14  C   UNL     1       3.830  -3.227  -3.438  1.00  0.00     0.165 A 
ATOM     15  C   UNL     1       2.652  -3.678  -4.051  1.00  0.00     0.062 A 
BRANCH  11  16
ATOM     16  O   UNL     1       2.434  -1.724  -0.390  1.00  0.00    -0.493 OA
ATOM     17  C   UNL     1       2.585  -0.313  -0.562  1.00  0.00     0.278 C 
ENDBRANCH  11  16
BRANCH  13  18
ATOM     18  O   UNL     1       5.066  -2.350  -1.653  1.00  0.00    -0.490 OA
ATOM     19  C   UNL     1       5.239  -1.832  -0.345  1.00  0.00     0.278 C 
ENDBRANCH  13  18
BRANCH  14  20
ATOM     20  O   UNL     1       4.967  -3.423  -4.188  1.00  0.00    -0.493 OA
ATOM     21  C   UNL     1       5.738  -2.229  -4.333  1.00  0.00     0.278 C 
ENDBRANCH  14  20
ENDBRANCH   8  10
ENDBRANCH   7   8
ENDBRANCH   6   7
ENDBRANCH   3   6
ENDBRANCH   1   2
BRANCH   1  22
ATOM     22  C   UNL     1      -0.211  -0.346  -3.338  1.00  0.00     0.042 C 
BRANCH  22  23
ATOM     23  C   UNL     1      -0.552   0.757  -2.330  1.00  0.00     0.118 C 
BRANCH  23  24
ATOM     24  N   UNL     1      -1.709   0.475  -1.495  1.00  0.00    -0.352 N 
ATOM     25  C   UNL     1      -1.855   0.460  -0.122  1.00  0.00     0.251 C 
ATOM     26  H   UNL     1      -2.529   0.257  -1.994  1.00  0.00     0.163 HD
ATOM     27  O   UNL     1      -2.953   0.776   0.337  1.00  0.00    -0.269 OA
BRANCH  25  28
ATOM     28  C   UNL     1      -0.804   0.022   0.841  1.00  0.00     0.039 A 
ATOM     29  C   UNL     1      -0.498   0.817   1.957  1.00  0.00     0.014 A 
ATOM     30  C   UNL     1      -0.356  -1.299   0.837  1.00  0.00     0.014 A 
ATOM     31  C   UNL     1       0.242   0.300   3.050  1.00  0.00     0.010 A 
ATOM     32  C   UNL     1       0.414  -1.804   1.910  1.00  0.00     0.010 A 
ATOM     33  C   UNL     1       0.690  -1.030   3.056  1.00  0.00    -0.014 A 
BRANCH  33  34
ATOM     34  C   UNL     1       1.184  -1.691   4.316  1.00  0.00     0.031 A 
ATOM     35  C   UNL     1       2.559  -1.482   4.911  1.00  0.00     0.074 A 
ATOM     36  C   UNL     1       0.359  -2.554   4.949  1.00  0.00     0.049 A 
ATOM     37  N   UNL     1       3.032  -1.907   6.062  1.00  0.00    -0.248 NA
ATOM     38  C   UNL     1       3.531  -0.720   4.119  1.00  0.00     0.031 C 
ATOM     39  C   UNL     1      -0.995  -2.897   4.510  1.00  0.00     0.029 A 
ATOM     40  N   UNL     1       0.545  -3.324   6.074  1.00  0.00    -0.354 N 
ATOM     41  C   UNL     1       4.343  -1.448   6.151  1.00  0.00     0.074 A 
ATOM     42  C   UNL     1       4.602  -0.738   4.910  1.00  0.00     0.031 C 
ATOM     43  C   UNL     1      -1.489  -3.853   5.310  1.00  0.00     0.029 A 
ATOM     44  C   UNL     1      -0.512  -4.158   6.351  1.00  0.00     0.049 A 
ATOM     45  H   UNL     1       1.358  -3.282   6.628  1.00  0.00     0.167 HD
ATOM     46  C   UNL     1       5.239  -1.592   7.165  1.00  0.00     0.031 A 
ATOM     47  C   UNL     1      -0.711  -5.055   7.336  1.00  0.00     0.031 A 
ATOM     48  C   UNL     1       5.005  -2.330   8.389  1.00  0.00     0.049 A 
ATOM     49  C   UNL     1       0.279  -5.188   8.453  1.00  0.00     0.074 A 
ATOM     50  C   UNL     1       5.817  -2.418   9.512  1.00  0.00     0.029 A 
ATOM     51  N   UNL     1       3.904  -3.132   8.646  1.00  0.00    -0.354 N 
ATOM     52  N   UNL     1       1.441  -4.601   8.595  1.00  0.00    -0.248 NA
ATOM     53  C   UNL     1      -0.104  -6.059   9.574  1.00  0.00     0.031 C 
ATOM     54  C   UNL     1       5.235  -3.313  10.420  1.00  0.00     0.029 A 
ATOM     55  C   UNL     1       4.033  -3.743   9.888  1.00  0.00     0.049 A 
ATOM     56  H   UNL     1       3.141  -3.253   8.035  1.00  0.00     0.167 HD
ATOM     57  C   UNL     1       1.910  -4.997   9.843  1.00  0.00     0.074 A 
ATOM     58  C   UNL     1       0.907  -5.873  10.412  1.00  0.00     0.031 C 
ATOM     59  C   UNL     1       3.062  -4.640  10.462  1.00  0.00     0.031 A 
BRANCH  46  60
ATOM     60  C   UNL     1       6.587  -0.917   7.030  1.00  0.00    -0.014 A 
ATOM     61  C   UNL     1       6.704   0.480   7.140  1.00  0.00     0.010 A 
ATOM     62  C   UNL     1       7.762  -1.689   6.933  1.00  0.00     0.010 A 
ATOM     63  C   UNL     1       7.962   1.094   7.126  1.00  0.00     0.020 A 
ATOM     64  C   UNL     1       9.024  -1.081   6.940  1.00  0.00     0.020 A 
ATOM     65  C   UNL     1       9.114   0.310   7.022  1.00  0.00     0.054 A 
BRANCH  65  66
ATOM     66  S   UNL     1      10.734   1.132   7.046  1.00  0.00     0.124 S 
ATOM     67  O   UNL     1      10.795   1.713   5.707  1.00  0.00    -0.237 OA
ATOM     68  O   UNL     1      10.594   2.091   8.139  1.00  0.00    -0.237 OA
ATOM     69  O   UNL     1      11.674   0.042   7.296  1.00  0.00    -0.744 OA
ENDBRANCH  65  66
ENDBRANCH  46  60
BRANCH  47  70
ATOM     70  C   UNL     1      -1.973  -5.838   7.342  1.00  0.00    -0.014 A 
ATOM     71  C   UNL     1      -3.041  -5.451   8.168  1.00  0.00     0.010 A 
ATOM     72  C   UNL     1      -2.134  -6.925   6.463  1.00  0.00     0.010 A 
ATOM     73  C   UNL     1      -4.256  -6.136   8.113  1.00  0.00     0.020 A 
ATOM     74  C   UNL     1      -3.354  -7.601   6.394  1.00  0.00     0.020 A 
ATOM     75  C   UNL     1      -4.407  -7.203   7.221  1.00  0.00     0.054 A 
BRANCH  75  76
ATOM     76  S   UNL     1      -6.026  -8.013   7.097  1.00  0.00     0.124 S 
ATOM     77  O   UNL     1      -6.041  -8.845   8.295  1.00  0.00    -0.237 OA
ATOM     78  O   UNL     1      -6.949  -6.880   7.102  1.00  0.00    -0.237 OA
ATOM     79  O   UNL     1      -5.949  -8.736   5.830  1.00  0.00    -0.744 OA
ENDBRANCH  75  76
ENDBRANCH  47  70
BRANCH  59  80
ATOM     80  C   UNL     1       3.289  -5.183  11.851  1.00  0.00    -0.014 A 
ATOM     81  C   UNL     1       3.578  -6.544  12.068  1.00  0.00     0.010 A 
ATOM     82  C   UNL     1       3.181  -4.326  12.961  1.00  0.00     0.010 A 
ATOM     83  C   UNL     1       3.694  -7.046  13.369  1.00  0.00     0.020 A 
ATOM     84  C   UNL     1       3.321  -4.820  14.262  1.00  0.00     0.020 A 
ATOM     85  C   UNL     1       3.550  -6.183  14.459  1.00  0.00     0.054 A 
BRANCH  85  86
ATOM     86  S   UNL     1       3.686  -6.855  16.140  1.00  0.00     0.124 S 
ATOM     87  O   UNL     1       2.373  -7.467  16.328  1.00  0.00    -0.237 OA
ATOM     88  O   UNL     1       4.803  -7.789  16.029  1.00  0.00    -0.237 OA
ATOM     89  O   UNL     1       3.948  -5.676  16.962  1.00  0.00    -0.744 OA
ENDBRANCH  85  86
ENDBRANCH  59  80
ENDBRANCH  33  34
ENDBRANCH  25  28
ENDBRANCH  23  24
ENDBRANCH  22  23
ENDBRANCH   1  22
TORSDOF 19
