REMARK SMILES CCC[NH2+][C@@]1(C(=O)NCCCNC(=O)c2ccc(-c3c4nc(c(-c5ccc(S(=O)(=O)[O-])cc5)c5ccc([nH]5)c(-c5ccc(S(=O)(=O)[O-])cc5)c5nc(c(-c6ccc(S(=O)(=O)[O-])cc6)c6ccc3[nH]6)C=C5)C=C4)cc2)CC[C@@H](Sc2ccc(OC)cc2)C1
REMARK SMILES IDX 10 1 9 2 8 3 6 4 7 5 5 7 75 8 87 9 76 10 77 11 4 12 3 15
REMARK SMILES IDX 2 16 1 17 78 18 79 19 80 20 86 21 81 22 85 23 82 24 83 25
REMARK SMILES IDX 84 26 11 27 12 28 13 29 14 31 15 32 16 33 74 34 17 35 73 36
REMARK SMILES IDX 18 37 19 38 20 39 67 40 21 41 72 42 66 43 68 44 22 45 71 46
REMARK SMILES IDX 65 47 64 48 23 50 53 51 34 52 52 53 35 54 38 55 51 56 69 57
REMARK SMILES IDX 36 58 37 59 50 61 70 62 39 63 24 64 25 65 33 66 26 67 32 68
REMARK SMILES IDX 27 69 28 70 29 71 30 72 31 73 54 74 55 75 63 76 56 77 62 78
REMARK SMILES IDX 57 79 58 80 59 81 60 82 61 83 40 84 41 85 49 86 42 87 48 88
REMARK SMILES IDX 43 89 44 90 45 91 46 92 47 93
REMARK H PARENT 8 6 4 13 4 14 12 30 68 49 38 60
REMARK Flexibility Score: inf
ROOT
ATOM      1  C   UNL     1       3.174  -5.365  -5.383  1.00  0.00     0.042 C 
ENDROOT
BRANCH   1   2
ATOM      2  C   UNL     1       3.239  -5.365  -3.866  1.00  0.00     0.118 C 
BRANCH   2   3
ATOM      3  N   UNL     1       3.406  -4.049  -3.307  1.00  0.00    -0.351 N 
ATOM      4  C   UNL     1       2.594  -3.329  -2.497  1.00  0.00     0.281 C 
ATOM      5  O   UNL     1       3.192  -2.534  -1.755  1.00  0.00    -0.268 OA
ATOM      6  H   UNL     1       4.247  -3.600  -3.553  1.00  0.00     0.163 HD
BRANCH   4   7
ATOM      7  C   UNL     1       1.021  -3.475  -2.419  1.00  0.00     0.176 C 
ATOM      8  C   UNL     1       0.631  -4.702  -1.571  1.00  0.00     0.080 C 
ATOM      9  C   UNL     1       0.240  -3.638  -3.735  1.00  0.00     0.094 C 
ATOM     10  C   UNL     1       0.047  -5.766  -2.497  1.00  0.00     0.022 C 
ATOM     11  C   UNL     1      -0.108  -5.123  -3.875  1.00  0.00     0.058 C 
BRANCH   7  12
ATOM     12  N   UNL     1       0.516  -2.277  -1.662  1.00  0.00    -0.334 N 
ATOM     13  H   UNL     1      -0.484  -2.401  -1.505  1.00  0.00     0.347 HD
ATOM     14  H   UNL     1       1.061  -2.235  -0.801  1.00  0.00     0.347 HD
BRANCH  12  15
ATOM     15  C   UNL     1       0.715  -0.986  -2.337  1.00  0.00     0.261 C 
BRANCH  15  16
ATOM     16  C   UNL     1       0.263   0.179  -1.444  1.00  0.00     0.058 C 
ATOM     17  C   UNL     1       0.947   0.229  -0.081  1.00  0.00     0.010 C 
ENDBRANCH  15  16
ENDBRANCH  12  15
ENDBRANCH   7  12
BRANCH  11  18
ATOM     18  S   UNL     1      -1.666  -5.485  -4.779  1.00  0.00    -0.122 SA
BRANCH  18  19
ATOM     19  C   UNL     1      -2.880  -5.380  -3.486  1.00  0.00     0.008 A 
ATOM     20  C   UNL     1      -3.454  -6.546  -2.971  1.00  0.00     0.019 A 
ATOM     21  C   UNL     1      -3.262  -4.145  -2.966  1.00  0.00     0.019 A 
ATOM     22  C   UNL     1      -4.366  -6.472  -1.915  1.00  0.00     0.047 A 
ATOM     23  C   UNL     1      -4.173  -4.071  -1.911  1.00  0.00     0.047 A 
ATOM     24  C   UNL     1      -4.725  -5.235  -1.375  1.00  0.00     0.118 A 
BRANCH  24  25
ATOM     25  O   UNL     1      -5.618  -5.292  -0.340  1.00  0.00    -0.497 OA
ATOM     26  C   UNL     1      -5.998  -4.046   0.231  1.00  0.00     0.278 C 
ENDBRANCH  24  25
ENDBRANCH  18  19
ENDBRANCH  11  18
ENDBRANCH   4   7
ENDBRANCH   2   3
ENDBRANCH   1   2
BRANCH   1  27
ATOM     27  C   UNL     1       4.546  -5.235  -6.028  1.00  0.00     0.118 C 
BRANCH  27  28
ATOM     28  N   UNL     1       5.417  -6.355  -5.678  1.00  0.00    -0.352 N 
ATOM     29  C   UNL     1       5.915  -7.364  -6.461  1.00  0.00     0.251 C 
ATOM     30  H   UNL     1       5.690  -6.389  -4.733  1.00  0.00     0.163 HD
ATOM     31  O   UNL     1       6.394  -8.365  -5.929  1.00  0.00    -0.269 OA
BRANCH  29  32
ATOM     32  C   UNL     1       5.876  -7.243  -7.930  1.00  0.00     0.039 A 
ATOM     33  C   UNL     1       5.592  -8.368  -8.706  1.00  0.00     0.014 A 
ATOM     34  C   UNL     1       6.135  -6.013  -8.538  1.00  0.00     0.014 A 
ATOM     35  C   UNL     1       5.501  -8.240 -10.093  1.00  0.00     0.010 A 
ATOM     36  C   UNL     1       5.938  -5.865  -9.902  1.00  0.00     0.010 A 
ATOM     37  C   UNL     1       5.635  -6.979 -10.697  1.00  0.00    -0.014 A 
BRANCH  37  38
ATOM     38  C   UNL     1       5.477  -6.791 -12.158  1.00  0.00     0.031 A 
ATOM     39  C   UNL     1       6.626  -6.255 -12.970  1.00  0.00     0.074 A 
ATOM     40  C   UNL     1       4.281  -7.023 -12.733  1.00  0.00     0.049 A 
ATOM     41  N   UNL     1       6.659  -5.929 -14.235  1.00  0.00    -0.248 NA
ATOM     42  C   UNL     1       7.895  -6.021 -12.258  1.00  0.00     0.031 C 
ATOM     43  C   UNL     1       3.083  -7.501 -12.037  1.00  0.00     0.029 A 
ATOM     44  N   UNL     1       3.871  -6.878 -14.034  1.00  0.00    -0.354 N 
ATOM     45  C   UNL     1       7.937  -5.433 -14.464  1.00  0.00     0.074 A 
ATOM     46  C   UNL     1       8.630  -5.444 -13.196  1.00  0.00     0.031 C 
ATOM     47  C   UNL     1       2.085  -7.640 -12.924  1.00  0.00     0.029 A 
ATOM     48  C   UNL     1       2.554  -7.213 -14.238  1.00  0.00     0.049 A 
ATOM     49  H   UNL     1       4.465  -6.563 -14.754  1.00  0.00     0.167 HD
ATOM     50  C   UNL     1       8.492  -5.027 -15.630  1.00  0.00     0.031 A 
ATOM     51  C   UNL     1       1.804  -7.169 -15.356  1.00  0.00     0.031 A 
ATOM     52  C   UNL     1       7.797  -5.036 -16.889  1.00  0.00     0.049 A 
ATOM     53  C   UNL     1       2.438  -6.700 -16.637  1.00  0.00     0.074 A 
ATOM     54  C   UNL     1       8.283  -4.704 -18.140  1.00  0.00     0.029 A 
ATOM     55  N   UNL     1       6.467  -5.394 -17.055  1.00  0.00    -0.354 N 
ATOM     56  N   UNL     1       3.670  -6.302 -16.848  1.00  0.00    -0.248 NA
ATOM     57  C   UNL     1       1.584  -6.682 -17.832  1.00  0.00     0.031 C 
ATOM     58  C   UNL     1       7.230  -4.802 -19.055  1.00  0.00     0.029 A 
ATOM     59  C   UNL     1       6.107  -5.262 -18.385  1.00  0.00     0.049 A 
ATOM     60  H   UNL     1       5.869  -5.697 -16.335  1.00  0.00     0.167 HD
ATOM     61  C   UNL     1       3.747  -6.012 -18.205  1.00  0.00     0.074 A 
ATOM     62  C   UNL     1       2.441  -6.296 -18.767  1.00  0.00     0.031 C 
ATOM     63  C   UNL     1       4.801  -5.552 -18.923  1.00  0.00     0.031 A 
BRANCH  50  64
ATOM     64  C   UNL     1       9.916  -4.537 -15.594  1.00  0.00    -0.014 A 
ATOM     65  C   UNL     1      10.983  -5.415 -15.324  1.00  0.00     0.010 A 
ATOM     66  C   UNL     1      10.198  -3.187 -15.870  1.00  0.00     0.010 A 
ATOM     67  C   UNL     1      12.297  -4.943 -15.288  1.00  0.00     0.020 A 
ATOM     68  C   UNL     1      11.515  -2.718 -15.868  1.00  0.00     0.020 A 
ATOM     69  C   UNL     1      12.555  -3.597 -15.560  1.00  0.00     0.054 A 
BRANCH  69  70
ATOM     70  S   UNL     1      14.274  -3.020 -15.532  1.00  0.00     0.124 S 
ATOM     71  O   UNL     1      14.581  -3.060 -14.104  1.00  0.00    -0.237 OA
ATOM     72  O   UNL     1      14.959  -4.019 -16.349  1.00  0.00    -0.237 OA
ATOM     73  O   UNL     1      14.202  -1.683 -16.116  1.00  0.00    -0.744 OA
ENDBRANCH  69  70
ENDBRANCH  50  64
BRANCH  51  74
ATOM     74  C   UNL     1       0.377  -7.592 -15.313  1.00  0.00    -0.014 A 
ATOM     75  C   UNL     1      -0.038  -8.770 -15.959  1.00  0.00     0.010 A 
ATOM     76  C   UNL     1      -0.574  -6.828 -14.611  1.00  0.00     0.010 A 
ATOM     77  C   UNL     1      -1.379  -9.164 -15.922  1.00  0.00     0.020 A 
ATOM     78  C   UNL     1      -1.910  -7.235 -14.546  1.00  0.00     0.020 A 
ATOM     79  C   UNL     1      -2.306  -8.395 -15.213  1.00  0.00     0.054 A 
BRANCH  79  80
ATOM     80  S   UNL     1      -4.031  -8.952 -15.143  1.00  0.00     0.124 S 
ATOM     81  O   UNL     1      -4.488  -8.696 -16.506  1.00  0.00    -0.237 OA
ATOM     82  O   UNL     1      -3.892 -10.359 -14.775  1.00  0.00    -0.237 OA
ATOM     83  O   UNL     1      -4.624  -8.102 -14.114  1.00  0.00    -0.744 OA
ENDBRANCH  79  80
ENDBRANCH  51  74
BRANCH  63  84
ATOM     84  C   UNL     1       4.602  -5.356 -20.402  1.00  0.00    -0.014 A 
ATOM     85  C   UNL     1       3.816  -4.303 -20.900  1.00  0.00     0.010 A 
ATOM     86  C   UNL     1       5.275  -6.199 -21.307  1.00  0.00     0.010 A 
ATOM     87  C   UNL     1       3.687  -4.109 -22.277  1.00  0.00     0.020 A 
ATOM     88  C   UNL     1       5.174  -5.989 -22.684  1.00  0.00     0.020 A 
ATOM     89  C   UNL     1       4.371  -4.951 -23.160  1.00  0.00     0.054 A 
BRANCH  89  90
ATOM     90  S   UNL     1       4.236  -4.638 -24.941  1.00  0.00     0.124 S 
ATOM     91  O   UNL     1       2.865  -5.057 -25.220  1.00  0.00    -0.237 OA
ATOM     92  O   UNL     1       4.485  -3.202 -25.033  1.00  0.00    -0.237 OA
ATOM     93  O   UNL     1       5.276  -5.484 -25.523  1.00  0.00    -0.744 OA
ENDBRANCH  89  90
ENDBRANCH  63  84
ENDBRANCH  37  38
ENDBRANCH  29  32
ENDBRANCH  27  28
ENDBRANCH   1  27
TORSDOF 19
