REMARK SMILES Cc1ccc(S(=O)(=O)N2C[C@@H](CC(=O)NCCCNC(=O)c3ccc(-c4c5nc(c(-c6ccc(S(=O)(=O)[O-])cc6)c6ccc([nH]6)c(-c6ccc(S(=O)(=O)[O-])cc6)c6nc(c(-c7ccc(S(=O)(=O)[O-])cc7)c7ccc4[nH]7)C=C6)C=C5)cc3)c3ccccc32)c(C)c1
REMARK SMILES IDX 17 1 16 2 15 3 13 4 14 5 12 7 11 8 9 9 10 10 87 11 82 12
REMARK SMILES IDX 86 13 83 14 85 15 84 16 6 17 7 18 8 19 5 20 1 21 2 22 3 23
REMARK SMILES IDX 90 24 4 25 88 26 89 27 18 28 19 29 20 30 21 32 22 33 23 34
REMARK SMILES IDX 81 35 24 36 80 37 25 38 26 39 27 40 74 41 28 42 79 43 73 44
REMARK SMILES IDX 75 45 29 46 78 47 72 48 71 49 30 51 60 52 41 53 59 54 42 55
REMARK SMILES IDX 45 56 58 57 76 58 43 59 44 60 57 62 77 63 46 64 31 65 32 66
REMARK SMILES IDX 40 67 33 68 39 69 34 70 35 71 36 72 37 73 38 74 61 75 62 76
REMARK SMILES IDX 70 77 63 78 69 79 64 80 65 81 66 82 67 83 68 84 47 85 48 86
REMARK SMILES IDX 56 87 49 88 55 89 50 90 51 91 52 92 53 93 54 94
REMARK H PARENT 15 6 19 31 75 50 45 61
REMARK Flexibility Score: inf
ROOT
ATOM      1  C   UNL     1       0.264  -7.737   2.010  1.00  0.00     0.042 C 
ENDROOT
BRANCH   1   2
ATOM      2  C   UNL     1       0.461  -7.914   0.509  1.00  0.00     0.117 C 
BRANCH   2   3
ATOM      3  N   UNL     1      -0.678  -8.607  -0.081  1.00  0.00    -0.356 N 
ATOM      4  C   UNL     1      -1.804  -8.105  -0.665  1.00  0.00     0.220 C 
ATOM      5  O   UNL     1      -2.745  -8.871  -0.876  1.00  0.00    -0.275 OA
ATOM      6  H   UNL     1      -0.628  -9.590  -0.052  1.00  0.00     0.163 HD
BRANCH   4   7
ATOM      7  C   UNL     1      -1.866  -6.663  -1.119  1.00  0.00     0.110 C 
BRANCH   7   8
ATOM      8  C   UNL     1      -2.955  -5.835  -0.417  1.00  0.00     0.051 C 
ATOM      9  N   UNL     1      -2.158  -3.536  -0.450  1.00  0.00    -0.265 N 
ATOM     10  C   UNL     1      -3.114  -4.479  -1.139  1.00  0.00     0.144 C 
ATOM     11  C   UNL     1      -2.004  -4.063   0.881  1.00  0.00     0.055 A 
ATOM     12  C   UNL     1      -2.549  -5.347   0.947  1.00  0.00    -0.018 A 
ATOM     13  C   UNL     1      -1.378  -3.499   1.980  1.00  0.00     0.027 A 
ATOM     14  C   UNL     1      -2.658  -6.006   2.160  1.00  0.00     0.006 A 
ATOM     15  C   UNL     1      -1.401  -4.198   3.190  1.00  0.00     0.002 A 
ATOM     16  C   UNL     1      -2.069  -5.425   3.288  1.00  0.00     0.000 A 
BRANCH   9  17
ATOM     17  S   UNL     1      -2.634  -1.892  -0.592  1.00  0.00     0.264 S 
ATOM     18  O   UNL     1      -3.547  -1.609   0.493  1.00  0.00    -0.201 OA
ATOM     19  O   UNL     1      -3.024  -1.679  -1.976  1.00  0.00    -0.201 OA
BRANCH  17  20
ATOM     20  C   UNL     1      -1.143  -0.937  -0.366  1.00  0.00     0.090 A 
ATOM     21  C   UNL     1       2.538   1.261   0.075  1.00  0.00     0.044 C 
ATOM     22  C   UNL     1       1.264   0.483  -0.064  1.00  0.00    -0.051 A 
ATOM     23  C   UNL     1       1.288  -0.884  -0.337  1.00  0.00     0.005 A 
ATOM     24  C   UNL     1       0.028   1.137   0.037  1.00  0.00     0.008 A 
ATOM     25  C   UNL     1       0.095  -1.587  -0.499  1.00  0.00     0.023 A 
ATOM     26  C   UNL     1      -1.192   0.446  -0.106  1.00  0.00    -0.030 A 
ATOM     27  C   UNL     1      -2.448   1.271  -0.049  1.00  0.00     0.046 C 
ENDBRANCH  17  20
ENDBRANCH   9  17
ENDBRANCH   7   8
ENDBRANCH   4   7
ENDBRANCH   2   3
ENDBRANCH   1   2
BRANCH   1  28
ATOM     28  C   UNL     1       0.494  -8.991   2.842  1.00  0.00     0.118 C 
BRANCH  28  29
ATOM     29  N   UNL     1       1.851  -9.057   3.346  1.00  0.00    -0.352 N 
ATOM     30  C   UNL     1       2.403  -8.655   4.538  1.00  0.00     0.251 C 
ATOM     31  H   UNL     1       2.494  -9.463   2.721  1.00  0.00     0.163 HD
ATOM     32  O   UNL     1       3.631  -8.566   4.588  1.00  0.00    -0.269 OA
BRANCH  30  33
ATOM     33  C   UNL     1       1.603  -8.322   5.753  1.00  0.00     0.039 A 
ATOM     34  C   UNL     1       2.164  -7.424   6.673  1.00  0.00     0.014 A 
ATOM     35  C   UNL     1       0.399  -8.947   6.087  1.00  0.00     0.014 A 
ATOM     36  C   UNL     1       1.532  -7.158   7.895  1.00  0.00     0.010 A 
ATOM     37  C   UNL     1      -0.280  -8.610   7.267  1.00  0.00     0.010 A 
ATOM     38  C   UNL     1       0.292  -7.737   8.204  1.00  0.00    -0.014 A 
BRANCH  38  39
ATOM     39  C   UNL     1      -0.376  -7.472   9.514  1.00  0.00     0.031 A 
ATOM     40  C   UNL     1      -0.632  -8.596  10.493  1.00  0.00     0.074 A 
ATOM     41  C   UNL     1      -0.768  -6.221   9.831  1.00  0.00     0.049 A 
ATOM     42  N   UNL     1      -1.201  -8.552  11.673  1.00  0.00    -0.248 NA
ATOM     43  C   UNL     1      -0.212  -9.947  10.087  1.00  0.00     0.031 C 
ATOM     44  C   UNL     1      -0.604  -5.041   8.979  1.00  0.00     0.029 A 
ATOM     45  N   UNL     1      -1.382  -5.729  10.959  1.00  0.00    -0.354 N 
ATOM     46  C   UNL     1      -1.226  -9.864  12.138  1.00  0.00     0.074 A 
ATOM     47  C   UNL     1      -0.657 -10.687  11.093  1.00  0.00     0.031 C 
ATOM     48  C   UNL     1      -1.066  -3.961   9.628  1.00  0.00     0.029 A 
ATOM     49  C   UNL     1      -1.605  -4.372  10.921  1.00  0.00     0.049 A 
ATOM     50  H   UNL     1      -1.638  -6.296  11.722  1.00  0.00     0.167 HD
ATOM     51  C   UNL     1      -1.664 -10.343  13.328  1.00  0.00     0.031 A 
ATOM     52  C   UNL     1      -2.181  -3.546  11.818  1.00  0.00     0.031 A 
ATOM     53  C   UNL     1      -2.219  -9.526  14.377  1.00  0.00     0.049 A 
ATOM     54  C   UNL     1      -2.684  -4.106  13.122  1.00  0.00     0.074 A 
ATOM     55  C   UNL     1      -2.635  -9.914  15.640  1.00  0.00     0.029 A 
ATOM     56  N   UNL     1      -2.444  -8.161  14.287  1.00  0.00    -0.354 N 
ATOM     57  N   UNL     1      -2.636  -5.339  13.565  1.00  0.00    -0.248 NA
ATOM     58  C   UNL     1      -3.310  -3.156  14.053  1.00  0.00     0.031 C 
ATOM     59  C   UNL     1      -3.172  -8.797  16.287  1.00  0.00     0.029 A 
ATOM     60  C   UNL     1      -3.024  -7.698  15.457  1.00  0.00     0.049 A 
ATOM     61  H   UNL     1      -2.224  -7.603  13.506  1.00  0.00     0.167 HD
ATOM     62  C   UNL     1      -3.197  -5.307  14.838  1.00  0.00     0.074 A 
ATOM     63  C   UNL     1      -3.560  -3.930  15.100  1.00  0.00     0.031 C 
ATOM     64  C   UNL     1      -3.388  -6.327  15.711  1.00  0.00     0.031 A 
BRANCH  51  65
ATOM     65  C   UNL     1      -1.581 -11.834  13.560  1.00  0.00    -0.014 A 
ATOM     66  C   UNL     1      -0.343 -12.487  13.705  1.00  0.00     0.010 A 
ATOM     67  C   UNL     1      -2.764 -12.586  13.680  1.00  0.00     0.010 A 
ATOM     68  C   UNL     1      -0.290 -13.868  13.915  1.00  0.00     0.020 A 
ATOM     69  C   UNL     1      -2.716 -13.963  13.923  1.00  0.00     0.020 A 
ATOM     70  C   UNL     1      -1.478 -14.598  14.020  1.00  0.00     0.054 A 
BRANCH  70  71
ATOM     71  S   UNL     1      -1.377 -16.387  14.304  1.00  0.00     0.124 S 
ATOM     72  O   UNL     1      -0.891 -16.870  13.014  1.00  0.00    -0.237 OA
ATOM     73  O   UNL     1      -0.425 -16.482  15.408  1.00  0.00    -0.237 OA
ATOM     74  O   UNL     1      -2.749 -16.765  14.633  1.00  0.00    -0.744 OA
ENDBRANCH  70  71
ENDBRANCH  51  65
BRANCH  52  75
ATOM     75  C   UNL     1      -2.301  -2.091  11.521  1.00  0.00    -0.014 A 
ATOM     76  C   UNL     1      -1.552  -1.148  12.247  1.00  0.00     0.010 A 
ATOM     77  C   UNL     1      -3.164  -1.639  10.505  1.00  0.00     0.010 A 
ATOM     78  C   UNL     1      -1.675   0.218  11.977  1.00  0.00     0.020 A 
ATOM     79  C   UNL     1      -3.266  -0.276  10.210  1.00  0.00     0.020 A 
ATOM     80  C   UNL     1      -2.529   0.645  10.956  1.00  0.00     0.054 A 
BRANCH  80  81
ATOM     81  S   UNL     1      -2.632   2.419  10.589  1.00  0.00     0.124 S 
ATOM     82  O   UNL     1      -3.362   2.927  11.746  1.00  0.00    -0.237 OA
ATOM     83  O   UNL     1      -1.225   2.804  10.508  1.00  0.00    -0.237 OA
ATOM     84  O   UNL     1      -3.356   2.465   9.321  1.00  0.00    -0.744 OA
ENDBRANCH  80  81
ENDBRANCH  52  75
BRANCH  64  85
ATOM     85  C   UNL     1      -3.986  -5.991  17.055  1.00  0.00    -0.014 A 
ATOM     86  C   UNL     1      -5.331  -5.601  17.184  1.00  0.00     0.010 A 
ATOM     87  C   UNL     1      -3.196  -6.109  18.213  1.00  0.00     0.010 A 
ATOM     88  C   UNL     1      -5.862  -5.298  18.442  1.00  0.00     0.020 A 
ATOM     89  C   UNL     1      -3.732  -5.839  19.475  1.00  0.00     0.020 A 
ATOM     90  C   UNL     1      -5.059  -5.419  19.579  1.00  0.00     0.054 A 
BRANCH  90  91
ATOM     91  S   UNL     1      -5.781  -5.053  21.202  1.00  0.00     0.124 S 
ATOM     92  O   UNL     1      -5.906  -3.598  21.159  1.00  0.00    -0.237 OA
ATOM     93  O   UNL     1      -7.040  -5.793  21.166  1.00  0.00    -0.237 OA
ATOM     94  O   UNL     1      -4.791  -5.565  22.147  1.00  0.00    -0.744 OA
ENDBRANCH  90  91
ENDBRANCH  64  85
ENDBRANCH  38  39
ENDBRANCH  30  33
ENDBRANCH  28  29
ENDBRANCH   1  28
TORSDOF 16
