REMARK SMILES Cc1ccccc1CCNS(=O)(=O)c1ccc(C(=O)NCCCNC(=O)c2ccc(-c3c4nc(c(-c5ccc(S(=O)(=O)[O-])cc5)c5ccc([nH]5)c(-c5ccc(S(=O)(=O)[O-])cc5)c5nc(c(-c6ccc(S(=O)(=O)[O-])cc6)c6ccc3[nH]6)C=C5)C=C4)cc2)o1
REMARK SMILES IDX 21 1 20 2 18 3 19 4 17 6 14 7 15 8 87 9 16 10 11 11 12 12
REMARK SMILES IDX 13 13 10 14 9 16 8 17 7 18 1 19 2 20 3 21 4 22 6 23 5 24
REMARK SMILES IDX 22 25 23 26 24 27 25 28 26 30 27 31 28 32 86 33 29 34 85 35
REMARK SMILES IDX 30 36 31 37 32 38 79 39 33 40 84 41 78 42 80 43 34 44 83 45
REMARK SMILES IDX 77 46 76 47 35 49 65 50 46 51 64 52 47 53 50 54 63 55 81 56
REMARK SMILES IDX 48 57 49 58 62 60 82 61 51 62 36 63 37 64 45 65 38 66 44 67
REMARK SMILES IDX 39 68 40 69 41 70 42 71 43 72 66 73 67 74 75 75 68 76 74 77
REMARK SMILES IDX 69 78 70 79 71 80 72 81 73 82 52 83 53 84 61 85 54 86 60 87
REMARK SMILES IDX 55 88 56 89 57 90 58 91 59 92
REMARK H PARENT 20 5 10 15 24 29 80 48 50 59
REMARK Flexibility Score: inf
ROOT
ATOM      1  C   UNL     1       1.739  10.485  -3.373  1.00  0.00     0.118 C 
ENDROOT
BRANCH   1   2
ATOM      2  N   UNL     1       2.635   9.369  -3.101  1.00  0.00    -0.349 N 
ATOM      3  C   UNL     1       2.359   8.040  -2.876  1.00  0.00     0.287 C 
ATOM      4  O   UNL     1       3.328   7.285  -2.764  1.00  0.00    -0.266 OA
ATOM      5  H   UNL     1       3.591   9.604  -3.073  1.00  0.00     0.163 HD
BRANCH   3   6
ATOM      6  C   UNL     1       0.988   7.560  -2.787  1.00  0.00     0.193 A 
ATOM      7  C   UNL     1      -0.537   5.919  -2.842  1.00  0.00     0.234 A 
ATOM      8  C   UNL     1      -1.209   7.105  -2.599  1.00  0.00     0.065 A 
ATOM      9  O   UNL     1       0.804   6.208  -2.936  1.00  0.00    -0.438 OA
ATOM     10  C   UNL     1      -0.246   8.136  -2.554  1.00  0.00     0.058 A 
BRANCH   7  11
ATOM     11  S   UNL     1      -1.145   4.253  -2.995  1.00  0.00     0.273 S 
ATOM     12  O   UNL     1      -0.422   3.642  -4.091  1.00  0.00    -0.204 OA
ATOM     13  O   UNL     1      -2.586   4.365  -3.012  1.00  0.00    -0.204 OA
BRANCH  11  14
ATOM     14  N   UNL     1      -0.756   3.416  -1.585  1.00  0.00    -0.208 NA
ATOM     15  H   UNL     1      -1.149   3.937  -0.801  1.00  0.00     0.141 HD
BRANCH  14  16
ATOM     16  C   UNL     1       0.685   3.194  -1.294  1.00  0.00     0.104 C 
BRANCH  16  17
ATOM     17  C   UNL     1       0.848   2.548   0.097  1.00  0.00     0.052 C 
BRANCH  17  18
ATOM     18  C   UNL     1       0.255   1.150   0.173  1.00  0.00    -0.044 A 
ATOM     19  C   UNL     1       2.498  -0.086  -0.126  1.00  0.00     0.044 C 
ATOM     20  C   UNL     1       0.998  -0.032  -0.009  1.00  0.00    -0.048 A 
ATOM     21  C   UNL     1       0.317  -1.266  -0.041  1.00  0.00     0.004 A 
ATOM     22  C   UNL     1      -1.069  -1.335   0.097  1.00  0.00     0.000 A 
ATOM     23  C   UNL     1      -1.138   1.049   0.376  1.00  0.00     0.004 A 
ATOM     24  C   UNL     1      -1.797  -0.176   0.315  1.00  0.00     0.000 A 
ENDBRANCH  17  18
ENDBRANCH  16  17
ENDBRANCH  14  16
ENDBRANCH  11  14
ENDBRANCH   7  11
ENDBRANCH   3   6
ENDBRANCH   1   2
BRANCH   1  25
ATOM     25  C   UNL     1       1.230  11.120  -2.084  1.00  0.00     0.042 C 
BRANCH  25  26
ATOM     26  C   UNL     1       2.142  12.217  -1.581  1.00  0.00     0.118 C 
BRANCH  26  27
ATOM     27  N   UNL     1       1.796  13.551  -2.055  1.00  0.00    -0.352 N 
ATOM     28  C   UNL     1       2.059  14.695  -1.303  1.00  0.00     0.251 C 
ATOM     29  H   UNL     1       1.363  13.647  -2.933  1.00  0.00     0.163 HD
ATOM     30  O   UNL     1       1.226  15.544  -1.024  1.00  0.00    -0.269 OA
BRANCH  28  31
ATOM     31  C   UNL     1       3.484  14.879  -0.958  1.00  0.00     0.039 A 
ATOM     32  C   UNL     1       4.217  15.868  -1.621  1.00  0.00     0.014 A 
ATOM     33  C   UNL     1       4.113  13.845  -0.276  1.00  0.00     0.014 A 
ATOM     34  C   UNL     1       5.583  15.693  -1.788  1.00  0.00     0.010 A 
ATOM     35  C   UNL     1       5.408  13.571  -0.601  1.00  0.00     0.010 A 
ATOM     36  C   UNL     1       6.129  14.488  -1.373  1.00  0.00    -0.014 A 
BRANCH  36  37
ATOM     37  C   UNL     1       7.507  14.091  -1.518  1.00  0.00     0.031 A 
ATOM     38  C   UNL     1       8.345  14.283  -0.323  1.00  0.00     0.074 A 
ATOM     39  C   UNL     1       7.787  13.262  -2.545  1.00  0.00     0.049 A 
ATOM     40  N   UNL     1       9.604  14.067  -0.282  1.00  0.00    -0.248 NA
ATOM     41  C   UNL     1       7.809  14.764   0.957  1.00  0.00     0.031 C 
ATOM     42  C   UNL     1       8.857  12.284  -2.681  1.00  0.00     0.029 A 
ATOM     43  N   UNL     1       7.217  13.312  -3.814  1.00  0.00    -0.354 N 
ATOM     44  C   UNL     1       9.956  14.009   1.050  1.00  0.00     0.074 A 
ATOM     45  C   UNL     1       8.848  14.575   1.773  1.00  0.00     0.031 C 
ATOM     46  C   UNL     1       9.044  12.027  -3.990  1.00  0.00     0.029 A 
ATOM     47  C   UNL     1       8.224  12.974  -4.735  1.00  0.00     0.049 A 
ATOM     48  H   UNL     1       6.284  13.542  -4.026  1.00  0.00     0.167 HD
ATOM     49  C   UNL     1      11.083  13.324   1.376  1.00  0.00     0.031 A 
ATOM     50  C   UNL     1       8.726  13.971  -5.534  1.00  0.00     0.031 A 
ATOM     51  C   UNL     1      11.772  12.892   0.159  1.00  0.00     0.049 A 
ATOM     52  C   UNL     1      10.148  14.373  -5.166  1.00  0.00     0.074 A 
ATOM     53  C   UNL     1      11.833  11.696  -0.534  1.00  0.00     0.029 A 
ATOM     54  N   UNL     1      12.192  13.871  -0.722  1.00  0.00    -0.354 N 
ATOM     55  N   UNL     1      10.766  13.986  -4.082  1.00  0.00    -0.248 NA
ATOM     56  C   UNL     1      10.976  15.266  -5.973  1.00  0.00     0.031 C 
ATOM     57  C   UNL     1      12.255  11.988  -1.867  1.00  0.00     0.029 A 
ATOM     58  C   UNL     1      12.476  13.351  -1.966  1.00  0.00     0.049 A 
ATOM     59  H   UNL     1      12.278  14.824  -0.488  1.00  0.00     0.167 HD
ATOM     60  C   UNL     1      12.020  14.528  -4.029  1.00  0.00     0.074 A 
ATOM     61  C   UNL     1      12.092  15.354  -5.224  1.00  0.00     0.031 C 
ATOM     62  C   UNL     1      12.898  14.269  -3.013  1.00  0.00     0.031 A 
BRANCH  49  63
ATOM     63  C   UNL     1      11.462  12.844   2.752  1.00  0.00    -0.014 A 
ATOM     64  C   UNL     1      12.462  11.854   2.849  1.00  0.00     0.010 A 
ATOM     65  C   UNL     1      10.883  13.264   3.965  1.00  0.00     0.010 A 
ATOM     66  C   UNL     1      12.833  11.283   4.069  1.00  0.00     0.020 A 
ATOM     67  C   UNL     1      11.241  12.695   5.199  1.00  0.00     0.020 A 
ATOM     68  C   UNL     1      12.214  11.702   5.241  1.00  0.00     0.054 A 
BRANCH  68  69
ATOM     69  S   UNL     1      12.714  10.937   6.803  1.00  0.00     0.124 S 
ATOM     70  O   UNL     1      12.379   9.532   6.583  1.00  0.00    -0.237 OA
ATOM     71  O   UNL     1      14.141  11.243   6.858  1.00  0.00    -0.237 OA
ATOM     72  O   UNL     1      11.895  11.619   7.802  1.00  0.00    -0.744 OA
ENDBRANCH  68  69
ENDBRANCH  49  63
BRANCH  50  73
ATOM     73  C   UNL     1       7.634  14.896  -6.007  1.00  0.00    -0.014 A 
ATOM     74  C   UNL     1       6.643  14.326  -6.844  1.00  0.00     0.010 A 
ATOM     75  C   UNL     1       7.296  16.034  -5.252  1.00  0.00     0.010 A 
ATOM     76  C   UNL     1       5.303  14.714  -6.729  1.00  0.00     0.020 A 
ATOM     77  C   UNL     1       5.953  16.444  -5.161  1.00  0.00     0.020 A 
ATOM     78  C   UNL     1       4.959  15.714  -5.822  1.00  0.00     0.054 A 
BRANCH  78  79
ATOM     79  S   UNL     1       3.202  15.895  -5.371  1.00  0.00     0.124 S 
ATOM     80  O   UNL     1       2.566  16.109  -6.667  1.00  0.00    -0.237 OA
ATOM     81  O   UNL     1       2.906  14.609  -4.729  1.00  0.00    -0.237 OA
ATOM     82  O   UNL     1       3.197  17.048  -4.478  1.00  0.00    -0.744 OA
ENDBRANCH  78  79
ENDBRANCH  50  73
BRANCH  62  83
ATOM     83  C   UNL     1      14.261  14.899  -2.892  1.00  0.00    -0.014 A 
ATOM     84  C   UNL     1      15.094  15.124  -3.994  1.00  0.00     0.010 A 
ATOM     85  C   UNL     1      14.791  15.203  -1.614  1.00  0.00     0.010 A 
ATOM     86  C   UNL     1      16.349  15.726  -3.836  1.00  0.00     0.020 A 
ATOM     87  C   UNL     1      16.049  15.774  -1.440  1.00  0.00     0.020 A 
ATOM     88  C   UNL     1      16.808  16.064  -2.561  1.00  0.00     0.054 A 
BRANCH  88  89
ATOM     89  S   UNL     1      18.420  16.857  -2.379  1.00  0.00     0.124 S 
ATOM     90  O   UNL     1      19.277  16.027  -3.221  1.00  0.00    -0.237 OA
ATOM     91  O   UNL     1      18.150  18.200  -2.887  1.00  0.00    -0.237 OA
ATOM     92  O   UNL     1      18.692  16.775  -0.947  1.00  0.00    -0.744 OA
ENDBRANCH  88  89
ENDBRANCH  62  83
ENDBRANCH  36  37
ENDBRANCH  28  31
ENDBRANCH  26  27
ENDBRANCH  25  26
ENDBRANCH   1  25
TORSDOF 18
