REMARK SMILES CS(=O)(=O)c1ccc(/C=C(/C(=O)NCCCNC(=O)c2ccc(-c3c4nc(c(-c5ccc(S(=O)(=O)[O-])cc5)c5ccc([nH]5)c(-c5ccc(S(=O)(=O)[O-])cc5)c5nc(c(-c6ccc(S(=O)(=O)[O-])cc6)c6ccc3[nH]6)C=C5)C=C4)cc2)c2ccc(F)cc2)cc1
REMARK SMILES IDX 15 1 14 2 13 3 11 4 12 5 10 7 9 8 8 9 5 10 6 11 88 12 7 13
REMARK SMILES IDX 87 14 2 15 1 16 3 17 4 18 80 19 81 20 86 21 82 22 85 23
REMARK SMILES IDX 83 24 84 25 16 26 17 27 18 28 19 30 20 31 21 32 79 33 22 34
REMARK SMILES IDX 78 35 23 36 24 37 25 38 72 39 26 40 77 41 71 42 73 43 27 44
REMARK SMILES IDX 76 45 70 46 69 47 28 49 58 50 39 51 57 52 40 53 43 54 56 55
REMARK SMILES IDX 74 56 41 57 42 58 55 60 75 61 44 62 29 63 30 64 38 65 31 66
REMARK SMILES IDX 37 67 32 68 33 69 34 70 35 71 36 72 59 73 60 74 68 75 61 76
REMARK SMILES IDX 67 77 62 78 63 79 64 80 65 81 66 82 45 83 46 84 54 85 47 86
REMARK SMILES IDX 53 87 48 88 49 89 50 90 51 91 52 92
REMARK H PARENT 13 6 17 29 73 48 43 59
REMARK Flexibility Score: inf
ROOT
ATOM      1  C   UNL     1       1.158   9.428  -1.965  1.00  0.00     0.042 C 
ENDROOT
BRANCH   1   2
ATOM      2  C   UNL     1       1.772   8.816  -3.226  1.00  0.00     0.118 C 
BRANCH   2   3
ATOM      3  N   UNL     1       3.221   8.815  -3.149  1.00  0.00    -0.352 N 
ATOM      4  C   UNL     1       4.154   7.860  -2.891  1.00  0.00     0.251 C 
ATOM      5  O   UNL     1       5.330   8.233  -2.904  1.00  0.00    -0.269 OA
ATOM      6  H   UNL     1       3.616   9.700  -3.322  1.00  0.00     0.163 HD
BRANCH   4   7
ATOM      7  C   UNL     1       3.821   6.400  -2.687  1.00  0.00     0.047 C 
ATOM      8  C   UNL     1       2.697   6.007  -2.044  1.00  0.00     0.022 C 
BRANCH   8   9
ATOM      9  C   UNL     1       2.152   4.646  -1.838  1.00  0.00    -0.025 A 
ATOM     10  C   UNL     1       1.000   2.092  -1.655  1.00  0.00     0.067 A 
ATOM     11  C   UNL     1       2.370   2.254  -1.445  1.00  0.00     0.021 A 
ATOM     12  C   UNL     1       0.189   3.195  -1.916  1.00  0.00     0.021 A 
ATOM     13  C   UNL     1       2.930   3.533  -1.498  1.00  0.00     0.009 A 
ATOM     14  C   UNL     1       0.768   4.465  -2.010  1.00  0.00     0.009 A 
BRANCH  10  15
ATOM     15  S   UNL     1       0.302   0.461  -1.602  1.00  0.00     0.175 S 
ATOM     16  C   UNL     1       0.768  -0.162  -0.008  1.00  0.00     0.163 C 
ATOM     17  O   UNL     1       0.987  -0.321  -2.616  1.00  0.00    -0.224 OA
ATOM     18  O   UNL     1      -1.141   0.595  -1.614  1.00  0.00    -0.224 OA
ENDBRANCH  10  15
ENDBRANCH   8   9
BRANCH   7  19
ATOM     19  C   UNL     1       4.873   5.419  -3.058  1.00  0.00    -0.013 A 
ATOM     20  C   UNL     1       6.063   5.393  -2.305  1.00  0.00     0.012 A 
ATOM     21  C   UNL     1       4.685   4.463  -4.066  1.00  0.00     0.012 A 
ATOM     22  C   UNL     1       7.029   4.413  -2.529  1.00  0.00     0.040 A 
ATOM     23  C   UNL     1       5.649   3.472  -4.279  1.00  0.00     0.040 A 
ATOM     24  C   UNL     1       6.806   3.453  -3.505  1.00  0.00     0.123 A 
ATOM     25  F   UNL     1       7.713   2.485  -3.694  1.00  0.00    -0.207 F 
ENDBRANCH   7  19
ENDBRANCH   4   7
ENDBRANCH   2   3
ENDBRANCH   1   2
BRANCH   1  26
ATOM     26  C   UNL     1       1.415  10.929  -1.817  1.00  0.00     0.118 C 
BRANCH  26  27
ATOM     27  N   UNL     1       0.744  11.704  -2.849  1.00  0.00    -0.352 N 
ATOM     28  C   UNL     1      -0.149  12.739  -2.743  1.00  0.00     0.251 C 
ATOM     29  H   UNL     1       0.966  11.442  -3.772  1.00  0.00     0.163 HD
ATOM     30  O   UNL     1      -0.764  13.095  -3.746  1.00  0.00    -0.269 OA
BRANCH  28  31
ATOM     31  C   UNL     1      -0.386  13.426  -1.452  1.00  0.00     0.039 A 
ATOM     32  C   UNL     1      -1.685  13.849  -1.152  1.00  0.00     0.014 A 
ATOM     33  C   UNL     1       0.660  13.727  -0.575  1.00  0.00     0.014 A 
ATOM     34  C   UNL     1      -1.939  14.539   0.036  1.00  0.00     0.010 A 
ATOM     35  C   UNL     1       0.395  14.359   0.642  1.00  0.00     0.010 A 
ATOM     36  C   UNL     1      -0.905  14.784   0.954  1.00  0.00    -0.014 A 
BRANCH  36  37
ATOM     37  C   UNL     1      -1.179  15.490   2.234  1.00  0.00     0.031 A 
ATOM     38  C   UNL     1      -0.573  16.841   2.510  1.00  0.00     0.074 A 
ATOM     39  C   UNL     1      -1.947  14.894   3.167  1.00  0.00     0.049 A 
ATOM     40  N   UNL     1      -0.703  17.601   3.568  1.00  0.00    -0.248 NA
ATOM     41  C   UNL     1       0.311  17.403   1.475  1.00  0.00     0.031 C 
ATOM     42  C   UNL     1      -2.548  13.563   3.044  1.00  0.00     0.029 A 
ATOM     43  N   UNL     1      -2.354  15.328   4.403  1.00  0.00    -0.354 N 
ATOM     44  C   UNL     1       0.096  18.716   3.337  1.00  0.00     0.074 A 
ATOM     45  C   UNL     1       0.739  18.515   2.057  1.00  0.00     0.031 C 
ATOM     46  C   UNL     1      -3.267  13.301   4.148  1.00  0.00     0.029 A 
ATOM     47  C   UNL     1      -3.156  14.429   5.067  1.00  0.00     0.049 A 
ATOM     48  H   UNL     1      -2.097  16.200   4.780  1.00  0.00     0.167 HD
ATOM     49  C   UNL     1       0.267  19.816   4.111  1.00  0.00     0.031 A 
ATOM     50  C   UNL     1      -3.740  14.503   6.279  1.00  0.00     0.031 A 
ATOM     51  C   UNL     1      -0.389  20.023   5.376  1.00  0.00     0.049 A 
ATOM     52  C   UNL     1      -3.569  15.750   7.100  1.00  0.00     0.074 A 
ATOM     53  C   UNL     1      -0.334  21.132   6.203  1.00  0.00     0.029 A 
ATOM     54  N   UNL     1      -1.222  19.104   5.997  1.00  0.00    -0.354 N 
ATOM     55  N   UNL     1      -2.868  16.826   6.829  1.00  0.00    -0.248 NA
ATOM     56  C   UNL     1      -4.287  15.803   8.380  1.00  0.00     0.031 C 
ATOM     57  C   UNL     1      -1.097  20.865   7.346  1.00  0.00     0.029 A 
ATOM     58  C   UNL     1      -1.673  19.613   7.204  1.00  0.00     0.049 A 
ATOM     59  H   UNL     1      -1.458  18.220   5.633  1.00  0.00     0.167 HD
ATOM     60  C   UNL     1      -3.083  17.694   7.893  1.00  0.00     0.074 A 
ATOM     61  C   UNL     1      -3.994  17.026   8.800  1.00  0.00     0.031 C 
ATOM     62  C   UNL     1      -2.573  18.934   8.100  1.00  0.00     0.031 A 
BRANCH  49  63
ATOM     63  C   UNL     1       1.208  20.883   3.614  1.00  0.00    -0.014 A 
ATOM     64  C   UNL     1       0.876  21.691   2.511  1.00  0.00     0.010 A 
ATOM     65  C   UNL     1       2.421  21.113   4.288  1.00  0.00     0.010 A 
ATOM     66  C   UNL     1       1.756  22.683   2.069  1.00  0.00     0.020 A 
ATOM     67  C   UNL     1       3.292  22.123   3.866  1.00  0.00     0.020 A 
ATOM     68  C   UNL     1       2.961  22.891   2.748  1.00  0.00     0.054 A 
BRANCH  68  69
ATOM     69  S   UNL     1       4.071  24.204   2.171  1.00  0.00     0.124 S 
ATOM     70  O   UNL     1       4.624  23.616   0.954  1.00  0.00    -0.237 OA
ATOM     71  O   UNL     1       3.160  25.328   1.967  1.00  0.00    -0.237 OA
ATOM     72  O   UNL     1       5.018  24.366   3.271  1.00  0.00    -0.744 OA
ENDBRANCH  68  69
ENDBRANCH  49  63
BRANCH  50  73
ATOM     73  C   UNL     1      -4.564  13.367   6.775  1.00  0.00    -0.014 A 
ATOM     74  C   UNL     1      -5.963  13.479   6.861  1.00  0.00     0.010 A 
ATOM     75  C   UNL     1      -3.950  12.159   7.154  1.00  0.00     0.010 A 
ATOM     76  C   UNL     1      -6.731  12.413   7.339  1.00  0.00     0.020 A 
ATOM     77  C   UNL     1      -4.717  11.082   7.606  1.00  0.00     0.020 A 
ATOM     78  C   UNL     1      -6.102  11.220   7.707  1.00  0.00     0.054 A 
BRANCH  78  79
ATOM     79  S   UNL     1      -7.121   9.831   8.276  1.00  0.00     0.124 S 
ATOM     80  O   UNL     1      -7.472  10.246   9.630  1.00  0.00    -0.237 OA
ATOM     81  O   UNL     1      -8.216   9.824   7.310  1.00  0.00    -0.237 OA
ATOM     82  O   UNL     1      -6.216   8.687   8.186  1.00  0.00    -0.744 OA
ENDBRANCH  78  79
ENDBRANCH  50  73
BRANCH  62  83
ATOM     83  C   UNL     1      -3.021  19.660   9.340  1.00  0.00    -0.014 A 
ATOM     84  C   UNL     1      -2.594  19.259  10.619  1.00  0.00     0.010 A 
ATOM     85  C   UNL     1      -3.875  20.772   9.220  1.00  0.00     0.010 A 
ATOM     86  C   UNL     1      -3.057  19.922  11.758  1.00  0.00     0.020 A 
ATOM     87  C   UNL     1      -4.316  21.456  10.356  1.00  0.00     0.020 A 
ATOM     88  C   UNL     1      -3.923  21.011  11.619  1.00  0.00     0.054 A 
BRANCH  88  89
ATOM     89  S   UNL     1      -4.511  21.859  13.111  1.00  0.00     0.124 S 
ATOM     90  O   UNL     1      -5.522  20.930  13.607  1.00  0.00    -0.237 OA
ATOM     91  O   UNL     1      -3.300  21.963  13.922  1.00  0.00    -0.237 OA
ATOM     92  O   UNL     1      -5.026  23.130  12.606  1.00  0.00    -0.744 OA
ENDBRANCH  88  89
ENDBRANCH  62  83
ENDBRANCH  36  37
ENDBRANCH  28  31
ENDBRANCH  26  27
ENDBRANCH   1  26
TORSDOF 16
