REMARK SMILES O=C(NCCCNC(=O)[C@@H](Cc1ccc(F)cc1)NC(=O)c1ccn(C2CCCC2)n1)c1ccc(-c2c3nc(c(-c4ccc(S(=O)(=O)[O-])cc4)c4ccc([nH]4)c(-c4ccc(S(=O)(=O)[O-])cc4)c4nc(c(-c5ccc(S(=O)(=O)[O-])cc5)c5ccc2[nH]5)C=C4)C=C3)cc1
REMARK SMILES IDX 5 1 4 2 3 3 1 4 2 5 32 7 33 8 91 9 34 10 90 11 35 12 36 13
REMARK SMILES IDX 37 14 84 15 38 16 89 17 83 18 85 19 39 20 88 21 82 22 81 23
REMARK SMILES IDX 40 25 70 26 51 27 69 28 52 29 55 30 68 31 86 32 53 33 54 34
REMARK SMILES IDX 67 36 87 37 56 38 41 39 42 40 50 41 43 42 49 43 44 44 45 45
REMARK SMILES IDX 46 46 47 47 48 48 71 49 72 50 80 51 73 52 79 53 74 54 75 55
REMARK SMILES IDX 76 56 77 57 78 58 57 59 58 60 66 61 59 62 65 63 60 64 61 65
REMARK SMILES IDX 62 66 63 67 64 68 6 69 7 70 8 71 9 73 10 74 11 75 12 76
REMARK SMILES IDX 13 77 18 78 14 79 17 80 15 81 16 82 19 83 20 84 21 86 22 87
REMARK SMILES IDX 23 88 31 89 24 90 25 91 26 92 27 93 30 94 28 95 29 96
REMARK H PARENT 3 6 85 24 55 35 7 72 19 85
REMARK Flexibility Score: inf
ROOT
ATOM      1  C   UNL     1       4.925  -1.632   1.195  1.00  0.00     0.042 C 
ENDROOT
BRANCH   1   2
ATOM      2  C   UNL     1       4.494  -1.093  -0.167  1.00  0.00     0.118 C 
BRANCH   2   3
ATOM      3  N   UNL     1       3.058  -1.052  -0.361  1.00  0.00    -0.352 N 
ATOM      4  O   UNL     1       0.933  -0.559  -0.511  1.00  0.00    -0.269 OA
ATOM      5  C   UNL     1       2.034  -0.192  -0.084  1.00  0.00     0.251 C 
ATOM      6  H   UNL     1       2.733  -1.864  -0.814  1.00  0.00     0.163 HD
BRANCH   5   7
ATOM      7  C   UNL     1       2.105   1.083   0.687  1.00  0.00     0.039 A 
ATOM      8  C   UNL     1       3.257   1.735   1.127  1.00  0.00     0.014 A 
ATOM      9  C   UNL     1       0.857   1.673   0.982  1.00  0.00     0.014 A 
ATOM     10  C   UNL     1       3.154   2.922   1.873  1.00  0.00     0.010 A 
ATOM     11  C   UNL     1       0.752   2.841   1.733  1.00  0.00     0.010 A 
ATOM     12  C   UNL     1       1.903   3.461   2.205  1.00  0.00    -0.014 A 
BRANCH  12  13
ATOM     13  C   UNL     1       1.819   4.769   2.874  1.00  0.00     0.031 A 
ATOM     14  C   UNL     1       2.301   5.916   2.052  1.00  0.00     0.074 A 
ATOM     15  C   UNL     1       1.150   5.015   4.023  1.00  0.00     0.049 A 
ATOM     16  N   UNL     1       3.280   6.728   2.295  1.00  0.00    -0.248 NA
ATOM     17  C   UNL     1       1.663   6.125   0.742  1.00  0.00     0.031 C 
ATOM     18  C   UNL     1       0.332   4.075   4.793  1.00  0.00     0.029 A 
ATOM     19  N   UNL     1       0.957   6.199   4.687  1.00  0.00    -0.354 N 
ATOM     20  C   UNL     1       3.247   7.678   1.276  1.00  0.00     0.074 A 
ATOM     21  C   UNL     1       2.356   7.161   0.269  1.00  0.00     0.031 C 
ATOM     22  C   UNL     1      -0.437   4.761   5.670  1.00  0.00     0.029 A 
ATOM     23  C   UNL     1      -0.080   6.170   5.618  1.00  0.00     0.049 A 
ATOM     24  H   UNL     1       1.504   7.001   4.521  1.00  0.00     0.167 HD
ATOM     25  C   UNL     1       3.754   8.934   1.435  1.00  0.00     0.031 A 
ATOM     26  C   UNL     1      -0.649   7.225   6.261  1.00  0.00     0.031 A 
ATOM     27  C   UNL     1       4.626   9.027   2.576  1.00  0.00     0.049 A 
ATOM     28  C   UNL     1       0.297   8.361   6.188  1.00  0.00     0.074 A 
ATOM     29  C   UNL     1       5.774   8.383   2.990  1.00  0.00     0.029 A 
ATOM     30  N   UNL     1       4.140   9.680   3.684  1.00  0.00    -0.354 N 
ATOM     31  N   UNL     1       1.437   8.399   6.816  1.00  0.00    -0.248 NA
ATOM     32  C   UNL     1       0.147   9.321   5.107  1.00  0.00     0.031 C 
ATOM     33  C   UNL     1       5.656   8.290   4.407  1.00  0.00     0.029 A 
ATOM     34  C   UNL     1       4.474   8.932   4.780  1.00  0.00     0.049 A 
ATOM     35  H   UNL     1       3.642  10.529   3.688  1.00  0.00     0.167 HD
ATOM     36  C   UNL     1       2.293   9.061   5.952  1.00  0.00     0.074 A 
ATOM     37  C   UNL     1       1.419   9.706   4.975  1.00  0.00     0.031 C 
ATOM     38  C   UNL     1       3.632   8.795   5.949  1.00  0.00     0.031 A 
BRANCH  25  39
ATOM     39  C   UNL     1       3.129  10.166   0.812  1.00  0.00    -0.014 A 
ATOM     40  C   UNL     1       3.744  11.420   1.014  1.00  0.00     0.010 A 
ATOM     41  C   UNL     1       1.816  10.178   0.297  1.00  0.00     0.010 A 
ATOM     42  C   UNL     1       3.045  12.617   0.800  1.00  0.00     0.020 A 
ATOM     43  C   UNL     1       1.129  11.364   0.031  1.00  0.00     0.020 A 
ATOM     44  C   UNL     1       1.734  12.577   0.325  1.00  0.00     0.054 A 
BRANCH  44  45
ATOM     45  S   UNL     1       0.798  14.117   0.165  1.00  0.00     0.124 S 
ATOM     46  O   UNL     1       0.633  14.511   1.561  1.00  0.00    -0.237 OA
ATOM     47  O   UNL     1       1.700  14.947  -0.628  1.00  0.00    -0.237 OA
ATOM     48  O   UNL     1      -0.424  13.703  -0.521  1.00  0.00    -0.744 OA
ENDBRANCH  44  45
ENDBRANCH  25  39
BRANCH  26  49
ATOM     49  C   UNL     1      -2.054   7.409   6.714  1.00  0.00    -0.014 A 
ATOM     50  C   UNL     1      -2.414   8.480   7.560  1.00  0.00     0.010 A 
ATOM     51  C   UNL     1      -3.098   6.705   6.082  1.00  0.00     0.010 A 
ATOM     52  C   UNL     1      -3.757   8.873   7.708  1.00  0.00     0.020 A 
ATOM     53  C   UNL     1      -4.439   7.084   6.232  1.00  0.00     0.020 A 
ATOM     54  C   UNL     1      -4.760   8.185   7.022  1.00  0.00     0.054 A 
BRANCH  54  55
ATOM     55  S   UNL     1      -6.467   8.813   7.057  1.00  0.00     0.124 S 
ATOM     56  O   UNL     1      -6.887   8.504   8.420  1.00  0.00    -0.237 OA
ATOM     57  O   UNL     1      -6.293  10.231   6.755  1.00  0.00    -0.237 OA
ATOM     58  O   UNL     1      -7.139   8.041   6.012  1.00  0.00    -0.744 OA
ENDBRANCH  54  55
ENDBRANCH  26  49
BRANCH  38  59
ATOM     59  C   UNL     1       4.233   8.079   7.134  1.00  0.00    -0.014 A 
ATOM     60  C   UNL     1       3.825   6.808   7.582  1.00  0.00     0.010 A 
ATOM     61  C   UNL     1       5.354   8.675   7.740  1.00  0.00     0.010 A 
ATOM     62  C   UNL     1       4.504   6.167   8.629  1.00  0.00     0.020 A 
ATOM     63  C   UNL     1       6.047   8.033   8.768  1.00  0.00     0.020 A 
ATOM     64  C   UNL     1       5.613   6.785   9.215  1.00  0.00     0.054 A 
BRANCH  64  65
ATOM     65  S   UNL     1       6.518   5.933  10.536  1.00  0.00     0.124 S 
ATOM     66  O   UNL     1       5.565   5.957  11.642  1.00  0.00    -0.237 OA
ATOM     67  O   UNL     1       6.776   4.617   9.956  1.00  0.00    -0.237 OA
ATOM     68  O   UNL     1       7.710   6.757  10.730  1.00  0.00    -0.744 OA
ENDBRANCH  64  65
ENDBRANCH  38  59
ENDBRANCH  12  13
ENDBRANCH   5   7
ENDBRANCH   2   3
ENDBRANCH   1   2
BRANCH   1  69
ATOM     69  C   UNL     1       4.326  -2.989   1.589  1.00  0.00     0.117 C 
BRANCH  69  70
ATOM     70  N   UNL     1       5.264  -4.086   1.445  1.00  0.00    -0.354 N 
ATOM     71  C   UNL     1       5.971  -4.812   2.348  1.00  0.00     0.242 C 
ATOM     72  H   UNL     1       5.418  -4.356   0.511  1.00  0.00     0.163 HD
ATOM     73  O   UNL     1       6.574  -5.792   1.886  1.00  0.00    -0.273 OA
BRANCH  71  74
ATOM     74  C   UNL     1       6.019  -4.545   3.875  1.00  0.00     0.176 C 
BRANCH  74  75
ATOM     75  C   UNL     1       6.627  -3.210   4.362  1.00  0.00     0.070 C 
BRANCH  75  76
ATOM     76  C   UNL     1       5.849  -1.912   4.428  1.00  0.00    -0.045 A 
ATOM     77  C   UNL     1       4.505  -1.820   4.820  1.00  0.00     0.007 A 
ATOM     78  C   UNL     1       6.540  -0.711   4.168  1.00  0.00     0.007 A 
ATOM     79  C   UNL     1       3.836  -0.593   4.809  1.00  0.00     0.039 A 
ATOM     80  C   UNL     1       5.884   0.522   4.199  1.00  0.00     0.039 A 
ATOM     81  C   UNL     1       4.531   0.566   4.498  1.00  0.00     0.123 A 
ATOM     82  F   UNL     1       3.886   1.736   4.487  1.00  0.00    -0.207 F 
ENDBRANCH  75  76
ENDBRANCH  74  75
BRANCH  74  83
ATOM     83  N   UNL     1       4.820  -4.974   4.586  1.00  0.00    -0.339 N 
ATOM     84  C   UNL     1       4.617  -5.994   5.484  1.00  0.00     0.272 C 
ATOM     85  H   UNL     1       4.017  -4.440   4.388  1.00  0.00     0.164 HD
ATOM     86  O   UNL     1       3.459  -6.127   5.908  1.00  0.00    -0.267 OA
BRANCH  84  87
ATOM     87  C   UNL     1       5.700  -6.915   5.867  1.00  0.00     0.150 A 
ATOM     88  C   UNL     1       7.059  -6.660   6.208  1.00  0.00     0.056 A 
ATOM     89  N   UNL     1       5.452  -8.237   5.948  1.00  0.00    -0.167 NA
ATOM     90  C   UNL     1       7.635  -7.896   6.403  1.00  0.00     0.110 A 
ATOM     91  N   UNL     1       6.634  -8.804   6.227  1.00  0.00    -0.269 N 
BRANCH  91  92
ATOM     92  C   UNL     1       6.750 -10.246   6.263  1.00  0.00     0.107 C 
ATOM     93  C   UNL     1       5.951 -10.915   7.380  1.00  0.00     0.027 C 
ATOM     94  C   UNL     1       6.223 -10.941   5.005  1.00  0.00     0.027 C 
ATOM     95  C   UNL     1       5.915 -12.380   6.961  1.00  0.00     0.002 C 
ATOM     96  C   UNL     1       5.956 -12.382   5.433  1.00  0.00     0.002 C 
ENDBRANCH  91  92
ENDBRANCH  84  87
ENDBRANCH  74  83
ENDBRANCH  71  74
ENDBRANCH  69  70
ENDBRANCH   1  69
TORSDOF 18
