REMARK SMILES Cc1ccc(-c2nn(CCC(=O)NCCCNC(=O)c3ccc(-c4c5nc(c(-c6ccc(S(=O)(=O)[O-])cc6)c6ccc([nH]6)c(-c6ccc(S(=O)(=O)[O-])cc6)c6nc(c(-c7ccc(S(=O)(=O)[O-])cc7)c7ccc4[nH]7)C=C6)C=C5)cc3)c(=O)c3noc(C)c23)cc1C
REMARK SMILES IDX 15 1 14 2 13 3 11 4 12 5 10 7 9 8 8 9 6 10 7 11 87 12 82 13
REMARK SMILES IDX 85 14 80 15 83 16 84 17 86 18 81 19 5 20 1 21 2 22 3 23
REMARK SMILES IDX 89 24 4 25 88 26 90 27 16 28 17 29 18 30 19 32 20 33 21 34
REMARK SMILES IDX 79 35 22 36 78 37 23 38 24 39 25 40 72 41 26 42 77 43 71 44
REMARK SMILES IDX 73 45 27 46 76 47 70 48 69 49 28 51 58 52 39 53 57 54 40 55
REMARK SMILES IDX 43 56 56 57 74 58 41 59 42 60 55 62 75 63 44 64 29 65 30 66
REMARK SMILES IDX 38 67 31 68 37 69 32 70 33 71 34 72 35 73 36 74 59 75 60 76
REMARK SMILES IDX 68 77 61 78 67 79 62 80 63 81 64 82 65 83 66 84 45 85 46 86
REMARK SMILES IDX 54 87 47 88 53 89 48 90 49 91 50 92 51 93 52 94
REMARK H PARENT 13 6 17 31 73 50 43 61
REMARK Flexibility Score: inf
ROOT
ATOM      1  C   UNL     1      -5.806  -4.535   1.145  1.00  0.00     0.042 C 
ENDROOT
BRANCH   1   2
ATOM      2  C   UNL     1      -5.461  -5.138  -0.218  1.00  0.00     0.117 C 
BRANCH   2   3
ATOM      3  N   UNL     1      -6.578  -5.011  -1.143  1.00  0.00    -0.356 N 
ATOM      4  C   UNL     1      -6.810  -4.130  -2.155  1.00  0.00     0.221 C 
ATOM      5  O   UNL     1      -7.917  -4.149  -2.698  1.00  0.00    -0.275 OA
ATOM      6  H   UNL     1      -7.290  -5.678  -1.014  1.00  0.00     0.163 HD
BRANCH   4   7
ATOM      7  C   UNL     1      -5.734  -3.189  -2.655  1.00  0.00     0.124 C 
BRANCH   7   8
ATOM      8  C   UNL     1      -5.880  -1.768  -2.116  1.00  0.00     0.158 C 
BRANCH   8   9
ATOM      9  N   UNL     1      -5.031  -1.510  -0.952  1.00  0.00    -0.227 N 
ATOM     10  C   UNL     1      -2.824  -1.155  -0.222  1.00  0.00     0.104 A 
ATOM     11  N   UNL     1      -3.660  -1.274  -1.218  1.00  0.00    -0.169 NA
ATOM     12  C   UNL     1      -3.280  -1.381   1.117  1.00  0.00     0.078 A 
ATOM     13  C   UNL     1      -4.650  -1.360   1.396  1.00  0.00     0.183 A 
ATOM     14  C   UNL     1      -2.682  -1.707   2.309  1.00  0.00     0.143 A 
ATOM     15  C   UNL     1      -5.633  -1.365   0.325  1.00  0.00     0.296 A 
ATOM     16  N   UNL     1      -4.894  -1.519   2.701  1.00  0.00    -0.074 NA
ATOM     17  O   UNL     1      -3.649  -1.752   3.274  1.00  0.00    -0.360 OA
ATOM     18  C   UNL     1      -1.321  -2.067   2.752  1.00  0.00     0.091 C 
ATOM     19  O   UNL     1      -6.843  -1.354   0.510  1.00  0.00    -0.265 OA
BRANCH  10  20
ATOM     20  C   UNL     1      -1.501  -0.535  -0.393  1.00  0.00     0.003 A 
ATOM     21  C   UNL     1       2.207   1.604   0.023  1.00  0.00     0.044 C 
ATOM     22  C   UNL     1       0.935   0.824  -0.176  1.00  0.00    -0.048 A 
ATOM     23  C   UNL     1      -0.273   1.534  -0.239  1.00  0.00     0.004 A 
ATOM     24  C   UNL     1       0.919  -0.587  -0.267  1.00  0.00    -0.048 A 
ATOM     25  C   UNL     1      -1.484   0.861  -0.343  1.00  0.00     0.011 A 
ATOM     26  C   UNL     1      -0.313  -1.262  -0.391  1.00  0.00     0.014 A 
ATOM     27  C   UNL     1       2.168  -1.419  -0.140  1.00  0.00     0.044 C 
ENDBRANCH  10  20
ENDBRANCH   8   9
ENDBRANCH   7   8
ENDBRANCH   4   7
ENDBRANCH   2   3
ENDBRANCH   1   2
BRANCH   1  28
ATOM     28  C   UNL     1      -5.719  -5.444   2.373  1.00  0.00     0.118 C 
BRANCH  28  29
ATOM     29  N   UNL     1      -4.344  -5.842   2.623  1.00  0.00    -0.352 N 
ATOM     30  C   UNL     1      -3.466  -5.628   3.654  1.00  0.00     0.251 C 
ATOM     31  H   UNL     1      -3.960  -6.382   1.895  1.00  0.00     0.163 HD
ATOM     32  O   UNL     1      -2.273  -5.767   3.363  1.00  0.00    -0.269 OA
BRANCH  30  33
ATOM     33  C   UNL     1      -3.825  -5.289   5.067  1.00  0.00     0.039 A 
ATOM     34  C   UNL     1      -2.754  -4.924   5.905  1.00  0.00     0.014 A 
ATOM     35  C   UNL     1      -5.090  -5.416   5.647  1.00  0.00     0.014 A 
ATOM     36  C   UNL     1      -2.939  -4.669   7.268  1.00  0.00     0.010 A 
ATOM     37  C   UNL     1      -5.284  -5.131   7.014  1.00  0.00     0.010 A 
ATOM     38  C   UNL     1      -4.213  -4.748   7.834  1.00  0.00    -0.014 A 
BRANCH  38  39
ATOM     39  C   UNL     1      -4.372  -4.292   9.237  1.00  0.00     0.031 A 
ATOM     40  C   UNL     1      -5.510  -3.348   9.473  1.00  0.00     0.074 A 
ATOM     41  C   UNL     1      -3.922  -5.010  10.292  1.00  0.00     0.049 A 
ATOM     42  N   UNL     1      -6.739  -3.758   9.597  1.00  0.00    -0.248 NA
ATOM     43  C   UNL     1      -5.388  -1.898   9.327  1.00  0.00     0.031 C 
ATOM     44  C   UNL     1      -3.919  -6.479  10.325  1.00  0.00     0.029 A 
ATOM     45  N   UNL     1      -3.629  -4.647  11.590  1.00  0.00    -0.354 N 
ATOM     46  C   UNL     1      -7.561  -2.647   9.511  1.00  0.00     0.074 A 
ATOM     47  C   UNL     1      -6.677  -1.514   9.347  1.00  0.00     0.031 C 
ATOM     48  C   UNL     1      -3.815  -6.885  11.608  1.00  0.00     0.029 A 
ATOM     49  C   UNL     1      -3.580  -5.729  12.471  1.00  0.00     0.049 A 
ATOM     50  H   UNL     1      -3.471  -3.716  11.868  1.00  0.00     0.167 HD
ATOM     51  C   UNL     1      -8.917  -2.736   9.586  1.00  0.00     0.031 A 
ATOM     52  C   UNL     1      -3.901  -5.679  13.797  1.00  0.00     0.031 A 
ATOM     53  C   UNL     1      -9.416  -4.061   9.815  1.00  0.00     0.049 A 
ATOM     54  C   UNL     1      -5.396  -5.511  13.723  1.00  0.00     0.074 A 
ATOM     55  C   UNL     1      -9.912  -5.109   9.071  1.00  0.00     0.029 A 
ATOM     56  N   UNL     1      -9.372  -4.540  11.102  1.00  0.00    -0.354 N 
ATOM     57  N   UNL     1      -6.257  -6.461  13.475  1.00  0.00    -0.248 NA
ATOM     58  C   UNL     1      -5.914  -4.154  13.540  1.00  0.00     0.031 C 
ATOM     59  C   UNL     1      -9.698  -6.277   9.870  1.00  0.00     0.029 A 
ATOM     60  C   UNL     1      -9.050  -5.870  11.035  1.00  0.00     0.049 A 
ATOM     61  H   UNL     1      -9.541  -4.022  11.923  1.00  0.00     0.167 HD
ATOM     62  C   UNL     1      -7.302  -5.841  12.789  1.00  0.00     0.074 A 
ATOM     63  C   UNL     1      -7.037  -4.417  12.883  1.00  0.00     0.031 C 
ATOM     64  C   UNL     1      -8.209  -6.515  12.021  1.00  0.00     0.031 A 
BRANCH  51  65
ATOM     65  C   UNL     1      -9.864  -1.595   9.629  1.00  0.00    -0.014 A 
ATOM     66  C   UNL     1     -10.421  -1.268  10.880  1.00  0.00     0.010 A 
ATOM     67  C   UNL     1     -10.400  -1.014   8.470  1.00  0.00     0.010 A 
ATOM     68  C   UNL     1     -11.531  -0.430  10.972  1.00  0.00     0.020 A 
ATOM     69  C   UNL     1     -11.509  -0.157   8.560  1.00  0.00     0.020 A 
ATOM     70  C   UNL     1     -12.082   0.107   9.810  1.00  0.00     0.054 A 
BRANCH  70  71
ATOM     71  S   UNL     1     -13.591   1.101   9.971  1.00  0.00     0.124 S 
ATOM     72  O   UNL     1     -14.541   0.139  10.523  1.00  0.00    -0.237 OA
ATOM     73  O   UNL     1     -13.167   2.159  10.885  1.00  0.00    -0.237 OA
ATOM     74  O   UNL     1     -13.869   1.536   8.605  1.00  0.00    -0.744 OA
ENDBRANCH  70  71
ENDBRANCH  51  65
BRANCH  52  75
ATOM     75  C   UNL     1      -3.016  -4.825  14.655  1.00  0.00    -0.014 A 
ATOM     76  C   UNL     1      -1.625  -5.057  14.580  1.00  0.00     0.010 A 
ATOM     77  C   UNL     1      -3.454  -3.805  15.518  1.00  0.00     0.010 A 
ATOM     78  C   UNL     1      -0.706  -4.205  15.198  1.00  0.00     0.020 A 
ATOM     79  C   UNL     1      -2.539  -2.927  16.122  1.00  0.00     0.020 A 
ATOM     80  C   UNL     1      -1.171  -3.109  15.921  1.00  0.00     0.054 A 
BRANCH  80  81
ATOM     81  S   UNL     1       0.036  -1.890  16.506  1.00  0.00     0.124 S 
ATOM     82  O   UNL     1       0.868  -2.678  17.411  1.00  0.00    -0.237 OA
ATOM     83  O   UNL     1       0.678  -1.475  15.261  1.00  0.00    -0.237 OA
ATOM     84  O   UNL     1      -0.787  -0.867  17.146  1.00  0.00    -0.744 OA
ENDBRANCH  80  81
ENDBRANCH  52  75
BRANCH  64  85
ATOM     85  C   UNL     1      -8.150  -8.011  12.071  1.00  0.00    -0.014 A 
ATOM     86  C   UNL     1      -8.514  -8.688  13.245  1.00  0.00     0.010 A 
ATOM     87  C   UNL     1      -7.811  -8.759  10.928  1.00  0.00     0.010 A 
ATOM     88  C   UNL     1      -8.590 -10.082  13.263  1.00  0.00     0.020 A 
ATOM     89  C   UNL     1      -7.903 -10.154  10.934  1.00  0.00     0.020 A 
ATOM     90  C   UNL     1      -8.306 -10.806  12.101  1.00  0.00     0.054 A 
BRANCH  90  91
ATOM     91  S   UNL     1      -8.532 -12.604  12.127  1.00  0.00     0.124 S 
ATOM     92  O   UNL     1      -7.525 -13.036  13.091  1.00  0.00    -0.237 OA
ATOM     93  O   UNL     1      -9.920 -12.741  12.565  1.00  0.00    -0.237 OA
ATOM     94  O   UNL     1      -8.282 -13.009  10.745  1.00  0.00    -0.744 OA
ENDBRANCH  90  91
ENDBRANCH  64  85
ENDBRANCH  38  39
ENDBRANCH  30  33
ENDBRANCH  28  29
ENDBRANCH   1  28
TORSDOF 16
