REMARK SMILES CC(C)C[C@H](NC(=O)[C@H](Cc1ccccc1)NC(=O)CNC(=O)C[NH3+])C(=O)NCCCNC(=O)c1ccc(-c2c3nc(c(-c4ccc(S(=O)(=O)[O-])cc4)c4ccc([nH]4)c(-c4ccc(S(=O)(=O)[O-])cc4)c4nc(c(-c5ccc(S(=O)(=O)[O-])cc5)c5ccc2[nH]5)C=C4)C=C3)cc1
REMARK SMILES IDX 26 1 27 2 28 3 5 5 4 6 2 7 1 8 3 9 6 10 7 11 8 13 9 14 17 15
REMARK SMILES IDX 18 16 19 18 20 19 21 20 22 21 23 23 24 24 25 25 10 29 11 30
REMARK SMILES IDX 12 31 16 32 13 33 15 34 14 35 29 36 30 37 31 38 32 39 33 40
REMARK SMILES IDX 34 42 35 43 36 44 94 45 37 46 93 47 38 48 39 49 40 50 87 51
REMARK SMILES IDX 41 52 92 53 86 54 88 55 42 56 91 57 85 58 84 59 43 61 73 62
REMARK SMILES IDX 54 63 72 64 55 65 58 66 71 67 89 68 56 69 57 70 70 72 90 73
REMARK SMILES IDX 59 74 44 75 45 76 53 77 46 78 52 79 47 80 48 81 49 82 50 83
REMARK SMILES IDX 51 84 74 85 75 86 83 87 76 88 82 89 77 90 78 91 79 92 80 93
REMARK SMILES IDX 81 94 60 95 61 96 69 97 62 98 68 99 63 100 64 101 65 102
REMARK SMILES IDX 66 103 67 104
REMARK H PARENT 28 4 6 12 17 17 21 22 25 26 25 27 25 28 32 41 88 60 58 71
REMARK Flexibility Score: inf
ROOT
ATOM      1  C   UNL     1      -1.612   1.165   3.671  1.00  0.00     0.242 C 
ATOM      2  O   UNL     1      -1.843   1.226   4.884  1.00  0.00    -0.273 OA
ATOM      3  N   UNL     1      -1.274  -0.057   3.187  1.00  0.00    -0.354 N 
ATOM      4  H   UNL     1      -1.005  -0.705   3.877  1.00  0.00     0.163 HD
ENDROOT
BRANCH   1   5
ATOM      5  C   UNL     1      -1.816   2.410   2.790  1.00  0.00     0.171 C 
BRANCH   5   6
ATOM      6  C   UNL     1      -3.234   2.599   2.206  1.00  0.00     0.038 C 
BRANCH   6   7
ATOM      7  C   UNL     1      -3.744   1.565   1.184  1.00  0.00    -0.015 C 
ATOM      8  C   UNL     1      -4.537   0.444   1.865  1.00  0.00     0.007 C 
ATOM      9  C   UNL     1      -4.653   2.233   0.144  1.00  0.00     0.007 C 
ENDBRANCH   6   7
ENDBRANCH   5   6
BRANCH   5  10
ATOM     10  N   UNL     1      -0.764   2.652   1.808  1.00  0.00    -0.343 N 
ATOM     11  C   UNL     1       0.317   3.478   1.805  1.00  0.00     0.243 C 
ATOM     12  H   UNL     1      -0.854   2.114   0.988  1.00  0.00     0.164 HD
ATOM     13  O   UNL     1       1.053   3.366   0.815  1.00  0.00    -0.273 OA
BRANCH  11  14
ATOM     14  C   UNL     1       0.673   4.489   2.935  1.00  0.00     0.175 C 
BRANCH  14  15
ATOM     15  N   UNL     1       1.701   5.419   2.415  1.00  0.00    -0.342 N 
ATOM     16  C   UNL     1       2.842   5.909   2.964  1.00  0.00     0.240 C 
ATOM     17  H   UNL     1       1.525   5.742   1.502  1.00  0.00     0.164 HD
ATOM     18  O   UNL     1       3.449   6.785   2.340  1.00  0.00    -0.273 OA
BRANCH  16  19
ATOM     19  C   UNL     1       3.469   5.283   4.211  1.00  0.00     0.216 C 
BRANCH  19  20
ATOM     20  N   UNL     1       2.583   5.066   5.341  1.00  0.00    -0.342 N 
ATOM     21  C   UNL     1       2.442   3.927   6.083  1.00  0.00     0.275 C 
ATOM     22  H   UNL     1       2.018   5.829   5.603  1.00  0.00     0.164 HD
ATOM     23  O   UNL     1       1.616   3.916   6.997  1.00  0.00    -0.268 OA
BRANCH  21  24
ATOM     24  C   UNL     1       3.281   2.693   5.736  1.00  0.00     0.360 C 
BRANCH  24  25
ATOM     25  N   UNL     1       2.718   2.015   4.560  1.00  0.00    -0.350 N 
ATOM     26  H   UNL     1       1.763   1.719   4.764  1.00  0.00     0.344 HD
ATOM     27  H   UNL     1       3.285   1.198   4.334  1.00  0.00     0.344 HD
ATOM     28  H   UNL     1       2.714   2.656   3.767  1.00  0.00     0.344 HD
ENDBRANCH  24  25
ENDBRANCH  21  24
ENDBRANCH  19  20
ENDBRANCH  16  19
ENDBRANCH  14  15
BRANCH  14  29
ATOM     29  C   UNL     1      -0.446   5.356   3.543  1.00  0.00     0.070 C 
BRANCH  29  30
ATOM     30  C   UNL     1      -1.490   5.987   2.643  1.00  0.00    -0.045 A 
ATOM     31  C   UNL     1      -1.441   5.981   1.243  1.00  0.00     0.004 A 
ATOM     32  C   UNL     1      -2.576   6.629   3.262  1.00  0.00     0.004 A 
ATOM     33  C   UNL     1      -2.467   6.551   0.486  1.00  0.00     0.000 A 
ATOM     34  C   UNL     1      -3.591   7.218   2.506  1.00  0.00     0.000 A 
ATOM     35  C   UNL     1      -3.541   7.169   1.116  1.00  0.00     0.000 A 
ENDBRANCH  29  30
ENDBRANCH  14  29
ENDBRANCH  11  14
ENDBRANCH   5  10
ENDBRANCH   1   5
BRANCH   3  36
ATOM     36  C   UNL     1      -1.239  -0.578   1.833  1.00  0.00     0.117 C 
BRANCH  36  37
ATOM     37  C   UNL     1      -0.299  -1.757   1.666  1.00  0.00     0.042 C 
BRANCH  37  38
ATOM     38  C   UNL     1      -0.641  -2.945   2.556  1.00  0.00     0.118 C 
BRANCH  38  39
ATOM     39  N   UNL     1      -1.960  -3.515   2.293  1.00  0.00    -0.352 N 
ATOM     40  C   UNL     1      -2.327  -4.635   1.580  1.00  0.00     0.251 C 
ATOM     41  H   UNL     1      -2.710  -3.017   2.691  1.00  0.00     0.163 HD
ATOM     42  O   UNL     1      -3.513  -4.850   1.347  1.00  0.00    -0.269 OA
BRANCH  40  43
ATOM     43  C   UNL     1      -1.288  -5.545   1.058  1.00  0.00     0.039 A 
ATOM     44  C   UNL     1      -1.362  -5.992  -0.263  1.00  0.00     0.014 A 
ATOM     45  C   UNL     1      -0.208  -5.911   1.859  1.00  0.00     0.014 A 
ATOM     46  C   UNL     1      -0.287  -6.694  -0.813  1.00  0.00     0.010 A 
ATOM     47  C   UNL     1       0.909  -6.490   1.277  1.00  0.00     0.010 A 
ATOM     48  C   UNL     1       0.889  -6.883  -0.069  1.00  0.00    -0.014 A 
BRANCH  48  49
ATOM     49  C   UNL     1       2.121  -7.467  -0.661  1.00  0.00     0.031 A 
ATOM     50  C   UNL     1       2.755  -8.679  -0.028  1.00  0.00     0.074 A 
ATOM     51  C   UNL     1       2.736  -6.840  -1.685  1.00  0.00     0.049 A 
ATOM     52  N   UNL     1       3.913  -9.232  -0.281  1.00  0.00    -0.248 NA
ATOM     53  C   UNL     1       2.011  -9.322   1.069  1.00  0.00     0.031 C 
ATOM     54  C   UNL     1       2.261  -5.621  -2.349  1.00  0.00     0.029 A 
ATOM     55  N   UNL     1       3.907  -7.133  -2.340  1.00  0.00    -0.354 N 
ATOM     56  C   UNL     1       4.053 -10.255   0.650  1.00  0.00     0.074 A 
ATOM     57  C   UNL     1       2.889 -10.210   1.507  1.00  0.00     0.031 C 
ATOM     58  C   UNL     1       3.112  -5.295  -3.335  1.00  0.00     0.029 A 
ATOM     59  C   UNL     1       4.218  -6.245  -3.344  1.00  0.00     0.049 A 
ATOM     60  H   UNL     1       4.471  -7.907  -2.112  1.00  0.00     0.167 HD
ATOM     61  C   UNL     1       5.048 -11.166   0.769  1.00  0.00     0.031 A 
ATOM     62  C   UNL     1       5.279  -6.194  -4.172  1.00  0.00     0.031 A 
ATOM     63  C   UNL     1       6.178 -11.238  -0.117  1.00  0.00     0.049 A 
ATOM     64  C   UNL     1       6.353  -7.238  -4.046  1.00  0.00     0.074 A 
ATOM     65  C   UNL     1       7.198 -12.172  -0.136  1.00  0.00     0.029 A 
ATOM     66  N   UNL     1       6.429 -10.346  -1.148  1.00  0.00    -0.354 N 
ATOM     67  N   UNL     1       6.437  -8.233  -3.196  1.00  0.00    -0.248 NA
ATOM     68  C   UNL     1       7.472  -7.155  -4.995  1.00  0.00     0.031 C 
ATOM     69  C   UNL     1       8.087 -11.823  -1.157  1.00  0.00     0.029 A 
ATOM     70  C   UNL     1       7.596 -10.699  -1.802  1.00  0.00     0.049 A 
ATOM     71  H   UNL     1       5.861  -9.577  -1.381  1.00  0.00     0.167 HD
ATOM     72  C   UNL     1       7.609  -8.907  -3.519  1.00  0.00     0.074 A 
ATOM     73  C   UNL     1       8.190  -8.217  -4.653  1.00  0.00     0.031 C 
ATOM     74  C   UNL     1       8.156  -9.997  -2.929  1.00  0.00     0.031 A 
BRANCH  61  75
ATOM     75  C   UNL     1       4.945 -12.162   1.893  1.00  0.00    -0.014 A 
ATOM     76  C   UNL     1       3.964 -13.170   1.882  1.00  0.00     0.010 A 
ATOM     77  C   UNL     1       5.851 -12.101   2.968  1.00  0.00     0.010 A 
ATOM     78  C   UNL     1       3.856 -14.065   2.949  1.00  0.00     0.020 A 
ATOM     79  C   UNL     1       5.765 -13.014   4.023  1.00  0.00     0.020 A 
ATOM     80  C   UNL     1       4.754 -13.977   4.016  1.00  0.00     0.054 A 
BRANCH  80  81
ATOM     81  S   UNL     1       4.597 -15.159   5.384  1.00  0.00     0.124 S 
ATOM     82  O   UNL     1       3.428 -14.643   6.092  1.00  0.00    -0.237 OA
ATOM     83  O   UNL     1       4.400 -16.429   4.690  1.00  0.00    -0.237 OA
ATOM     84  O   UNL     1       5.865 -15.032   6.098  1.00  0.00    -0.744 OA
ENDBRANCH  80  81
ENDBRANCH  61  75
BRANCH  62  85
ATOM     85  C   UNL     1       5.365  -5.128  -5.208  1.00  0.00    -0.014 A 
ATOM     86  C   UNL     1       5.167  -5.444  -6.564  1.00  0.00     0.010 A 
ATOM     87  C   UNL     1       5.626  -3.794  -4.848  1.00  0.00     0.010 A 
ATOM     88  C   UNL     1       5.245  -4.449  -7.542  1.00  0.00     0.020 A 
ATOM     89  C   UNL     1       5.680  -2.791  -5.821  1.00  0.00     0.020 A 
ATOM     90  C   UNL     1       5.500  -3.127  -7.164  1.00  0.00     0.054 A 
BRANCH  90  91
ATOM     91  S   UNL     1       5.541  -1.843  -8.446  1.00  0.00     0.124 S 
ATOM     92  O   UNL     1       6.834  -2.087  -9.077  1.00  0.00    -0.237 OA
ATOM     93  O   UNL     1       4.370  -2.168  -9.257  1.00  0.00    -0.237 OA
ATOM     94  O   UNL     1       5.436  -0.600  -7.686  1.00  0.00    -0.744 OA
ENDBRANCH  90  91
ENDBRANCH  62  85
BRANCH  74  95
ATOM     95  C   UNL     1       9.437 -10.526  -3.512  1.00  0.00    -0.014 A 
ATOM     96  C   UNL     1      10.656  -9.859  -3.304  1.00  0.00     0.010 A 
ATOM     97  C   UNL     1       9.427 -11.740  -4.224  1.00  0.00     0.010 A 
ATOM     98  C   UNL     1      11.843 -10.385  -3.819  1.00  0.00     0.020 A 
ATOM     99  C   UNL     1      10.615 -12.281  -4.719  1.00  0.00     0.020 A 
ATOM    100  C   UNL     1      11.815 -11.594  -4.523  1.00  0.00     0.054 A 
BRANCH 100 101
ATOM    101  S   UNL     1      13.376 -12.284  -5.135  1.00  0.00     0.124 S 
ATOM    102  O   UNL     1      13.654 -11.431  -6.287  1.00  0.00    -0.237 OA
ATOM    103  O   UNL     1      14.273 -12.112  -3.995  1.00  0.00    -0.237 OA
ATOM    104  O   UNL     1      13.040 -13.670  -5.452  1.00  0.00    -0.744 OA
ENDBRANCH 100 101
ENDBRANCH  74  95
ENDBRANCH  48  49
ENDBRANCH  40  43
ENDBRANCH  38  39
ENDBRANCH  37  38
ENDBRANCH  36  37
ENDBRANCH   3  36
TORSDOF 24
