REMARK SMILES Cc1ccc(-c2cc(C(=O)NCCCNC(=O)c3ccc(-c4c5nc(c(-c6ccc(S(=O)(=O)[O-])cc6)c6ccc([nH]6)c(-c6ccc(S(=O)(=O)[O-])cc6)c6nc(c(-c7ccc(S(=O)(=O)[O-])cc7)c7ccc4[nH]7)C=C6)C=C5)cc3)c3cc(C)ccc3n2)c(C)c1
REMARK SMILES IDX 14 1 13 2 12 3 11 4 9 5 10 6 8 8 6 9 7 10 85 11 84 12 78 13
REMARK SMILES IDX 83 14 79 15 82 16 80 17 81 18 5 19 1 20 2 21 3 22 88 23 4 24
REMARK SMILES IDX 86 25 87 26 15 27 16 28 17 30 18 31 19 32 77 33 20 34 76 35
REMARK SMILES IDX 21 36 22 37 23 38 70 39 24 40 75 41 69 42 71 43 25 44 74 45
REMARK SMILES IDX 68 46 67 47 26 49 56 50 37 51 55 52 38 53 41 54 54 55 72 56
REMARK SMILES IDX 39 57 40 58 53 60 73 61 42 62 27 63 28 64 36 65 29 66 35 67
REMARK SMILES IDX 30 68 31 69 32 70 33 71 34 72 57 73 58 74 66 75 59 76 65 77
REMARK SMILES IDX 60 78 61 79 62 80 63 81 64 82 43 83 44 84 52 85 45 86 51 87
REMARK SMILES IDX 46 88 47 89 48 90 49 91 50 92
REMARK H PARENT 11 7 15 29 71 48 41 59
REMARK Flexibility Score: inf
ROOT
ATOM      1  C   UNL     1      -6.977  -7.644   1.890  1.00  0.00     0.118 C 
ENDROOT
BRANCH   1   2
ATOM      2  C   UNL     1      -6.233  -7.025   0.714  1.00  0.00     0.042 C 
BRANCH   2   3
ATOM      3  C   UNL     1      -6.069  -5.519   0.782  1.00  0.00     0.118 C 
BRANCH   3   4
ATOM      4  N   UNL     1      -5.367  -4.997   1.948  1.00  0.00    -0.352 N 
ATOM      5  C   UNL     1      -4.643  -3.835   2.120  1.00  0.00     0.252 C 
ATOM      6  O   UNL     1      -4.215  -3.580   3.246  1.00  0.00    -0.269 OA
ATOM      7  H   UNL     1      -5.419  -5.570   2.747  1.00  0.00     0.163 HD
BRANCH   5   8
ATOM      8  C   UNL     1      -4.267  -2.934   0.993  1.00  0.00     0.051 A 
ATOM      9  C   UNL     1      -2.489  -1.736  -0.068  1.00  0.00     0.072 A 
ATOM     10  C   UNL     1      -2.944  -2.477   1.008  1.00  0.00     0.043 A 
ATOM     11  N   UNL     1      -3.235  -1.556  -1.182  1.00  0.00    -0.248 NA
ATOM     12  C   UNL     1      -4.508  -1.979  -1.190  1.00  0.00     0.072 A 
ATOM     13  C   UNL     1      -5.119  -2.558  -0.067  1.00  0.00     0.013 A 
ATOM     14  C   UNL     1      -5.250  -1.851  -2.356  1.00  0.00     0.029 A 
ATOM     15  C   UNL     1      -6.518  -2.747  -0.089  1.00  0.00     0.014 A 
ATOM     16  C   UNL     1      -6.586  -2.256  -2.429  1.00  0.00     0.005 A 
ATOM     17  C   UNL     1      -7.242  -2.685  -1.281  1.00  0.00    -0.050 A 
ATOM     18  C   UNL     1      -8.638  -3.232  -1.337  1.00  0.00     0.044 C 
BRANCH   9  19
ATOM     19  C   UNL     1      -1.205  -1.020  -0.042  1.00  0.00     0.003 A 
ATOM     20  C   UNL     1       2.605   1.050   0.010  1.00  0.00     0.044 C 
ATOM     21  C   UNL     1       1.296   0.319   0.001  1.00  0.00    -0.051 A 
ATOM     22  C   UNL     1       1.240  -1.075  -0.034  1.00  0.00     0.004 A 
ATOM     23  C   UNL     1       0.099   1.043   0.019  1.00  0.00     0.007 A 
ATOM     24  C   UNL     1       0.006  -1.735  -0.056  1.00  0.00     0.011 A 
ATOM     25  C   UNL     1      -1.149   0.393   0.011  1.00  0.00    -0.041 A 
ATOM     26  C   UNL     1      -2.385   1.257   0.015  1.00  0.00     0.045 C 
ENDBRANCH   9  19
ENDBRANCH   5   8
ENDBRANCH   3   4
ENDBRANCH   2   3
ENDBRANCH   1   2
BRANCH   1  27
ATOM     27  N   UNL     1      -8.333  -7.139   2.092  1.00  0.00    -0.352 N 
ATOM     28  C   UNL     1      -9.579  -7.627   1.772  1.00  0.00     0.251 C 
ATOM     29  H   UNL     1      -8.360  -6.269   2.553  1.00  0.00     0.163 HD
ATOM     30  O   UNL     1     -10.560  -6.920   2.005  1.00  0.00    -0.269 OA
BRANCH  28  31
ATOM     31  C   UNL     1      -9.770  -8.940   1.111  1.00  0.00     0.039 A 
ATOM     32  C   UNL     1     -10.807  -9.087   0.181  1.00  0.00     0.014 A 
ATOM     33  C   UNL     1      -8.961 -10.035   1.395  1.00  0.00     0.014 A 
ATOM     34  C   UNL     1     -10.950 -10.283  -0.533  1.00  0.00     0.010 A 
ATOM     35  C   UNL     1      -9.015 -11.171   0.594  1.00  0.00     0.010 A 
ATOM     36  C   UNL     1     -10.010 -11.314  -0.382  1.00  0.00    -0.014 A 
BRANCH  36  37
ATOM     37  C   UNL     1     -10.036 -12.546  -1.218  1.00  0.00     0.031 A 
ATOM     38  C   UNL     1     -10.090 -13.905  -0.564  1.00  0.00     0.074 A 
ATOM     39  C   UNL     1      -9.896 -12.453  -2.556  1.00  0.00     0.049 A 
ATOM     40  N   UNL     1      -9.958 -15.089  -1.106  1.00  0.00    -0.248 NA
ATOM     41  C   UNL     1     -10.270 -13.933   0.897  1.00  0.00     0.031 C 
ATOM     42  C   UNL     1      -9.771 -11.205  -3.315  1.00  0.00     0.029 A 
ATOM     43  N   UNL     1      -9.817 -13.431  -3.518  1.00  0.00    -0.354 N 
ATOM     44  C   UNL     1     -10.000 -15.994  -0.051  1.00  0.00     0.074 A 
ATOM     45  C   UNL     1     -10.108 -15.219   1.165  1.00  0.00     0.031 C 
ATOM     46  C   UNL     1      -9.660 -11.492  -4.622  1.00  0.00     0.029 A 
ATOM     47  C   UNL     1      -9.654 -12.940  -4.793  1.00  0.00     0.049 A 
ATOM     48  H   UNL     1      -9.871 -14.392  -3.313  1.00  0.00     0.167 HD
ATOM     49  C   UNL     1      -9.978 -17.349  -0.087  1.00  0.00     0.031 A 
ATOM     50  C   UNL     1      -9.504 -13.580  -5.969  1.00  0.00     0.031 A 
ATOM     51  C   UNL     1      -9.906 -18.120  -1.299  1.00  0.00     0.049 A 
ATOM     52  C   UNL     1      -9.511 -15.082  -5.992  1.00  0.00     0.074 A 
ATOM     53  C   UNL     1      -9.943 -19.495  -1.449  1.00  0.00     0.029 A 
ATOM     54  N   UNL     1      -9.792 -17.581  -2.572  1.00  0.00    -0.354 N 
ATOM     55  N   UNL     1      -9.606 -15.920  -4.987  1.00  0.00    -0.248 NA
ATOM     56  C   UNL     1      -9.402 -15.726  -7.308  1.00  0.00     0.031 C 
ATOM     57  C   UNL     1      -9.813 -19.789  -2.811  1.00  0.00     0.029 A 
ATOM     58  C   UNL     1      -9.745 -18.595  -3.512  1.00  0.00     0.049 A 
ATOM     59  H   UNL     1      -9.750 -16.619  -2.776  1.00  0.00     0.167 HD
ATOM     60  C   UNL     1      -9.587 -17.191  -5.551  1.00  0.00     0.074 A 
ATOM     61  C   UNL     1      -9.490 -17.010  -6.986  1.00  0.00     0.031 C 
ATOM     62  C   UNL     1      -9.644 -18.398  -4.936  1.00  0.00     0.031 A 
BRANCH  49  63
ATOM     63  C   UNL     1     -10.039 -18.076   1.232  1.00  0.00    -0.014 A 
ATOM     64  C   UNL     1     -11.205 -18.051   2.021  1.00  0.00     0.010 A 
ATOM     65  C   UNL     1      -8.921 -18.795   1.691  1.00  0.00     0.010 A 
ATOM     66  C   UNL     1     -11.230 -18.677   3.269  1.00  0.00     0.020 A 
ATOM     67  C   UNL     1      -8.953 -19.451   2.926  1.00  0.00     0.020 A 
ATOM     68  C   UNL     1     -10.100 -19.365   3.718  1.00  0.00     0.054 A 
BRANCH  68  69
ATOM     69  S   UNL     1     -10.158 -20.162   5.346  1.00  0.00     0.124 S 
ATOM     70  O   UNL     1     -10.040 -19.016   6.245  1.00  0.00    -0.237 OA
ATOM     71  O   UNL     1     -11.462 -20.820   5.337  1.00  0.00    -0.237 OA
ATOM     72  O   UNL     1      -9.009 -21.064   5.332  1.00  0.00    -0.744 OA
ENDBRANCH  68  69
ENDBRANCH  49  63
BRANCH  50  73
ATOM     73  C   UNL     1      -9.354 -12.792  -7.223  1.00  0.00    -0.014 A 
ATOM     74  C   UNL     1     -10.411 -12.718  -8.147  1.00  0.00     0.010 A 
ATOM     75  C   UNL     1      -8.168 -12.080  -7.482  1.00  0.00     0.010 A 
ATOM     76  C   UNL     1     -10.283 -11.954  -9.311  1.00  0.00     0.020 A 
ATOM     77  C   UNL     1      -8.046 -11.295  -8.632  1.00  0.00     0.020 A 
ATOM     78  C   UNL     1      -9.102 -11.243  -9.543  1.00  0.00     0.054 A 
BRANCH  78  79
ATOM     79  S   UNL     1      -8.986 -10.199 -11.024  1.00  0.00     0.124 S 
ATOM     80  O   UNL     1      -8.803 -11.189 -12.080  1.00  0.00    -0.237 OA
ATOM     81  O   UNL     1     -10.272  -9.505 -11.022  1.00  0.00    -0.237 OA
ATOM     82  O   UNL     1      -7.830  -9.349 -10.751  1.00  0.00    -0.744 OA
ENDBRANCH  78  79
ENDBRANCH  50  73
BRANCH  62  83
ATOM     83  C   UNL     1      -9.627 -19.620  -5.813  1.00  0.00    -0.014 A 
ATOM     84  C   UNL     1      -8.448 -20.038  -6.455  1.00  0.00     0.010 A 
ATOM     85  C   UNL     1     -10.795 -20.392  -5.950  1.00  0.00     0.010 A 
ATOM     86  C   UNL     1      -8.445 -21.192  -7.242  1.00  0.00     0.020 A 
ATOM     87  C   UNL     1     -10.789 -21.560  -6.716  1.00  0.00     0.020 A 
ATOM     88  C   UNL     1      -9.616 -21.946  -7.368  1.00  0.00     0.054 A 
BRANCH  88  89
ATOM     89  S   UNL     1      -9.575 -23.465  -8.358  1.00  0.00     0.124 S 
ATOM     90  O   UNL     1      -9.557 -22.939  -9.720  1.00  0.00    -0.237 OA
ATOM     91  O   UNL     1      -8.339 -24.105  -7.914  1.00  0.00    -0.237 OA
ATOM     92  O   UNL     1     -10.802 -24.161  -7.975  1.00  0.00    -0.744 OA
ENDBRANCH  88  89
ENDBRANCH  62  83
ENDBRANCH  36  37
ENDBRANCH  28  31
ENDBRANCH   1  27
TORSDOF 14
