REMARK SMILES O=C(NCCCNC(=O)c1ccccc1NCCCO)c1ccc(-c2c3nc(c(-c4ccc(S(=O)(=O)[O-])cc4)c4ccc([nH]4)c(-c4ccc(S(=O)(=O)[O-])cc4)c4nc(c(-c5ccc(S(=O)(=O)[O-])cc5)c5ccc2[nH]5)C=C4)C=C3)cc1
REMARK SMILES IDX 6 1 5 2 4 3 3 4 1 5 2 6 21 8 22 9 80 10 23 11 79 12 24 13
REMARK SMILES IDX 25 14 26 15 73 16 27 17 78 18 72 19 74 20 28 21 77 22 71 23
REMARK SMILES IDX 70 24 29 26 59 27 40 28 58 29 41 30 44 31 57 32 75 33 42 34
REMARK SMILES IDX 43 35 56 37 76 38 45 39 30 40 31 41 39 42 32 43 38 44 33 45
REMARK SMILES IDX 34 46 35 47 36 48 37 49 60 50 61 51 69 52 62 53 68 54 63 55
REMARK SMILES IDX 64 56 65 57 66 58 67 59 46 60 47 61 55 62 48 63 54 64 49 65
REMARK SMILES IDX 50 66 51 67 52 68 53 69 7 70 8 71 9 73 10 74 11 75 15 76
REMARK SMILES IDX 12 77 14 78 13 79 16 80 17 82 18 83 19 84 20 85
REMARK H PARENT 3 7 74 25 44 36 7 72 16 81 20 86
REMARK Flexibility Score: inf
ROOT
ATOM      1  C   UNL     1       4.962  -1.869   3.054  1.00  0.00     0.118 C 
ENDROOT
BRANCH   1   2
ATOM      2  C   UNL     1       5.342  -0.861   1.988  1.00  0.00     0.042 C 
BRANCH   2   3
ATOM      3  C   UNL     1       4.787  -1.170   0.607  1.00  0.00     0.118 C 
BRANCH   3   4
ATOM      4  N   UNL     1       3.332  -1.110   0.541  1.00  0.00    -0.352 N 
ATOM      5  O   UNL     1       1.291  -0.251   0.167  1.00  0.00    -0.269 OA
ATOM      6  C   UNL     1       2.496  -0.188  -0.047  1.00  0.00     0.251 C 
ATOM      7  H   UNL     1       2.870  -1.853   0.992  1.00  0.00     0.163 HD
BRANCH   6   8
ATOM      8  C   UNL     1       3.046   0.887  -0.904  1.00  0.00     0.039 A 
ATOM      9  C   UNL     1       4.070   0.629  -1.817  1.00  0.00     0.014 A 
ATOM     10  C   UNL     1       2.514   2.176  -0.805  1.00  0.00     0.014 A 
ATOM     11  C   UNL     1       4.687   1.678  -2.487  1.00  0.00     0.010 A 
ATOM     12  C   UNL     1       3.064   3.214  -1.563  1.00  0.00     0.010 A 
ATOM     13  C   UNL     1       4.182   2.981  -2.380  1.00  0.00    -0.014 A 
BRANCH  13  14
ATOM     14  C   UNL     1       4.794   4.082  -3.165  1.00  0.00     0.031 A 
ATOM     15  C   UNL     1       5.420   5.263  -2.477  1.00  0.00     0.074 A 
ATOM     16  C   UNL     1       4.765   4.020  -4.511  1.00  0.00     0.049 A 
ATOM     17  N   UNL     1       5.922   6.351  -3.002  1.00  0.00    -0.248 NA
ATOM     18  C   UNL     1       5.482   5.221  -1.008  1.00  0.00     0.031 C 
ATOM     19  C   UNL     1       4.198   2.918  -5.292  1.00  0.00     0.029 A 
ATOM     20  N   UNL     1       5.213   4.903  -5.460  1.00  0.00    -0.354 N 
ATOM     21  C   UNL     1       6.328   7.139  -1.931  1.00  0.00     0.074 A 
ATOM     22  C   UNL     1       5.996   6.410  -0.725  1.00  0.00     0.031 C 
ATOM     23  C   UNL     1       4.346   3.182  -6.597  1.00  0.00     0.029 A 
ATOM     24  C   UNL     1       4.946   4.503  -6.747  1.00  0.00     0.049 A 
ATOM     25  H   UNL     1       5.680   5.742  -5.240  1.00  0.00     0.167 HD
ATOM     26  C   UNL     1       6.919   8.359  -1.952  1.00  0.00     0.031 A 
ATOM     27  C   UNL     1       5.120   5.139  -7.920  1.00  0.00     0.031 A 
ATOM     28  C   UNL     1       7.230   9.078  -3.161  1.00  0.00     0.049 A 
ATOM     29  C   UNL     1       5.729   6.510  -7.923  1.00  0.00     0.074 A 
ATOM     30  C   UNL     1       7.852  10.307  -3.294  1.00  0.00     0.029 A 
ATOM     31  N   UNL     1       6.932   8.640  -4.444  1.00  0.00    -0.354 N 
ATOM     32  N   UNL     1       6.128   7.230  -6.902  1.00  0.00    -0.248 NA
ATOM     33  C   UNL     1       5.916   7.153  -9.229  1.00  0.00     0.031 C 
ATOM     34  C   UNL     1       7.872  10.641  -4.652  1.00  0.00     0.029 A 
ATOM     35  C   UNL     1       7.331   9.586  -5.373  1.00  0.00     0.049 A 
ATOM     36  H   UNL     1       6.499   7.783  -4.662  1.00  0.00     0.167 HD
ATOM     37  C   UNL     1       6.644   8.401  -7.444  1.00  0.00     0.074 A 
ATOM     38  C   UNL     1       6.505   8.291  -8.883  1.00  0.00     0.031 C 
ATOM     39  C   UNL     1       7.191   9.463  -6.804  1.00  0.00     0.031 A 
BRANCH  26  40
ATOM     40  C   UNL     1       7.212   9.013  -0.625  1.00  0.00    -0.014 A 
ATOM     41  C   UNL     1       8.189   8.503   0.250  1.00  0.00     0.010 A 
ATOM     42  C   UNL     1       6.496  10.165  -0.248  1.00  0.00     0.010 A 
ATOM     43  C   UNL     1       8.393   9.090   1.503  1.00  0.00     0.020 A 
ATOM     44  C   UNL     1       6.720  10.774   0.990  1.00  0.00     0.020 A 
ATOM     45  C   UNL     1       7.648  10.214   1.870  1.00  0.00     0.054 A 
BRANCH  45  46
ATOM     46  S   UNL     1       7.907  10.933   3.515  1.00  0.00     0.124 S 
ATOM     47  O   UNL     1       7.269   9.942   4.378  1.00  0.00    -0.237 OA
ATOM     48  O   UNL     1       9.363  11.001   3.610  1.00  0.00    -0.237 OA
ATOM     49  O   UNL     1       7.229  12.224   3.441  1.00  0.00    -0.744 OA
ENDBRANCH  45  46
ENDBRANCH  26  40
BRANCH  27  50
ATOM     50  C   UNL     1       4.682   4.470  -9.174  1.00  0.00    -0.014 A 
ATOM     51  C   UNL     1       5.624   3.947 -10.075  1.00  0.00     0.010 A 
ATOM     52  C   UNL     1       3.310   4.270  -9.423  1.00  0.00     0.010 A 
ATOM     53  C   UNL     1       5.202   3.227 -11.197  1.00  0.00     0.020 A 
ATOM     54  C   UNL     1       2.886   3.527 -10.527  1.00  0.00     0.020 A 
ATOM     55  C   UNL     1       3.837   3.012 -11.409  1.00  0.00     0.054 A 
BRANCH  55  56
ATOM     56  S   UNL     1       3.323   1.989 -12.816  1.00  0.00     0.124 S 
ATOM     57  O   UNL     1       3.596   2.869 -13.948  1.00  0.00    -0.237 OA
ATOM     58  O   UNL     1       4.196   0.824 -12.693  1.00  0.00    -0.237 OA
ATOM     59  O   UNL     1       1.909   1.728 -12.552  1.00  0.00    -0.744 OA
ENDBRANCH  55  56
ENDBRANCH  27  50
BRANCH  39  60
ATOM     60  C   UNL     1       7.739  10.582  -7.648  1.00  0.00    -0.014 A 
ATOM     61  C   UNL     1       6.891  11.494  -8.300  1.00  0.00     0.010 A 
ATOM     62  C   UNL     1       9.131  10.779  -7.702  1.00  0.00     0.010 A 
ATOM     63  C   UNL     1       7.428  12.582  -8.994  1.00  0.00     0.020 A 
ATOM     64  C   UNL     1       9.670  11.879  -8.371  1.00  0.00     0.020 A 
ATOM     65  C   UNL     1       8.815  12.772  -9.017  1.00  0.00     0.054 A 
BRANCH  65  66
ATOM     66  S   UNL     1       9.481  14.243  -9.845  1.00  0.00     0.124 S 
ATOM     67  O   UNL     1       9.276  13.918 -11.254  1.00  0.00    -0.237 OA
ATOM     68  O   UNL     1       8.640  15.315  -9.317  1.00  0.00    -0.237 OA
ATOM     69  O   UNL     1      10.876  14.283  -9.411  1.00  0.00    -0.744 OA
ENDBRANCH  65  66
ENDBRANCH  39  60
ENDBRANCH  13  14
ENDBRANCH   6   8
ENDBRANCH   3   4
ENDBRANCH   2   3
ENDBRANCH   1   2
BRANCH   1  70
ATOM     70  N   UNL     1       5.426  -3.218   2.812  1.00  0.00    -0.352 N 
ATOM     71  C   UNL     1       5.859  -4.140   3.732  1.00  0.00     0.253 C 
ATOM     72  H   UNL     1       5.432  -3.511   1.872  1.00  0.00     0.163 HD
ATOM     73  O   UNL     1       6.149  -5.274   3.358  1.00  0.00    -0.269 OA
BRANCH  71  74
ATOM     74  C   UNL     1       6.067  -3.757   5.150  1.00  0.00     0.062 A 
ATOM     75  C   UNL     1       7.378  -3.979   5.615  1.00  0.00     0.016 A 
ATOM     76  C   UNL     1       5.060  -3.223   5.994  1.00  0.00     0.047 A 
ATOM     77  C   UNL     1       7.733  -3.636   6.912  1.00  0.00     0.001 A 
ATOM     78  C   UNL     1       5.471  -2.853   7.285  1.00  0.00     0.026 A 
ATOM     79  C   UNL     1       6.781  -3.063   7.743  1.00  0.00     0.002 A 
BRANCH  76  80
ATOM     80  N   UNL     1       3.756  -3.033   5.553  1.00  0.00    -0.384 N 
ATOM     81  H   UNL     1       3.529  -3.420   4.676  1.00  0.00     0.160 HD
BRANCH  80  82
ATOM     82  C   UNL     1       2.688  -2.324   6.245  1.00  0.00     0.115 C 
BRANCH  82  83
ATOM     83  C   UNL     1       2.509  -0.888   5.737  1.00  0.00     0.049 C 
BRANCH  83  84
ATOM     84  C   UNL     1       1.659  -0.729   4.477  1.00  0.00     0.158 C 
BRANCH  84  85
ATOM     85  O   UNL     1       0.533  -1.593   4.503  1.00  0.00    -0.396 OA
ATOM     86  H   UNL     1       0.833  -2.514   4.544  1.00  0.00     0.210 HD
ENDBRANCH  84  85
ENDBRANCH  83  84
ENDBRANCH  82  83
ENDBRANCH  80  82
ENDBRANCH  76  80
ENDBRANCH  71  74
ENDBRANCH   1  70
TORSDOF 18
