REMARK SMILES CC[NH2+][C@@]1(C(=O)NCCCNC(=O)c2ccc(-c3c4nc(c(-c5ccc(S(=O)(=O)[O-])cc5)c5ccc([nH]5)c(-c5ccc(S(=O)(=O)[O-])cc5)c5nc(c(-c6ccc(S(=O)(=O)[O-])cc6)c6ccc3[nH]6)C=C5)C=C4)cc2)CCC[C@H]1CCN1C(=O)CCC1=O
REMARK SMILES IDX 9 1 8 2 7 3 5 4 6 5 4 7 74 8 77 9 75 10 76 11 3 12 2 15 1 16
REMARK SMILES IDX 78 17 79 18 80 19 81 20 85 21 82 22 83 23 84 24 86 25 10 26
REMARK SMILES IDX 11 27 12 28 13 30 14 31 15 32 73 33 16 34 72 35 17 36 18 37
REMARK SMILES IDX 19 38 66 39 20 40 71 41 65 42 67 43 21 44 70 45 64 46 63 47
REMARK SMILES IDX 22 49 52 50 33 51 51 52 34 53 37 54 50 55 68 56 35 57 36 58
REMARK SMILES IDX 49 60 69 61 38 62 23 63 24 64 32 65 25 66 31 67 26 68 27 69
REMARK SMILES IDX 28 70 29 71 30 72 53 73 54 74 62 75 55 76 61 77 56 78 57 79
REMARK SMILES IDX 58 80 59 81 60 82 39 83 40 84 48 85 41 86 47 87 42 88 43 89
REMARK SMILES IDX 44 90 45 91 46 92
REMARK H PARENT 7 6 3 13 3 14 11 29 67 48 37 59
REMARK Flexibility Score: inf
ROOT
ATOM      1  C   UNL     1      -1.346   5.672   3.857  1.00  0.00     0.042 C 
ENDROOT
BRANCH   1   2
ATOM      2  C   UNL     1       0.073   5.572   3.334  1.00  0.00     0.118 C 
BRANCH   2   3
ATOM      3  N   UNL     1       0.539   4.210   3.249  1.00  0.00    -0.351 N 
ATOM      4  C   UNL     1       1.235   3.653   2.228  1.00  0.00     0.281 C 
ATOM      5  O   UNL     1       2.283   3.086   2.580  1.00  0.00    -0.268 OA
ATOM      6  H   UNL     1       0.331   3.624   4.012  1.00  0.00     0.163 HD
BRANCH   4   7
ATOM      7  C   UNL     1       0.805   3.669   0.692  1.00  0.00     0.178 C 
ATOM      8  C   UNL     1       1.563   4.829   0.013  1.00  0.00     0.079 C 
ATOM      9  C   UNL     1      -0.684   3.927   0.292  1.00  0.00     0.062 C 
ATOM     10  C   UNL     1       0.606   6.010  -0.080  1.00  0.00     0.008 C 
ATOM     11  C   UNL     1      -0.796   5.471   0.174  1.00  0.00     0.011 C 
BRANCH   7  12
ATOM     12  N   UNL     1       1.343   2.395   0.108  1.00  0.00    -0.334 N 
ATOM     13  H   UNL     1       1.020   2.329  -0.857  1.00  0.00     0.347 HD
ATOM     14  H   UNL     1       2.358   2.450   0.195  1.00  0.00     0.347 HD
BRANCH  12  15
ATOM     15  C   UNL     1       0.940   1.167   0.809  1.00  0.00     0.257 C 
ATOM     16  C   UNL     1       1.434  -0.042   0.024  1.00  0.00     0.071 C 
ENDBRANCH  12  15
ENDBRANCH   7  12
BRANCH   9  17
ATOM     17  C   UNL     1      -1.195   3.427  -1.097  1.00  0.00     0.033 C 
BRANCH  17  18
ATOM     18  C   UNL     1      -1.471   1.952  -1.382  1.00  0.00     0.129 C 
BRANCH  18  19
ATOM     19  N   UNL     1      -2.255   1.198  -0.419  1.00  0.00    -0.283 N 
ATOM     20  C   UNL     1      -3.272   1.678   0.352  1.00  0.00     0.229 C 
ATOM     21  C   UNL     1      -2.182  -0.167  -0.365  1.00  0.00     0.229 C 
ATOM     22  O   UNL     1      -3.727   2.809   0.364  1.00  0.00    -0.274 OA
ATOM     23  C   UNL     1      -3.781   0.570   1.229  1.00  0.00     0.110 C 
ATOM     24  C   UNL     1      -3.067  -0.668   0.731  1.00  0.00     0.110 C 
ATOM     25  O   UNL     1      -1.522  -0.899  -1.090  1.00  0.00    -0.274 OA
ENDBRANCH  18  19
ENDBRANCH  17  18
ENDBRANCH   9  17
ENDBRANCH   4   7
ENDBRANCH   2   3
ENDBRANCH   1   2
BRANCH   1  26
ATOM     26  C   UNL     1      -1.414   5.499   5.367  1.00  0.00     0.118 C 
BRANCH  26  27
ATOM     27  N   UNL     1      -0.666   6.540   6.071  1.00  0.00    -0.352 N 
ATOM     28  C   UNL     1      -1.112   7.563   6.869  1.00  0.00     0.251 C 
ATOM     29  H   UNL     1       0.310   6.500   5.954  1.00  0.00     0.163 HD
ATOM     30  O   UNL     1      -0.361   8.494   7.143  1.00  0.00    -0.269 OA
BRANCH  28  31
ATOM     31  C   UNL     1      -2.490   7.532   7.392  1.00  0.00     0.039 A 
ATOM     32  C   UNL     1      -3.228   8.715   7.464  1.00  0.00     0.014 A 
ATOM     33  C   UNL     1      -3.047   6.325   7.818  1.00  0.00     0.014 A 
ATOM     34  C   UNL     1      -4.551   8.670   7.904  1.00  0.00     0.010 A 
ATOM     35  C   UNL     1      -4.393   6.264   8.140  1.00  0.00     0.010 A 
ATOM     36  C   UNL     1      -5.154   7.438   8.208  1.00  0.00    -0.014 A 
BRANCH  36  37
ATOM     37  C   UNL     1      -6.573   7.346   8.623  1.00  0.00     0.031 A 
ATOM     38  C   UNL     1      -6.922   6.782   9.974  1.00  0.00     0.074 A 
ATOM     39  C   UNL     1      -7.543   7.695   7.756  1.00  0.00     0.049 A 
ATOM     40  N   UNL     1      -8.101   6.560  10.496  1.00  0.00    -0.248 NA
ATOM     41  C   UNL     1      -5.799   6.378  10.837  1.00  0.00     0.031 C 
ATOM     42  C   UNL     1      -7.325   8.209   6.402  1.00  0.00     0.029 A 
ATOM     43  N   UNL     1      -8.908   7.669   7.886  1.00  0.00    -0.354 N 
ATOM     44  C   UNL     1      -7.859   5.973  11.733  1.00  0.00     0.074 A 
ATOM     45  C   UNL     1      -6.429   5.807  11.852  1.00  0.00     0.031 C 
ATOM     46  C   UNL     1      -8.512   8.496   5.845  1.00  0.00     0.029 A 
ATOM     47  C   UNL     1      -9.574   8.139   6.780  1.00  0.00     0.049 A 
ATOM     48  H   UNL     1      -9.366   7.344   8.694  1.00  0.00     0.167 HD
ATOM     49  C   UNL     1      -8.747   5.627  12.695  1.00  0.00     0.031 A 
ATOM     50  C   UNL     1     -10.894   8.268   6.545  1.00  0.00     0.031 A 
ATOM     51  C   UNL     1     -10.168   5.802  12.567  1.00  0.00     0.049 A 
ATOM     52  C   UNL     1     -11.864   7.864   7.619  1.00  0.00     0.074 A 
ATOM     53  C   UNL     1     -11.156   5.540  13.498  1.00  0.00     0.029 A 
ATOM     54  N   UNL     1     -10.805   6.278  11.429  1.00  0.00    -0.354 N 
ATOM     55  N   UNL     1     -11.617   7.375   8.812  1.00  0.00    -0.248 NA
ATOM     56  C   UNL     1     -13.291   8.038   7.320  1.00  0.00     0.031 C 
ATOM     57  C   UNL     1     -12.395   5.798  12.901  1.00  0.00     0.029 A 
ATOM     58  C   UNL     1     -12.175   6.288  11.623  1.00  0.00     0.049 A 
ATOM     59  H   UNL     1     -10.349   6.566  10.605  1.00  0.00     0.167 HD
ATOM     60  C   UNL     1     -12.857   7.210   9.418  1.00  0.00     0.074 A 
ATOM     61  C   UNL     1     -13.850   7.663   8.463  1.00  0.00     0.031 C 
ATOM     62  C   UNL     1     -13.148   6.733  10.654  1.00  0.00     0.031 A 
BRANCH  49  63
ATOM     63  C   UNL     1      -8.193   5.010  13.955  1.00  0.00    -0.014 A 
ATOM     64  C   UNL     1      -7.372   5.745  14.832  1.00  0.00     0.010 A 
ATOM     65  C   UNL     1      -8.487   3.669  14.263  1.00  0.00     0.010 A 
ATOM     66  C   UNL     1      -6.800   5.133  15.950  1.00  0.00     0.020 A 
ATOM     67  C   UNL     1      -7.947   3.063  15.402  1.00  0.00     0.020 A 
ATOM     68  C   UNL     1      -7.084   3.793  16.223  1.00  0.00     0.054 A 
BRANCH  68  69
ATOM     69  S   UNL     1      -6.313   3.018  17.670  1.00  0.00     0.124 S 
ATOM     70  O   UNL     1      -4.925   2.886  17.235  1.00  0.00    -0.237 OA
ATOM     71  O   UNL     1      -6.549   4.002  18.724  1.00  0.00    -0.237 OA
ATOM     72  O   UNL     1      -7.041   1.761  17.820  1.00  0.00    -0.744 OA
ENDBRANCH  68  69
ENDBRANCH  49  63
BRANCH  50  73
ATOM     73  C   UNL     1     -11.359   8.850   5.257  1.00  0.00    -0.014 A 
ATOM     74  C   UNL     1     -11.912  10.142   5.222  1.00  0.00     0.010 A 
ATOM     75  C   UNL     1     -11.202   8.141   4.051  1.00  0.00     0.010 A 
ATOM     76  C   UNL     1     -12.302  10.713   4.008  1.00  0.00     0.020 A 
ATOM     77  C   UNL     1     -11.565   8.720   2.832  1.00  0.00     0.020 A 
ATOM     78  C   UNL     1     -12.117  10.002   2.819  1.00  0.00     0.054 A 
BRANCH  78  79
ATOM     79  S   UNL     1     -12.557  10.801   1.250  1.00  0.00     0.124 S 
ATOM     80  O   UNL     1     -14.015  10.824   1.318  1.00  0.00    -0.237 OA
ATOM     81  O   UNL     1     -11.896  12.098   1.363  1.00  0.00    -0.237 OA
ATOM     82  O   UNL     1     -11.991   9.908   0.241  1.00  0.00    -0.744 OA
ENDBRANCH  78  79
ENDBRANCH  50  73
BRANCH  62  83
ATOM     83  C   UNL     1     -14.598   6.702  11.059  1.00  0.00    -0.014 A 
ATOM     84  C   UNL     1     -15.500   5.788  10.486  1.00  0.00     0.010 A 
ATOM     85  C   UNL     1     -15.050   7.566  12.074  1.00  0.00     0.010 A 
ATOM     86  C   UNL     1     -16.834   5.761  10.898  1.00  0.00     0.020 A 
ATOM     87  C   UNL     1     -16.375   7.519  12.512  1.00  0.00     0.020 A 
ATOM     88  C   UNL     1     -17.263   6.626  11.911  1.00  0.00     0.054 A 
BRANCH  88  89
ATOM     89  S   UNL     1     -18.988   6.537  12.460  1.00  0.00     0.124 S 
ATOM     90  O   UNL     1     -19.698   7.126  11.328  1.00  0.00    -0.237 OA
ATOM     91  O   UNL     1     -19.189   5.103  12.651  1.00  0.00    -0.237 OA
ATOM     92  O   UNL     1     -19.004   7.332  13.686  1.00  0.00    -0.744 OA
ENDBRANCH  88  89
ENDBRANCH  62  83
ENDBRANCH  36  37
ENDBRANCH  28  31
ENDBRANCH  26  27
ENDBRANCH   1  26
TORSDOF 18
