REMARK SMILES CN1C(=O)C[C@@H](C(=O)NCCCNC(=O)c2ccc(-c3c4nc(c(-c5ccc(S(=O)(=O)[O-])cc5)c5ccc([nH]5)c(-c5ccc(S(=O)(=O)[O-])cc5)c5nc(c(-c6ccc(S(=O)(=O)[O-])cc6)c6ccc3[nH]6)C=C5)C=C4)cc2)C12CCN(C(=O)c1cccc3ccccc13)CC2
REMARK SMILES IDX 12 1 11 2 10 3 9 4 7 5 8 6 6 8 1 9 2 10 3 11 76 12 4 13 5 14
REMARK SMILES IDX 77 15 93 16 78 17 92 18 79 19 80 20 81 21 82 22 83 23 91 24
REMARK SMILES IDX 84 25 86 26 90 27 85 28 87 29 89 30 88 31 13 32 14 33 15 35
REMARK SMILES IDX 16 36 17 37 75 38 18 39 74 40 19 41 20 42 21 43 68 44 22 45
REMARK SMILES IDX 73 46 67 47 69 48 23 49 72 50 66 51 65 52 24 54 54 55 35 56
REMARK SMILES IDX 53 57 36 58 39 59 52 60 70 61 37 62 38 63 51 65 71 66 40 67
REMARK SMILES IDX 25 68 26 69 34 70 27 71 33 72 28 73 29 74 30 75 31 76 32 77
REMARK SMILES IDX 55 78 56 79 64 80 57 81 63 82 58 83 59 84 60 85 61 86 62 87
REMARK SMILES IDX 41 88 42 89 50 90 43 91 49 92 44 93 45 94 46 95 47 96 48 97
REMARK H PARENT 9 7 13 34 69 53 39 64
REMARK Flexibility Score: inf
ROOT
ATOM      1  C   UNL     1       2.387  -1.895  -4.805  1.00  0.00     0.118 C 
ENDROOT
BRANCH   1   2
ATOM      2  C   UNL     1       2.282  -0.960  -3.608  1.00  0.00     0.042 C 
BRANCH   2   3
ATOM      3  C   UNL     1       1.937   0.481  -3.988  1.00  0.00     0.117 C 
BRANCH   3   4
ATOM      4  N   UNL     1       0.656   0.641  -4.667  1.00  0.00    -0.356 N 
ATOM      5  C   UNL     1      -0.532   1.197  -4.323  1.00  0.00     0.226 C 
ATOM      6  O   UNL     1      -1.387   1.244  -5.217  1.00  0.00    -0.275 OA
ATOM      7  H   UNL     1       0.653   0.263  -5.575  1.00  0.00     0.163 HD
BRANCH   5   8
ATOM      8  C   UNL     1      -0.906   1.706  -2.931  1.00  0.00     0.113 C 
ATOM      9  C   UNL     1       0.886   0.128  -0.035  1.00  0.00     0.147 C 
ATOM     10  N   UNL     1       0.340   0.926  -1.119  1.00  0.00    -0.339 N 
ATOM     11  C   UNL     1       0.825   2.208  -1.361  1.00  0.00     0.223 C 
ATOM     12  C   UNL     1      -0.944   0.663  -1.790  1.00  0.00     0.058 C 
ATOM     13  O   UNL     1       1.767   2.749  -0.812  1.00  0.00    -0.275 OA
ATOM     14  C   UNL     1       0.001   2.835  -2.451  1.00  0.00     0.116 C 
ATOM     15  C   UNL     1      -1.110  -0.784  -2.304  1.00  0.00     0.051 C 
ATOM     16  C   UNL     1      -2.094   0.952  -0.776  1.00  0.00     0.051 C 
ATOM     17  C   UNL     1      -2.507  -1.067  -2.857  1.00  0.00     0.122 C 
ATOM     18  C   UNL     1      -3.476   0.505  -1.260  1.00  0.00     0.122 C 
ATOM     19  N   UNL     1      -3.449  -0.862  -1.781  1.00  0.00    -0.338 N 
ATOM     20  C   UNL     1      -4.213  -1.852  -1.171  1.00  0.00     0.254 C 
ATOM     21  O   UNL     1      -4.851  -1.634  -0.139  1.00  0.00    -0.269 OA
BRANCH  20  22
ATOM     22  C   UNL     1      -4.433  -3.185  -1.804  1.00  0.00     0.047 A 
ATOM     23  C   UNL     1      -5.755  -3.377  -2.243  1.00  0.00     0.014 A 
ATOM     24  C   UNL     1      -3.517  -4.279  -1.777  1.00  0.00    -0.006 A 
ATOM     25  C   UNL     1      -6.212  -4.643  -2.586  1.00  0.00     0.001 A 
ATOM     26  C   UNL     1      -4.020  -5.571  -2.088  1.00  0.00    -0.018 A 
ATOM     27  C   UNL     1      -2.138  -4.199  -1.471  1.00  0.00     0.009 A 
ATOM     28  C   UNL     1      -5.359  -5.736  -2.466  1.00  0.00     0.009 A 
ATOM     29  C   UNL     1      -3.184  -6.699  -2.020  1.00  0.00     0.009 A 
ATOM     30  C   UNL     1      -1.292  -5.313  -1.524  1.00  0.00     0.001 A 
ATOM     31  C   UNL     1      -1.822  -6.569  -1.766  1.00  0.00     0.001 A 
ENDBRANCH  20  22
ENDBRANCH   5   8
ENDBRANCH   3   4
ENDBRANCH   2   3
ENDBRANCH   1   2
BRANCH   1  32
ATOM     32  N   UNL     1       3.575  -1.601  -5.593  1.00  0.00    -0.352 N 
ATOM     33  C   UNL     1       4.752  -2.303  -5.681  1.00  0.00     0.251 C 
ATOM     34  H   UNL     1       3.528  -0.783  -6.140  1.00  0.00     0.163 HD
ATOM     35  O   UNL     1       5.760  -1.743  -6.101  1.00  0.00    -0.269 OA
BRANCH  33  36
ATOM     36  C   UNL     1       4.801  -3.725  -5.274  1.00  0.00     0.039 A 
ATOM     37  C   UNL     1       5.930  -4.207  -4.607  1.00  0.00     0.014 A 
ATOM     38  C   UNL     1       3.752  -4.593  -5.590  1.00  0.00     0.014 A 
ATOM     39  C   UNL     1       5.984  -5.548  -4.218  1.00  0.00     0.010 A 
ATOM     40  C   UNL     1       3.768  -5.903  -5.123  1.00  0.00     0.010 A 
ATOM     41  C   UNL     1       4.892  -6.402  -4.447  1.00  0.00    -0.014 A 
BRANCH  41  42
ATOM     42  C   UNL     1       4.911  -7.822  -4.011  1.00  0.00     0.031 A 
ATOM     43  C   UNL     1       4.804  -8.926  -5.032  1.00  0.00     0.074 A 
ATOM     44  C   UNL     1       4.963  -8.117  -2.696  1.00  0.00     0.049 A 
ATOM     45  N   UNL     1       4.738 -10.219  -4.843  1.00  0.00    -0.248 NA
ATOM     46  C   UNL     1       4.733  -8.526  -6.448  1.00  0.00     0.031 C 
ATOM     47  C   UNL     1       5.033  -7.137  -1.609  1.00  0.00     0.029 A 
ATOM     48  N   UNL     1       4.963  -9.328  -2.049  1.00  0.00    -0.354 N 
ATOM     49  C   UNL     1       4.597 -10.781  -6.107  1.00  0.00     0.074 A 
ATOM     50  C   UNL     1       4.534  -9.689  -7.051  1.00  0.00     0.031 C 
ATOM     51  C   UNL     1       5.103  -7.786  -0.435  1.00  0.00     0.029 A 
ATOM     52  C   UNL     1       5.034  -9.223  -0.679  1.00  0.00     0.049 A 
ATOM     53  H   UNL     1       4.916 -10.190  -2.521  1.00  0.00     0.167 HD
ATOM     54  C   UNL     1       4.546 -12.089  -6.454  1.00  0.00     0.031 A 
ATOM     55  C   UNL     1       5.035 -10.175   0.274  1.00  0.00     0.031 A 
ATOM     56  C   UNL     1       4.633 -13.173  -5.512  1.00  0.00     0.049 A 
ATOM     57  C   UNL     1       4.963 -11.621  -0.139  1.00  0.00     0.074 A 
ATOM     58  C   UNL     1       4.656 -14.533  -5.769  1.00  0.00     0.029 A 
ATOM     59  N   UNL     1       4.710 -13.024  -4.136  1.00  0.00    -0.354 N 
ATOM     60  N   UNL     1       4.901 -12.132  -1.345  1.00  0.00    -0.248 NA
ATOM     61  C   UNL     1       4.972 -12.620   0.939  1.00  0.00     0.031 C 
ATOM     62  C   UNL     1       4.682 -15.207  -4.544  1.00  0.00     0.029 A 
ATOM     63  C   UNL     1       4.749 -14.267  -3.529  1.00  0.00     0.049 A 
ATOM     64  H   UNL     1       4.734 -12.161  -3.662  1.00  0.00     0.167 HD
ATOM     65  C   UNL     1       4.901 -13.512  -1.172  1.00  0.00     0.074 A 
ATOM     66  C   UNL     1       4.984 -13.754   0.253  1.00  0.00     0.031 C 
ATOM     67  C   UNL     1       4.840 -14.491  -2.108  1.00  0.00     0.031 A 
BRANCH  54  68
ATOM     68  C   UNL     1       4.384 -12.428  -7.914  1.00  0.00    -0.014 A 
ATOM     69  C   UNL     1       5.419 -12.194  -8.837  1.00  0.00     0.010 A 
ATOM     70  C   UNL     1       3.203 -13.052  -8.356  1.00  0.00     0.010 A 
ATOM     71  C   UNL     1       5.264 -12.551 -10.180  1.00  0.00     0.020 A 
ATOM     72  C   UNL     1       3.056 -13.439  -9.691  1.00  0.00     0.020 A 
ATOM     73  C   UNL     1       4.085 -13.174 -10.598  1.00  0.00     0.054 A 
BRANCH  73  74
ATOM     74  S   UNL     1       3.934 -13.669 -12.336  1.00  0.00     0.124 S 
ATOM     75  O   UNL     1       3.807 -12.378 -13.007  1.00  0.00    -0.237 OA
ATOM     76  O   UNL     1       5.187 -14.380 -12.575  1.00  0.00    -0.237 OA
ATOM     77  O   UNL     1       2.733 -14.502 -12.357  1.00  0.00    -0.744 OA
ENDBRANCH  73  74
ENDBRANCH  54  68
BRANCH  55  78
ATOM     78  C   UNL     1       5.113  -9.798   1.714  1.00  0.00    -0.014 A 
ATOM     79  C   UNL     1       6.250 -10.119   2.478  1.00  0.00     0.010 A 
ATOM     80  C   UNL     1       4.042  -9.130   2.335  1.00  0.00     0.010 A 
ATOM     81  C   UNL     1       6.299  -9.813   3.841  1.00  0.00     0.020 A 
ATOM     82  C   UNL     1       4.101  -8.791   3.690  1.00  0.00     0.020 A 
ATOM     83  C   UNL     1       5.223  -9.151   4.438  1.00  0.00     0.054 A 
BRANCH  83  84
ATOM     84  S   UNL     1       5.318  -8.744   6.204  1.00  0.00     0.124 S 
ATOM     85  O   UNL     1       5.163 -10.055   6.825  1.00  0.00    -0.237 OA
ATOM     86  O   UNL     1       6.644  -8.140   6.316  1.00  0.00    -0.237 OA
ATOM     87  O   UNL     1       4.202  -7.821   6.401  1.00  0.00    -0.744 OA
ENDBRANCH  83  84
ENDBRANCH  55  78
BRANCH  67  88
ATOM     88  C   UNL     1       4.910 -15.917  -1.629  1.00  0.00    -0.014 A 
ATOM     89  C   UNL     1       3.844 -16.510  -0.930  1.00  0.00     0.010 A 
ATOM     90  C   UNL     1       6.042 -16.694  -1.939  1.00  0.00     0.010 A 
ATOM     91  C   UNL     1       3.924 -17.843  -0.520  1.00  0.00     0.020 A 
ATOM     92  C   UNL     1       6.112 -18.036  -1.561  1.00  0.00     0.020 A 
ATOM     93  C   UNL     1       5.057 -18.598  -0.840  1.00  0.00     0.054 A 
BRANCH  93  94
ATOM     94  S   UNL     1       5.115 -20.339  -0.336  1.00  0.00     0.124 S 
ATOM     95  O   UNL     1       5.300 -20.231   1.108  1.00  0.00    -0.237 OA
ATOM     96  O   UNL     1       3.812 -20.840  -0.768  1.00  0.00    -0.237 OA
ATOM     97  O   UNL     1       6.258 -20.876  -1.072  1.00  0.00    -0.744 OA
ENDBRANCH  93  94
ENDBRANCH  67  88
ENDBRANCH  41  42
ENDBRANCH  33  36
ENDBRANCH   1  32
TORSDOF 14
