REMARK SMILES CC(=O)Nc1ccc(/C=C2/CCc3oc(C(=O)NCCCNC(=O)c4ccc(-c5c6nc(c(-c7ccc(S(=O)(=O)[O-])cc7)c7ccc([nH]7)c(-c7ccc(S(=O)(=O)[O-])cc7)c7nc(c(-c8ccc(S(=O)(=O)[O-])cc8)c8ccc5[nH]8)C=C7)C=C6)cc4)c(C)c3C2=O)cc1
REMARK SMILES IDX 20 1 19 2 18 3 16 4 17 5 15 7 9 8 10 9 11 10 88 11 12 12
REMARK SMILES IDX 87 13 89 14 13 15 85 16 14 17 86 18 8 19 5 20 6 21 91 22
REMARK SMILES IDX 7 23 90 24 4 25 1 26 2 27 3 28 21 30 22 31 23 32 24 34 25 35
REMARK SMILES IDX 26 36 84 37 27 38 83 39 28 40 29 41 30 42 77 43 31 44 82 45
REMARK SMILES IDX 76 46 78 47 32 48 81 49 75 50 74 51 33 53 63 54 44 55 62 56
REMARK SMILES IDX 45 57 48 58 61 59 79 60 46 61 47 62 60 64 80 65 49 66 34 67
REMARK SMILES IDX 35 68 43 69 36 70 42 71 37 72 38 73 39 74 40 75 41 76 64 77
REMARK SMILES IDX 65 78 73 79 66 80 72 81 67 82 68 83 69 84 70 85 71 86 50 87
REMARK SMILES IDX 51 88 59 89 52 90 58 91 53 92 54 93 55 94 56 95 57 96
REMARK H PARENT 18 6 4 29 22 33 78 52 48 63
REMARK Flexibility Score: inf
ROOT
ATOM      1  C   UNL     1       2.051  13.330   0.804  1.00  0.00     0.042 C 
ENDROOT
BRANCH   1   2
ATOM      2  C   UNL     1       0.878  12.350   0.896  1.00  0.00     0.118 C 
BRANCH   2   3
ATOM      3  N   UNL     1       0.222  12.129  -0.382  1.00  0.00    -0.349 N 
ATOM      4  C   UNL     1       0.416  11.158  -1.342  1.00  0.00     0.287 C 
ATOM      5  O   UNL     1      -0.386  11.162  -2.277  1.00  0.00    -0.266 OA
ATOM      6  H   UNL     1      -0.481  12.783  -0.599  1.00  0.00     0.163 HD
BRANCH   4   7
ATOM      7  C   UNL     1       1.492  10.182  -1.230  1.00  0.00     0.195 A 
ATOM      8  C   UNL     1       4.242   5.490   0.010  1.00  0.00     0.016 C 
ATOM      9  C   UNL     1       4.383   6.752  -0.442  1.00  0.00     0.001 C 
ATOM     10  C   UNL     1       5.156   7.829   0.302  1.00  0.00     0.048 C 
ATOM     11  C   UNL     1       3.678   7.242  -1.683  1.00  0.00     0.192 C 
ATOM     12  C   UNL     1       4.220   8.963   0.771  1.00  0.00     0.081 C 
ATOM     13  C   UNL     1       2.935   8.455  -1.392  1.00  0.00     0.067 A 
ATOM     14  O   UNL     1       3.700   6.672  -2.754  1.00  0.00    -0.289 OA
ATOM     15  C   UNL     1       3.220   9.220  -0.290  1.00  0.00     0.116 A 
ATOM     16  C   UNL     1       1.805   9.065  -2.013  1.00  0.00     0.012 A 
ATOM     17  O   UNL     1       2.393  10.275  -0.196  1.00  0.00    -0.455 OA
ATOM     18  C   UNL     1       1.085   8.530  -3.202  1.00  0.00     0.049 C 
BRANCH   8  19
ATOM     19  C   UNL     1       3.364   4.430  -0.520  1.00  0.00    -0.025 A 
ATOM     20  C   UNL     1       1.681   2.344  -1.409  1.00  0.00     0.041 A 
ATOM     21  C   UNL     1       1.291   3.671  -1.553  1.00  0.00     0.027 A 
ATOM     22  C   UNL     1       2.921   2.056  -0.837  1.00  0.00     0.027 A 
ATOM     23  C   UNL     1       2.099   4.696  -1.061  1.00  0.00     0.010 A 
ATOM     24  C   UNL     1       3.760   3.093  -0.404  1.00  0.00     0.010 A 
BRANCH  20  25
ATOM     25  N   UNL     1       0.805   1.364  -1.895  1.00  0.00    -0.326 N 
ATOM     26  C   UNL     1       0.999  -0.262  -0.036  1.00  0.00     0.114 C 
ATOM     27  C   UNL     1       0.547   0.109  -1.423  1.00  0.00     0.221 C 
ATOM     28  O   UNL     1      -0.126  -0.671  -2.099  1.00  0.00    -0.275 OA
ATOM     29  H   UNL     1       0.300   1.619  -2.700  1.00  0.00     0.169 HD
ENDBRANCH  20  25
ENDBRANCH   8  19
ENDBRANCH   4   7
ENDBRANCH   2   3
ENDBRANCH   1   2
BRANCH   1  30
ATOM     30  C   UNL     1       1.587  14.782   0.844  1.00  0.00     0.118 C 
BRANCH  30  31
ATOM     31  N   UNL     1       1.028  15.151   2.149  1.00  0.00    -0.352 N 
ATOM     32  C   UNL     1       0.375  16.310   2.522  1.00  0.00     0.251 C 
ATOM     33  H   UNL     1       1.132  14.478   2.860  1.00  0.00     0.163 HD
ATOM     34  O   UNL     1       0.235  16.588   3.708  1.00  0.00    -0.269 OA
BRANCH  32  35
ATOM     35  C   UNL     1      -0.127  17.213   1.473  1.00  0.00     0.039 A 
ATOM     36  C   UNL     1       0.068  18.596   1.556  1.00  0.00     0.014 A 
ATOM     37  C   UNL     1      -0.745  16.650   0.364  1.00  0.00     0.014 A 
ATOM     38  C   UNL     1      -0.267  19.395   0.463  1.00  0.00     0.010 A 
ATOM     39  C   UNL     1      -0.932  17.415  -0.762  1.00  0.00     0.010 A 
ATOM     40  C   UNL     1      -0.741  18.796  -0.712  1.00  0.00    -0.014 A 
BRANCH  40  41
ATOM     41  C   UNL     1      -0.960  19.582  -1.929  1.00  0.00     0.031 A 
ATOM     42  C   UNL     1       0.198  20.377  -2.437  1.00  0.00     0.074 A 
ATOM     43  C   UNL     1      -2.039  19.398  -2.721  1.00  0.00     0.049 A 
ATOM     44  N   UNL     1       0.270  21.655  -2.621  1.00  0.00    -0.248 NA
ATOM     45  C   UNL     1       1.456  19.668  -2.723  1.00  0.00     0.031 C 
ATOM     46  C   UNL     1      -3.124  18.421  -2.566  1.00  0.00     0.029 A 
ATOM     47  N   UNL     1      -2.301  19.942  -3.940  1.00  0.00    -0.354 N 
ATOM     48  C   UNL     1       1.509  21.903  -3.211  1.00  0.00     0.074 A 
ATOM     49  C   UNL     1       2.247  20.666  -3.121  1.00  0.00     0.031 C 
ATOM     50  C   UNL     1      -3.742  18.245  -3.753  1.00  0.00     0.029 A 
ATOM     51  C   UNL     1      -3.229  19.227  -4.688  1.00  0.00     0.049 A 
ATOM     52  H   UNL     1      -1.873  20.768  -4.263  1.00  0.00     0.167 HD
ATOM     53  C   UNL     1       1.776  23.048  -3.905  1.00  0.00     0.031 A 
ATOM     54  C   UNL     1      -3.526  19.400  -5.998  1.00  0.00     0.031 A 
ATOM     55  C   UNL     1       0.761  24.049  -3.708  1.00  0.00     0.049 A 
ATOM     56  C   UNL     1      -3.082  20.765  -6.369  1.00  0.00     0.074 A 
ATOM     57  C   UNL     1       0.245  24.712  -2.613  1.00  0.00     0.029 A 
ATOM     58  N   UNL     1      -0.156  24.228  -4.719  1.00  0.00    -0.354 N 
ATOM     59  N   UNL     1      -3.622  21.849  -5.887  1.00  0.00    -0.248 NA
ATOM     60  C   UNL     1      -1.760  20.936  -6.950  1.00  0.00     0.031 C 
ATOM     61  C   UNL     1      -1.155  24.804  -2.870  1.00  0.00     0.029 A 
ATOM     62  C   UNL     1      -1.394  24.250  -4.130  1.00  0.00     0.049 A 
ATOM     63  H   UNL     1       0.040  24.322  -5.679  1.00  0.00     0.167 HD
ATOM     64  C   UNL     1      -2.562  22.724  -5.705  1.00  0.00     0.074 A 
ATOM     65  C   UNL     1      -1.468  22.155  -6.489  1.00  0.00     0.031 C 
ATOM     66  C   UNL     1      -2.583  23.668  -4.715  1.00  0.00     0.031 A 
BRANCH  53  67
ATOM     67  C   UNL     1       2.771  23.153  -5.037  1.00  0.00    -0.014 A 
ATOM     68  C   UNL     1       3.054  24.421  -5.590  1.00  0.00     0.010 A 
ATOM     69  C   UNL     1       3.231  22.030  -5.752  1.00  0.00     0.010 A 
ATOM     70  C   UNL     1       3.700  24.552  -6.828  1.00  0.00     0.020 A 
ATOM     71  C   UNL     1       3.917  22.150  -6.965  1.00  0.00     0.020 A 
ATOM     72  C   UNL     1       4.111  23.410  -7.515  1.00  0.00     0.054 A 
BRANCH  72  73
ATOM     73  S   UNL     1       4.831  23.578  -9.168  1.00  0.00     0.124 S 
ATOM     74  O   UNL     1       3.684  24.027  -9.950  1.00  0.00    -0.237 OA
ATOM     75  O   UNL     1       5.880  24.571  -8.953  1.00  0.00    -0.237 OA
ATOM     76  O   UNL     1       5.309  22.231  -9.470  1.00  0.00    -0.744 OA
ENDBRANCH  72  73
ENDBRANCH  53  67
BRANCH  54  77
ATOM     77  C   UNL     1      -3.939  18.382  -6.992  1.00  0.00    -0.014 A 
ATOM     78  C   UNL     1      -4.441  18.771  -8.246  1.00  0.00     0.010 A 
ATOM     79  C   UNL     1      -3.584  17.027  -6.817  1.00  0.00     0.010 A 
ATOM     80  C   UNL     1      -4.509  17.858  -9.311  1.00  0.00     0.020 A 
ATOM     81  C   UNL     1      -3.661  16.108  -7.871  1.00  0.00     0.020 A 
ATOM     82  C   UNL     1      -4.092  16.538  -9.123  1.00  0.00     0.054 A 
BRANCH  82  83
ATOM     83  S   UNL     1      -3.976  15.430 -10.558  1.00  0.00     0.124 S 
ATOM     84  O   UNL     1      -5.379  15.174 -10.868  1.00  0.00    -0.237 OA
ATOM     85  O   UNL     1      -3.251  16.245 -11.529  1.00  0.00    -0.237 OA
ATOM     86  O   UNL     1      -3.233  14.280 -10.045  1.00  0.00    -0.744 OA
ENDBRANCH  82  83
ENDBRANCH  54  77
BRANCH  66  87
ATOM     87  C   UNL     1      -3.885  23.922  -3.985  1.00  0.00    -0.014 A 
ATOM     88  C   UNL     1      -4.584  22.925  -3.275  1.00  0.00     0.010 A 
ATOM     89  C   UNL     1      -4.333  25.251  -3.878  1.00  0.00     0.010 A 
ATOM     90  C   UNL     1      -5.716  23.243  -2.510  1.00  0.00     0.020 A 
ATOM     91  C   UNL     1      -5.448  25.578  -3.101  1.00  0.00     0.020 A 
ATOM     92  C   UNL     1      -6.141  24.571  -2.428  1.00  0.00     0.054 A 
BRANCH  92  93
ATOM     93  S   UNL     1      -7.575  24.984  -1.395  1.00  0.00     0.124 S 
ATOM     94  O   UNL     1      -8.685  24.405  -2.147  1.00  0.00    -0.237 OA
ATOM     95  O   UNL     1      -7.264  24.328  -0.127  1.00  0.00    -0.237 OA
ATOM     96  O   UNL     1      -7.558  26.446  -1.345  1.00  0.00    -0.744 OA
ENDBRANCH  92  93
ENDBRANCH  66  87
ENDBRANCH  40  41
ENDBRANCH  32  35
ENDBRANCH  30  31
ENDBRANCH   1  30
TORSDOF 15
