REMARK SMILES C=CCSc1ccccc1C(=O)NCCCNC(=O)c1ccc(-c2c3nc(c(-c4ccc(S(=O)(=O)[O-])cc4)c4ccc([nH]4)c(-c4ccc(S(=O)(=O)[O-])cc4)c4nc(c(-c5ccc(S(=O)(=O)[O-])cc5)c5ccc2[nH]5)C=C4)C=C3)cc1
REMARK SMILES IDX 15 1 14 2 13 3 11 4 12 5 10 7 5 8 6 9 7 10 9 11 8 12 4 13
REMARK SMILES IDX 3 14 2 15 1 16 16 17 17 18 18 19 19 21 20 22 21 23 79 24
REMARK SMILES IDX 22 25 78 26 23 27 24 28 25 29 72 30 26 31 77 32 71 33 73 34
REMARK SMILES IDX 27 35 76 36 70 37 69 38 28 40 58 41 39 42 57 43 40 44 43 45
REMARK SMILES IDX 56 46 74 47 41 48 42 49 55 51 75 52 44 53 29 54 30 55 38 56
REMARK SMILES IDX 31 57 37 58 32 59 33 60 34 61 35 62 36 63 59 64 60 65 68 66
REMARK SMILES IDX 61 67 67 68 62 69 63 70 64 71 65 72 66 73 45 74 46 75 54 76
REMARK SMILES IDX 47 77 53 78 48 79 49 80 50 81 51 82 52 83
REMARK H PARENT 13 6 17 20 73 39 43 50
REMARK Flexibility Score: inf
ROOT
ATOM      1  C   UNL     1      -1.206   1.490   4.589  1.00  0.00     0.042 C 
ENDROOT
BRANCH   1   2
ATOM      2  C   UNL     1      -1.078   0.441   3.507  1.00  0.00     0.118 C 
BRANCH   2   3
ATOM      3  N   UNL     1       0.280   0.069   3.183  1.00  0.00    -0.352 N 
ATOM      4  C   UNL     1       0.742  -1.047   2.536  1.00  0.00     0.252 C 
ATOM      5  O   UNL     1       1.952  -1.123   2.314  1.00  0.00    -0.269 OA
ATOM      6  H   UNL     1       0.972   0.709   3.468  1.00  0.00     0.163 HD
BRANCH   4   7
ATOM      7  C   UNL     1      -0.123  -2.212   2.209  1.00  0.00     0.053 A 
ATOM      8  C   UNL     1      -1.354  -2.228   1.521  1.00  0.00     0.020 A 
ATOM      9  C   UNL     1      -2.033  -3.462   1.420  1.00  0.00     0.016 A 
ATOM     10  C   UNL     1      -1.494  -4.650   1.922  1.00  0.00     0.001 A 
ATOM     11  C   UNL     1       0.428  -3.430   2.671  1.00  0.00     0.015 A 
ATOM     12  C   UNL     1      -0.251  -4.638   2.533  1.00  0.00     0.001 A 
BRANCH   8  13
ATOM     13  S   UNL     1      -2.306  -0.852   0.872  1.00  0.00    -0.121 SA
BRANCH  13  14
ATOM     14  C   UNL     1      -1.388  -0.228  -0.563  1.00  0.00     0.101 C 
BRANCH  14  15
ATOM     15  C   UNL     1       0.042   0.084  -0.288  1.00  0.00    -0.024 C 
ATOM     16  C   UNL     1       1.066  -0.550  -0.874  1.00  0.00     0.005 C 
ENDBRANCH  14  15
ENDBRANCH  13  14
ENDBRANCH   8  13
ENDBRANCH   4   7
ENDBRANCH   2   3
ENDBRANCH   1   2
BRANCH   1  17
ATOM     17  C   UNL     1      -0.488   2.800   4.292  1.00  0.00     0.118 C 
BRANCH  17  18
ATOM     18  N   UNL     1      -0.813   3.409   3.005  1.00  0.00    -0.352 N 
ATOM     19  C   UNL     1      -1.350   4.638   2.680  1.00  0.00     0.251 C 
ATOM     20  H   UNL     1      -0.612   2.839   2.228  1.00  0.00     0.163 HD
ATOM     21  O   UNL     1      -1.579   4.905   1.512  1.00  0.00    -0.269 OA
BRANCH  19  22
ATOM     22  C   UNL     1      -1.700   5.609   3.746  1.00  0.00     0.039 A 
ATOM     23  C   UNL     1      -2.886   6.340   3.633  1.00  0.00     0.014 A 
ATOM     24  C   UNL     1      -0.894   5.774   4.869  1.00  0.00     0.014 A 
ATOM     25  C   UNL     1      -3.312   7.139   4.699  1.00  0.00     0.010 A 
ATOM     26  C   UNL     1      -1.386   6.449   5.979  1.00  0.00     0.010 A 
ATOM     27  C   UNL     1      -2.599   7.146   5.909  1.00  0.00    -0.014 A 
BRANCH  27  28
ATOM     28  C   UNL     1      -3.102   7.866   7.110  1.00  0.00     0.031 A 
ATOM     29  C   UNL     1      -2.251   8.916   7.780  1.00  0.00     0.074 A 
ATOM     30  C   UNL     1      -4.289   7.519   7.649  1.00  0.00     0.049 A 
ATOM     31  N   UNL     1      -2.492   9.602   8.869  1.00  0.00    -0.248 NA
ATOM     32  C   UNL     1      -0.939   9.203   7.175  1.00  0.00     0.031 C 
ATOM     33  C   UNL     1      -5.173   6.459   7.154  1.00  0.00     0.029 A 
ATOM     34  N   UNL     1      -4.959   8.022   8.736  1.00  0.00    -0.354 N 
ATOM     35  C   UNL     1      -1.352  10.366   9.096  1.00  0.00     0.074 A 
ATOM     36  C   UNL     1      -0.397  10.013   8.070  1.00  0.00     0.031 C 
ATOM     37  C   UNL     1      -6.289   6.429   7.901  1.00  0.00     0.029 A 
ATOM     38  C   UNL     1      -6.187   7.438   8.948  1.00  0.00     0.049 A 
ATOM     39  H   UNL     1      -4.596   8.734   9.311  1.00  0.00     0.167 HD
ATOM     40  C   UNL     1      -1.128  11.302  10.049  1.00  0.00     0.031 A 
ATOM     41  C   UNL     1      -7.131   7.695   9.873  1.00  0.00     0.031 A 
ATOM     42  C   UNL     1      -2.096  11.688  11.039  1.00  0.00     0.049 A 
ATOM     43  C   UNL     1      -6.893   8.792  10.872  1.00  0.00     0.074 A 
ATOM     44  C   UNL     1      -1.999  12.677  12.002  1.00  0.00     0.029 A 
ATOM     45  N   UNL     1      -3.350  11.113  11.181  1.00  0.00    -0.354 N 
ATOM     46  N   UNL     1      -5.833   9.550  11.028  1.00  0.00    -0.248 NA
ATOM     47  C   UNL     1      -7.989   9.083  11.807  1.00  0.00     0.031 C 
ATOM     48  C   UNL     1      -3.185  12.680  12.746  1.00  0.00     0.029 A 
ATOM     49  C   UNL     1      -4.036  11.723  12.216  1.00  0.00     0.049 A 
ATOM     50  H   UNL     1      -3.700  10.378  10.626  1.00  0.00     0.167 HD
ATOM     51  C   UNL     1      -6.144  10.424  12.063  1.00  0.00     0.074 A 
ATOM     52  C   UNL     1      -7.497  10.114  12.480  1.00  0.00     0.031 C 
ATOM     53  C   UNL     1      -5.379  11.395  12.620  1.00  0.00     0.031 A 
BRANCH  40  54
ATOM     54  C   UNL     1       0.216  11.982  10.046  1.00  0.00    -0.014 A 
ATOM     55  C   UNL     1       0.576  12.871   9.014  1.00  0.00     0.010 A 
ATOM     56  C   UNL     1       1.128  11.742  11.088  1.00  0.00     0.010 A 
ATOM     57  C   UNL     1       1.841  13.462   8.997  1.00  0.00     0.020 A 
ATOM     58  C   UNL     1       2.385  12.356  11.091  1.00  0.00     0.020 A 
ATOM     59  C   UNL     1       2.741  13.196  10.033  1.00  0.00     0.054 A 
BRANCH  59  60
ATOM     60  S   UNL     1       4.373  13.985   9.992  1.00  0.00     0.124 S 
ATOM     61  O   UNL     1       5.062  13.195   8.974  1.00  0.00    -0.237 OA
ATOM     62  O   UNL     1       4.058  15.359   9.613  1.00  0.00    -0.237 OA
ATOM     63  O   UNL     1       4.873  13.817  11.355  1.00  0.00    -0.744 OA
ENDBRANCH  59  60
ENDBRANCH  40  54
BRANCH  41  64
ATOM     64  C   UNL     1      -8.413   6.939   9.859  1.00  0.00    -0.014 A 
ATOM     65  C   UNL     1      -9.597   7.560   9.422  1.00  0.00     0.010 A 
ATOM     66  C   UNL     1      -8.457   5.594  10.266  1.00  0.00     0.010 A 
ATOM     67  C   UNL     1     -10.806   6.858   9.412  1.00  0.00     0.020 A 
ATOM     68  C   UNL     1      -9.660   4.880  10.234  1.00  0.00     0.020 A 
ATOM     69  C   UNL     1     -10.829   5.521   9.819  1.00  0.00     0.054 A 
BRANCH  69  70
ATOM     70  S   UNL     1     -12.398   4.612   9.748  1.00  0.00     0.124 S 
ATOM     71  O   UNL     1     -13.100   5.126  10.919  1.00  0.00    -0.237 OA
ATOM     72  O   UNL     1     -12.942   5.017   8.454  1.00  0.00    -0.237 OA
ATOM     73  O   UNL     1     -11.983   3.212   9.828  1.00  0.00    -0.744 OA
ENDBRANCH  69  70
ENDBRANCH  41  64
BRANCH  53  74
ATOM     74  C   UNL     1      -6.006  12.209  13.718  1.00  0.00    -0.014 A 
ATOM     75  C   UNL     1      -6.229  11.661  14.993  1.00  0.00     0.010 A 
ATOM     76  C   UNL     1      -6.365  13.546  13.470  1.00  0.00     0.010 A 
ATOM     77  C   UNL     1      -6.852  12.420  15.987  1.00  0.00     0.020 A 
ATOM     78  C   UNL     1      -6.964  14.316  14.470  1.00  0.00     0.020 A 
ATOM     79  C   UNL     1      -7.225  13.740  15.715  1.00  0.00     0.054 A 
BRANCH  79  80
ATOM     80  S   UNL     1      -8.030  14.710  17.018  1.00  0.00     0.124 S 
ATOM     81  O   UNL     1      -9.397  14.198  16.974  1.00  0.00    -0.237 OA
ATOM     82  O   UNL     1      -7.263  14.353  18.209  1.00  0.00    -0.237 OA
ATOM     83  O   UNL     1      -7.866  16.091  16.571  1.00  0.00    -0.744 OA
ENDBRANCH  79  80
ENDBRANCH  53  74
ENDBRANCH  27  28
ENDBRANCH  19  22
ENDBRANCH  17  18
ENDBRANCH   1  17
TORSDOF 16
