REMARK SMILES Cc1cc(C(=O)Nc2ccn(C)n2)sc1/C=C/C(=O)NCCCNC(=O)c1ccc(-c2c3nc(c(-c4ccc(S(=O)(=O)[O-])cc4)c4ccc([nH]4)c(-c4ccc(S(=O)(=O)[O-])cc4)c4nc(c(-c5ccc(S(=O)(=O)[O-])cc5)c5ccc2[nH]5)C=C4)C=C3)cc1
REMARK SMILES IDX 22 1 21 2 20 3 18 4 19 5 17 7 16 8 15 9 1 10 2 11 3 12 4 13
REMARK SMILES IDX 14 14 5 15 6 16 7 17 8 19 9 20 13 21 10 22 11 23 12 24 23 25
REMARK SMILES IDX 24 26 25 27 26 29 27 30 28 31 86 32 29 33 85 34 30 35 31 36
REMARK SMILES IDX 32 37 79 38 33 39 84 40 78 41 80 42 34 43 83 44 77 45 76 46
REMARK SMILES IDX 35 48 65 49 46 50 64 51 47 52 50 53 63 54 81 55 48 56 49 57
REMARK SMILES IDX 62 59 82 60 51 61 36 62 37 63 45 64 38 65 44 66 39 67 40 68
REMARK SMILES IDX 41 69 42 70 43 71 66 72 67 73 75 74 68 75 74 76 69 77 70 78
REMARK SMILES IDX 71 79 72 80 73 81 52 82 53 83 61 84 54 85 60 86 55 87 56 88
REMARK SMILES IDX 57 89 58 90 59 91
REMARK H PARENT 20 6 7 18 24 28 80 47 50 58
REMARK Flexibility Score: inf
ROOT
ATOM      1  C   UNL     1       3.162  -4.684   0.647  1.00  0.00     0.042 C 
ENDROOT
BRANCH   1   2
ATOM      2  C   UNL     1       2.234  -4.773  -0.562  1.00  0.00     0.118 C 
BRANCH   2   3
ATOM      3  N   UNL     1       0.930  -5.293  -0.189  1.00  0.00    -0.352 N 
ATOM      4  C   UNL     1      -0.277  -4.671  -0.129  1.00  0.00     0.244 C 
ATOM      5  O   UNL     1      -1.293  -5.323   0.102  1.00  0.00    -0.270 OA
ATOM      6  H   UNL     1       0.919  -6.245   0.060  1.00  0.00     0.163 HD
BRANCH   4   7
ATOM      7  C   UNL     1      -0.396  -3.230  -0.433  1.00  0.00     0.072 C 
ATOM      8  C   UNL     1       0.408  -2.292   0.090  1.00  0.00     0.025 C 
BRANCH   8   9
ATOM      9  C   UNL     1       0.264  -0.890  -0.138  1.00  0.00     0.031 A 
ATOM     10  C   UNL     1       2.635  -0.024   0.385  1.00  0.00     0.046 C 
ATOM     11  C   UNL     1       1.174   0.136   0.105  1.00  0.00    -0.032 A 
ATOM     12  C   UNL     1       0.507   1.412   0.120  1.00  0.00     0.029 A 
ATOM     13  C   UNL     1      -0.838   1.329  -0.197  1.00  0.00     0.093 A 
ATOM     14  S   UNL     1      -1.136  -0.215  -0.866  1.00  0.00    -0.130 S 
BRANCH  13  15
ATOM     15  C   UNL     1      -1.815   2.415  -0.214  1.00  0.00     0.266 C 
ATOM     16  O   UNL     1      -1.456   3.595  -0.254  1.00  0.00    -0.268 OA
ATOM     17  N   UNL     1      -3.171   2.174  -0.285  1.00  0.00    -0.304 N 
ATOM     18  H   UNL     1      -3.708   2.926  -0.624  1.00  0.00     0.171 HD
BRANCH  17  19
ATOM     19  C   UNL     1      -3.889   1.053   0.042  1.00  0.00     0.154 A 
ATOM     20  C   UNL     1      -3.645   0.080   1.041  1.00  0.00     0.068 A 
ATOM     21  N   UNL     1      -5.001   0.772  -0.640  1.00  0.00    -0.155 NA
ATOM     22  C   UNL     1      -4.568  -0.913   0.806  1.00  0.00     0.110 A 
ATOM     23  N   UNL     1      -5.296  -0.486  -0.263  1.00  0.00    -0.274 N 
ATOM     24  C   UNL     1      -6.222  -1.263  -1.049  1.00  0.00     0.173 C 
ENDBRANCH  17  19
ENDBRANCH  13  15
ENDBRANCH   8   9
ENDBRANCH   4   7
ENDBRANCH   2   3
ENDBRANCH   1   2
BRANCH   1  25
ATOM     25  C   UNL     1       3.741  -6.035   1.053  1.00  0.00     0.118 C 
BRANCH  25  26
ATOM     26  N   UNL     1       4.661  -6.547   0.047  1.00  0.00    -0.352 N 
ATOM     27  C   UNL     1       5.987  -6.881   0.151  1.00  0.00     0.251 C 
ATOM     28  H   UNL     1       4.270  -6.672  -0.848  1.00  0.00     0.163 HD
ATOM     29  O   UNL     1       6.643  -7.052  -0.873  1.00  0.00    -0.269 OA
BRANCH  27  30
ATOM     30  C   UNL     1       6.625  -7.033   1.476  1.00  0.00     0.039 A 
ATOM     31  C   UNL     1       7.937  -6.581   1.646  1.00  0.00     0.014 A 
ATOM     32  C   UNL     1       5.961  -7.665   2.532  1.00  0.00     0.014 A 
ATOM     33  C   UNL     1       8.565  -6.723   2.885  1.00  0.00     0.010 A 
ATOM     34  C   UNL     1       6.563  -7.742   3.785  1.00  0.00     0.010 A 
ATOM     35  C   UNL     1       7.874  -7.282   3.972  1.00  0.00    -0.014 A 
BRANCH  35  36
ATOM     36  C   UNL     1       8.511  -7.399   5.308  1.00  0.00     0.031 A 
ATOM     37  C   UNL     1       8.772  -8.754   5.907  1.00  0.00     0.074 A 
ATOM     38  C   UNL     1       8.799  -6.283   6.005  1.00  0.00     0.049 A 
ATOM     39  N   UNL     1       9.263  -9.055   7.082  1.00  0.00    -0.248 NA
ATOM     40  C   UNL     1       8.414  -9.925   5.089  1.00  0.00     0.031 C 
ATOM     41  C   UNL     1       8.556  -4.912   5.548  1.00  0.00     0.029 A 
ATOM     42  N   UNL     1       9.352  -6.124   7.251  1.00  0.00    -0.354 N 
ATOM     43  C   UNL     1       9.257 -10.443   7.152  1.00  0.00     0.074 A 
ATOM     44  C   UNL     1       8.669 -10.925   5.920  1.00  0.00     0.031 C 
ATOM     45  C   UNL     1       8.979  -4.053   6.490  1.00  0.00     0.029 A 
ATOM     46  C   UNL     1       9.486  -4.809   7.630  1.00  0.00     0.049 A 
ATOM     47  H   UNL     1       9.626  -6.880   7.819  1.00  0.00     0.167 HD
ATOM     48  C   UNL     1       9.714 -11.246   8.143  1.00  0.00     0.031 A 
ATOM     49  C   UNL     1       9.959  -4.271   8.771  1.00  0.00     0.031 A 
ATOM     50  C   UNL     1      10.308 -10.762   9.361  1.00  0.00     0.049 A 
ATOM     51  C   UNL     1      10.462  -5.181   9.857  1.00  0.00     0.074 A 
ATOM     52  C   UNL     1      10.847 -11.493  10.405  1.00  0.00     0.029 A 
ATOM     53  N   UNL     1      10.441  -9.424   9.700  1.00  0.00    -0.354 N 
ATOM     54  N   UNL     1      10.498  -6.492   9.880  1.00  0.00    -0.248 NA
ATOM     55  C   UNL     1      11.001  -4.539  11.063  1.00  0.00     0.031 C 
ATOM     56  C   UNL     1      11.265 -10.598  11.396  1.00  0.00     0.029 A 
ATOM     57  C   UNL     1      11.037  -9.308  10.944  1.00  0.00     0.049 A 
ATOM     58  H   UNL     1      10.154  -8.668   9.139  1.00  0.00     0.167 HD
ATOM     59  C   UNL     1      11.086  -6.832  11.093  1.00  0.00     0.074 A 
ATOM     60  C   UNL     1      11.403  -5.589  11.767  1.00  0.00     0.031 C 
ATOM     61  C   UNL     1      11.341  -8.062  11.603  1.00  0.00     0.031 A 
BRANCH  48  62
ATOM     62  C   UNL     1       9.585 -12.734   7.947  1.00  0.00    -0.014 A 
ATOM     63  C   UNL     1      10.368 -13.412   6.995  1.00  0.00     0.010 A 
ATOM     64  C   UNL     1       8.694 -13.472   8.748  1.00  0.00     0.010 A 
ATOM     65  C   UNL     1      10.229 -14.791   6.815  1.00  0.00     0.020 A 
ATOM     66  C   UNL     1       8.573 -14.856   8.591  1.00  0.00     0.020 A 
ATOM     67  C   UNL     1       9.329 -15.504   7.612  1.00  0.00     0.054 A 
BRANCH  67  68
ATOM     68  S   UNL     1       9.180 -17.295   7.367  1.00  0.00     0.124 S 
ATOM     69  O   UNL     1       8.442 -17.365   6.108  1.00  0.00    -0.237 OA
ATOM     70  O   UNL     1      10.573 -17.727   7.302  1.00  0.00    -0.237 OA
ATOM     71  O   UNL     1       8.445 -17.746   8.546  1.00  0.00    -0.744 OA
ENDBRANCH  67  68
ENDBRANCH  48  62
BRANCH  49  72
ATOM     72  C   UNL     1       9.993  -2.792   8.931  1.00  0.00    -0.014 A 
ATOM     73  C   UNL     1      11.216  -2.100   8.899  1.00  0.00     0.010 A 
ATOM     74  C   UNL     1       8.799  -2.066   9.089  1.00  0.00     0.010 A 
ATOM     75  C   UNL     1      11.246  -0.709   9.035  1.00  0.00     0.020 A 
ATOM     76  C   UNL     1       8.822  -0.673   9.198  1.00  0.00     0.020 A 
ATOM     77  C   UNL     1      10.047  -0.004   9.180  1.00  0.00     0.054 A 
BRANCH  77  78
ATOM     78  S   UNL     1      10.105   1.806   9.292  1.00  0.00     0.124 S 
ATOM     79  O   UNL     1      10.599   2.011  10.649  1.00  0.00    -0.237 OA
ATOM     80  O   UNL     1      11.032   2.159   8.220  1.00  0.00    -0.237 OA
ATOM     81  O   UNL     1       8.718   2.206   9.061  1.00  0.00    -0.744 OA
ENDBRANCH  77  78
ENDBRANCH  49  72
BRANCH  61  82
ATOM     82  C   UNL     1      12.024  -8.126  12.942  1.00  0.00    -0.014 A 
ATOM     83  C   UNL     1      11.338  -7.803  14.126  1.00  0.00     0.010 A 
ATOM     84  C   UNL     1      13.358  -8.566  13.020  1.00  0.00     0.010 A 
ATOM     85  C   UNL     1      11.986  -7.886  15.361  1.00  0.00     0.020 A 
ATOM     86  C   UNL     1      14.001  -8.677  14.255  1.00  0.00     0.020 A 
ATOM     87  C   UNL     1      13.314  -8.322  15.418  1.00  0.00     0.054 A 
BRANCH  87  88
ATOM     88  S   UNL     1      14.120  -8.461  17.037  1.00  0.00     0.124 S 
ATOM     89  O   UNL     1      14.376  -7.062  17.369  1.00  0.00    -0.237 OA
ATOM     90  O   UNL     1      13.101  -9.123  17.847  1.00  0.00    -0.237 OA
ATOM     91  O   UNL     1      15.309  -9.265  16.763  1.00  0.00    -0.744 OA
ENDBRANCH  87  88
ENDBRANCH  61  82
ENDBRANCH  35  36
ENDBRANCH  27  30
ENDBRANCH  25  26
ENDBRANCH   1  25
TORSDOF 16
