REMARK SMILES CCCCCNC(=O)Oc1cccc(-c2ccc([C@@H](C)C(=O)NCCCNC(=O)c3ccc(-c4c5nc(c(-c6ccc(S(=O)(=O)[O-])cc6)c6ccc([nH]6)c(-c6ccc(S(=O)(=O)[O-])cc6)c6nc(c(-c7ccc(S(=O)(=O)[O-])cc7)c7ccc4[nH]7)C=C6)C=C5)cc3)cc2F)c1
REMARK SMILES IDX 19 1 20 2 18 3 15 4 16 5 91 6 17 7 90 8 92 9 14 10 10 11
REMARK SMILES IDX 11 12 93 13 12 14 13 15 9 16 7 17 6 18 8 20 5 21 4 22 3 23
REMARK SMILES IDX 2 24 1 25 21 26 22 27 23 28 24 30 25 31 26 32 27 33 28 34
REMARK SMILES IDX 29 36 30 37 31 38 89 39 32 40 88 41 33 42 34 43 35 44 82 45
REMARK SMILES IDX 36 46 87 47 81 48 83 49 37 50 86 51 80 52 79 53 38 55 68 56
REMARK SMILES IDX 49 57 67 58 50 59 53 60 66 61 84 62 51 63 52 64 65 66 85 67
REMARK SMILES IDX 54 68 39 69 40 70 48 71 41 72 47 73 42 74 43 75 44 76 45 77
REMARK SMILES IDX 46 78 69 79 70 80 78 81 71 82 77 83 72 84 73 85 74 86 75 87
REMARK SMILES IDX 76 88 55 89 56 90 64 91 57 92 63 93 58 94 59 95 60 96 61 97
REMARK SMILES IDX 62 98
REMARK H PARENT 6 19 23 29 27 35 83 54 53 65
REMARK Flexibility Score: inf
ROOT
ATOM      1  C   UNL     1      -2.399 -11.329   7.821  1.00  0.00     0.105 C 
ATOM      2  C   UNL     1      -2.869 -11.851   9.178  1.00  0.00     0.023 C 
ENDROOT
BRANCH   1   3
ATOM      3  C   UNL     1      -2.740  -9.878   7.526  1.00  0.00    -0.033 A 
ATOM      4  C   UNL     1      -3.352  -7.179   6.780  1.00  0.00     0.018 A 
ATOM      5  C   UNL     1      -4.322  -8.037   7.321  1.00  0.00     0.012 A 
ATOM      6  C   UNL     1      -2.054  -7.702   6.668  1.00  0.00     0.131 A 
ATOM      7  C   UNL     1      -4.014  -9.343   7.722  1.00  0.00     0.005 A 
ATOM      8  C   UNL     1      -1.755  -9.025   7.009  1.00  0.00     0.044 A 
ATOM      9  F   UNL     1      -1.042  -6.938   6.227  1.00  0.00    -0.206 F 
BRANCH   4  10
ATOM     10  C   UNL     1      -3.715  -5.811   6.343  1.00  0.00    -0.012 A 
ATOM     11  C   UNL     1      -3.486  -3.937   4.808  1.00  0.00     0.133 A 
ATOM     12  C   UNL     1      -4.454  -3.210   5.491  1.00  0.00     0.047 A 
ATOM     13  C   UNL     1      -3.113  -5.217   5.222  1.00  0.00     0.056 A 
ATOM     14  C   UNL     1      -5.070  -3.778   6.599  1.00  0.00     0.004 A 
ATOM     15  C   UNL     1      -4.697  -5.058   7.023  1.00  0.00     0.009 A 
BRANCH  11  16
ATOM     16  O   UNL     1      -2.805  -3.266   3.780  1.00  0.00    -0.410 OA
BRANCH  16  17
ATOM     17  C   UNL     1      -2.565  -3.906   2.574  1.00  0.00     0.412 C 
ATOM     18  N   UNL     1      -1.758  -3.177   1.744  1.00  0.00    -0.321 N 
ATOM     19  H   UNL     1      -1.579  -3.555   0.852  1.00  0.00     0.167 HD
ATOM     20  O   UNL     1      -2.993  -5.003   2.236  1.00  0.00    -0.224 OA
BRANCH  18  21
ATOM     21  C   UNL     1      -1.143  -1.902   2.050  1.00  0.00     0.119 C 
BRANCH  21  22
ATOM     22  C   UNL     1       0.383  -1.985   2.007  1.00  0.00     0.021 C 
BRANCH  22  23
ATOM     23  C   UNL     1       0.972  -2.303   0.627  1.00  0.00     0.002 C 
BRANCH  23  24
ATOM     24  C   UNL     1       0.567  -1.346  -0.497  1.00  0.00    -0.003 C 
ATOM     25  C   UNL     1       0.972   0.097  -0.240  1.00  0.00     0.004 C 
ENDBRANCH  23  24
ENDBRANCH  22  23
ENDBRANCH  21  22
ENDBRANCH  18  21
ENDBRANCH  16  17
ENDBRANCH  11  16
ENDBRANCH   4  10
ENDBRANCH   1   3
BRANCH   1  26
ATOM     26  C   UNL     1      -2.672 -12.283   6.647  1.00  0.00     0.227 C 
ATOM     27  O   UNL     1      -1.723 -12.739   5.996  1.00  0.00    -0.274 OA
ATOM     28  N   UNL     1      -3.910 -12.697   6.266  1.00  0.00    -0.356 N 
ATOM     29  H   UNL     1      -3.903 -13.339   5.520  1.00  0.00     0.163 HD
BRANCH  28  30
ATOM     30  C   UNL     1      -5.239 -12.374   6.749  1.00  0.00     0.117 C 
BRANCH  30  31
ATOM     31  C   UNL     1      -5.950 -11.347   5.869  1.00  0.00     0.042 C 
BRANCH  31  32
ATOM     32  C   UNL     1      -6.594 -11.941   4.620  1.00  0.00     0.118 C 
BRANCH  32  33
ATOM     33  N   UNL     1      -7.733 -12.794   4.939  1.00  0.00    -0.352 N 
ATOM     34  C   UNL     1      -9.076 -12.623   4.699  1.00  0.00     0.251 C 
ATOM     35  H   UNL     1      -7.503 -13.631   5.403  1.00  0.00     0.163 HD
ATOM     36  O   UNL     1      -9.880 -13.363   5.261  1.00  0.00    -0.269 OA
BRANCH  34  37
ATOM     37  C   UNL     1      -9.563 -11.558   3.793  1.00  0.00     0.039 A 
ATOM     38  C   UNL     1     -10.716 -10.848   4.145  1.00  0.00     0.014 A 
ATOM     39  C   UNL     1      -8.920 -11.277   2.586  1.00  0.00     0.014 A 
ATOM     40  C   UNL     1     -11.169  -9.803   3.334  1.00  0.00     0.010 A 
ATOM     41  C   UNL     1      -9.330 -10.191   1.813  1.00  0.00     0.010 A 
ATOM     42  C   UNL     1     -10.450  -9.433   2.186  1.00  0.00    -0.014 A 
BRANCH  42  43
ATOM     43  C   UNL     1     -10.814  -8.227   1.396  1.00  0.00     0.031 A 
ATOM     44  C   UNL     1     -11.242  -8.352  -0.042  1.00  0.00     0.074 A 
ATOM     45  C   UNL     1     -10.664  -7.008   1.953  1.00  0.00     0.049 A 
ATOM     46  N   UNL     1     -11.489  -7.406  -0.911  1.00  0.00    -0.248 NA
ATOM     47  C   UNL     1     -11.397  -9.714  -0.580  1.00  0.00     0.031 C 
ATOM     48  C   UNL     1     -10.217  -6.753   3.326  1.00  0.00     0.029 A 
ATOM     49  N   UNL     1     -10.848  -5.752   1.430  1.00  0.00    -0.354 N 
ATOM     50  C   UNL     1     -11.802  -8.053  -2.101  1.00  0.00     0.074 A 
ATOM     51  C   UNL     1     -11.692  -9.473  -1.851  1.00  0.00     0.031 C 
ATOM     52  C   UNL     1     -10.169  -5.428   3.536  1.00  0.00     0.029 A 
ATOM     53  C   UNL     1     -10.530  -4.737   2.304  1.00  0.00     0.049 A 
ATOM     54  H   UNL     1     -11.177  -5.592   0.515  1.00  0.00     0.167 HD
ATOM     55  C   UNL     1     -12.154  -7.510  -3.290  1.00  0.00     0.031 A 
ATOM     56  C   UNL     1     -10.499  -3.401   2.127  1.00  0.00     0.031 A 
ATOM     57  C   UNL     1     -12.280  -6.096  -3.528  1.00  0.00     0.049 A 
ATOM     58  C   UNL     1     -10.867  -2.831   0.784  1.00  0.00     0.074 A 
ATOM     59  C   UNL     1     -12.716  -5.456  -4.676  1.00  0.00     0.029 A 
ATOM     60  N   UNL     1     -11.959  -5.104  -2.616  1.00  0.00    -0.354 N 
ATOM     61  N   UNL     1     -11.258  -3.460  -0.298  1.00  0.00    -0.248 NA
ATOM     62  C   UNL     1     -10.790  -1.370   0.638  1.00  0.00     0.031 C 
ATOM     63  C   UNL     1     -12.596  -4.078  -4.481  1.00  0.00     0.029 A 
ATOM     64  C   UNL     1     -12.144  -3.857  -3.190  1.00  0.00     0.049 A 
ATOM     65  H   UNL     1     -11.646  -5.262  -1.696  1.00  0.00     0.167 HD
ATOM     66  C   UNL     1     -11.489  -2.470  -1.247  1.00  0.00     0.074 A 
ATOM     67  C   UNL     1     -11.223  -1.201  -0.604  1.00  0.00     0.031 C 
ATOM     68  C   UNL     1     -11.880  -2.601  -2.538  1.00  0.00     0.031 A 
BRANCH  55  69
ATOM     69  C   UNL     1     -12.428  -8.436  -4.446  1.00  0.00    -0.014 A 
ATOM     70  C   UNL     1     -13.604  -9.204  -4.499  1.00  0.00     0.010 A 
ATOM     71  C   UNL     1     -11.550  -8.449  -5.547  1.00  0.00     0.010 A 
ATOM     72  C   UNL     1     -13.893  -9.975  -5.629  1.00  0.00     0.020 A 
ATOM     73  C   UNL     1     -11.848  -9.200  -6.687  1.00  0.00     0.020 A 
ATOM     74  C   UNL     1     -13.016  -9.963  -6.719  1.00  0.00     0.054 A 
BRANCH  74  75
ATOM     75  S   UNL     1     -13.459 -10.912  -8.200  1.00  0.00     0.124 S 
ATOM     76  O   UNL     1     -13.278 -12.287  -7.743  1.00  0.00    -0.237 OA
ATOM     77  O   UNL     1     -14.842 -10.506  -8.437  1.00  0.00    -0.237 OA
ATOM     78  O   UNL     1     -12.499 -10.459  -9.204  1.00  0.00    -0.744 OA
ENDBRANCH  74  75
ENDBRANCH  55  69
BRANCH  56  79
ATOM     79  C   UNL     1     -10.067  -2.504   3.235  1.00  0.00    -0.014 A 
ATOM     80  C   UNL     1     -10.974  -1.611   3.833  1.00  0.00     0.010 A 
ATOM     81  C   UNL     1      -8.730  -2.516   3.674  1.00  0.00     0.010 A 
ATOM     82  C   UNL     1     -10.545  -0.720   4.822  1.00  0.00     0.020 A 
ATOM     83  C   UNL     1      -8.306  -1.650   4.684  1.00  0.00     0.020 A 
ATOM     84  C   UNL     1      -9.211  -0.743   5.238  1.00  0.00     0.054 A 
BRANCH  84  85
ATOM     85  S   UNL     1      -8.669   0.406   6.532  1.00  0.00     0.124 S 
ATOM     86  O   UNL     1      -8.597   1.669   5.804  1.00  0.00    -0.237 OA
ATOM     87  O   UNL     1      -9.741   0.301   7.518  1.00  0.00    -0.237 OA
ATOM     88  O   UNL     1      -7.385  -0.148   6.958  1.00  0.00    -0.744 OA
ENDBRANCH  84  85
ENDBRANCH  56  79
BRANCH  68  89
ATOM     89  C   UNL     1     -12.066  -1.341  -3.339  1.00  0.00    -0.014 A 
ATOM     90  C   UNL     1     -10.960  -0.586  -3.767  1.00  0.00     0.010 A 
ATOM     91  C   UNL     1     -13.359  -0.944  -3.725  1.00  0.00     0.010 A 
ATOM     92  C   UNL     1     -11.146   0.558  -4.547  1.00  0.00     0.020 A 
ATOM     93  C   UNL     1     -13.547   0.181  -4.531  1.00  0.00     0.020 A 
ATOM     94  C   UNL     1     -12.438   0.932  -4.928  1.00  0.00     0.054 A 
BRANCH  94  95
ATOM     95  S   UNL     1     -12.646   2.386  -5.992  1.00  0.00     0.124 S 
ATOM     96  O   UNL     1     -12.357   3.481  -5.070  1.00  0.00    -0.237 OA
ATOM     97  O   UNL     1     -11.649   2.164  -7.036  1.00  0.00    -0.237 OA
ATOM     98  O   UNL     1     -14.035   2.296  -6.435  1.00  0.00    -0.744 OA
ENDBRANCH  94  95
ENDBRANCH  68  89
ENDBRANCH  42  43
ENDBRANCH  34  37
ENDBRANCH  32  33
ENDBRANCH  31  32
ENDBRANCH  30  31
ENDBRANCH  28  30
ENDBRANCH   1  26
TORSDOF 21
