REMARK SMILES Cc1c(C(=O)Nc2ccc(C(=O)Nc3ccccc3C(=O)NCCCNC(=O)c3ccc(-c4c5nc(c(-c6ccc(S(=O)(=O)[O-])cc6)c6ccc([nH]6)c(-c6ccc(S(=O)(=O)[O-])cc6)c6nc(c(-c7ccc(S(=O)(=O)[O-])cc7)c7ccc4[nH]7)C=C6)C=C5)cc3)cc2)cccc1[N+](=O)[O-]
REMARK SMILES IDX 23 1 22 2 20 3 21 4 19 6 14 7 15 8 16 9 18 10 17 11 13 12
REMARK SMILES IDX 11 13 12 14 10 16 7 17 8 18 90 19 9 20 89 21 6 22 4 23 5 24
REMARK SMILES IDX 3 26 1 27 2 28 94 29 91 30 93 31 92 32 95 33 96 34 97 35
REMARK SMILES IDX 24 36 25 37 26 38 27 39 28 41 29 42 30 43 88 44 31 45 87 46
REMARK SMILES IDX 32 47 33 48 34 49 81 50 35 51 86 52 80 53 82 54 36 55 85 56
REMARK SMILES IDX 79 57 78 58 37 60 67 61 48 62 66 63 49 64 52 65 65 66 83 67
REMARK SMILES IDX 50 68 51 69 64 71 84 72 53 73 38 74 39 75 47 76 40 77 46 78
REMARK SMILES IDX 41 79 42 80 43 81 44 82 45 83 68 84 69 85 77 86 70 87 76 88
REMARK SMILES IDX 71 89 72 90 73 91 74 92 75 93 54 94 55 95 63 96 56 97 62 98
REMARK SMILES IDX 57 99 58 100 59 101 60 102 61 103
REMARK H PARENT 22 5 13 15 6 25 26 40 82 59 52 70
REMARK Flexibility Score: inf
ROOT
ATOM      1  C   UNL     1       3.659  -0.188   5.003  1.00  0.00     0.118 C 
ENDROOT
BRANCH   1   2
ATOM      2  N   UNL     1       4.716   0.339   4.136  1.00  0.00    -0.352 N 
ATOM      3  C   UNL     1       5.006   1.539   3.524  1.00  0.00     0.253 C 
ATOM      4  O   UNL     1       6.165   1.683   3.129  1.00  0.00    -0.269 OA
ATOM      5  H   UNL     1       5.399  -0.343   3.940  1.00  0.00     0.163 HD
BRANCH   3   6
ATOM      6  C   UNL     1       4.018   2.630   3.247  1.00  0.00     0.063 A 
ATOM      7  C   UNL     1       4.152   3.477   2.109  1.00  0.00     0.054 A 
ATOM      8  C   UNL     1       3.227   4.522   1.901  1.00  0.00     0.027 A 
ATOM      9  C   UNL     1       2.123   4.679   2.732  1.00  0.00     0.002 A 
ATOM     10  C   UNL     1       2.944   2.879   4.114  1.00  0.00     0.016 A 
ATOM     11  C   UNL     1       1.983   3.857   3.838  1.00  0.00     0.001 A 
BRANCH   7  12
ATOM     12  N   UNL     1       5.076   3.345   1.047  1.00  0.00    -0.321 N 
ATOM     13  C   UNL     1       5.496   2.256   0.305  1.00  0.00     0.255 C 
ATOM     14  O   UNL     1       6.386   2.435  -0.530  1.00  0.00    -0.269 OA
ATOM     15  H   UNL     1       5.504   4.192   0.786  1.00  0.00     0.170 HD
BRANCH  13  16
ATOM     16  C   UNL     1       4.792   0.940   0.324  1.00  0.00     0.040 A 
ATOM     17  C   UNL     1       3.315  -1.432  -0.006  1.00  0.00     0.041 A 
ATOM     18  C   UNL     1       2.828  -0.406   0.778  1.00  0.00     0.027 A 
ATOM     19  C   UNL     1       4.628  -1.358  -0.482  1.00  0.00     0.027 A 
ATOM     20  C   UNL     1       3.507   0.797   0.837  1.00  0.00     0.016 A 
ATOM     21  C   UNL     1       5.364  -0.170  -0.316  1.00  0.00     0.016 A 
BRANCH  17  22
ATOM     22  N   UNL     1       2.463  -2.451  -0.456  1.00  0.00    -0.322 N 
ATOM     23  C   UNL     1       1.085  -2.453  -0.628  1.00  0.00     0.256 C 
ATOM     24  O   UNL     1       0.522  -3.519  -0.883  1.00  0.00    -0.269 OA
ATOM     25  H   UNL     1       2.913  -3.296  -0.687  1.00  0.00     0.170 HD
BRANCH  23  26
ATOM     26  C   UNL     1       0.223  -1.220  -0.522  1.00  0.00     0.049 A 
ATOM     27  C   UNL     1       1.542   0.217  -2.161  1.00  0.00     0.053 C 
ATOM     28  C   UNL     1       0.524   0.058  -1.061  1.00  0.00     0.039 A 
ATOM     29  C   UNL     1      -0.232   1.160  -0.588  1.00  0.00     0.273 A 
ATOM     30  C   UNL     1      -0.983  -1.395   0.185  1.00  0.00     0.014 A 
ATOM     31  C   UNL     1      -1.426   0.967   0.125  1.00  0.00     0.086 A 
ATOM     32  C   UNL     1      -1.831  -0.320   0.453  1.00  0.00     0.008 A 
BRANCH  29  33
ATOM     33  N   UNL     1       0.246   2.550  -0.717  1.00  0.00     0.063 N 
ATOM     34  O   UNL     1      -0.598   3.457  -0.649  1.00  0.00    -0.258 OA
ATOM     35  O   UNL     1       1.465   2.744  -0.816  1.00  0.00    -0.258 OA
ENDBRANCH  29  33
ENDBRANCH  23  26
ENDBRANCH  17  22
ENDBRANCH  13  16
ENDBRANCH   7  12
ENDBRANCH   3   6
ENDBRANCH   1   2
BRANCH   1  36
ATOM     36  C   UNL     1       2.581  -0.994   4.297  1.00  0.00     0.042 C 
BRANCH  36  37
ATOM     37  C   UNL     1       3.018  -2.414   3.985  1.00  0.00     0.118 C 
BRANCH  37  38
ATOM     38  N   UNL     1       2.669  -3.300   5.086  1.00  0.00    -0.352 N 
ATOM     39  C   UNL     1       2.083  -4.548   4.901  1.00  0.00     0.251 C 
ATOM     40  H   UNL     1       2.857  -3.002   6.005  1.00  0.00     0.163 HD
ATOM     41  O   UNL     1       0.912  -4.795   5.011  1.00  0.00    -0.269 OA
BRANCH  39  42
ATOM     42  C   UNL     1       3.035  -5.526   4.342  1.00  0.00     0.039 A 
ATOM     43  C   UNL     1       3.812  -6.303   5.207  1.00  0.00     0.014 A 
ATOM     44  C   UNL     1       3.402  -5.273   3.022  1.00  0.00     0.014 A 
ATOM     45  C   UNL     1       5.081  -6.675   4.797  1.00  0.00     0.010 A 
ATOM     46  C   UNL     1       4.700  -5.506   2.676  1.00  0.00     0.010 A 
ATOM     47  C   UNL     1       5.533  -6.175   3.580  1.00  0.00    -0.014 A 
BRANCH  47  48
ATOM     48  C   UNL     1       6.862  -6.381   3.064  1.00  0.00     0.031 A 
ATOM     49  C   UNL     1       7.019  -7.533   2.170  1.00  0.00     0.074 A 
ATOM     50  C   UNL     1       7.760  -5.397   3.266  1.00  0.00     0.049 A 
ATOM     51  N   UNL     1       8.137  -8.083   1.875  1.00  0.00    -0.248 NA
ATOM     52  C   UNL     1       5.868  -8.218   1.572  1.00  0.00     0.031 C 
ATOM     53  C   UNL     1       9.031  -5.148   2.603  1.00  0.00     0.029 A 
ATOM     54  N   UNL     1       7.753  -4.507   4.342  1.00  0.00    -0.354 N 
ATOM     55  C   UNL     1       7.894  -8.904   0.795  1.00  0.00     0.074 A 
ATOM     56  C   UNL     1       6.468  -9.080   0.751  1.00  0.00     0.031 C 
ATOM     57  C   UNL     1       9.801  -4.404   3.422  1.00  0.00     0.029 A 
ATOM     58  C   UNL     1       9.095  -4.295   4.694  1.00  0.00     0.049 A 
ATOM     59  H   UNL     1       6.962  -4.106   4.770  1.00  0.00     0.167 HD
ATOM     60  C   UNL     1       8.922  -9.155  -0.059  1.00  0.00     0.031 A 
ATOM     61  C   UNL     1       9.547  -4.824   5.872  1.00  0.00     0.031 A 
ATOM     62  C   UNL     1      10.159  -8.581   0.476  1.00  0.00     0.049 A 
ATOM     63  C   UNL     1      10.540  -5.947   5.641  1.00  0.00     0.074 A 
ATOM     64  C   UNL     1      10.828  -7.398   0.212  1.00  0.00     0.029 A 
ATOM     65  N   UNL     1      10.616  -9.025   1.713  1.00  0.00    -0.354 N 
ATOM     66  N   UNL     1      10.588  -6.692   4.567  1.00  0.00    -0.248 NA
ATOM     67  C   UNL     1      11.614  -6.250   6.579  1.00  0.00     0.031 C 
ATOM     68  C   UNL     1      11.623  -7.086   1.353  1.00  0.00     0.029 A 
ATOM     69  C   UNL     1      11.454  -8.091   2.292  1.00  0.00     0.049 A 
ATOM     70  H   UNL     1      10.375  -9.888   2.121  1.00  0.00     0.167 HD
ATOM     71  C   UNL     1      11.692  -7.507   4.618  1.00  0.00     0.074 A 
ATOM     72  C   UNL     1      12.295  -7.191   5.904  1.00  0.00     0.031 C 
ATOM     73  C   UNL     1      12.046  -8.355   3.601  1.00  0.00     0.031 A 
BRANCH  60  74
ATOM     74  C   UNL     1       8.749  -9.613  -1.489  1.00  0.00    -0.014 A 
ATOM     75  C   UNL     1       9.799  -9.388  -2.402  1.00  0.00     0.010 A 
ATOM     76  C   UNL     1       7.586 -10.207  -2.021  1.00  0.00     0.010 A 
ATOM     77  C   UNL     1       9.682  -9.689  -3.766  1.00  0.00     0.020 A 
ATOM     78  C   UNL     1       7.446 -10.498  -3.388  1.00  0.00     0.020 A 
ATOM     79  C   UNL     1       8.499 -10.235  -4.254  1.00  0.00     0.054 A 
BRANCH  79  80
ATOM     80  S   UNL     1       8.371 -10.619  -6.019  1.00  0.00     0.124 S 
ATOM     81  O   UNL     1       8.566  -9.311  -6.639  1.00  0.00    -0.237 OA
ATOM     82  O   UNL     1       9.457 -11.576  -6.209  1.00  0.00    -0.237 OA
ATOM     83  O   UNL     1       7.026 -11.173  -6.158  1.00  0.00    -0.744 OA
ENDBRANCH  79  80
ENDBRANCH  60  74
BRANCH  61  84
ATOM     84  C   UNL     1       8.533  -4.736   6.977  1.00  0.00    -0.014 A 
ATOM     85  C   UNL     1       8.135  -3.438   7.382  1.00  0.00     0.010 A 
ATOM     86  C   UNL     1       7.694  -5.817   7.301  1.00  0.00     0.010 A 
ATOM     87  C   UNL     1       6.869  -3.207   7.929  1.00  0.00     0.020 A 
ATOM     88  C   UNL     1       6.427  -5.588   7.872  1.00  0.00     0.020 A 
ATOM     89  C   UNL     1       6.003  -4.280   8.128  1.00  0.00     0.054 A 
BRANCH  89  90
ATOM     90  S   UNL     1       4.262  -3.910   8.500  1.00  0.00     0.124 S 
ATOM     91  O   UNL     1       4.324  -3.433   9.876  1.00  0.00    -0.237 OA
ATOM     92  O   UNL     1       3.945  -2.895   7.490  1.00  0.00    -0.237 OA
ATOM     93  O   UNL     1       3.583  -5.185   8.301  1.00  0.00    -0.744 OA
ENDBRANCH  89  90
ENDBRANCH  61  84
BRANCH  73  94
ATOM     94  C   UNL     1      13.041  -9.501   3.693  1.00  0.00    -0.014 A 
ATOM     95  C   UNL     1      13.636  -9.950   4.878  1.00  0.00     0.010 A 
ATOM     96  C   UNL     1      13.316 -10.268   2.528  1.00  0.00     0.010 A 
ATOM     97  C   UNL     1      14.499 -11.054   4.894  1.00  0.00     0.020 A 
ATOM     98  C   UNL     1      14.116 -11.411   2.543  1.00  0.00     0.020 A 
ATOM     99  C   UNL     1      14.729 -11.781   3.728  1.00  0.00     0.054 A 
BRANCH  99 100
ATOM    100  S   UNL     1      15.801 -13.231   3.795  1.00  0.00     0.124 S 
ATOM    101  O   UNL     1      17.125 -12.620   3.887  1.00  0.00    -0.237 OA
ATOM    102  O   UNL     1      15.340 -13.912   5.003  1.00  0.00    -0.237 OA
ATOM    103  O   UNL     1      15.519 -13.932   2.546  1.00  0.00    -0.744 OA
ENDBRANCH  99 100
ENDBRANCH  73  94
ENDBRANCH  47  48
ENDBRANCH  39  42
ENDBRANCH  37  38
ENDBRANCH  36  37
ENDBRANCH   1  36
TORSDOF 18
