REMARK SMILES O=C(NCCCNC(=O)c1cccnc1C(=O)Nc1ccc([N+](=O)[O-])cc1)c1ccc(-c2c3nc(c(-c4ccc(S(=O)(=O)[O-])cc4)c4ccc([nH]4)c(-c4ccc(S(=O)(=O)[O-])cc4)c4nc(c(-c5ccc(S(=O)(=O)[O-])cc5)c5ccc2[nH]5)C=C4)C=C3)cc1
REMARK SMILES IDX 5 1 4 2 3 3 1 4 2 5 28 7 29 8 87 9 30 10 86 11 31 12 32 13
REMARK SMILES IDX 33 14 80 15 34 16 85 17 79 18 81 19 35 20 84 21 78 22 77 23
REMARK SMILES IDX 36 25 66 26 47 27 65 28 48 29 51 30 64 31 82 32 49 33 50 34
REMARK SMILES IDX 63 36 83 37 52 38 37 39 38 40 46 41 39 42 45 43 40 44 41 45
REMARK SMILES IDX 42 46 43 47 44 48 67 49 68 50 76 51 69 52 75 53 70 54 71 55
REMARK SMILES IDX 72 56 73 57 74 58 53 59 54 60 62 61 55 62 61 63 56 64 57 65
REMARK SMILES IDX 58 66 59 67 60 68 6 69 7 70 8 71 9 73 10 74 11 75 15 76
REMARK SMILES IDX 12 77 14 78 13 79 16 80 17 81 18 82 19 84 20 85 27 86 21 87
REMARK SMILES IDX 26 88 22 89 23 90 24 91 25 92
REMARK H PARENT 3 6 81 24 51 35 7 72 18 83
REMARK Flexibility Score: inf
ROOT
ATOM      1  C   UNL     1       4.743   0.046   3.013  1.00  0.00     0.042 C 
ENDROOT
BRANCH   1   2
ATOM      2  C   UNL     1       4.314   0.214   1.550  1.00  0.00     0.118 C 
BRANCH   2   3
ATOM      3  N   UNL     1       2.969  -0.191   1.198  1.00  0.00    -0.352 N 
ATOM      4  O   UNL     1       1.054  -0.097  -0.001  1.00  0.00    -0.269 OA
ATOM      5  C   UNL     1       2.226   0.232   0.116  1.00  0.00     0.251 C 
ATOM      6  H   UNL     1       2.537  -0.840   1.798  1.00  0.00     0.163 HD
BRANCH   5   7
ATOM      7  C   UNL     1       2.856   1.109  -0.895  1.00  0.00     0.039 A 
ATOM      8  C   UNL     1       4.007   0.701  -1.578  1.00  0.00     0.014 A 
ATOM      9  C   UNL     1       2.271   2.345  -1.174  1.00  0.00     0.014 A 
ATOM     10  C   UNL     1       4.625   1.569  -2.481  1.00  0.00     0.010 A 
ATOM     11  C   UNL     1       2.873   3.200  -2.101  1.00  0.00     0.010 A 
ATOM     12  C   UNL     1       4.068   2.830  -2.744  1.00  0.00    -0.014 A 
BRANCH  12  13
ATOM     13  C   UNL     1       4.712   3.772  -3.694  1.00  0.00     0.031 A 
ATOM     14  C   UNL     1       5.341   5.042  -3.192  1.00  0.00     0.074 A 
ATOM     15  C   UNL     1       4.679   3.519  -5.015  1.00  0.00     0.049 A 
ATOM     16  N   UNL     1       5.841   6.042  -3.872  1.00  0.00    -0.248 NA
ATOM     17  C   UNL     1       5.408   5.211  -1.732  1.00  0.00     0.031 C 
ATOM     18  C   UNL     1       4.107   2.321  -5.630  1.00  0.00     0.029 A 
ATOM     19  N   UNL     1       5.113   4.269  -6.080  1.00  0.00    -0.354 N 
ATOM     20  C   UNL     1       6.256   6.973  -2.927  1.00  0.00     0.074 A 
ATOM     21  C   UNL     1       5.938   6.422  -1.626  1.00  0.00     0.031 C 
ATOM     22  C   UNL     1       4.211   2.424  -6.964  1.00  0.00     0.029 A 
ATOM     23  C   UNL     1       4.810   3.713  -7.300  1.00  0.00     0.049 A 
ATOM     24  H   UNL     1       5.594   5.122  -5.979  1.00  0.00     0.167 HD
ATOM     25  C   UNL     1       6.844   8.179  -3.125  1.00  0.00     0.031 A 
ATOM     26  C   UNL     1       4.958   4.198  -8.548  1.00  0.00     0.031 A 
ATOM     27  C   UNL     1       7.145   8.730  -4.420  1.00  0.00     0.049 A 
ATOM     28  C   UNL     1       5.574   5.553  -8.750  1.00  0.00     0.074 A 
ATOM     29  C   UNL     1       7.768   9.929  -4.720  1.00  0.00     0.029 A 
ATOM     30  N   UNL     1       6.832   8.128  -5.629  1.00  0.00    -0.354 N 
ATOM     31  N   UNL     1       5.996   6.405  -7.847  1.00  0.00    -0.248 NA
ATOM     32  C   UNL     1       5.739   6.012 -10.137  1.00  0.00     0.031 C 
ATOM     33  C   UNL     1       7.788  10.074  -6.112  1.00  0.00     0.029 A 
ATOM     34  C   UNL     1       7.226   8.941  -6.679  1.00  0.00     0.049 A 
ATOM     35  H   UNL     1       6.394   7.252  -5.727  1.00  0.00     0.167 HD
ATOM     36  C   UNL     1       6.499   7.490  -8.555  1.00  0.00     0.074 A 
ATOM     37  C   UNL     1       6.330   7.188  -9.962  1.00  0.00     0.031 C 
ATOM     38  C   UNL     1       7.058   8.629  -8.077  1.00  0.00     0.031 A 
BRANCH  25  39
ATOM     39  C   UNL     1       7.152   9.002  -1.902  1.00  0.00    -0.014 A 
ATOM     40  C   UNL     1       8.182   8.640  -1.016  1.00  0.00     0.010 A 
ATOM     41  C   UNL     1       6.396  10.159  -1.637  1.00  0.00     0.010 A 
ATOM     42  C   UNL     1       8.406   9.381   0.148  1.00  0.00     0.020 A 
ATOM     43  C   UNL     1       6.634  10.917  -0.487  1.00  0.00     0.020 A 
ATOM     44  C   UNL     1       7.619  10.506   0.413  1.00  0.00     0.054 A 
BRANCH  44  45
ATOM     45  S   UNL     1       7.900  11.428   1.949  1.00  0.00     0.124 S 
ATOM     46  O   UNL     1       7.270  10.556   2.939  1.00  0.00    -0.237 OA
ATOM     47  O   UNL     1       9.357  11.503   2.019  1.00  0.00    -0.237 OA
ATOM     48  O   UNL     1       7.223  12.701   1.719  1.00  0.00    -0.744 OA
ENDBRANCH  44  45
ENDBRANCH  25  39
BRANCH  26  49
ATOM     49  C   UNL     1       4.489   3.378  -9.697  1.00  0.00    -0.014 A 
ATOM     50  C   UNL     1       5.408   2.696 -10.510  1.00  0.00     0.010 A 
ATOM     51  C   UNL     1       3.110   3.207  -9.923  1.00  0.00     0.010 A 
ATOM     52  C   UNL     1       4.957   1.842 -11.521  1.00  0.00     0.020 A 
ATOM     53  C   UNL     1       2.655   2.337 -10.917  1.00  0.00     0.020 A 
ATOM     54  C   UNL     1       3.583   1.659 -11.710  1.00  0.00     0.054 A 
BRANCH  54  55
ATOM     55  S   UNL     1       3.023   0.459 -12.951  1.00  0.00     0.124 S 
ATOM     56  O   UNL     1       3.262   1.178 -14.198  1.00  0.00    -0.237 OA
ATOM     57  O   UNL     1       3.898  -0.684 -12.702  1.00  0.00    -0.237 OA
ATOM     58  O   UNL     1       1.619   0.244 -12.609  1.00  0.00    -0.744 OA
ENDBRANCH  54  55
ENDBRANCH  26  49
BRANCH  38  59
ATOM     59  C   UNL     1       7.572   9.632  -9.075  1.00  0.00    -0.014 A 
ATOM     60  C   UNL     1       6.696  10.481  -9.773  1.00  0.00     0.010 A 
ATOM     61  C   UNL     1       8.961   9.794  -9.235  1.00  0.00     0.010 A 
ATOM     62  C   UNL     1       7.202  11.475 -10.617  1.00  0.00     0.020 A 
ATOM     63  C   UNL     1       9.470  10.799 -10.062  1.00  0.00     0.020 A 
ATOM     64  C   UNL     1       8.586  11.631 -10.751  1.00  0.00     0.054 A 
BRANCH  64  65
ATOM     65  S   UNL     1       9.219  12.985 -11.780  1.00  0.00     0.124 S 
ATOM     66  O   UNL     1       8.983  12.478 -13.129  1.00  0.00    -0.237 OA
ATOM     67  O   UNL     1       8.384  14.114 -11.378  1.00  0.00    -0.237 OA
ATOM     68  O   UNL     1      10.624  13.088 -11.390  1.00  0.00    -0.744 OA
ENDBRANCH  64  65
ENDBRANCH  38  59
ENDBRANCH  12  13
ENDBRANCH   5   7
ENDBRANCH   2   3
ENDBRANCH   1   2
BRANCH   1  69
ATOM     69  C   UNL     1       3.937  -0.858   3.941  1.00  0.00     0.118 C 
BRANCH  69  70
ATOM     70  N   UNL     1       4.169  -2.297   3.817  1.00  0.00    -0.352 N 
ATOM     71  C   UNL     1       4.942  -3.162   4.577  1.00  0.00     0.253 C 
ATOM     72  H   UNL     1       3.697  -2.723   3.066  1.00  0.00     0.163 HD
ATOM     73  O   UNL     1       4.810  -4.377   4.467  1.00  0.00    -0.269 OA
BRANCH  71  74
ATOM     74  C   UNL     1       5.842  -2.640   5.610  1.00  0.00     0.071 A 
ATOM     75  C   UNL     1       5.159  -2.037   6.691  1.00  0.00     0.018 A 
ATOM     76  C   UNL     1       7.228  -2.784   5.698  1.00  0.00     0.141 A 
ATOM     77  C   UNL     1       5.845  -1.496   7.767  1.00  0.00     0.021 A 
ATOM     78  N   UNL     1       7.893  -2.191   6.751  1.00  0.00    -0.250 NA
ATOM     79  C   UNL     1       7.213  -1.578   7.740  1.00  0.00     0.112 A 
BRANCH  76  80
ATOM     80  C   UNL     1       8.221  -3.669   4.941  1.00  0.00     0.275 C 
ATOM     81  O   UNL     1       9.345  -3.832   5.444  1.00  0.00    -0.267 OA
ATOM     82  N   UNL     1       8.000  -4.476   3.854  1.00  0.00    -0.321 N 
ATOM     83  H   UNL     1       8.575  -5.276   3.848  1.00  0.00     0.170 HD
BRANCH  82  84
ATOM     84  C   UNL     1       7.150  -4.418   2.762  1.00  0.00     0.042 A 
ATOM     85  C   UNL     1       6.660  -5.640   2.276  1.00  0.00     0.033 A 
ATOM     86  C   UNL     1       6.775  -3.217   2.170  1.00  0.00     0.033 A 
ATOM     87  C   UNL     1       5.605  -5.655   1.368  1.00  0.00     0.088 A 
ATOM     88  C   UNL     1       5.758  -3.231   1.218  1.00  0.00     0.088 A 
ATOM     89  C   UNL     1       5.121  -4.435   0.903  1.00  0.00     0.269 A 
BRANCH  89  90
ATOM     90  N   UNL     1       3.826  -4.389   0.238  1.00  0.00     0.062 N 
ATOM     91  O   UNL     1       3.547  -5.303  -0.547  1.00  0.00    -0.258 OA
ATOM     92  O   UNL     1       3.074  -3.454   0.558  1.00  0.00    -0.258 OA
ENDBRANCH  89  90
ENDBRANCH  82  84
ENDBRANCH  76  80
ENDBRANCH  71  74
ENDBRANCH  69  70
ENDBRANCH   1  69
TORSDOF 16
