REMARK SMILES CC1=C(CC(=O)NCCCNC(=O)c2ccc(-c3c4nc(c(-c5ccc(S(=O)(=O)[O-])cc5)c5ccc([nH]5)c(-c5ccc(S(=O)(=O)[O-])cc5)c5nc(c(-c6ccc(S(=O)(=O)[O-])cc6)c6ccc3[nH]6)C=C5)C=C4)cc2)c2cc(F)ccc2/C1=C\c1cccc(OCc2ccccc2)c1
REMARK SMILES IDX 8 1 7 2 5 3 6 4 4 6 3 7 1 8 2 9 81 10 74 11 80 12 82 13
REMARK SMILES IDX 75 14 79 15 76 16 78 17 77 18 83 19 84 20 96 21 85 22 87 23
REMARK SMILES IDX 86 24 88 25 89 26 90 27 91 28 95 29 92 30 94 31 93 32 9 33
REMARK SMILES IDX 10 34 11 35 12 36 13 38 14 39 15 40 73 41 16 42 72 43 17 44
REMARK SMILES IDX 18 45 19 46 66 47 20 48 71 49 65 50 67 51 21 52 70 53 64 54
REMARK SMILES IDX 63 55 22 57 52 58 33 59 51 60 34 61 37 62 50 63 68 64 35 65
REMARK SMILES IDX 36 66 49 68 69 69 38 70 23 71 24 72 32 73 25 74 31 75 26 76
REMARK SMILES IDX 27 77 28 78 29 79 30 80 53 81 54 82 62 83 55 84 61 85 56 86
REMARK SMILES IDX 57 87 58 88 59 89 60 90 39 91 40 92 48 93 41 94 47 95 42 96
REMARK SMILES IDX 43 97 44 98 45 99 46 100
REMARK H PARENT 7 5 11 37 67 56 37 67
REMARK Flexibility Score: inf
ROOT
ATOM      1  C   UNL     1       1.037  -1.508   3.256  1.00  0.00     0.117 C 
ENDROOT
BRANCH   1   2
ATOM      2  N   UNL     1       1.763  -2.762   3.201  1.00  0.00    -0.356 N 
ATOM      3  C   UNL     1       2.408  -3.341   2.148  1.00  0.00     0.224 C 
ATOM      4  O   UNL     1       2.965  -4.426   2.332  1.00  0.00    -0.275 OA
ATOM      5  H   UNL     1       1.795  -3.268   4.045  1.00  0.00     0.163 HD
BRANCH   3   6
ATOM      6  C   UNL     1       2.474  -2.637   0.795  1.00  0.00     0.136 C 
BRANCH   6   7
ATOM      7  C   UNL     1       1.166  -2.618   0.073  1.00  0.00    -0.027 C 
ATOM      8  C   UNL     1       0.765  -0.105  -0.229  1.00  0.00     0.045 C 
ATOM      9  C   UNL     1       0.433  -1.557  -0.340  1.00  0.00    -0.039 C 
ATOM     10  C   UNL     1      -0.813  -2.032  -0.961  1.00  0.00    -0.014 C 
ATOM     11  C   UNL     1       0.456  -3.842  -0.341  1.00  0.00    -0.011 A 
ATOM     12  C   UNL     1      -0.742  -3.503  -0.998  1.00  0.00    -0.010 A 
ATOM     13  C   UNL     1      -1.813  -1.227  -1.361  1.00  0.00     0.017 C 
ATOM     14  C   UNL     1       0.820  -5.173  -0.184  1.00  0.00     0.048 A 
ATOM     15  C   UNL     1      -1.568  -4.488  -1.524  1.00  0.00     0.012 A 
ATOM     16  C   UNL     1      -0.028  -6.154  -0.692  1.00  0.00     0.123 A 
ATOM     17  C   UNL     1      -1.208  -5.826  -1.359  1.00  0.00     0.040 A 
ATOM     18  F   UNL     1       0.301  -7.445  -0.546  1.00  0.00    -0.207 F 
BRANCH  13  19
ATOM     19  C   UNL     1      -3.061  -1.665  -1.988  1.00  0.00    -0.021 A 
ATOM     20  C   UNL     1      -4.113  -2.184  -1.227  1.00  0.00     0.008 A 
ATOM     21  C   UNL     1      -3.170  -1.595  -3.382  1.00  0.00     0.054 A 
ATOM     22  C   UNL     1      -5.253  -2.671  -1.864  1.00  0.00     0.004 A 
ATOM     23  C   UNL     1      -4.321  -2.054  -4.018  1.00  0.00     0.120 A 
ATOM     24  C   UNL     1      -5.349  -2.613  -3.256  1.00  0.00     0.046 A 
BRANCH  23  25
ATOM     25  O   UNL     1      -4.560  -2.002  -5.365  1.00  0.00    -0.489 OA
BRANCH  25  26
ATOM     26  C   UNL     1      -3.764  -1.113  -6.159  1.00  0.00     0.265 C 
BRANCH  26  27
ATOM     27  C   UNL     1      -3.935   0.360  -5.848  1.00  0.00    -0.011 A 
ATOM     28  C   UNL     1      -5.140   0.862  -5.337  1.00  0.00     0.007 A 
ATOM     29  C   UNL     1      -2.885   1.256  -6.102  1.00  0.00     0.007 A 
ATOM     30  C   UNL     1      -5.278   2.217  -5.037  1.00  0.00     0.000 A 
ATOM     31  C   UNL     1      -3.027   2.615  -5.811  1.00  0.00     0.000 A 
ATOM     32  C   UNL     1      -4.221   3.093  -5.271  1.00  0.00     0.000 A 
ENDBRANCH  26  27
ENDBRANCH  25  26
ENDBRANCH  23  25
ENDBRANCH  13  19
ENDBRANCH   6   7
ENDBRANCH   3   6
ENDBRANCH   1   2
BRANCH   1  33
ATOM     33  C   UNL     1      -0.473  -1.699   3.148  1.00  0.00     0.042 C 
BRANCH  33  34
ATOM     34  C   UNL     1      -1.100  -2.413   4.340  1.00  0.00     0.118 C 
BRANCH  34  35
ATOM     35  N   UNL     1      -1.032  -1.636   5.571  1.00  0.00    -0.352 N 
ATOM     36  C   UNL     1      -2.036  -1.231   6.419  1.00  0.00     0.251 C 
ATOM     37  H   UNL     1      -0.127  -1.357   5.837  1.00  0.00     0.163 HD
ATOM     38  O   UNL     1      -1.776  -0.447   7.329  1.00  0.00    -0.269 OA
BRANCH  36  39
ATOM     39  C   UNL     1      -3.425  -1.703   6.222  1.00  0.00     0.039 A 
ATOM     40  C   UNL     1      -3.698  -3.036   5.912  1.00  0.00     0.014 A 
ATOM     41  C   UNL     1      -4.477  -0.789   6.352  1.00  0.00     0.014 A 
ATOM     42  C   UNL     1      -4.992  -3.415   5.563  1.00  0.00     0.010 A 
ATOM     43  C   UNL     1      -5.789  -1.192   6.082  1.00  0.00     0.010 A 
ATOM     44  C   UNL     1      -6.050  -2.495   5.633  1.00  0.00    -0.014 A 
BRANCH  44  45
ATOM     45  C   UNL     1      -7.415  -2.912   5.214  1.00  0.00     0.031 A 
ATOM     46  C   UNL     1      -8.064  -2.297   4.001  1.00  0.00     0.074 A 
ATOM     47  C   UNL     1      -8.044  -3.895   5.888  1.00  0.00     0.049 A 
ATOM     48  N   UNL     1      -9.230  -2.564   3.471  1.00  0.00    -0.248 NA
ATOM     49  C   UNL     1      -7.310  -1.252   3.289  1.00  0.00     0.031 C 
ATOM     50  C   UNL     1      -7.505  -4.587   7.060  1.00  0.00     0.029 A 
ATOM     51  N   UNL     1      -9.254  -4.506   5.669  1.00  0.00    -0.354 N 
ATOM     52  C   UNL     1      -9.354  -1.718   2.374  1.00  0.00     0.074 A 
ATOM     53  C   UNL     1      -8.160  -0.904   2.332  1.00  0.00     0.031 C 
ATOM     54  C   UNL     1      -8.349  -5.565   7.419  1.00  0.00     0.029 A 
ATOM     55  C   UNL     1      -9.520  -5.531   6.546  1.00  0.00     0.049 A 
ATOM     56  H   UNL     1      -9.873  -4.236   4.952  1.00  0.00     0.167 HD
ATOM     57  C   UNL     1     -10.363  -1.640   1.475  1.00  0.00     0.031 A 
ATOM     58  C   UNL     1     -10.585  -6.352   6.649  1.00  0.00     0.031 A 
ATOM     59  C   UNL     1     -11.547  -2.458   1.518  1.00  0.00     0.049 A 
ATOM     60  C   UNL     1     -11.717  -6.210   5.673  1.00  0.00     0.074 A 
ATOM     61  C   UNL     1     -12.626  -2.448   0.650  1.00  0.00     0.029 A 
ATOM     62  N   UNL     1     -11.808  -3.435   2.468  1.00  0.00    -0.354 N 
ATOM     63  N   UNL     1     -11.819  -5.395   4.651  1.00  0.00    -0.248 NA
ATOM     64  C   UNL     1     -12.878  -7.090   5.862  1.00  0.00     0.031 C 
ATOM     65  C   UNL     1     -13.562  -3.378   1.106  1.00  0.00     0.029 A 
ATOM     66  C   UNL     1     -13.039  -4.017   2.219  1.00  0.00     0.049 A 
ATOM     67  H   UNL     1     -11.207  -3.677   3.208  1.00  0.00     0.167 HD
ATOM     68  C   UNL     1     -13.052  -5.667   4.071  1.00  0.00     0.074 A 
ATOM     69  C   UNL     1     -13.652  -6.736   4.842  1.00  0.00     0.031 C 
ATOM     70  C   UNL     1     -13.632  -5.077   2.997  1.00  0.00     0.031 A 
BRANCH  57  71
ATOM     71  C   UNL     1     -10.246  -0.635   0.358  1.00  0.00    -0.014 A 
ATOM     72  C   UNL     1     -11.114   0.472   0.319  1.00  0.00     0.010 A 
ATOM     73  C   UNL     1      -9.352  -0.840  -0.708  1.00  0.00     0.010 A 
ATOM     74  C   UNL     1     -11.108   1.342  -0.775  1.00  0.00     0.020 A 
ATOM     75  C   UNL     1      -9.324   0.044  -1.792  1.00  0.00     0.020 A 
ATOM     76  C   UNL     1     -10.218   1.117  -1.828  1.00  0.00     0.054 A 
BRANCH  76  77
ATOM     77  S   UNL     1     -10.224   2.251  -3.245  1.00  0.00     0.124 S 
ATOM     78  O   UNL     1     -11.376   1.784  -4.008  1.00  0.00    -0.237 OA
ATOM     79  O   UNL     1     -10.373   3.559  -2.610  1.00  0.00    -0.237 OA
ATOM     80  O   UNL     1      -8.922   2.022  -3.870  1.00  0.00    -0.744 OA
ENDBRANCH  76  77
ENDBRANCH  57  71
BRANCH  58  81
ATOM     81  C   UNL     1     -10.596  -7.388   7.718  1.00  0.00    -0.014 A 
ATOM     82  C   UNL     1     -10.674  -7.010   9.072  1.00  0.00     0.010 A 
ATOM     83  C   UNL     1     -10.425  -8.745   7.396  1.00  0.00     0.010 A 
ATOM     84  C   UNL     1     -10.515  -7.959  10.084  1.00  0.00     0.020 A 
ATOM     85  C   UNL     1     -10.295  -9.703   8.407  1.00  0.00     0.020 A 
ATOM     86  C   UNL     1     -10.307  -9.298   9.744  1.00  0.00     0.054 A 
BRANCH  86  87
ATOM     87  S   UNL     1     -10.036 -10.503  11.073  1.00  0.00     0.124 S 
ATOM     88  O   UNL     1      -8.642 -10.245  11.428  1.00  0.00    -0.237 OA
ATOM     89  O   UNL     1     -11.023 -10.107  12.073  1.00  0.00    -0.237 OA
ATOM     90  O   UNL     1     -10.290 -11.787  10.425  1.00  0.00    -0.744 OA
ENDBRANCH  86  87
ENDBRANCH  58  81
BRANCH  70  91
ATOM     91  C   UNL     1     -14.996  -5.553   2.574  1.00  0.00    -0.014 A 
ATOM     92  C   UNL     1     -15.148  -6.241   1.355  1.00  0.00     0.010 A 
ATOM     93  C   UNL     1     -16.141  -5.194   3.306  1.00  0.00     0.010 A 
ATOM     94  C   UNL     1     -16.421  -6.524   0.855  1.00  0.00     0.020 A 
ATOM     95  C   UNL     1     -17.416  -5.499   2.821  1.00  0.00     0.020 A 
ATOM     96  C   UNL     1     -17.547  -6.137   1.585  1.00  0.00     0.054 A 
BRANCH  96  97
ATOM     97  S   UNL     1     -19.193  -6.468   0.896  1.00  0.00     0.124 S 
ATOM     98  O   UNL     1     -19.321  -5.419  -0.111  1.00  0.00    -0.237 OA
ATOM     99  O   UNL     1     -19.058  -7.827   0.377  1.00  0.00    -0.237 OA
ATOM    100  O   UNL     1     -20.079  -6.336   2.051  1.00  0.00    -0.744 OA
ENDBRANCH  96  97
ENDBRANCH  70  91
ENDBRANCH  44  45
ENDBRANCH  36  39
ENDBRANCH  34  35
ENDBRANCH  33  34
ENDBRANCH   1  33
TORSDOF 18
