REMARK SMILES C[NH2+][C@@]1(C(=O)NCCCNC(=O)c2ccc(-c3c4nc(c(-c5ccc(S(=O)(=O)[O-])cc5)c5ccc([nH]5)c(-c5ccc(S(=O)(=O)[O-])cc5)c5nc(c(-c6ccc(S(=O)(=O)[O-])cc6)c6ccc3[nH]6)C=C5)C=C4)cc2)CC[C@H](Oc2cccc(C)c2)C1
REMARK SMILES IDX 8 1 7 2 6 3 4 4 5 5 3 7 73 8 84 9 74 10 75 11 2 12 1 13
REMARK SMILES IDX 76 16 77 17 78 18 83 19 79 20 81 21 80 22 82 23 9 24 10 25
REMARK SMILES IDX 11 26 12 28 13 29 14 30 72 31 15 32 71 33 16 34 17 35 18 36
REMARK SMILES IDX 65 37 19 38 70 39 64 40 66 41 20 42 69 43 63 44 62 45 21 47
REMARK SMILES IDX 51 48 32 49 50 50 33 51 36 52 49 53 67 54 34 55 35 56 48 58
REMARK SMILES IDX 68 59 37 60 22 61 23 62 31 63 24 64 30 65 25 66 26 67 27 68
REMARK SMILES IDX 28 69 29 70 52 71 53 72 61 73 54 74 60 75 55 76 56 77 57 78
REMARK SMILES IDX 58 79 59 80 38 81 39 82 47 83 40 84 46 85 41 86 42 87 43 88
REMARK SMILES IDX 44 89 45 90
REMARK H PARENT 6 6 2 14 2 15 10 27 66 46 36 57
REMARK Flexibility Score: inf
ROOT
ATOM      1  C   UNL     1      -4.643   0.513   1.763  1.00  0.00     0.042 C 
ENDROOT
BRANCH   1   2
ATOM      2  C   UNL     1      -3.733   1.709   1.554  1.00  0.00     0.118 C 
BRANCH   2   3
ATOM      3  N   UNL     1      -2.376   1.490   2.000  1.00  0.00    -0.351 N 
ATOM      4  C   UNL     1      -1.183   1.460   1.355  1.00  0.00     0.281 C 
ATOM      5  O   UNL     1      -0.204   1.520   2.118  1.00  0.00    -0.268 OA
ATOM      6  H   UNL     1      -2.302   1.330   2.968  1.00  0.00     0.163 HD
BRANCH   4   7
ATOM      7  C   UNL     1      -0.957   1.408  -0.220  1.00  0.00     0.179 C 
ATOM      8  C   UNL     1      -1.443   2.687  -0.917  1.00  0.00     0.083 C 
ATOM      9  C   UNL     1      -1.647   0.257  -0.961  1.00  0.00     0.124 C 
ATOM     10  C   UNL     1      -2.706   2.343  -1.698  1.00  0.00     0.052 C 
ATOM     11  C   UNL     1      -2.737   0.828  -1.884  1.00  0.00     0.180 C 
BRANCH   7  12
ATOM     12  N   UNL     1       0.536   1.379  -0.430  1.00  0.00    -0.336 N 
ATOM     13  C   UNL     1       1.164   0.088  -0.141  1.00  0.00     0.331 C 
ATOM     14  H   UNL     1       0.726   1.615  -1.404  1.00  0.00     0.346 HD
ATOM     15  H   UNL     1       0.935   2.049   0.227  1.00  0.00     0.346 HD
ENDBRANCH   7  12
BRANCH  11  16
ATOM     16  O   UNL     1      -3.904   0.096  -1.530  1.00  0.00    -0.490 OA
BRANCH  16  17
ATOM     17  C   UNL     1      -5.182   0.460  -1.784  1.00  0.00     0.119 A 
ATOM     18  C   UNL     1      -5.628   1.570  -2.484  1.00  0.00     0.046 A 
ATOM     19  C   UNL     1      -6.114  -0.377  -1.161  1.00  0.00     0.049 A 
ATOM     20  C   UNL     1      -6.985   1.910  -2.449  1.00  0.00     0.004 A 
ATOM     21  C   UNL     1      -7.464  -0.031  -1.092  1.00  0.00    -0.047 A 
ATOM     22  C   UNL     1      -7.895   1.127  -1.738  1.00  0.00     0.003 A 
ATOM     23  C   UNL     1      -8.422  -0.872  -0.312  1.00  0.00     0.044 C 
ENDBRANCH  16  17
ENDBRANCH  11  16
ENDBRANCH   4   7
ENDBRANCH   2   3
ENDBRANCH   1   2
BRANCH   1  24
ATOM     24  C   UNL     1      -5.169   0.349   3.179  1.00  0.00     0.118 C 
BRANCH  24  25
ATOM     25  N   UNL     1      -6.246   1.287   3.486  1.00  0.00    -0.352 N 
ATOM     26  C   UNL     1      -7.613   1.140   3.586  1.00  0.00     0.251 C 
ATOM     27  H   UNL     1      -5.934   2.205   3.655  1.00  0.00     0.163 HD
ATOM     28  O   UNL     1      -8.297   2.155   3.674  1.00  0.00    -0.269 OA
BRANCH  26  29
ATOM     29  C   UNL     1      -8.283  -0.188   3.561  1.00  0.00     0.039 A 
ATOM     30  C   UNL     1      -9.585  -0.277   3.042  1.00  0.00     0.014 A 
ATOM     31  C   UNL     1      -7.692  -1.337   4.082  1.00  0.00     0.014 A 
ATOM     32  C   UNL     1     -10.239  -1.514   2.957  1.00  0.00     0.010 A 
ATOM     33  C   UNL     1      -8.301  -2.580   3.921  1.00  0.00     0.010 A 
ATOM     34  C   UNL     1      -9.585  -2.682   3.367  1.00  0.00    -0.014 A 
BRANCH  34  35
ATOM     35  C   UNL     1     -10.243  -4.012   3.325  1.00  0.00     0.031 A 
ATOM     36  C   UNL     1     -10.585  -4.698   4.619  1.00  0.00     0.074 A 
ATOM     37  C   UNL     1     -10.455  -4.640   2.152  1.00  0.00     0.049 A 
ATOM     38  N   UNL     1     -11.070  -5.895   4.817  1.00  0.00    -0.248 NA
ATOM     39  C   UNL     1     -10.321  -3.942   5.856  1.00  0.00     0.031 C 
ATOM     40  C   UNL     1     -10.144  -4.093   0.833  1.00  0.00     0.029 A 
ATOM     41  N   UNL     1     -10.962  -5.886   1.879  1.00  0.00    -0.354 N 
ATOM     42  C   UNL     1     -11.155  -6.042   6.196  1.00  0.00     0.074 A 
ATOM     43  C   UNL     1     -10.618  -4.836   6.786  1.00  0.00     0.031 C 
ATOM     44  C   UNL     1     -10.464  -4.995  -0.110  1.00  0.00     0.029 A 
ATOM     45  C   UNL     1     -10.982  -6.195   0.538  1.00  0.00     0.049 A 
ATOM     46  H   UNL     1     -11.281  -6.502   2.578  1.00  0.00     0.167 HD
ATOM     47  C   UNL     1     -11.656  -7.077   6.909  1.00  0.00     0.031 A 
ATOM     48  C   UNL     1     -11.371  -7.319  -0.096  1.00  0.00     0.031 A 
ATOM     49  C   UNL     1     -12.191  -8.273   6.320  1.00  0.00     0.049 A 
ATOM     50  C   UNL     1     -11.904  -8.468   0.718  1.00  0.00     0.074 A 
ATOM     51  C   UNL     1     -12.766  -9.361   6.950  1.00  0.00     0.029 A 
ATOM     52  N   UNL     1     -12.214  -8.539   4.958  1.00  0.00    -0.354 N 
ATOM     53  N   UNL     1     -12.041  -8.560   2.020  1.00  0.00    -0.248 NA
ATOM     54  C   UNL     1     -12.349  -9.657  -0.022  1.00  0.00     0.031 C 
ATOM     55  C   UNL     1     -13.096 -10.306   5.972  1.00  0.00     0.029 A 
ATOM     56  C   UNL     1     -12.774  -9.783   4.729  1.00  0.00     0.049 A 
ATOM     57  H   UNL     1     -11.881  -7.931   4.259  1.00  0.00     0.167 HD
ATOM     58  C   UNL     1     -12.619  -9.804   2.252  1.00  0.00     0.074 A 
ATOM     59  C   UNL     1     -12.813 -10.423   0.957  1.00  0.00     0.031 C 
ATOM     60  C   UNL     1     -12.962 -10.379   3.431  1.00  0.00     0.031 A 
BRANCH  47  61
ATOM     61  C   UNL     1     -11.635  -6.949   8.408  1.00  0.00    -0.014 A 
ATOM     62  C   UNL     1     -12.473  -6.029   9.066  1.00  0.00     0.010 A 
ATOM     63  C   UNL     1     -10.767  -7.751   9.169  1.00  0.00     0.010 A 
ATOM     64  C   UNL     1     -12.402  -5.874  10.452  1.00  0.00     0.020 A 
ATOM     65  C   UNL     1     -10.715  -7.619  10.560  1.00  0.00     0.020 A 
ATOM     66  C   UNL     1     -11.517  -6.665  11.189  1.00  0.00     0.054 A 
BRANCH  66  67
ATOM     67  S   UNL     1     -11.444  -6.441  12.987  1.00  0.00     0.124 S 
ATOM     68  O   UNL     1     -10.719  -5.178  13.103  1.00  0.00    -0.237 OA
ATOM     69  O   UNL     1     -12.854  -6.391  13.363  1.00  0.00    -0.237 OA
ATOM     70  O   UNL     1     -10.719  -7.620  13.454  1.00  0.00    -0.744 OA
ENDBRANCH  66  67
ENDBRANCH  47  61
BRANCH  48  71
ATOM     71  C   UNL     1     -11.299  -7.406  -1.581  1.00  0.00    -0.014 A 
ATOM     72  C   UNL     1     -12.475  -7.387  -2.352  1.00  0.00     0.010 A 
ATOM     73  C   UNL     1     -10.057  -7.507  -2.234  1.00  0.00     0.010 A 
ATOM     74  C   UNL     1     -12.413  -7.490  -3.745  1.00  0.00     0.020 A 
ATOM     75  C   UNL     1      -9.989  -7.585  -3.630  1.00  0.00     0.020 A 
ATOM     76  C   UNL     1     -11.169  -7.588  -4.376  1.00  0.00     0.054 A 
BRANCH  76  77
ATOM     77  S   UNL     1     -11.113  -7.678  -6.188  1.00  0.00     0.124 S 
ATOM     78  O   UNL     1     -11.577  -9.039  -6.439  1.00  0.00    -0.237 OA
ATOM     79  O   UNL     1     -12.030  -6.612  -6.585  1.00  0.00    -0.237 OA
ATOM     80  O   UNL     1      -9.707  -7.428  -6.499  1.00  0.00    -0.744 OA
ENDBRANCH  76  77
ENDBRANCH  48  71
BRANCH  60  81
ATOM     81  C   UNL     1     -13.615 -11.733   3.377  1.00  0.00    -0.014 A 
ATOM     82  C   UNL     1     -12.875 -12.888   3.071  1.00  0.00     0.010 A 
ATOM     83  C   UNL     1     -14.978 -11.857   3.705  1.00  0.00     0.010 A 
ATOM     84  C   UNL     1     -13.492 -14.142   3.071  1.00  0.00     0.020 A 
ATOM     85  C   UNL     1     -15.592 -13.111   3.732  1.00  0.00     0.020 A 
ATOM     86  C   UNL     1     -14.847 -14.245   3.403  1.00  0.00     0.054 A 
BRANCH  86  87
ATOM     87  S   UNL     1     -15.612 -15.888   3.453  1.00  0.00     0.124 S 
ATOM     88  O   UNL     1     -15.760 -16.197   2.033  1.00  0.00    -0.237 OA
ATOM     89  O   UNL     1     -14.618 -16.684   4.169  1.00  0.00    -0.237 OA
ATOM     90  O   UNL     1     -16.862 -15.667   4.176  1.00  0.00    -0.744 OA
ENDBRANCH  86  87
ENDBRANCH  60  81
ENDBRANCH  34  35
ENDBRANCH  26  29
ENDBRANCH  24  25
ENDBRANCH   1  24
TORSDOF 16
