REMARK SMILES CC(C)C[C@H](CNC(=O)c1ccc(O)cc1O)C(=O)NCCCNC(=O)c1ccc(-c2c3nc(c(-c4ccc(S(=O)(=O)[O-])cc4)c4ccc([nH]4)c(-c4ccc(S(=O)(=O)[O-])cc4)c4nc(c(-c5ccc(S(=O)(=O)[O-])cc5)c5ccc2[nH]5)C=C4)C=C3)cc1
REMARK SMILES IDX 21 1 20 2 18 3 19 4 5 6 4 7 2 8 1 9 3 10 6 11 7 12 8 13 9 15
REMARK SMILES IDX 10 16 11 17 16 18 12 19 15 20 13 21 17 22 14 24 22 26 23 27
REMARK SMILES IDX 24 28 25 29 26 31 27 32 28 33 86 34 29 35 85 36 30 37 31 38
REMARK SMILES IDX 32 39 79 40 33 41 84 42 78 43 80 44 34 45 83 46 77 47 76 48
REMARK SMILES IDX 35 50 65 51 46 52 64 53 47 54 50 55 63 56 81 57 48 58 49 59
REMARK SMILES IDX 62 61 82 62 51 63 36 64 37 65 45 66 38 67 44 68 39 69 40 70
REMARK SMILES IDX 41 71 42 72 43 73 66 74 67 75 75 76 68 77 74 78 69 79 70 80
REMARK SMILES IDX 71 81 72 82 73 83 52 84 53 85 61 86 54 87 60 88 55 89 56 90
REMARK SMILES IDX 57 91 58 92 59 93
REMARK H PARENT 20 5 7 14 17 23 14 25 24 30 80 49 50 60
REMARK Flexibility Score: inf
ROOT
ATOM      1  C   UNL     1      -3.463   1.786  -3.239  1.00  0.00     0.117 C 
ENDROOT
BRANCH   1   2
ATOM      2  N   UNL     1      -3.841   1.365  -1.904  1.00  0.00    -0.356 N 
ATOM      3  C   UNL     1      -3.107   1.164  -0.784  1.00  0.00     0.224 C 
ATOM      4  O   UNL     1      -3.715   0.769   0.216  1.00  0.00    -0.275 OA
ATOM      5  H   UNL     1      -4.804   1.194  -1.792  1.00  0.00     0.163 HD
BRANCH   3   6
ATOM      6  C   UNL     1      -1.598   1.368  -0.720  1.00  0.00     0.098 C 
BRANCH   6   7
ATOM      7  C   UNL     1      -1.029   2.723  -1.192  1.00  0.00     0.018 C 
BRANCH   7   8
ATOM      8  C   UNL     1      -1.948   3.958  -1.056  1.00  0.00    -0.017 C 
ATOM      9  C   UNL     1      -2.329   4.273   0.387  1.00  0.00     0.007 C 
ATOM     10  C   UNL     1      -1.280   5.172  -1.708  1.00  0.00     0.007 C 
ENDBRANCH   7   8
ENDBRANCH   6   7
BRANCH   6  11
ATOM     11  C   UNL     1      -0.853   0.124  -1.260  1.00  0.00     0.129 C 
BRANCH  11  12
ATOM     12  N   UNL     1      -0.575   0.161  -2.690  1.00  0.00    -0.351 N 
ATOM     13  C   UNL     1       0.624   0.161  -3.348  1.00  0.00     0.255 C 
ATOM     14  H   UNL     1      -1.370   0.189  -3.270  1.00  0.00     0.163 HD
ATOM     15  O   UNL     1       0.703   0.645  -4.476  1.00  0.00    -0.269 OA
BRANCH  13  16
ATOM     16  C   UNL     1       1.837  -0.392  -2.721  1.00  0.00     0.081 A 
ATOM     17  C   UNL     1       1.781  -1.604  -2.021  1.00  0.00     0.021 A 
ATOM     18  C   UNL     1       3.067   0.249  -2.908  1.00  0.00     0.132 A 
ATOM     19  C   UNL     1       2.942  -2.139  -1.461  1.00  0.00     0.047 A 
ATOM     20  C   UNL     1       4.222  -0.271  -2.332  1.00  0.00     0.093 A 
ATOM     21  C   UNL     1       4.150  -1.462  -1.615  1.00  0.00     0.119 A 
BRANCH  18  22
ATOM     22  O   UNL     1       3.200   1.385  -3.662  1.00  0.00    -0.507 OA
ATOM     23  H   UNL     1       2.448   1.769  -4.067  1.00  0.00     0.293 HD
ENDBRANCH  18  22
BRANCH  21  24
ATOM     24  O   UNL     1       5.304  -1.956  -1.083  1.00  0.00    -0.508 OA
ATOM     25  H   UNL     1       5.290  -2.756  -0.594  1.00  0.00     0.293 HD
ENDBRANCH  21  24
ENDBRANCH  13  16
ENDBRANCH  11  12
ENDBRANCH   6  11
ENDBRANCH   3   6
ENDBRANCH   1   2
BRANCH   1  26
ATOM     26  C   UNL     1      -3.678   0.670  -4.246  1.00  0.00     0.042 C 
BRANCH  26  27
ATOM     27  C   UNL     1      -5.146   0.445  -4.560  1.00  0.00     0.118 C 
BRANCH  27  28
ATOM     28  N   UNL     1      -5.720   1.554  -5.310  1.00  0.00    -0.352 N 
ATOM     29  C   UNL     1      -6.289   1.543  -6.561  1.00  0.00     0.251 C 
ATOM     30  H   UNL     1      -5.697   2.429  -4.859  1.00  0.00     0.163 HD
ATOM     31  O   UNL     1      -6.532   2.594  -7.138  1.00  0.00    -0.269 OA
BRANCH  29  32
ATOM     32  C   UNL     1      -6.584   0.244  -7.199  1.00  0.00     0.039 A 
ATOM     33  C   UNL     1      -6.222   0.035  -8.531  1.00  0.00     0.014 A 
ATOM     34  C   UNL     1      -7.185  -0.776  -6.457  1.00  0.00     0.014 A 
ATOM     35  C   UNL     1      -6.405  -1.227  -9.101  1.00  0.00     0.010 A 
ATOM     36  C   UNL     1      -7.275  -2.051  -6.993  1.00  0.00     0.010 A 
ATOM     37  C   UNL     1      -6.899  -2.287  -8.325  1.00  0.00    -0.014 A 
BRANCH  37  38
ATOM     38  C   UNL     1      -7.079  -3.653  -8.873  1.00  0.00     0.031 A 
ATOM     39  C   UNL     1      -8.458  -4.255  -8.902  1.00  0.00     0.074 A 
ATOM     40  C   UNL     1      -6.007  -4.381  -9.242  1.00  0.00     0.049 A 
ATOM     41  N   UNL     1      -8.819  -5.482  -9.172  1.00  0.00    -0.248 NA
ATOM     42  C   UNL     1      -9.576  -3.367  -8.535  1.00  0.00     0.031 C 
ATOM     43  C   UNL     1      -4.617  -3.918  -9.229  1.00  0.00     0.029 A 
ATOM     44  N   UNL     1      -5.920  -5.678  -9.682  1.00  0.00    -0.354 N 
ATOM     45  C   UNL     1     -10.194  -5.521  -8.973  1.00  0.00     0.074 A 
ATOM     46  C   UNL     1     -10.596  -4.211  -8.512  1.00  0.00     0.031 C 
ATOM     47  C   UNL     1      -3.820  -4.910  -9.659  1.00  0.00     0.029 A 
ATOM     48  C   UNL     1      -4.632  -6.091  -9.931  1.00  0.00     0.049 A 
ATOM     49  H   UNL     1      -6.705  -6.258  -9.808  1.00  0.00     0.167 HD
ATOM     50  C   UNL     1     -11.049  -6.552  -9.172  1.00  0.00     0.031 A 
ATOM     51  C   UNL     1      -4.159  -7.292 -10.318  1.00  0.00     0.031 A 
ATOM     52  C   UNL     1     -10.645  -7.841  -9.661  1.00  0.00     0.049 A 
ATOM     53  C   UNL     1      -5.129  -8.419 -10.545  1.00  0.00     0.074 A 
ATOM     54  C   UNL     1     -11.436  -8.938  -9.952  1.00  0.00     0.029 A 
ATOM     55  N   UNL     1      -9.336  -8.204  -9.941  1.00  0.00    -0.354 N 
ATOM     56  N   UNL     1      -6.431  -8.428 -10.390  1.00  0.00    -0.248 NA
ATOM     57  C   UNL     1      -4.568  -9.696 -11.009  1.00  0.00     0.031 C 
ATOM     58  C   UNL     1     -10.601  -9.977 -10.371  1.00  0.00     0.029 A 
ATOM     59  C   UNL     1      -9.296  -9.510 -10.393  1.00  0.00     0.049 A 
ATOM     60  H   UNL     1      -8.552  -7.618  -9.835  1.00  0.00     0.167 HD
ATOM     61  C   UNL     1      -6.850  -9.698 -10.773  1.00  0.00     0.074 A 
ATOM     62  C   UNL     1      -5.663 -10.427 -11.169  1.00  0.00     0.031 C 
ATOM     63  C   UNL     1      -8.104 -10.211 -10.800  1.00  0.00     0.031 A 
BRANCH  50  64
ATOM     64  C   UNL     1     -12.503  -6.321  -8.857  1.00  0.00    -0.014 A 
ATOM     65  C   UNL     1     -13.290  -5.461  -9.645  1.00  0.00     0.010 A 
ATOM     66  C   UNL     1     -13.097  -6.990  -7.772  1.00  0.00     0.010 A 
ATOM     67  C   UNL     1     -14.632  -5.239  -9.326  1.00  0.00     0.020 A 
ATOM     68  C   UNL     1     -14.447  -6.795  -7.468  1.00  0.00     0.020 A 
ATOM     69  C   UNL     1     -15.201  -5.905  -8.236  1.00  0.00     0.054 A 
BRANCH  69  70
ATOM     70  S   UNL     1     -16.950  -5.611  -7.855  1.00  0.00     0.124 S 
ATOM     71  O   UNL     1     -16.909  -4.273  -7.271  1.00  0.00    -0.237 OA
ATOM     72  O   UNL     1     -17.584  -5.704  -9.168  1.00  0.00    -0.237 OA
ATOM     73  O   UNL     1     -17.287  -6.686  -6.926  1.00  0.00    -0.744 OA
ENDBRANCH  69  70
ENDBRANCH  50  64
BRANCH  51  74
ATOM     74  C   UNL     1      -2.698  -7.482 -10.531  1.00  0.00    -0.014 A 
ATOM     75  C   UNL     1      -2.183  -7.628 -11.831  1.00  0.00     0.010 A 
ATOM     76  C   UNL     1      -1.812  -7.500  -9.438  1.00  0.00     0.010 A 
ATOM     77  C   UNL     1      -0.812  -7.809 -12.034  1.00  0.00     0.020 A 
ATOM     78  C   UNL     1      -0.437  -7.654  -9.640  1.00  0.00     0.020 A 
ATOM     79  C   UNL     1       0.053  -7.820 -10.936  1.00  0.00     0.054 A 
BRANCH  79  80
ATOM     80  S   UNL     1       1.834  -8.010 -11.227  1.00  0.00     0.124 S 
ATOM     81  O   UNL     1       1.936  -9.426 -11.568  1.00  0.00    -0.237 OA
ATOM     82  O   UNL     1       2.076  -7.076 -12.323  1.00  0.00    -0.237 OA
ATOM     83  O   UNL     1       2.430  -7.628  -9.949  1.00  0.00    -0.744 OA
ENDBRANCH  79  80
ENDBRANCH  51  74
BRANCH  63  84
ATOM     84  C   UNL     1      -8.275 -11.608 -11.329  1.00  0.00    -0.014 A 
ATOM     85  C   UNL     1      -7.903 -12.729 -10.568  1.00  0.00     0.010 A 
ATOM     86  C   UNL     1      -8.900 -11.798 -12.576  1.00  0.00     0.010 A 
ATOM     87  C   UNL     1      -8.138 -14.018 -11.054  1.00  0.00     0.020 A 
ATOM     88  C   UNL     1      -9.159 -13.084 -13.053  1.00  0.00     0.020 A 
ATOM     89  C   UNL     1      -8.768 -14.187 -12.292  1.00  0.00     0.054 A 
BRANCH  89  90
ATOM     90  S   UNL     1      -9.126 -15.869 -12.868  1.00  0.00     0.124 S 
ATOM     91  O   UNL     1      -7.803 -16.340 -13.270  1.00  0.00    -0.237 OA
ATOM     92  O   UNL     1      -9.684 -16.504 -11.677  1.00  0.00    -0.237 OA
ATOM     93  O   UNL     1     -10.074 -15.666 -13.961  1.00  0.00    -0.744 OA
ENDBRANCH  89  90
ENDBRANCH  63  84
ENDBRANCH  37  38
ENDBRANCH  29  32
ENDBRANCH  27  28
ENDBRANCH  26  27
ENDBRANCH   1  26
TORSDOF 20
