REMARK SMILES C[C@]1(C(=O)NCc2ccc(C(=O)NCCCNC(=O)c3ccc(-c4c5nc(c(-c6ccc(S(=O)(=O)[O-])cc6)c6ccc([nH]6)c(-c6ccc(S(=O)(=O)[O-])cc6)c6nc(c(-c7ccc(S(=O)(=O)[O-])cc7)c7ccc4[nH]7)C=C6)C=C5)cc3)o2)CCC[NH2+]C1
REMARK SMILES IDX 15 1 14 2 13 3 11 4 12 5 10 7 7 8 8 9 80 10 9 11 6 12 5 13
REMARK SMILES IDX 3 14 4 15 2 17 1 18 81 19 85 20 82 21 84 22 83 23 16 26
REMARK SMILES IDX 17 27 18 28 19 30 20 31 21 32 79 33 22 34 78 35 23 36 24 37
REMARK SMILES IDX 25 38 72 39 26 40 77 41 71 42 73 43 27 44 76 45 70 46 69 47
REMARK SMILES IDX 28 49 58 50 39 51 57 52 40 53 43 54 56 55 74 56 41 57 42 58
REMARK SMILES IDX 55 60 75 61 44 62 29 63 30 64 38 65 31 66 37 67 32 68 33 69
REMARK SMILES IDX 34 70 35 71 36 72 59 73 60 74 68 75 61 76 67 77 62 78 63 79
REMARK SMILES IDX 64 80 65 81 66 82 45 83 46 84 54 85 47 86 53 87 48 88 49 89
REMARK SMILES IDX 50 90 51 91 52 92
REMARK H PARENT 13 6 5 16 84 24 84 25 17 29 73 48 43 59
REMARK Flexibility Score: inf
ROOT
ATOM      1  C   UNL     1       4.998   0.986  -8.005  1.00  0.00     0.042 C 
ENDROOT
BRANCH   1   2
ATOM      2  C   UNL     1       5.475   1.666  -6.726  1.00  0.00     0.118 C 
BRANCH   2   3
ATOM      3  N   UNL     1       4.427   2.461  -6.121  1.00  0.00    -0.349 N 
ATOM      4  C   UNL     1       3.662   2.207  -5.005  1.00  0.00     0.286 C 
ATOM      5  O   UNL     1       2.952   3.126  -4.605  1.00  0.00    -0.266 OA
ATOM      6  H   UNL     1       4.233   3.312  -6.577  1.00  0.00     0.163 HD
BRANCH   4   7
ATOM      7  C   UNL     1       3.748   0.917  -4.348  1.00  0.00     0.191 A 
ATOM      8  C   UNL     1       3.691  -0.387  -2.568  1.00  0.00     0.124 A 
ATOM      9  C   UNL     1       3.990  -1.205  -3.634  1.00  0.00     0.048 A 
ATOM     10  O   UNL     1       3.543   0.897  -2.993  1.00  0.00    -0.454 OA
ATOM     11  C   UNL     1       3.996  -0.375  -4.777  1.00  0.00     0.056 A 
BRANCH   8  12
ATOM     12  C   UNL     1       3.580  -0.638  -1.116  1.00  0.00     0.191 C 
BRANCH  12  13
ATOM     13  N   UNL     1       2.481   0.091  -0.532  1.00  0.00    -0.348 N 
ATOM     14  C   UNL     1       1.224  -0.214  -0.144  1.00  0.00     0.232 C 
ATOM     15  O   UNL     1       0.673   0.674   0.526  1.00  0.00    -0.274 OA
ATOM     16  H   UNL     1       2.699   1.039  -0.381  1.00  0.00     0.163 HD
BRANCH  14  17
ATOM     17  C   UNL     1       0.403  -1.443  -0.603  1.00  0.00     0.095 C 
ATOM     18  C   UNL     1      -0.492  -0.903  -1.747  1.00  0.00     0.028 C 
ATOM     19  C   UNL     1       1.113  -2.704  -1.122  1.00  0.00     0.028 C 
ATOM     20  C   UNL     1      -0.513  -1.871   0.578  1.00  0.00     0.277 C 
ATOM     21  C   UNL     1       1.783  -3.515  -0.013  1.00  0.00     0.063 C 
ATOM     22  N   UNL     1       0.217  -2.594   1.632  1.00  0.00    -0.345 N 
ATOM     23  C   UNL     1       0.816  -3.822   1.122  1.00  0.00     0.260 C 
ATOM     24  H   UNL     1       0.955  -1.992   1.996  1.00  0.00     0.346 HD
ATOM     25  H   UNL     1      -0.446  -2.843   2.366  1.00  0.00     0.346 HD
ENDBRANCH  14  17
ENDBRANCH  12  13
ENDBRANCH   8  12
ENDBRANCH   4   7
ENDBRANCH   2   3
ENDBRANCH   1   2
BRANCH   1  26
ATOM     26  C   UNL     1       4.861   1.951  -9.178  1.00  0.00     0.118 C 
BRANCH  26  27
ATOM     27  N   UNL     1       6.147   2.515  -9.565  1.00  0.00    -0.352 N 
ATOM     28  C   UNL     1       6.818   2.453 -10.758  1.00  0.00     0.251 C 
ATOM     29  H   UNL     1       6.606   3.022  -8.857  1.00  0.00     0.163 HD
ATOM     30  O   UNL     1       8.005   2.766 -10.790  1.00  0.00    -0.269 OA
BRANCH  28  31
ATOM     31  C   UNL     1       6.129   2.022 -11.992  1.00  0.00     0.039 A 
ATOM     32  C   UNL     1       6.843   1.279 -12.936  1.00  0.00     0.014 A 
ATOM     33  C   UNL     1       4.809   2.400 -12.254  1.00  0.00     0.014 A 
ATOM     34  C   UNL     1       6.223   0.891 -14.125  1.00  0.00     0.010 A 
ATOM     35  C   UNL     1       4.166   1.939 -13.399  1.00  0.00     0.010 A 
ATOM     36  C   UNL     1       4.874   1.201 -14.358  1.00  0.00    -0.014 A 
BRANCH  36  37
ATOM     37  C   UNL     1       4.199   0.786 -15.613  1.00  0.00     0.031 A 
ATOM     38  C   UNL     1       3.686   1.825 -16.575  1.00  0.00     0.074 A 
ATOM     39  C   UNL     1       4.016  -0.524 -15.865  1.00  0.00     0.049 A 
ATOM     40  N   UNL     1       3.055   1.657 -17.708  1.00  0.00    -0.248 NA
ATOM     41  C   UNL     1       3.884   3.237 -16.204  1.00  0.00     0.031 C 
ATOM     42  C   UNL     1       4.432  -1.622 -14.987  1.00  0.00     0.029 A 
ATOM     43  N   UNL     1       3.434  -1.157 -16.933  1.00  0.00    -0.354 N 
ATOM     44  C   UNL     1       2.768   2.935 -18.175  1.00  0.00     0.074 A 
ATOM     45  C   UNL     1       3.241   3.867 -17.176  1.00  0.00     0.031 C 
ATOM     46  C   UNL     1       4.124  -2.791 -15.570  1.00  0.00     0.029 A 
ATOM     47  C   UNL     1       3.454  -2.529 -16.840  1.00  0.00     0.049 A 
ATOM     48  H   UNL     1       3.040  -0.675 -17.695  1.00  0.00     0.167 HD
ATOM     49  C   UNL     1       2.183   3.302 -19.341  1.00  0.00     0.031 A 
ATOM     50  C   UNL     1       2.986  -3.470 -17.681  1.00  0.00     0.031 A 
ATOM     51  C   UNL     1       1.723   2.370 -20.336  1.00  0.00     0.049 A 
ATOM     52  C   UNL     1       2.342  -3.038 -18.970  1.00  0.00     0.074 A 
ATOM     53  C   UNL     1       1.163   2.636 -21.573  1.00  0.00     0.029 A 
ATOM     54  N   UNL     1       1.770   0.989 -20.207  1.00  0.00    -0.354 N 
ATOM     55  N   UNL     1       2.136  -1.823 -19.422  1.00  0.00    -0.248 NA
ATOM     56  C   UNL     1       1.885  -4.104 -19.870  1.00  0.00     0.031 C 
ATOM     57  C   UNL     1       0.822   1.418 -22.169  1.00  0.00     0.029 A 
ATOM     58  C   UNL     1       1.231   0.391 -21.333  1.00  0.00     0.049 A 
ATOM     59  H   UNL     1       2.134   0.506 -19.430  1.00  0.00     0.167 HD
ATOM     60  C   UNL     1       1.554  -1.981 -20.675  1.00  0.00     0.074 A 
ATOM     61  C   UNL     1       1.458  -3.407 -20.914  1.00  0.00     0.031 C 
ATOM     62  C   UNL     1       1.140  -1.031 -21.552  1.00  0.00     0.031 A 
BRANCH  49  63
ATOM     63  C   UNL     1       2.005   4.777 -19.599  1.00  0.00    -0.014 A 
ATOM     64  C   UNL     1       3.111   5.617 -19.827  1.00  0.00     0.010 A 
ATOM     65  C   UNL     1       0.711   5.327 -19.649  1.00  0.00     0.010 A 
ATOM     66  C   UNL     1       2.930   6.984 -20.055  1.00  0.00     0.020 A 
ATOM     67  C   UNL     1       0.523   6.688 -19.910  1.00  0.00     0.020 A 
ATOM     68  C   UNL     1       1.636   7.511 -20.093  1.00  0.00     0.054 A 
BRANCH  68  69
ATOM     69  S   UNL     1       1.431   9.284 -20.416  1.00  0.00     0.124 S 
ATOM     70  O   UNL     1       1.898   9.873 -19.163  1.00  0.00    -0.237 OA
ATOM     71  O   UNL     1       2.296   9.502 -21.572  1.00  0.00    -0.237 OA
ATOM     72  O   UNL     1       0.001   9.427 -20.675  1.00  0.00    -0.744 OA
ENDBRANCH  68  69
ENDBRANCH  49  63
BRANCH  50  73
ATOM     73  C   UNL     1       3.134  -4.911 -17.341  1.00  0.00    -0.014 A 
ATOM     74  C   UNL     1       4.018  -5.731 -18.065  1.00  0.00     0.010 A 
ATOM     75  C   UNL     1       2.401  -5.470 -16.278  1.00  0.00     0.010 A 
ATOM     76  C   UNL     1       4.149  -7.086 -17.747  1.00  0.00     0.020 A 
ATOM     77  C   UNL     1       2.553  -6.816 -15.937  1.00  0.00     0.020 A 
ATOM     78  C   UNL     1       3.417  -7.620 -16.683  1.00  0.00     0.054 A 
BRANCH  78  79
ATOM     79  S   UNL     1       3.641  -9.369 -16.256  1.00  0.00     0.124 S 
ATOM     80  O   UNL     1       2.954 -10.040 -17.355  1.00  0.00    -0.237 OA
ATOM     81  O   UNL     1       5.095  -9.506 -16.240  1.00  0.00    -0.237 OA
ATOM     82  O   UNL     1       2.997  -9.487 -14.950  1.00  0.00    -0.744 OA
ENDBRANCH  78  79
ENDBRANCH  50  73
BRANCH  62  83
ATOM     83  C   UNL     1       0.587  -1.506 -22.870  1.00  0.00    -0.014 A 
ATOM     84  C   UNL     1      -0.657  -2.156 -22.954  1.00  0.00     0.010 A 
ATOM     85  C   UNL     1       1.315  -1.265 -24.050  1.00  0.00     0.010 A 
ATOM     86  C   UNL     1      -1.139  -2.601 -24.188  1.00  0.00     0.020 A 
ATOM     87  C   UNL     1       0.822  -1.679 -25.289  1.00  0.00     0.020 A 
ATOM     88  C   UNL     1      -0.394  -2.362 -25.347  1.00  0.00     0.054 A 
BRANCH  88  89
ATOM     89  S   UNL     1      -1.049  -2.933 -26.939  1.00  0.00     0.124 S 
ATOM     90  O   UNL     1      -0.843  -4.376 -26.851  1.00  0.00    -0.237 OA
ATOM     91  O   UNL     1      -2.441  -2.493 -26.890  1.00  0.00    -0.237 OA
ATOM     92  O   UNL     1      -0.217  -2.244 -27.923  1.00  0.00    -0.744 OA
ENDBRANCH  88  89
ENDBRANCH  62  83
ENDBRANCH  36  37
ENDBRANCH  28  31
ENDBRANCH  26  27
ENDBRANCH   1  26
TORSDOF 16
