REMARK SMILES C=CCN(CC(=O)NCCCNC(=O)c1ccc(-c2c3nc(c(-c4ccc(S(=O)(=O)[O-])cc4)c4ccc([nH]4)c(-c4ccc(S(=O)(=O)[O-])cc4)c4nc(c(-c5ccc(S(=O)(=O)[O-])cc5)c5ccc2[nH]5)C=C4)C=C3)cc1)C(=O)C[NH3+]
REMARK SMILES IDX 9 1 8 2 6 3 7 4 5 6 4 7 3 8 2 9 1 10 75 11 76 12 77 13 78 14
REMARK SMILES IDX 10 18 11 19 12 20 13 21 14 23 15 24 16 25 74 26 17 27 73 28
REMARK SMILES IDX 18 29 19 30 20 31 67 32 21 33 72 34 66 35 68 36 22 37 71 38
REMARK SMILES IDX 65 39 64 40 23 42 53 43 34 44 52 45 35 46 38 47 51 48 69 49
REMARK SMILES IDX 36 50 37 51 50 53 70 54 39 55 24 56 25 57 33 58 26 59 32 60
REMARK SMILES IDX 27 61 28 62 29 63 30 64 31 65 54 66 55 67 63 68 56 69 62 70
REMARK SMILES IDX 57 71 58 72 59 73 60 74 61 75 40 76 41 77 49 78 42 79 48 80
REMARK SMILES IDX 43 81 44 82 45 83 46 84 47 85
REMARK H PARENT 8 5 78 15 78 16 78 17 12 22 68 41 38 52
REMARK Flexibility Score: inf
ROOT
ATOM      1  C   UNL     1      -4.548  -0.216   0.978  1.00  0.00     0.117 C 
ENDROOT
BRANCH   1   2
ATOM      2  N   UNL     1      -4.770  -1.526   1.552  1.00  0.00    -0.354 N 
ATOM      3  C   UNL     1      -3.936  -2.296   2.308  1.00  0.00     0.239 C 
ATOM      4  O   UNL     1      -4.434  -3.276   2.872  1.00  0.00    -0.273 OA
ATOM      5  H   UNL     1      -5.654  -1.919   1.371  1.00  0.00     0.163 HD
BRANCH   3   6
ATOM      6  C   UNL     1      -2.465  -1.907   2.534  1.00  0.00     0.220 C 
BRANCH   6   7
ATOM      7  N   UNL     1      -1.672  -1.742   1.307  1.00  0.00    -0.325 N 
BRANCH   7   8
ATOM      8  C   UNL     1      -1.144  -0.418   0.996  1.00  0.00     0.147 C 
BRANCH   8   9
ATOM      9  C   UNL     1       0.349  -0.384   1.129  1.00  0.00    -0.014 C 
ATOM     10  C   UNL     1       1.160  -0.002   0.131  1.00  0.00     0.006 C 
ENDBRANCH   8   9
ENDBRANCH   7   8
BRANCH   7  11
ATOM     11  C   UNL     1      -1.378  -2.792   0.437  1.00  0.00     0.278 C 
ATOM     12  O   UNL     1      -0.806  -2.603  -0.640  1.00  0.00    -0.268 OA
BRANCH  11  13
ATOM     13  C   UNL     1      -1.823  -4.217   0.798  1.00  0.00     0.360 C 
BRANCH  13  14
ATOM     14  N   UNL     1      -1.177  -4.696   2.030  1.00  0.00    -0.350 N 
ATOM     15  H   UNL     1      -0.166  -4.716   1.898  1.00  0.00     0.344 HD
ATOM     16  H   UNL     1      -1.511  -5.635   2.246  1.00  0.00     0.344 HD
ATOM     17  H   UNL     1      -1.407  -4.068   2.800  1.00  0.00     0.344 HD
ENDBRANCH  13  14
ENDBRANCH  11  13
ENDBRANCH   7  11
ENDBRANCH   6   7
ENDBRANCH   3   6
ENDBRANCH   1   2
BRANCH   1  18
ATOM     18  C   UNL     1      -4.359  -0.255  -0.534  1.00  0.00     0.042 C 
BRANCH  18  19
ATOM     19  C   UNL     1      -5.610  -0.658  -1.309  1.00  0.00     0.118 C 
BRANCH  19  20
ATOM     20  N   UNL     1      -6.717   0.270  -1.113  1.00  0.00    -0.352 N 
ATOM     21  C   UNL     1      -7.400   1.042  -2.018  1.00  0.00     0.251 C 
ATOM     22  H   UNL     1      -7.024   0.355  -0.181  1.00  0.00     0.163 HD
ATOM     23  O   UNL     1      -8.175   1.906  -1.605  1.00  0.00    -0.269 OA
BRANCH  21  24
ATOM     24  C   UNL     1      -7.203   0.859  -3.471  1.00  0.00     0.039 A 
ATOM     25  C   UNL     1      -7.122   1.989  -4.290  1.00  0.00     0.014 A 
ATOM     26  C   UNL     1      -7.123  -0.417  -4.033  1.00  0.00     0.014 A 
ATOM     27  C   UNL     1      -6.886   1.839  -5.659  1.00  0.00     0.010 A 
ATOM     28  C   UNL     1      -6.811  -0.563  -5.383  1.00  0.00     0.010 A 
ATOM     29  C   UNL     1      -6.686   0.563  -6.210  1.00  0.00    -0.014 A 
BRANCH  29  30
ATOM     30  C   UNL     1      -6.325   0.384  -7.641  1.00  0.00     0.031 A 
ATOM     31  C   UNL     1      -7.240  -0.368  -8.569  1.00  0.00     0.074 A 
ATOM     32  C   UNL     1      -5.135   0.836  -8.086  1.00  0.00     0.049 A 
ATOM     33  N   UNL     1      -7.057  -0.690  -9.824  1.00  0.00    -0.248 NA
ATOM     34  C   UNL     1      -8.517  -0.840  -8.008  1.00  0.00     0.031 C 
ATOM     35  C   UNL     1      -4.144   1.550  -7.276  1.00  0.00     0.029 A 
ATOM     36  N   UNL     1      -4.551   0.754  -9.325  1.00  0.00    -0.354 N 
ATOM     37  C   UNL     1      -8.183  -1.415 -10.198  1.00  0.00     0.074 A 
ATOM     38  C   UNL     1      -9.022  -1.525  -9.024  1.00  0.00     0.031 C 
ATOM     39  C   UNL     1      -3.087   1.859  -8.045  1.00  0.00     0.029 A 
ATOM     40  C   UNL     1      -3.300   1.324  -9.386  1.00  0.00     0.049 A 
ATOM     41  H   UNL     1      -4.986   0.326 -10.098  1.00  0.00     0.167 HD
ATOM     42  C   UNL     1      -8.498  -1.928 -11.412  1.00  0.00     0.031 A 
ATOM     43  C   UNL     1      -2.415   1.396 -10.400  1.00  0.00     0.031 A 
ATOM     44  C   UNL     1      -7.660  -1.813 -12.576  1.00  0.00     0.049 A 
ATOM     45  C   UNL     1      -2.775   0.792 -11.730  1.00  0.00     0.074 A 
ATOM     46  C   UNL     1      -7.915  -2.251 -13.864  1.00  0.00     0.029 A 
ATOM     47  N   UNL     1      -6.403  -1.226 -12.596  1.00  0.00    -0.354 N 
ATOM     48  N   UNL     1      -3.876   0.172 -12.082  1.00  0.00    -0.248 NA
ATOM     49  C   UNL     1      -1.776   0.904 -12.802  1.00  0.00     0.031 C 
ATOM     50  C   UNL     1      -6.787  -1.986 -14.647  1.00  0.00     0.029 A 
ATOM     51  C   UNL     1      -5.857  -1.319 -13.865  1.00  0.00     0.049 A 
ATOM     52  H   UNL     1      -5.964  -0.805 -11.822  1.00  0.00     0.167 HD
ATOM     53  C   UNL     1      -3.713  -0.154 -13.424  1.00  0.00     0.074 A 
ATOM     54  C   UNL     1      -2.416   0.350 -13.823  1.00  0.00     0.031 C 
ATOM     55  C   UNL     1      -4.564  -0.812 -14.251  1.00  0.00     0.031 A 
BRANCH  42  56
ATOM     56  C   UNL     1      -9.801  -2.674 -11.540  1.00  0.00    -0.014 A 
ATOM     57  C   UNL     1     -11.036  -2.003 -11.457  1.00  0.00     0.010 A 
ATOM     58  C   UNL     1      -9.793  -4.057 -11.797  1.00  0.00     0.010 A 
ATOM     59  C   UNL     1     -12.235  -2.709 -11.585  1.00  0.00     0.020 A 
ATOM     60  C   UNL     1     -10.990  -4.761 -11.958  1.00  0.00     0.020 A 
ATOM     61  C   UNL     1     -12.204  -4.084 -11.834  1.00  0.00     0.054 A 
BRANCH  61  62
ATOM     62  S   UNL     1     -13.777  -4.968 -12.020  1.00  0.00     0.124 S 
ATOM     63  O   UNL     1     -14.289  -4.963 -10.652  1.00  0.00    -0.237 OA
ATOM     64  O   UNL     1     -14.507  -4.126 -12.965  1.00  0.00    -0.237 OA
ATOM     65  O   UNL     1     -13.383  -6.278 -12.531  1.00  0.00    -0.744 OA
ENDBRANCH  61  62
ENDBRANCH  42  56
BRANCH  43  66
ATOM     66  C   UNL     1      -1.103   2.069 -10.194  1.00  0.00    -0.014 A 
ATOM     67  C   UNL     1      -0.818   3.289 -10.832  1.00  0.00     0.010 A 
ATOM     68  C   UNL     1      -0.133   1.499  -9.349  1.00  0.00     0.010 A 
ATOM     69  C   UNL     1       0.417   3.917 -10.643  1.00  0.00     0.020 A 
ATOM     70  C   UNL     1       1.091   2.139  -9.133  1.00  0.00     0.020 A 
ATOM     71  C   UNL     1       1.363   3.339  -9.791  1.00  0.00     0.054 A 
BRANCH  71  72
ATOM     72  S   UNL     1       2.938   4.198  -9.524  1.00  0.00     0.124 S 
ATOM     73  O   UNL     1       3.615   3.998 -10.801  1.00  0.00    -0.237 OA
ATOM     74  O   UNL     1       2.507   5.565  -9.242  1.00  0.00    -0.237 OA
ATOM     75  O   UNL     1       3.525   3.492  -8.387  1.00  0.00    -0.744 OA
ENDBRANCH  71  72
ENDBRANCH  43  66
BRANCH  55  76
ATOM     76  C   UNL     1      -4.139  -0.998 -15.684  1.00  0.00    -0.014 A 
ATOM     77  C   UNL     1      -3.117  -1.899 -16.033  1.00  0.00     0.010 A 
ATOM     78  C   UNL     1      -4.824  -0.310 -16.703  1.00  0.00     0.010 A 
ATOM     79  C   UNL     1      -2.772  -2.090 -17.374  1.00  0.00     0.020 A 
ATOM     80  C   UNL     1      -4.503  -0.522 -18.046  1.00  0.00     0.020 A 
ATOM     81  C   UNL     1      -3.470  -1.403 -18.372  1.00  0.00     0.054 A 
BRANCH  81  82
ATOM     82  S   UNL     1      -3.043  -1.715 -20.107  1.00  0.00     0.124 S 
ATOM     83  O   UNL     1      -1.745  -1.056 -20.225  1.00  0.00    -0.237 OA
ATOM     84  O   UNL     1      -3.014  -3.174 -20.172  1.00  0.00    -0.237 OA
ATOM     85  O   UNL     1      -4.131  -1.086 -20.852  1.00  0.00    -0.744 OA
ENDBRANCH  81  82
ENDBRANCH  55  76
ENDBRANCH  29  30
ENDBRANCH  21  24
ENDBRANCH  19  20
ENDBRANCH  18  19
ENDBRANCH   1  18
TORSDOF 19
