REMARK SMILES CC(C)c1cc(OCC(=O)NCCCNC(=O)c2ccc(-c3c4nc(c(-c5ccc(S(=O)(=O)[O-])cc5)c5ccc([nH]5)c(-c5ccc(S(=O)(=O)[O-])cc5)c5nc(c(-c6ccc(S(=O)(=O)[O-])cc6)c6ccc3[nH]6)C=C5)C=C4)cc2)nc(Nc2ccc(F)cc2F)n1
REMARK SMILES IDX 12 1 11 2 9 3 10 4 8 6 7 7 6 8 4 9 5 10 89 11 79 12 78 13
REMARK SMILES IDX 2 14 1 15 3 16 80 17 81 19 82 20 87 21 83 22 86 23 88 24
REMARK SMILES IDX 84 25 85 26 13 27 14 28 15 29 16 30 17 32 18 33 19 34 77 35
REMARK SMILES IDX 20 36 76 37 21 38 22 39 23 40 70 41 24 42 75 43 69 44 71 45
REMARK SMILES IDX 25 46 74 47 68 48 67 49 26 51 56 52 37 53 55 54 38 55 41 56
REMARK SMILES IDX 54 57 72 58 39 59 40 60 53 62 73 63 42 64 27 65 28 66 36 67
REMARK SMILES IDX 29 68 35 69 30 70 31 71 32 72 33 73 34 74 57 75 58 76 66 77
REMARK SMILES IDX 59 78 65 79 60 80 61 81 62 82 63 83 64 84 43 85 44 86 52 87
REMARK SMILES IDX 45 88 51 89 46 90 47 91 48 92 49 93 50 94
REMARK H PARENT 11 5 80 18 15 31 71 50 41 61
REMARK Flexibility Score: inf
ROOT
ATOM      1  C   UNL     1      -4.426  -3.441  -1.228  1.00  0.00     0.117 C 
ENDROOT
BRANCH   1   2
ATOM      2  N   UNL     1      -3.021  -3.694  -0.966  1.00  0.00    -0.353 N 
ATOM      3  C   UNL     1      -2.372  -3.705   0.232  1.00  0.00     0.258 C 
ATOM      4  O   UNL     1      -1.172  -3.992   0.257  1.00  0.00    -0.271 OA
ATOM      5  H   UNL     1      -2.465  -3.883  -1.756  1.00  0.00     0.163 HD
BRANCH   3   6
ATOM      6  C   UNL     1      -3.138  -3.386   1.522  1.00  0.00     0.331 C 
BRANCH   6   7
ATOM      7  O   UNL     1      -3.746  -2.111   1.604  1.00  0.00    -0.467 OA
BRANCH   7   8
ATOM      8  C   UNL     1      -2.938  -1.008   1.623  1.00  0.00     0.218 A 
ATOM      9  C   UNL     1      -0.922   0.179   1.594  1.00  0.00     0.052 A 
ATOM     10  C   UNL     1      -1.562  -1.036   1.666  1.00  0.00     0.092 A 
ATOM     11  N   UNL     1      -1.607   1.329   1.517  1.00  0.00    -0.217 NA
ATOM     12  C   UNL     1      -2.946   1.281   1.520  1.00  0.00     0.230 A 
ATOM     13  N   UNL     1      -3.639   0.138   1.581  1.00  0.00    -0.177 NA
BRANCH   9  14
ATOM     14  C   UNL     1       0.589   0.251   1.519  1.00  0.00     0.032 C 
ATOM     15  C   UNL     1       1.041   0.124   0.063  1.00  0.00     0.014 C 
ATOM     16  C   UNL     1       1.141   1.537   2.140  1.00  0.00     0.014 C 
ENDBRANCH   9  14
BRANCH  12  17
ATOM     17  N   UNL     1      -3.665   2.473   1.562  1.00  0.00    -0.322 N 
ATOM     18  H   UNL     1      -4.636   2.391   1.698  1.00  0.00     0.170 HD
BRANCH  17  19
ATOM     19  C   UNL     1      -3.163   3.774   1.434  1.00  0.00     0.077 A 
ATOM     20  C   UNL     1      -3.480   4.732   2.407  1.00  0.00     0.032 A 
ATOM     21  C   UNL     1      -2.247   4.132   0.426  1.00  0.00     0.149 A 
ATOM     22  C   UNL     1      -2.879   5.995   2.381  1.00  0.00     0.041 A 
ATOM     23  C   UNL     1      -1.660   5.392   0.383  1.00  0.00     0.080 A 
ATOM     24  F   UNL     1      -1.946   3.264  -0.553  1.00  0.00    -0.205 F 
ATOM     25  C   UNL     1      -1.974   6.309   1.373  1.00  0.00     0.126 A 
ATOM     26  F   UNL     1      -1.388   7.514   1.365  1.00  0.00    -0.207 F 
ENDBRANCH  17  19
ENDBRANCH  12  17
ENDBRANCH   7   8
ENDBRANCH   6   7
ENDBRANCH   3   6
ENDBRANCH   1   2
BRANCH   1  27
ATOM     27  C   UNL     1      -4.669  -2.106  -1.922  1.00  0.00     0.042 C 
BRANCH  27  28
ATOM     28  C   UNL     1      -4.003  -1.965  -3.290  1.00  0.00     0.118 C 
BRANCH  28  29
ATOM     29  N   UNL     1      -4.434  -2.978  -4.246  1.00  0.00    -0.352 N 
ATOM     30  C   UNL     1      -5.074  -2.855  -5.455  1.00  0.00     0.251 C 
ATOM     31  H   UNL     1      -4.234  -3.905  -3.981  1.00  0.00     0.163 HD
ATOM     32  O   UNL     1      -5.488  -3.868  -6.019  1.00  0.00    -0.269 OA
BRANCH  30  33
ATOM     33  C   UNL     1      -5.295  -1.528  -6.071  1.00  0.00     0.039 A 
ATOM     34  C   UNL     1      -6.536  -1.257  -6.657  1.00  0.00     0.014 A 
ATOM     35  C   UNL     1      -4.290  -0.558  -6.093  1.00  0.00     0.014 A 
ATOM     36  C   UNL     1      -6.797   0.012  -7.181  1.00  0.00     0.010 A 
ATOM     37  C   UNL     1      -4.575   0.728  -6.551  1.00  0.00     0.010 A 
ATOM     38  C   UNL     1      -5.837   1.032  -7.085  1.00  0.00    -0.014 A 
BRANCH  38  39
ATOM     39  C   UNL     1      -6.154   2.430  -7.478  1.00  0.00     0.031 A 
ATOM     40  C   UNL     1      -5.411   3.103  -8.600  1.00  0.00     0.074 A 
ATOM     41  C   UNL     1      -7.066   3.122  -6.765  1.00  0.00     0.049 A 
ATOM     42  N   UNL     1      -5.503   4.338  -9.024  1.00  0.00    -0.248 NA
ATOM     43  C   UNL     1      -4.423   2.290  -9.327  1.00  0.00     0.031 C 
ATOM     44  C   UNL     1      -7.832   2.595  -5.633  1.00  0.00     0.029 A 
ATOM     45  N   UNL     1      -7.496   4.421  -6.877  1.00  0.00    -0.354 N 
ATOM     46  C   UNL     1      -4.581   4.455 -10.058  1.00  0.00     0.074 A 
ATOM     47  C   UNL     1      -3.909   3.177 -10.168  1.00  0.00     0.031 C 
ATOM     48  C   UNL     1      -8.651   3.553  -5.170  1.00  0.00     0.029 A 
ATOM     49  C   UNL     1      -8.432   4.776  -5.934  1.00  0.00     0.049 A 
ATOM     50  H   UNL     1      -7.166   5.041  -7.568  1.00  0.00     0.167 HD
ATOM     51  C   UNL     1      -4.325   5.525 -10.849  1.00  0.00     0.031 A 
ATOM     52  C   UNL     1      -9.035   5.957  -5.692  1.00  0.00     0.031 A 
ATOM     53  C   UNL     1      -4.990   6.797 -10.730  1.00  0.00     0.049 A 
ATOM     54  C   UNL     1      -8.702   7.141  -6.557  1.00  0.00     0.074 A 
ATOM     55  C   UNL     1      -4.836   7.924 -11.519  1.00  0.00     0.029 A 
ATOM     56  N   UNL     1      -5.925   7.118  -9.757  1.00  0.00    -0.354 N 
ATOM     57  N   UNL     1      -7.878   7.211  -7.575  1.00  0.00    -0.248 NA
ATOM     58  C   UNL     1      -9.384   8.404  -6.244  1.00  0.00     0.031 C 
ATOM     59  C   UNL     1      -5.627   8.946 -10.983  1.00  0.00     0.029 A 
ATOM     60  C   UNL     1      -6.327   8.436  -9.902  1.00  0.00     0.049 A 
ATOM     61  H   UNL     1      -6.253   6.500  -9.064  1.00  0.00     0.167 HD
ATOM     62  C   UNL     1      -7.958   8.520  -8.037  1.00  0.00     0.074 A 
ATOM     63  C   UNL     1      -8.928   9.199  -7.203  1.00  0.00     0.031 C 
ATOM     64  C   UNL     1      -7.286   9.106  -9.059  1.00  0.00     0.031 A 
BRANCH  51  65
ATOM     65  C   UNL     1      -3.265   5.373 -11.911  1.00  0.00    -0.014 A 
ATOM     66  C   UNL     1      -3.469   4.547 -13.032  1.00  0.00     0.010 A 
ATOM     67  C   UNL     1      -2.068   6.108 -11.815  1.00  0.00     0.010 A 
ATOM     68  C   UNL     1      -2.482   4.429 -14.014  1.00  0.00     0.020 A 
ATOM     69  C   UNL     1      -1.091   6.016 -12.811  1.00  0.00     0.020 A 
ATOM     70  C   UNL     1      -1.298   5.164 -13.897  1.00  0.00     0.054 A 
BRANCH  70  71
ATOM     71  S   UNL     1      -0.047   5.008 -15.201  1.00  0.00     0.124 S 
ATOM     72  O   UNL     1       0.458   3.656 -14.976  1.00  0.00    -0.237 OA
ATOM     73  O   UNL     1      -0.832   5.190 -16.420  1.00  0.00    -0.237 OA
ATOM     74  O   UNL     1       0.899   6.082 -14.906  1.00  0.00    -0.744 OA
ENDBRANCH  70  71
ENDBRANCH  51  65
BRANCH  52  75
ATOM     75  C   UNL     1     -10.011   6.078  -4.573  1.00  0.00    -0.014 A 
ATOM     76  C   UNL     1     -11.378   6.277  -4.835  1.00  0.00     0.010 A 
ATOM     77  C   UNL     1      -9.579   5.983  -3.237  1.00  0.00     0.010 A 
ATOM     78  C   UNL     1     -12.291   6.394  -3.782  1.00  0.00     0.020 A 
ATOM     79  C   UNL     1     -10.492   6.068  -2.184  1.00  0.00     0.020 A 
ATOM     80  C   UNL     1     -11.843   6.285  -2.463  1.00  0.00     0.054 A 
BRANCH  80  81
ATOM     81  S   UNL     1     -13.054   6.388  -1.116  1.00  0.00     0.124 S 
ATOM     82  O   UNL     1     -13.405   7.804  -1.130  1.00  0.00    -0.237 OA
ATOM     83  O   UNL     1     -14.099   5.471  -1.563  1.00  0.00    -0.237 OA
ATOM     84  O   UNL     1     -12.302   5.940   0.055  1.00  0.00    -0.744 OA
ENDBRANCH  80  81
ENDBRANCH  52  75
BRANCH  64  85
ATOM     85  C   UNL     1      -7.591  10.554  -9.348  1.00  0.00    -0.014 A 
ATOM     86  C   UNL     1      -7.178  11.574  -8.472  1.00  0.00     0.010 A 
ATOM     87  C   UNL     1      -8.257  10.902 -10.537  1.00  0.00     0.010 A 
ATOM     88  C   UNL     1      -7.455  12.913  -8.765  1.00  0.00     0.020 A 
ATOM     89  C   UNL     1      -8.508  12.240 -10.849  1.00  0.00     0.020 A 
ATOM     90  C   UNL     1      -8.117  13.237  -9.953  1.00  0.00     0.054 A 
BRANCH  90  91
ATOM     91  S   UNL     1      -8.425  14.985 -10.330  1.00  0.00     0.124 S 
ATOM     92  O   UNL     1      -9.472  15.323  -9.370  1.00  0.00    -0.237 OA
ATOM     93  O   UNL     1      -7.123  15.599 -10.083  1.00  0.00    -0.237 OA
ATOM     94  O   UNL     1      -8.845  14.970 -11.729  1.00  0.00    -0.744 OA
ENDBRANCH  90  91
ENDBRANCH  64  85
ENDBRANCH  38  39
ENDBRANCH  30  33
ENDBRANCH  28  29
ENDBRANCH  27  28
ENDBRANCH   1  27
TORSDOF 18
