REMARK SMILES C=C[C@@H](C)Oc1cnc2ccccc2c1C(=O)NCCCNC(=O)c1ccc(-c2c3nc(c(-c4ccc(S(=O)(=O)[O-])cc4)c4ccc([nH]4)c(-c4ccc(S(=O)(=O)[O-])cc4)c4nc(c(-c5ccc(S(=O)(=O)[O-])cc5)c5ccc2[nH]5)C=C4)C=C3)cc1
REMARK SMILES IDX 20 1 19 2 18 3 16 4 17 5 15 7 6 8 7 9 8 10 14 11 9 12 13 13
REMARK SMILES IDX 10 14 12 15 11 16 5 17 3 18 4 19 2 20 1 21 21 22 22 23 23 24
REMARK SMILES IDX 24 26 25 27 26 28 84 29 27 30 83 31 28 32 29 33 30 34 77 35
REMARK SMILES IDX 31 36 82 37 76 38 78 39 32 40 81 41 75 42 74 43 33 45 63 46
REMARK SMILES IDX 44 47 62 48 45 49 48 50 61 51 79 52 46 53 47 54 60 56 80 57
REMARK SMILES IDX 49 58 34 59 35 60 43 61 36 62 42 63 37 64 38 65 39 66 40 67
REMARK SMILES IDX 41 68 64 69 65 70 73 71 66 72 72 73 67 74 68 75 69 76 70 77
REMARK SMILES IDX 71 78 50 79 51 80 59 81 52 82 58 83 53 84 54 85 55 86 56 87
REMARK SMILES IDX 57 88
REMARK H PARENT 18 6 22 25 78 44 48 55
REMARK Flexibility Score: inf
ROOT
ATOM      1  C   UNL     1      -5.064  -0.480   7.135  1.00  0.00     0.042 C 
ENDROOT
BRANCH   1   2
ATOM      2  C   UNL     1      -4.763  -1.351   5.904  1.00  0.00     0.118 C 
BRANCH   2   3
ATOM      3  N   UNL     1      -4.279  -0.514   4.814  1.00  0.00    -0.352 N 
ATOM      4  C   UNL     1      -3.063  -0.165   4.272  1.00  0.00     0.255 C 
ATOM      5  O   UNL     1      -3.144   0.764   3.463  1.00  0.00    -0.269 OA
ATOM      6  H   UNL     1      -5.023  -0.081   4.335  1.00  0.00     0.163 HD
BRANCH   4   7
ATOM      7  C   UNL     1      -1.732  -0.848   4.495  1.00  0.00     0.092 A 
ATOM      8  C   UNL     1      -0.867  -0.919   3.377  1.00  0.00     0.151 A 
ATOM      9  C   UNL     1       0.338  -1.581   3.530  1.00  0.00     0.159 A 
ATOM     10  N   UNL     1       0.705  -2.261   4.630  1.00  0.00    -0.252 NA
ATOM     11  C   UNL     1      -1.264  -1.395   5.732  1.00  0.00     0.017 A 
ATOM     12  C   UNL     1      -0.071  -2.157   5.707  1.00  0.00     0.071 A 
ATOM     13  C   UNL     1      -1.824  -1.188   7.011  1.00  0.00     0.011 A 
ATOM     14  C   UNL     1       0.380  -2.801   6.851  1.00  0.00     0.029 A 
ATOM     15  C   UNL     1      -1.378  -1.850   8.156  1.00  0.00     0.001 A 
ATOM     16  C   UNL     1      -0.281  -2.686   8.069  1.00  0.00     0.002 A 
BRANCH   8  17
ATOM     17  O   UNL     1      -1.132  -0.222   2.232  1.00  0.00    -0.484 OA
BRANCH  17  18
ATOM     18  C   UNL     1      -1.047  -0.846   0.942  1.00  0.00     0.192 C 
ATOM     19  C   UNL     1      -1.742  -2.205   0.868  1.00  0.00     0.057 C 
BRANCH  18  20
ATOM     20  C   UNL     1       0.365  -0.878   0.403  1.00  0.00     0.009 C 
ATOM     21  C   UNL     1       0.925   0.099  -0.324  1.00  0.00     0.008 C 
ENDBRANCH  18  20
ENDBRANCH  17  18
ENDBRANCH   8  17
ENDBRANCH   4   7
ENDBRANCH   2   3
ENDBRANCH   1   2
BRANCH   1  22
ATOM     22  C   UNL     1      -6.459   0.133   7.170  1.00  0.00     0.118 C 
BRANCH  22  23
ATOM     23  N   UNL     1      -7.442  -0.781   7.726  1.00  0.00    -0.352 N 
ATOM     24  C   UNL     1      -8.110  -0.750   8.925  1.00  0.00     0.251 C 
ATOM     25  H   UNL     1      -7.666  -1.547   7.149  1.00  0.00     0.163 HD
ATOM     26  O   UNL     1      -8.712  -1.769   9.285  1.00  0.00    -0.269 OA
BRANCH  24  27
ATOM     27  C   UNL     1      -8.124   0.451   9.799  1.00  0.00     0.039 A 
ATOM     28  C   UNL     1      -8.169   0.271  11.188  1.00  0.00     0.014 A 
ATOM     29  C   UNL     1      -8.175   1.748   9.283  1.00  0.00     0.014 A 
ATOM     30  C   UNL     1      -8.224   1.378  12.045  1.00  0.00     0.010 A 
ATOM     31  C   UNL     1      -8.139   2.852  10.138  1.00  0.00     0.010 A 
ATOM     32  C   UNL     1      -8.186   2.682  11.529  1.00  0.00    -0.014 A 
BRANCH  32  33
ATOM     33  C   UNL     1      -8.237   3.874  12.422  1.00  0.00     0.031 A 
ATOM     34  C   UNL     1      -9.390   4.843  12.330  1.00  0.00     0.074 A 
ATOM     35  C   UNL     1      -7.227   4.116  13.283  1.00  0.00     0.049 A 
ATOM     36  N   UNL     1      -9.581   5.965  12.978  1.00  0.00    -0.248 NA
ATOM     37  C   UNL     1     -10.454   4.525  11.363  1.00  0.00     0.031 C 
ATOM     38  C   UNL     1      -6.034   3.282  13.447  1.00  0.00     0.029 A 
ATOM     39  N   UNL     1      -7.041   5.138  14.181  1.00  0.00    -0.354 N 
ATOM     40  C   UNL     1     -10.767   6.496  12.479  1.00  0.00     0.074 A 
ATOM     41  C   UNL     1     -11.226   5.598  11.442  1.00  0.00     0.031 C 
ATOM     42  C   UNL     1      -5.256   3.809  14.407  1.00  0.00     0.029 A 
ATOM     43  C   UNL     1      -5.873   5.035  14.902  1.00  0.00     0.049 A 
ATOM     44  H   UNL     1      -7.683   5.875  14.299  1.00  0.00     0.167 HD
ATOM     45  C   UNL     1     -11.428   7.616  12.861  1.00  0.00     0.031 A 
ATOM     46  C   UNL     1      -5.355   5.837  15.853  1.00  0.00     0.031 A 
ATOM     47  C   UNL     1     -10.987   8.494  13.911  1.00  0.00     0.049 A 
ATOM     48  C   UNL     1      -6.118   7.062  16.278  1.00  0.00     0.074 A 
ATOM     49  C   UNL     1     -11.611   9.626  14.408  1.00  0.00     0.029 A 
ATOM     50  N   UNL     1      -9.815   8.335  14.635  1.00  0.00    -0.354 N 
ATOM     51  N   UNL     1      -7.261   7.518  15.826  1.00  0.00    -0.248 NA
ATOM     52  C   UNL     1      -5.529   7.870  17.356  1.00  0.00     0.031 C 
ATOM     53  C   UNL     1     -10.799  10.171  15.407  1.00  0.00     0.029 A 
ATOM     54  C   UNL     1      -9.694   9.350  15.569  1.00  0.00     0.049 A 
ATOM     55  H   UNL     1      -9.165   7.607  14.504  1.00  0.00     0.167 HD
ATOM     56  C   UNL     1      -7.545   8.647  16.586  1.00  0.00     0.074 A 
ATOM     57  C   UNL     1      -6.459   8.798  17.533  1.00  0.00     0.031 C 
ATOM     58  C   UNL     1      -8.611   9.481  16.510  1.00  0.00     0.031 A 
BRANCH  45  59
ATOM     59  C   UNL     1     -12.706   7.952  12.135  1.00  0.00    -0.014 A 
ATOM     60  C   UNL     1     -13.866   7.174  12.308  1.00  0.00     0.010 A 
ATOM     61  C   UNL     1     -12.760   9.079  11.295  1.00  0.00     0.010 A 
ATOM     62  C   UNL     1     -15.040   7.489  11.619  1.00  0.00     0.020 A 
ATOM     63  C   UNL     1     -13.942   9.415  10.626  1.00  0.00     0.020 A 
ATOM     64  C   UNL     1     -15.069   8.604  10.778  1.00  0.00     0.054 A 
BRANCH  64  65
ATOM     65  S   UNL     1     -16.611   9.001   9.907  1.00  0.00     0.124 S 
ATOM     66  O   UNL     1     -16.639   7.975   8.866  1.00  0.00    -0.237 OA
ATOM     67  O   UNL     1     -17.619   8.853  10.957  1.00  0.00    -0.237 OA
ATOM     68  O   UNL     1     -16.404  10.363   9.435  1.00  0.00    -0.744 OA
ENDBRANCH  64  65
ENDBRANCH  45  59
BRANCH  46  69
ATOM     69  C   UNL     1      -4.058   5.486  16.495  1.00  0.00    -0.014 A 
ATOM     70  C   UNL     1      -4.021   5.027  17.823  1.00  0.00     0.010 A 
ATOM     71  C   UNL     1      -2.853   5.597  15.777  1.00  0.00     0.010 A 
ATOM     72  C   UNL     1      -2.804   4.703  18.429  1.00  0.00     0.020 A 
ATOM     73  C   UNL     1      -1.636   5.248  16.370  1.00  0.00     0.020 A 
ATOM     74  C   UNL     1      -1.618   4.814  17.698  1.00  0.00     0.054 A 
BRANCH  74  75
ATOM     75  S   UNL     1      -0.054   4.337  18.485  1.00  0.00     0.124 S 
ATOM     76  O   UNL     1       0.196   5.468  19.373  1.00  0.00    -0.237 OA
ATOM     77  O   UNL     1      -0.402   3.080  19.144  1.00  0.00    -0.237 OA
ATOM     78  O   UNL     1       0.868   4.206  17.360  1.00  0.00    -0.744 OA
ENDBRANCH  74  75
ENDBRANCH  46  69
BRANCH  58  79
ATOM     79  C   UNL     1      -8.684  10.604  17.509  1.00  0.00    -0.014 A 
ATOM     80  C   UNL     1      -7.841  11.725  17.414  1.00  0.00     0.010 A 
ATOM     81  C   UNL     1      -9.648  10.554  18.532  1.00  0.00     0.010 A 
ATOM     82  C   UNL     1      -7.937  12.760  18.348  1.00  0.00     0.020 A 
ATOM     83  C   UNL     1      -9.764  11.599  19.452  1.00  0.00     0.020 A 
ATOM     84  C   UNL     1      -8.896  12.689  19.363  1.00  0.00     0.054 A 
BRANCH  84  85
ATOM     85  S   UNL     1      -9.025  14.060  20.544  1.00  0.00     0.124 S 
ATOM     86  O   UNL     1      -7.869  13.829  21.405  1.00  0.00    -0.237 OA
ATOM     87  O   UNL     1      -8.942  15.236  19.682  1.00  0.00    -0.237 OA
ATOM     88  O   UNL     1     -10.326  13.850  21.177  1.00  0.00    -0.744 OA
ENDBRANCH  84  85
ENDBRANCH  58  79
ENDBRANCH  32  33
ENDBRANCH  24  27
ENDBRANCH  22  23
ENDBRANCH   1  22
TORSDOF 16
