REMARK SMILES O=C(NCCCNC(=O)[C@@H](c1c[nH]c2cc(OCc3ccccc3)ccc12)[NH+]1CCSCC1)c1ccc(-c2c3nc(c(-c4ccc(S(=O)(=O)[O-])cc4)c4ccc([nH]4)c(-c4ccc(S(=O)(=O)[O-])cc4)c4nc(c(-c5ccc(S(=O)(=O)[O-])cc5)c5ccc2[nH]5)C=C4)C=C3)cc1
REMARK SMILES IDX 5 1 4 2 3 3 1 4 2 5 34 7 35 8 93 9 36 10 92 11 37 12 38 13
REMARK SMILES IDX 39 14 86 15 40 16 91 17 85 18 87 19 41 20 90 21 84 22 83 23
REMARK SMILES IDX 42 25 72 26 53 27 71 28 54 29 57 30 70 31 88 32 55 33 56 34
REMARK SMILES IDX 69 36 89 37 58 38 43 39 44 40 52 41 45 42 51 43 46 44 47 45
REMARK SMILES IDX 48 46 49 47 50 48 73 49 74 50 82 51 75 52 81 53 76 54 77 55
REMARK SMILES IDX 78 56 79 57 80 58 59 59 60 60 68 61 61 62 67 63 62 64 63 65
REMARK SMILES IDX 64 66 65 67 66 68 6 69 7 70 8 71 9 73 10 74 11 75 12 76
REMARK SMILES IDX 27 77 13 78 14 79 26 80 15 82 25 83 16 84 17 85 18 86 19 87
REMARK SMILES IDX 20 88 24 89 21 90 23 91 22 92 28 93 29 94 33 95 30 97 32 98
REMARK SMILES IDX 31 99
REMARK H PARENT 3 6 87 24 57 35 7 72 13 81 28 96
REMARK Flexibility Score: inf
ROOT
ATOM      1  C   UNL     1       4.623   0.804   2.310  1.00  0.00     0.042 C 
ENDROOT
BRANCH   1   2
ATOM      2  C   UNL     1       4.347  -0.322   1.330  1.00  0.00     0.118 C 
BRANCH   2   3
ATOM      3  N   UNL     1       2.924  -0.466   1.054  1.00  0.00    -0.352 N 
ATOM      4  O   UNL     1       0.993  -0.120  -0.046  1.00  0.00    -0.269 OA
ATOM      5  C   UNL     1       2.218  -0.163  -0.085  1.00  0.00     0.251 C 
ATOM      6  H   UNL     1       2.389  -0.835   1.793  1.00  0.00     0.163 HD
BRANCH   5   7
ATOM      7  C   UNL     1       2.936   0.121  -1.348  1.00  0.00     0.039 A 
ATOM      8  C   UNL     1       4.046  -0.638  -1.722  1.00  0.00     0.014 A 
ATOM      9  C   UNL     1       2.474   1.141  -2.185  1.00  0.00     0.014 A 
ATOM     10  C   UNL     1       4.783  -0.284  -2.844  1.00  0.00     0.010 A 
ATOM     11  C   UNL     1       3.154   1.426  -3.372  1.00  0.00     0.010 A 
ATOM     12  C   UNL     1       4.330   0.731  -3.699  1.00  0.00    -0.014 A 
BRANCH  12  13
ATOM     13  C   UNL     1       5.051   0.981  -4.972  1.00  0.00     0.031 A 
ATOM     14  C   UNL     1       5.707   2.303  -5.254  1.00  0.00     0.074 A 
ATOM     15  C   UNL     1       5.113  -0.014  -5.879  1.00  0.00     0.049 A 
ATOM     16  N   UNL     1       6.371   2.678  -6.318  1.00  0.00    -0.248 NA
ATOM     17  C   UNL     1       5.596   3.342  -4.218  1.00  0.00     0.031 C 
ATOM     18  C   UNL     1       4.501  -1.337  -5.720  1.00  0.00     0.029 A 
ATOM     19  N   UNL     1       5.720  -0.077  -7.106  1.00  0.00    -0.354 N 
ATOM     20  C   UNL     1       6.739   4.000  -6.092  1.00  0.00     0.074 A 
ATOM     21  C   UNL     1       6.200   4.369  -4.801  1.00  0.00     0.031 C 
ATOM     22  C   UNL     1       4.795  -2.090  -6.789  1.00  0.00     0.029 A 
ATOM     23  C   UNL     1       5.548  -1.284  -7.741  1.00  0.00     0.049 A 
ATOM     24  H   UNL     1       6.230   0.670  -7.496  1.00  0.00     0.167 HD
ATOM     25  C   UNL     1       7.459   4.826  -6.890  1.00  0.00     0.031 A 
ATOM     26  C   UNL     1       5.924  -1.696  -8.966  1.00  0.00     0.031 A 
ATOM     27  C   UNL     1       7.980   4.448  -8.180  1.00  0.00     0.049 A 
ATOM     28  C   UNL     1       6.690  -0.752  -9.844  1.00  0.00     0.074 A 
ATOM     29  C   UNL     1       8.756   5.198  -9.048  1.00  0.00     0.029 A 
ATOM     30  N   UNL     1       7.766   3.223  -8.797  1.00  0.00    -0.354 N 
ATOM     31  N   UNL     1       7.073   0.477  -9.591  1.00  0.00    -0.248 NA
ATOM     32  C   UNL     1       7.080  -1.249 -11.169  1.00  0.00     0.031 C 
ATOM     33  C   UNL     1       8.954   4.452 -10.214  1.00  0.00     0.029 A 
ATOM     34  C   UNL     1       8.364   3.209 -10.047  1.00  0.00     0.049 A 
ATOM     35  H   UNL     1       7.263   2.473  -8.403  1.00  0.00     0.167 HD
ATOM     36  C   UNL     1       7.765   0.896 -10.720  1.00  0.00     0.074 A 
ATOM     37  C   UNL     1       7.765  -0.218 -11.647  1.00  0.00     0.031 C 
ATOM     38  C   UNL     1       8.348   2.096 -10.965  1.00  0.00     0.031 A 
BRANCH  25  39
ATOM     39  C   UNL     1       7.692   6.236  -6.409  1.00  0.00    -0.014 A 
ATOM     40  C   UNL     1       8.527   6.511  -5.310  1.00  0.00     0.010 A 
ATOM     41  C   UNL     1       7.088   7.311  -7.088  1.00  0.00     0.010 A 
ATOM     42  C   UNL     1       8.709   7.825  -4.868  1.00  0.00     0.020 A 
ATOM     43  C   UNL     1       7.292   8.629  -6.670  1.00  0.00     0.020 A 
ATOM     44  C   UNL     1       8.084   8.876  -5.547  1.00  0.00     0.054 A 
BRANCH  44  45
ATOM     45  S   UNL     1       8.334  10.570  -4.948  1.00  0.00     0.124 S 
ATOM     46  O   UNL     1       7.557  10.568  -3.711  1.00  0.00    -0.237 OA
ATOM     47  O   UNL     1       9.783  10.639  -4.777  1.00  0.00    -0.237 OA
ATOM     48  O   UNL     1       7.795  11.402  -6.020  1.00  0.00    -0.744 OA
ENDBRANCH  44  45
ENDBRANCH  25  39
BRANCH  26  49
ATOM     49  C   UNL     1       5.543  -3.058  -9.426  1.00  0.00    -0.014 A 
ATOM     50  C   UNL     1       6.510  -4.064  -9.584  1.00  0.00     0.010 A 
ATOM     51  C   UNL     1       4.188  -3.368  -9.655  1.00  0.00     0.010 A 
ATOM     52  C   UNL     1       6.130  -5.353  -9.970  1.00  0.00     0.020 A 
ATOM     53  C   UNL     1       3.802  -4.662 -10.008  1.00  0.00     0.020 A 
ATOM     54  C   UNL     1       4.778  -5.646 -10.172  1.00  0.00     0.054 A 
BRANCH  54  55
ATOM     55  S   UNL     1       4.304  -7.343 -10.601  1.00  0.00     0.124 S 
ATOM     56  O   UNL     1       4.768  -7.447 -11.981  1.00  0.00    -0.237 OA
ATOM     57  O   UNL     1       5.046  -8.133  -9.622  1.00  0.00    -0.237 OA
ATOM     58  O   UNL     1       2.853  -7.349 -10.425  1.00  0.00    -0.744 OA
ENDBRANCH  54  55
ENDBRANCH  26  49
BRANCH  38  59
ATOM     59  C   UNL     1       9.061   2.260 -12.281  1.00  0.00    -0.014 A 
ATOM     60  C   UNL     1       8.352   2.355 -13.491  1.00  0.00     0.010 A 
ATOM     61  C   UNL     1      10.464   2.373 -12.298  1.00  0.00     0.010 A 
ATOM     62  C   UNL     1       9.035   2.534 -14.698  1.00  0.00     0.020 A 
ATOM     63  C   UNL     1      11.147   2.582 -13.498  1.00  0.00     0.020 A 
ATOM     64  C   UNL     1      10.428   2.649 -14.692  1.00  0.00     0.054 A 
BRANCH  64  65
ATOM     65  S   UNL     1      11.286   2.932 -16.265  1.00  0.00     0.124 S 
ATOM     66  O   UNL     1      11.162   1.632 -16.918  1.00  0.00    -0.237 OA
ATOM     67  O   UNL     1      10.507   4.013 -16.863  1.00  0.00    -0.237 OA
ATOM     68  O   UNL     1      12.642   3.299 -15.860  1.00  0.00    -0.744 OA
ENDBRANCH  64  65
ENDBRANCH  38  59
ENDBRANCH  12  13
ENDBRANCH   5   7
ENDBRANCH   2   3
ENDBRANCH   1   2
BRANCH   1  69
ATOM     69  C   UNL     1       4.144   0.508   3.723  1.00  0.00     0.118 C 
BRANCH  69  70
ATOM     70  N   UNL     1       4.821  -0.632   4.324  1.00  0.00    -0.351 N 
ATOM     71  C   UNL     1       5.716  -0.645   5.366  1.00  0.00     0.283 C 
ATOM     72  H   UNL     1       4.609  -1.510   3.932  1.00  0.00     0.163 HD
ATOM     73  O   UNL     1       6.144  -1.742   5.745  1.00  0.00    -0.268 OA
BRANCH  71  74
ATOM     74  C   UNL     1       6.125   0.687   6.085  1.00  0.00     0.307 C 
BRANCH  74  75
ATOM     75  C   UNL     1       6.950   1.567   5.125  1.00  0.00     0.044 A 
ATOM     76  C   UNL     1       7.214   2.930   5.189  1.00  0.00     0.094 A 
ATOM     77  C   UNL     1       7.777   1.100   4.016  1.00  0.00     0.009 A 
ATOM     78  N   UNL     1       7.894   3.318   4.067  1.00  0.00    -0.361 N 
ATOM     79  C   UNL     1       8.285   2.219   3.355  1.00  0.00     0.050 A 
ATOM     80  C   UNL     1       8.127  -0.163   3.486  1.00  0.00     0.015 A 
ATOM     81  H   UNL     1       8.076   4.251   3.812  1.00  0.00     0.166 HD
ATOM     82  C   UNL     1       9.070   2.143   2.197  1.00  0.00     0.073 A 
ATOM     83  C   UNL     1       8.912  -0.257   2.325  1.00  0.00     0.047 A 
ATOM     84  C   UNL     1       9.404   0.882   1.700  1.00  0.00     0.121 A 
BRANCH  84  85
ATOM     85  O   UNL     1      10.262   0.910   0.632  1.00  0.00    -0.489 OA
BRANCH  85  86
ATOM     86  C   UNL     1      10.932  -0.299   0.245  1.00  0.00     0.265 C 
BRANCH  86  87
ATOM     87  C   UNL     1      11.776  -0.928   1.337  1.00  0.00    -0.011 A 
ATOM     88  C   UNL     1      11.781  -2.321   1.502  1.00  0.00     0.007 A 
ATOM     89  C   UNL     1      12.506  -0.134   2.233  1.00  0.00     0.007 A 
ATOM     90  C   UNL     1      12.436  -2.900   2.589  1.00  0.00     0.000 A 
ATOM     91  C   UNL     1      13.158  -0.716   3.321  1.00  0.00     0.000 A 
ATOM     92  C   UNL     1      13.111  -2.096   3.506  1.00  0.00     0.000 A 
ENDBRANCH  86  87
ENDBRANCH  85  86
ENDBRANCH  84  85
ENDBRANCH  74  75
BRANCH  74  93
ATOM     93  N   UNL     1       4.839   1.228   6.670  1.00  0.00    -0.319 N 
ATOM     94  C   UNL     1       4.827   2.641   7.056  1.00  0.00     0.274 C 
ATOM     95  C   UNL     1       4.420   0.356   7.800  1.00  0.00     0.274 C 
ATOM     96  H   UNL     1       4.165   1.204   5.905  1.00  0.00     0.349 HD
ATOM     97  C   UNL     1       3.495   3.181   7.605  1.00  0.00     0.131 C 
ATOM     98  C   UNL     1       3.019   0.640   8.353  1.00  0.00     0.131 C 
ATOM     99  S   UNL     1       2.922   2.297   9.076  1.00  0.00    -0.150 SA
ENDBRANCH  74  93
ENDBRANCH  71  74
ENDBRANCH  69  70
ENDBRANCH   1  69
TORSDOF 18
