REMARK SMILES O=C(NCCCNC(=O)c1ccc([C@@H]2CC(O)=Nc3c2ncn3-c2cccc(Cl)c2)cc1)c1ccc(-c2c3nc(c(-c4ccc(S(=O)(=O)[O-])cc4)c4ccc([nH]4)c(-c4ccc(S(=O)(=O)[O-])cc4)c4nc(c(-c5ccc(S(=O)(=O)[O-])cc5)c5ccc2[nH]5)C=C4)C=C3)cc1
REMARK SMILES IDX 4 1 3 2 1 3 2 4 33 6 34 7 92 8 35 9 91 10 36 11 37 12 38 13
REMARK SMILES IDX 85 14 39 15 90 16 84 17 86 18 40 19 89 20 83 21 82 22 41 24
REMARK SMILES IDX 71 25 52 26 70 27 53 28 56 29 69 30 87 31 54 32 55 33 68 35
REMARK SMILES IDX 88 36 57 37 42 38 43 39 51 40 44 41 50 42 45 43 46 44 47 45
REMARK SMILES IDX 48 46 49 47 72 48 73 49 81 50 74 51 80 52 75 53 76 54 77 55
REMARK SMILES IDX 78 56 79 57 58 58 59 59 67 60 60 61 66 62 61 63 62 64 63 65
REMARK SMILES IDX 64 66 65 67 5 68 6 69 7 70 8 71 9 73 10 74 11 75 32 76 12 77
REMARK SMILES IDX 31 78 13 79 14 80 15 81 20 82 16 83 19 84 21 85 18 86 23 87
REMARK SMILES IDX 22 88 17 89 24 91 25 92 30 93 26 94 28 95 27 96 29 97
REMARK H PARENT 3 5 86 23 56 34 7 72 17 90
REMARK Flexibility Score: inf
ROOT
ATOM      1  C   UNL     1       4.778  -0.998  -0.231  1.00  0.00     0.118 C 
ENDROOT
BRANCH   1   2
ATOM      2  N   UNL     1       3.374  -0.835  -0.554  1.00  0.00    -0.352 N 
ATOM      3  O   UNL     1       1.302  -0.089  -0.693  1.00  0.00    -0.269 OA
ATOM      4  C   UNL     1       2.343  -0.106  -0.030  1.00  0.00     0.251 C 
ATOM      5  H   UNL     1       3.100  -1.374  -1.331  1.00  0.00     0.163 HD
BRANCH   4   6
ATOM      6  C   UNL     1       2.369   0.595   1.282  1.00  0.00     0.039 A 
ATOM      7  C   UNL     1       3.515   0.909   2.015  1.00  0.00     0.014 A 
ATOM      8  C   UNL     1       1.115   0.961   1.808  1.00  0.00     0.014 A 
ATOM      9  C   UNL     1       3.411   1.500   3.273  1.00  0.00     0.010 A 
ATOM     10  C   UNL     1       1.006   1.572   3.053  1.00  0.00     0.010 A 
ATOM     11  C   UNL     1       2.157   1.822   3.797  1.00  0.00    -0.014 A 
BRANCH  11  12
ATOM     12  C   UNL     1       2.103   2.608   5.030  1.00  0.00     0.031 A 
ATOM     13  C   UNL     1       2.619   4.000   4.902  1.00  0.00     0.074 A 
ATOM     14  C   UNL     1       1.463   2.220   6.151  1.00  0.00     0.049 A 
ATOM     15  N   UNL     1       3.607   4.555   5.527  1.00  0.00    -0.248 NA
ATOM     16  C   UNL     1       2.010   4.851   3.866  1.00  0.00     0.031 C 
ATOM     17  C   UNL     1       0.636   1.024   6.321  1.00  0.00     0.029 A 
ATOM     18  N   UNL     1       1.305   2.883   7.336  1.00  0.00    -0.354 N 
ATOM     19  C   UNL     1       3.601   5.890   5.128  1.00  0.00     0.074 A 
ATOM     20  C   UNL     1       2.725   5.969   3.986  1.00  0.00     0.031 C 
ATOM     21  C   UNL     1      -0.114   1.162   7.436  1.00  0.00     0.029 A 
ATOM     22  C   UNL     1       0.260   2.395   8.113  1.00  0.00     0.049 A 
ATOM     23  H   UNL     1       1.877   3.635   7.613  1.00  0.00     0.167 HD
ATOM     24  C   UNL     1       4.093   6.885   5.919  1.00  0.00     0.031 A 
ATOM     25  C   UNL     1      -0.318   2.994   9.185  1.00  0.00     0.031 A 
ATOM     26  C   UNL     1       4.951   6.380   6.959  1.00  0.00     0.049 A 
ATOM     27  C   UNL     1       0.620   4.016   9.701  1.00  0.00     0.074 A 
ATOM     28  C   UNL     1       6.097   5.613   7.008  1.00  0.00     0.029 A 
ATOM     29  N   UNL     1       4.455   6.400   8.241  1.00  0.00    -0.354 N 
ATOM     30  N   UNL     1       1.749   3.735  10.287  1.00  0.00    -0.248 NA
ATOM     31  C   UNL     1       0.478   5.392   9.253  1.00  0.00     0.031 C 
ATOM     32  C   UNL     1       5.985   4.847   8.205  1.00  0.00     0.029 A 
ATOM     33  C   UNL     1       4.799   5.219   8.839  1.00  0.00     0.049 A 
ATOM     34  H   UNL     1       3.944   7.132   8.654  1.00  0.00     0.167 HD
ATOM     35  C   UNL     1       2.610   4.752   9.905  1.00  0.00     0.074 A 
ATOM     36  C   UNL     1       1.742   5.803   9.384  1.00  0.00     0.031 C 
ATOM     37  C   UNL     1       3.952   4.527   9.787  1.00  0.00     0.031 A 
BRANCH  24  38
ATOM     38  C   UNL     1       3.429   8.245   6.032  1.00  0.00    -0.014 A 
ATOM     39  C   UNL     1       4.000   9.209   6.890  1.00  0.00     0.010 A 
ATOM     40  C   UNL     1       2.109   8.487   5.595  1.00  0.00     0.010 A 
ATOM     41  C   UNL     1       3.245  10.281   7.385  1.00  0.00     0.020 A 
ATOM     42  C   UNL     1       1.367   9.582   6.038  1.00  0.00     0.020 A 
ATOM     43  C   UNL     1       1.923  10.443   6.973  1.00  0.00     0.054 A 
BRANCH  43  44
ATOM     44  S   UNL     1       0.901  11.726   7.735  1.00  0.00     0.124 S 
ATOM     45  O   UNL     1       0.738  11.204   9.088  1.00  0.00    -0.237 OA
ATOM     46  O   UNL     1       1.746  12.911   7.607  1.00  0.00    -0.237 OA
ATOM     47  O   UNL     1      -0.305  11.734   6.911  1.00  0.00    -0.744 OA
ENDBRANCH  43  44
ENDBRANCH  24  38
BRANCH  25  48
ATOM     48  C   UNL     1      -1.733   2.916   9.632  1.00  0.00    -0.014 A 
ATOM     49  C   UNL     1      -2.127   3.425  10.885  1.00  0.00     0.010 A 
ATOM     50  C   UNL     1      -2.750   2.582   8.716  1.00  0.00     0.010 A 
ATOM     51  C   UNL     1      -3.483   3.650  11.181  1.00  0.00     0.020 A 
ATOM     52  C   UNL     1      -4.102   2.787   9.009  1.00  0.00     0.020 A 
ATOM     53  C   UNL     1      -4.462   3.346  10.232  1.00  0.00     0.054 A 
BRANCH  53  54
ATOM     54  S   UNL     1      -6.192   3.806  10.543  1.00  0.00     0.124 S 
ATOM     55  O   UNL     1      -6.587   2.851  11.575  1.00  0.00    -0.237 OA
ATOM     56  O   UNL     1      -6.080   5.196  10.976  1.00  0.00    -0.237 OA
ATOM     57  O   UNL     1      -6.837   3.616   9.244  1.00  0.00    -0.744 OA
ENDBRANCH  53  54
ENDBRANCH  25  48
BRANCH  37  58
ATOM     58  C   UNL     1       4.546   3.322  10.473  1.00  0.00    -0.014 A 
ATOM     59  C   UNL     1       4.127   1.999  10.241  1.00  0.00     0.010 A 
ATOM     60  C   UNL     1       5.656   3.537  11.311  1.00  0.00     0.010 A 
ATOM     61  C   UNL     1       4.773   0.924  10.866  1.00  0.00     0.020 A 
ATOM     62  C   UNL     1       6.319   2.469  11.919  1.00  0.00     0.020 A 
ATOM     63  C   UNL     1       5.864   1.167  11.704  1.00  0.00     0.054 A 
BRANCH  63  64
ATOM     64  S   UNL     1       6.714  -0.235  12.480  1.00  0.00     0.124 S 
ATOM     65  O   UNL     1       5.728  -0.708  13.447  1.00  0.00    -0.237 OA
ATOM     66  O   UNL     1       6.962  -1.128  11.350  1.00  0.00    -0.237 OA
ATOM     67  O   UNL     1       7.915   0.364  13.060  1.00  0.00    -0.744 OA
ENDBRANCH  63  64
ENDBRANCH  37  58
ENDBRANCH  11  12
ENDBRANCH   4   6
ENDBRANCH   1   2
BRANCH   1  68
ATOM     68  C   UNL     1       5.084  -1.925   0.943  1.00  0.00     0.042 C 
BRANCH  68  69
ATOM     69  C   UNL     1       4.528  -3.339   0.816  1.00  0.00     0.118 C 
BRANCH  69  70
ATOM     70  N   UNL     1       5.032  -4.044  -0.352  1.00  0.00    -0.352 N 
ATOM     71  C   UNL     1       5.798  -5.179  -0.450  1.00  0.00     0.251 C 
ATOM     72  H   UNL     1       4.783  -3.640  -1.215  1.00  0.00     0.163 HD
ATOM     73  O   UNL     1       6.239  -5.518  -1.540  1.00  0.00    -0.269 OA
BRANCH  71  74
ATOM     74  C   UNL     1       6.106  -5.997   0.746  1.00  0.00     0.039 A 
ATOM     75  C   UNL     1       7.415  -6.454   0.911  1.00  0.00     0.014 A 
ATOM     76  C   UNL     1       5.116  -6.377   1.656  1.00  0.00     0.014 A 
ATOM     77  C   UNL     1       7.745  -7.242   2.015  1.00  0.00     0.005 A 
ATOM     78  C   UNL     1       5.449  -7.153   2.769  1.00  0.00     0.005 A 
ATOM     79  C   UNL     1       6.769  -7.595   2.965  1.00  0.00    -0.038 A 
BRANCH  79  80
ATOM     80  C   UNL     1       7.166  -8.470   4.142  1.00  0.00     0.081 C 
ATOM     81  C   UNL     1       6.346  -9.777   4.209  1.00  0.00     0.111 C 
ATOM     82  C   UNL     1       6.991  -7.654   5.368  1.00  0.00     0.093 A 
ATOM     83  C   UNL     1       5.366  -9.865   5.367  1.00  0.00     0.188 C 
ATOM     84  C   UNL     1       6.146  -8.046   6.382  1.00  0.00     0.164 A 
ATOM     85  N   UNL     1       7.587  -6.454   5.638  1.00  0.00    -0.238 NA
ATOM     86  N   UNL     1       5.300  -9.105   6.411  1.00  0.00    -0.198 NA
ATOM     87  N   UNL     1       6.225  -7.040   7.331  1.00  0.00    -0.283 N 
ATOM     88  C   UNL     1       7.068  -6.085   6.794  1.00  0.00     0.206 A 
BRANCH  83  89
ATOM     89  O   UNL     1       4.511 -10.904   5.280  1.00  0.00    -0.496 OA
ATOM     90  H   UNL     1       4.538 -11.471   4.534  1.00  0.00     0.294 HD
ENDBRANCH  83  89
BRANCH  87  91
ATOM     91  C   UNL     1       5.586  -6.995   8.593  1.00  0.00     0.050 A 
ATOM     92  C   UNL     1       5.125  -5.778   9.109  1.00  0.00     0.027 A 
ATOM     93  C   UNL     1       5.428  -8.176   9.331  1.00  0.00     0.047 A 
ATOM     94  C   UNL     1       4.468  -5.755  10.342  1.00  0.00     0.004 A 
ATOM     95  C   UNL     1       4.813  -8.131  10.581  1.00  0.00     0.043 A 
ATOM     96  C   UNL     1       4.317  -6.930  11.082  1.00  0.00     0.020 A 
ATOM     97  Cl  UNL     1       4.687  -9.570  11.519  1.00  0.00    -0.084 Cl
ENDBRANCH  87  91
ENDBRANCH  79  80
ENDBRANCH  71  74
ENDBRANCH  69  70
ENDBRANCH  68  69
ENDBRANCH   1  68
TORSDOF 16
