REMARK SMILES C[C@]([NH3+])(C(=O)N1[C@@H](C(=O)NCCCNC(=O)c2ccc(-c3c4nc(c(-c5ccc(S(=O)(=O)[O-])cc5)c5ccc([nH]5)c(-c5ccc(S(=O)(=O)[O-])cc5)c5nc(c(-c6ccc(S(=O)(=O)[O-])cc6)c6ccc3[nH]6)C=C5)C=C4)cc2)C[C@H]2CCCC[C@@H]21)C(F)(F)F
REMARK SMILES IDX 12 1 11 2 10 3 8 4 9 5 7 7 6 8 83 9 77 10 78 11 82 12 79 13
REMARK SMILES IDX 81 14 80 15 4 16 5 17 2 18 1 19 84 20 85 21 86 22 87 23 3 24
REMARK SMILES IDX 13 28 14 29 15 30 16 32 17 33 18 34 76 35 19 36 75 37 20 38
REMARK SMILES IDX 21 39 22 40 69 41 23 42 74 43 68 44 70 45 24 46 73 47 67 48
REMARK SMILES IDX 66 49 25 51 55 52 36 53 54 54 37 55 40 56 53 57 71 58 38 59
REMARK SMILES IDX 39 60 52 62 72 63 41 64 26 65 27 66 35 67 28 68 34 69 29 70
REMARK SMILES IDX 30 71 31 72 32 73 33 74 56 75 57 76 65 77 58 78 64 79 59 80
REMARK SMILES IDX 60 81 61 82 62 83 63 84 42 85 43 86 51 87 44 88 50 89 45 90
REMARK SMILES IDX 46 91 47 92 48 93 49 94
REMARK H PARENT 10 6 3 25 3 26 3 27 14 31 70 50 40 61
REMARK Flexibility Score: inf
ROOT
ATOM      1  C   UNL     1       0.672   2.596   1.031  1.00  0.00     0.042 C 
ENDROOT
BRANCH   1   2
ATOM      2  C   UNL     1       0.069   1.784   2.176  1.00  0.00     0.117 C 
BRANCH   2   3
ATOM      3  N   UNL     1      -1.351   1.569   1.962  1.00  0.00    -0.354 N 
ATOM      4  C   UNL     1      -2.058   0.468   1.590  1.00  0.00     0.242 C 
ATOM      5  O   UNL     1      -3.253   0.645   1.331  1.00  0.00    -0.273 OA
ATOM      6  H   UNL     1      -1.905   2.369   2.113  1.00  0.00     0.163 HD
BRANCH   4   7
ATOM      7  C   UNL     1      -1.420  -0.947   1.571  1.00  0.00     0.175 C 
ATOM      8  N   UNL     1      -1.672  -1.640   0.285  1.00  0.00    -0.322 N 
ATOM      9  C   UNL     1      -2.899  -2.411   0.404  1.00  0.00     0.089 C 
ATOM     10  C   UNL     1      -2.211  -1.784   2.616  1.00  0.00     0.041 C 
ATOM     11  C   UNL     1      -2.732  -2.972   1.816  1.00  0.00     0.014 C 
ATOM     12  C   UNL     1      -3.132  -3.575  -0.560  1.00  0.00     0.025 C 
ATOM     13  C   UNL     1      -4.010  -3.640   2.287  1.00  0.00     0.006 C 
ATOM     14  C   UNL     1      -4.362  -4.387  -0.130  1.00  0.00     0.002 C 
ATOM     15  C   UNL     1      -4.331  -4.806   1.344  1.00  0.00     0.000 C 
BRANCH   8  16
ATOM     16  C   UNL     1      -1.138  -1.337  -0.957  1.00  0.00     0.294 C 
ATOM     17  O   UNL     1      -1.896  -1.220  -1.922  1.00  0.00    -0.267 OA
BRANCH  16  18
ATOM     18  C   UNL     1       0.405  -1.385  -1.148  1.00  0.00     0.267 C 
ATOM     19  C   UNL     1       0.899  -2.818  -0.896  1.00  0.00     0.100 C 
BRANCH  18  20
ATOM     20  C   UNL     1       0.684  -0.996  -2.629  1.00  0.00     0.453 C 
ATOM     21  F   UNL     1       0.224   0.244  -2.919  1.00  0.00    -0.164 F 
ATOM     22  F   UNL     1       2.024  -0.976  -2.865  1.00  0.00    -0.164 F 
ATOM     23  F   UNL     1       0.157  -1.874  -3.510  1.00  0.00    -0.164 F 
ENDBRANCH  18  20
BRANCH  18  24
ATOM     24  N   UNL     1       1.120  -0.496  -0.188  1.00  0.00    -0.337 N 
ATOM     25  H   UNL     1       0.816   0.468  -0.327  1.00  0.00     0.345 HD
ATOM     26  H   UNL     1       2.125  -0.561  -0.347  1.00  0.00     0.345 HD
ATOM     27  H   UNL     1       0.907  -0.785   0.767  1.00  0.00     0.345 HD
ENDBRANCH  18  24
ENDBRANCH  16  18
ENDBRANCH   8  16
ENDBRANCH   4   7
ENDBRANCH   2   3
ENDBRANCH   1   2
BRANCH   1  28
ATOM     28  C   UNL     1       0.264   4.061   1.021  1.00  0.00     0.118 C 
BRANCH  28  29
ATOM     29  N   UNL     1       0.895   4.819   2.087  1.00  0.00    -0.352 N 
ATOM     30  C   UNL     1       1.854   5.799   2.013  1.00  0.00     0.251 C 
ATOM     31  H   UNL     1       0.592   4.597   2.996  1.00  0.00     0.163 HD
ATOM     32  O   UNL     1       2.419   6.161   3.046  1.00  0.00    -0.269 OA
BRANCH  30  33
ATOM     33  C   UNL     1       2.226   6.402   0.713  1.00  0.00     0.039 A 
ATOM     34  C   UNL     1       3.571   6.680   0.456  1.00  0.00     0.014 A 
ATOM     35  C   UNL     1       1.259   6.713  -0.247  1.00  0.00     0.014 A 
ATOM     36  C   UNL     1       3.949   7.206  -0.783  1.00  0.00     0.010 A 
ATOM     37  C   UNL     1       1.646   7.144  -1.513  1.00  0.00     0.010 A 
ATOM     38  C   UNL     1       2.995   7.407  -1.793  1.00  0.00    -0.014 A 
BRANCH  38  39
ATOM     39  C   UNL     1       3.382   7.896  -3.143  1.00  0.00     0.031 A 
ATOM     40  C   UNL     1       2.840   9.204  -3.658  1.00  0.00     0.074 A 
ATOM     41  C   UNL     1       4.169   7.135  -3.930  1.00  0.00     0.049 A 
ATOM     42  N   UNL     1       3.007   9.762  -4.830  1.00  0.00    -0.248 NA
ATOM     43  C   UNL     1       1.976   9.974  -2.747  1.00  0.00     0.031 C 
ATOM     44  C   UNL     1       4.728   5.831  -3.563  1.00  0.00     0.029 A 
ATOM     45  N   UNL     1       4.629   7.343  -5.207  1.00  0.00    -0.354 N 
ATOM     46  C   UNL     1       2.257  10.933  -4.803  1.00  0.00     0.074 A 
ATOM     47  C   UNL     1       1.593  10.980  -3.520  1.00  0.00     0.031 C 
ATOM     48  C   UNL     1       5.476   5.371  -4.578  1.00  0.00     0.029 A 
ATOM     49  C   UNL     1       5.411   6.318  -5.686  1.00  0.00     0.049 A 
ATOM     50  H   UNL     1       4.418   8.150  -5.730  1.00  0.00     0.167 HD
ATOM     51  C   UNL     1       2.146  11.892  -5.753  1.00  0.00     0.031 A 
ATOM     52  C   UNL     1       6.001   6.150  -6.886  1.00  0.00     0.031 A 
ATOM     53  C   UNL     1       2.815  11.844  -7.026  1.00  0.00     0.049 A 
ATOM     54  C   UNL     1       5.843   7.218  -7.934  1.00  0.00     0.074 A 
ATOM     55  C   UNL     1       2.812  12.793  -8.034  1.00  0.00     0.029 A 
ATOM     56  N   UNL     1       3.600  10.791  -7.470  1.00  0.00    -0.354 N 
ATOM     57  N   UNL     1       5.187   8.352  -7.863  1.00  0.00    -0.248 NA
ATOM     58  C   UNL     1       6.513   6.989  -9.222  1.00  0.00     0.031 C 
ATOM     59  C   UNL     1       3.545  12.286  -9.112  1.00  0.00     0.029 A 
ATOM     60  C   UNL     1       4.063  11.053  -8.749  1.00  0.00     0.049 A 
ATOM     61  H   UNL     1       3.800   9.978  -6.953  1.00  0.00     0.167 HD
ATOM     62  C   UNL     1       5.388   8.983  -9.086  1.00  0.00     0.074 A 
ATOM     63  C   UNL     1       6.240   8.113  -9.870  1.00  0.00     0.031 C 
ATOM     64  C   UNL     1       4.911  10.177  -9.519  1.00  0.00     0.031 A 
BRANCH  51  65
ATOM     65  C   UNL     1       1.258  13.073  -5.454  1.00  0.00    -0.014 A 
ATOM     66  C   UNL     1       1.609  14.019  -4.473  1.00  0.00     0.010 A 
ATOM     67  C   UNL     1       0.077  13.265  -6.194  1.00  0.00     0.010 A 
ATOM     68  C   UNL     1       0.775  15.109  -4.208  1.00  0.00     0.020 A 
ATOM     69  C   UNL     1      -0.744  14.371  -5.955  1.00  0.00     0.020 A 
ATOM     70  C   UNL     1      -0.398  15.277  -4.950  1.00  0.00     0.054 A 
BRANCH  70  71
ATOM     71  S   UNL     1      -1.448  16.713  -4.599  1.00  0.00     0.124 S 
ATOM     72  O   UNL     1      -2.016  16.361  -3.300  1.00  0.00    -0.237 OA
ATOM     73  O   UNL     1      -0.489  17.815  -4.587  1.00  0.00    -0.237 OA
ATOM     74  O   UNL     1      -2.398  16.730  -5.709  1.00  0.00    -0.744 OA
ENDBRANCH  70  71
ENDBRANCH  51  65
BRANCH  52  75
ATOM     75  C   UNL     1       6.801   4.923  -7.157  1.00  0.00    -0.014 A 
ATOM     76  C   UNL     1       8.198   4.998  -7.300  1.00  0.00     0.010 A 
ATOM     77  C   UNL     1       6.172   3.668  -7.259  1.00  0.00     0.010 A 
ATOM     78  C   UNL     1       8.948   3.847  -7.558  1.00  0.00     0.020 A 
ATOM     79  C   UNL     1       6.921   2.510  -7.486  1.00  0.00     0.020 A 
ATOM     80  C   UNL     1       8.305   2.609  -7.645  1.00  0.00     0.054 A 
BRANCH  80  81
ATOM     81  S   UNL     1       9.307   1.123  -7.929  1.00  0.00     0.124 S 
ATOM     82  O   UNL     1       9.705   1.286  -9.323  1.00  0.00    -0.237 OA
ATOM     83  O   UNL     1      10.375   1.271  -6.944  1.00  0.00    -0.237 OA
ATOM     84  O   UNL     1       8.377   0.026  -7.668  1.00  0.00    -0.744 OA
ENDBRANCH  80  81
ENDBRANCH  52  75
BRANCH  64  85
ATOM     85  C   UNL     1       5.325  10.636 -10.892  1.00  0.00    -0.014 A 
ATOM     86  C   UNL     1       4.819  10.023 -12.052  1.00  0.00     0.010 A 
ATOM     87  C   UNL     1       6.182  11.745 -11.022  1.00  0.00     0.010 A 
ATOM     88  C   UNL     1       5.184  10.494 -13.316  1.00  0.00     0.020 A 
ATOM     89  C   UNL     1       6.524  12.239 -12.283  1.00  0.00     0.020 A 
ATOM     90  C   UNL     1       6.032  11.602 -13.423  1.00  0.00     0.054 A 
BRANCH  90  91
ATOM     91  S   UNL     1       6.444  12.228 -15.075  1.00  0.00     0.124 S 
ATOM     92  O   UNL     1       7.343  11.193 -15.577  1.00  0.00    -0.237 OA
ATOM     93  O   UNL     1       5.138  12.296 -15.726  1.00  0.00    -0.237 OA
ATOM     94  O   UNL     1       7.069  13.522 -14.810  1.00  0.00    -0.744 OA
ENDBRANCH  90  91
ENDBRANCH  64  85
ENDBRANCH  38  39
ENDBRANCH  30  33
ENDBRANCH  28  29
ENDBRANCH   1  28
TORSDOF 17
