REMARK SMILES Cc1ccc(-c2coc3cc4oc(=O)c(CC(=O)N[C@H](Cc5ccccc5)C(=O)NCCCNC(=O)c5ccc(-c6c7nc(c(-c8ccc(S(=O)(=O)[O-])cc8)c8ccc([nH]8)c(-c8ccc(S(=O)(=O)[O-])cc8)c8nc(c(-c9ccc(S(=O)(=O)[O-])cc9)c9ccc6[nH]9)C=C8)C=C7)cc5)c(C)c4cc23)cc1
REMARK SMILES IDX 31 1 30 2 28 3 29 4 20 6 19 7 17 8 18 9 16 11 15 12 6 13
REMARK SMILES IDX 7 14 101 15 8 16 9 17 100 18 10 19 99 20 11 21 97 22 12 23
REMARK SMILES IDX 98 24 13 25 14 26 5 27 1 28 2 29 3 30 103 31 4 32 102 33
REMARK SMILES IDX 21 34 22 35 23 36 27 37 24 38 26 39 25 40 32 41 33 42 34 43
REMARK SMILES IDX 35 44 36 46 37 47 38 48 96 49 39 50 95 51 40 52 41 53 42 54
REMARK SMILES IDX 89 55 43 56 94 57 88 58 90 59 44 60 93 61 87 62 86 63 45 65
REMARK SMILES IDX 75 66 56 67 74 68 57 69 60 70 73 71 91 72 58 73 59 74 72 76
REMARK SMILES IDX 92 77 61 78 46 79 47 80 55 81 48 82 54 83 49 84 50 85 51 86
REMARK SMILES IDX 52 87 53 88 76 89 77 90 85 91 78 92 84 93 79 94 80 95 81 96
REMARK SMILES IDX 82 97 83 98 62 99 63 100 71 101 64 102 70 103 65 104 66 105
REMARK SMILES IDX 67 106 68 107 69 108
REMARK H PARENT 30 5 19 10 34 45 90 64 60 75
REMARK Flexibility Score: inf
ROOT
ATOM      1  C   UNL     1      -6.337   8.556  -1.474  1.00  0.00     0.117 C 
ENDROOT
BRANCH   1   2
ATOM      2  N   UNL     1      -7.655   8.114  -1.955  1.00  0.00    -0.354 N 
ATOM      3  C   UNL     1      -8.037   7.032  -2.709  1.00  0.00     0.242 C 
ATOM      4  O   UNL     1      -9.197   6.970  -3.119  1.00  0.00    -0.273 OA
ATOM      5  H   UNL     1      -8.399   8.700  -1.687  1.00  0.00     0.163 HD
BRANCH   3   6
ATOM      6  C   UNL     1      -6.983   5.984  -3.119  1.00  0.00     0.175 C 
BRANCH   6   7
ATOM      7  N   UNL     1      -6.347   5.628  -1.835  1.00  0.00    -0.344 N 
ATOM      8  C   UNL     1      -5.241   4.979  -1.417  1.00  0.00     0.225 C 
ATOM      9  O   UNL     1      -5.115   4.835  -0.197  1.00  0.00    -0.275 OA
ATOM     10  H   UNL     1      -6.877   5.955  -1.072  1.00  0.00     0.164 HD
BRANCH   8  11
ATOM     11  C   UNL     1      -4.176   4.468  -2.362  1.00  0.00     0.143 C 
BRANCH  11  12
ATOM     12  C   UNL     1      -4.700   3.396  -3.274  1.00  0.00     0.051 A 
ATOM     13  C   UNL     1      -8.473  -1.364  -4.719  1.00  0.00     0.028 A 
ATOM     14  C   UNL     1      -8.897  -1.435  -6.029  1.00  0.00     0.205 A 
ATOM     15  C   UNL     1      -7.607  -0.237  -4.645  1.00  0.00     0.029 A 
ATOM     16  O   UNL     1      -8.337  -0.441  -6.771  1.00  0.00    -0.464 OA
ATOM     17  C   UNL     1      -7.542   0.280  -5.933  1.00  0.00     0.138 A 
ATOM     18  C   UNL     1      -6.860   0.387  -3.626  1.00  0.00     0.025 A 
ATOM     19  C   UNL     1      -6.755   1.363  -6.293  1.00  0.00     0.095 A 
ATOM     20  C   UNL     1      -6.064   1.503  -3.929  1.00  0.00     0.022 A 
ATOM     21  C   UNL     1      -6.009   1.936  -5.256  1.00  0.00     0.142 A 
ATOM     22  C   UNL     1      -5.376   2.292  -2.892  1.00  0.00    -0.029 A 
ATOM     23  O   UNL     1      -5.138   2.970  -5.638  1.00  0.00    -0.422 OA
ATOM     24  C   UNL     1      -5.529   1.858  -1.456  1.00  0.00     0.046 C 
ATOM     25  C   UNL     1      -4.358   3.613  -4.700  1.00  0.00     0.340 A 
ATOM     26  O   UNL     1      -3.419   4.334  -5.023  1.00  0.00    -0.246 OA
BRANCH  13  27
ATOM     27  C   UNL     1      -8.844  -2.304  -3.683  1.00  0.00    -0.015 A 
ATOM     28  C   UNL     1      -9.697  -5.080  -0.497  1.00  0.00     0.044 C 
ATOM     29  C   UNL     1      -9.417  -4.109  -1.606  1.00  0.00    -0.051 A 
ATOM     30  C   UNL     1      -8.879  -4.566  -2.815  1.00  0.00     0.004 A 
ATOM     31  C   UNL     1      -9.672  -2.743  -1.446  1.00  0.00     0.004 A 
ATOM     32  C   UNL     1      -8.595  -3.671  -3.848  1.00  0.00     0.009 A 
ATOM     33  C   UNL     1      -9.386  -1.845  -2.478  1.00  0.00     0.009 A 
ENDBRANCH  13  27
ENDBRANCH  11  12
ENDBRANCH   8  11
ENDBRANCH   6   7
BRANCH   6  34
ATOM     34  C   UNL     1      -6.142   6.632  -4.232  1.00  0.00     0.070 C 
BRANCH  34  35
ATOM     35  C   UNL     1      -6.268   6.100  -5.642  1.00  0.00    -0.045 A 
ATOM     36  C   UNL     1      -5.193   6.319  -6.522  1.00  0.00     0.004 A 
ATOM     37  C   UNL     1      -7.423   5.488  -6.140  1.00  0.00     0.004 A 
ATOM     38  C   UNL     1      -5.231   5.851  -7.834  1.00  0.00     0.000 A 
ATOM     39  C   UNL     1      -7.461   5.020  -7.456  1.00  0.00     0.000 A 
ATOM     40  C   UNL     1      -6.361   5.186  -8.297  1.00  0.00     0.000 A 
ENDBRANCH  34  35
ENDBRANCH   6  34
ENDBRANCH   3   6
ENDBRANCH   1   2
BRANCH   1  41
ATOM     41  C   UNL     1      -5.521   9.347  -2.498  1.00  0.00     0.042 C 
BRANCH  41  42
ATOM     42  C   UNL     1      -6.363  10.370  -3.237  1.00  0.00     0.118 C 
BRANCH  42  43
ATOM     43  N   UNL     1      -6.934  11.279  -2.280  1.00  0.00    -0.352 N 
ATOM     44  C   UNL     1      -6.121  12.135  -1.556  1.00  0.00     0.251 C 
ATOM     45  H   UNL     1      -7.908  11.293  -2.139  1.00  0.00     0.163 HD
ATOM     46  O   UNL     1      -6.040  11.912  -0.360  1.00  0.00    -0.269 OA
BRANCH  44  47
ATOM     47  C   UNL     1      -5.594  13.380  -2.269  1.00  0.00     0.039 A 
ATOM     48  C   UNL     1      -5.874  14.493  -1.471  1.00  0.00     0.014 A 
ATOM     49  C   UNL     1      -6.006  13.448  -3.598  1.00  0.00     0.014 A 
ATOM     50  C   UNL     1      -7.070  15.150  -1.690  1.00  0.00     0.010 A 
ATOM     51  C   UNL     1      -7.257  13.966  -3.799  1.00  0.00     0.010 A 
ATOM     52  C   UNL     1      -7.820  14.728  -2.773  1.00  0.00    -0.014 A 
BRANCH  52  53
ATOM     53  C   UNL     1      -9.220  15.018  -2.942  1.00  0.00     0.031 A 
ATOM     54  C   UNL     1      -9.521  16.124  -3.847  1.00  0.00     0.074 A 
ATOM     55  C   UNL     1     -10.081  14.126  -2.411  1.00  0.00     0.049 A 
ATOM     56  N   UNL     1     -10.665  16.677  -3.973  1.00  0.00    -0.248 NA
ATOM     57  C   UNL     1      -8.483  16.750  -4.672  1.00  0.00     0.031 C 
ATOM     58  C   UNL     1     -11.504  13.912  -2.651  1.00  0.00     0.029 A 
ATOM     59  N   UNL     1      -9.812  13.349  -1.276  1.00  0.00    -0.354 N 
ATOM     60  C   UNL     1     -10.605  17.439  -5.119  1.00  0.00     0.074 A 
ATOM     61  C   UNL     1      -9.207  17.573  -5.428  1.00  0.00     0.031 C 
ATOM     62  C   UNL     1     -12.037  13.333  -1.554  1.00  0.00     0.029 A 
ATOM     63  C   UNL     1     -10.997  13.346  -0.527  1.00  0.00     0.049 A 
ATOM     64  H   UNL     1      -8.966  12.899  -1.051  1.00  0.00     0.167 HD
ATOM     65  C   UNL     1     -11.771  17.683  -5.773  1.00  0.00     0.031 A 
ATOM     66  C   UNL     1     -11.049  14.123   0.599  1.00  0.00     0.031 A 
ATOM     67  C   UNL     1     -12.896  17.241  -4.945  1.00  0.00     0.049 A 
ATOM     68  C   UNL     1     -12.067  15.251   0.448  1.00  0.00     0.074 A 
ATOM     69  C   UNL     1     -13.676  16.096  -4.947  1.00  0.00     0.029 A 
ATOM     70  N   UNL     1     -13.036  17.805  -3.680  1.00  0.00    -0.354 N 
ATOM     71  N   UNL     1     -12.388  15.844  -0.676  1.00  0.00    -0.248 NA
ATOM     72  C   UNL     1     -12.869  15.719   1.570  1.00  0.00     0.031 C 
ATOM     73  C   UNL     1     -14.216  15.936  -3.634  1.00  0.00     0.029 A 
ATOM     74  C   UNL     1     -13.780  16.991  -2.847  1.00  0.00     0.049 A 
ATOM     75  H   UNL     1     -12.654  18.672  -3.413  1.00  0.00     0.167 HD
ATOM     76  C   UNL     1     -13.446  16.702  -0.468  1.00  0.00     0.074 A 
ATOM     77  C   UNL     1     -13.694  16.588   0.962  1.00  0.00     0.031 C 
ATOM     78  C   UNL     1     -14.050  17.419  -1.473  1.00  0.00     0.031 A 
BRANCH  65  79
ATOM     79  C   UNL     1     -11.858  18.025  -7.242  1.00  0.00    -0.014 A 
ATOM     80  C   UNL     1     -13.080  17.824  -7.913  1.00  0.00     0.010 A 
ATOM     81  C   UNL     1     -10.783  18.469  -8.041  1.00  0.00     0.010 A 
ATOM     82  C   UNL     1     -13.211  18.013  -9.298  1.00  0.00     0.020 A 
ATOM     83  C   UNL     1     -10.893  18.648  -9.428  1.00  0.00     0.020 A 
ATOM     84  C   UNL     1     -12.111  18.417 -10.050  1.00  0.00     0.054 A 
BRANCH  84  85
ATOM     85  S   UNL     1     -12.299  18.652 -11.835  1.00  0.00     0.124 S 
ATOM     86  O   UNL     1     -12.700  17.322 -12.287  1.00  0.00    -0.237 OA
ATOM     87  O   UNL     1     -13.332  19.682 -11.908  1.00  0.00    -0.237 OA
ATOM     88  O   UNL     1     -10.970  19.077 -12.273  1.00  0.00    -0.744 OA
ENDBRANCH  84  85
ENDBRANCH  65  79
BRANCH  66  89
ATOM     89  C   UNL     1      -9.743  14.211   1.356  1.00  0.00    -0.014 A 
ATOM     90  C   UNL     1      -9.112  13.017   1.795  1.00  0.00     0.010 A 
ATOM     91  C   UNL     1      -8.983  15.389   1.402  1.00  0.00     0.010 A 
ATOM     92  C   UNL     1      -7.749  12.982   2.154  1.00  0.00     0.020 A 
ATOM     93  C   UNL     1      -7.620  15.361   1.778  1.00  0.00     0.020 A 
ATOM     94  C   UNL     1      -6.994  14.153   2.107  1.00  0.00     0.054 A 
BRANCH  94  95
ATOM     95  S   UNL     1      -5.215  14.115   2.558  1.00  0.00     0.124 S 
ATOM     96  O   UNL     1      -5.191  13.215   3.709  1.00  0.00    -0.237 OA
ATOM     97  O   UNL     1      -4.537  13.617   1.368  1.00  0.00    -0.237 OA
ATOM     98  O   UNL     1      -4.925  15.515   2.865  1.00  0.00    -0.744 OA
ENDBRANCH  94  95
ENDBRANCH  66  89
BRANCH  78  99
ATOM     99  C   UNL     1     -14.986  18.617  -1.310  1.00  0.00    -0.014 A 
ATOM    100  C   UNL     1     -15.421  19.151  -0.092  1.00  0.00     0.010 A 
ATOM    101  C   UNL     1     -15.387  19.336  -2.471  1.00  0.00     0.010 A 
ATOM    102  C   UNL     1     -16.196  20.320  -0.030  1.00  0.00     0.020 A 
ATOM    103  C   UNL     1     -16.112  20.529  -2.424  1.00  0.00     0.020 A 
ATOM    104  C   UNL     1     -16.523  21.010  -1.194  1.00  0.00     0.054 A 
BRANCH 104 105
ATOM    105  S   UNL     1     -17.459  22.548  -1.068  1.00  0.00     0.124 S 
ATOM    106  O   UNL     1     -18.765  22.070  -0.622  1.00  0.00    -0.237 OA
ATOM    107  O   UNL     1     -16.693  23.300  -0.077  1.00  0.00    -0.237 OA
ATOM    108  O   UNL     1     -17.422  23.094  -2.422  1.00  0.00    -0.744 OA
ENDBRANCH 104 105
ENDBRANCH  78  99
ENDBRANCH  52  53
ENDBRANCH  44  47
ENDBRANCH  42  43
ENDBRANCH  41  42
ENDBRANCH   1  41
TORSDOF 19
