REMARK SMILES O=C(NCCCNC(=O)[C@H](Cc1ccc([N+](=O)[O-])cc1)c1ccccc1Br)c1ccc(-c2c3nc(c(-c4ccc(S(=O)(=O)[O-])cc4)c4ccc([nH]4)c(-c4ccc(S(=O)(=O)[O-])cc4)c4nc(c(-c5ccc(S(=O)(=O)[O-])cc5)c5ccc2[nH]5)C=C4)C=C3)cc1
REMARK SMILES IDX 5 1 4 2 3 3 1 4 2 5 28 7 29 8 87 9 30 10 86 11 31 12 32 13
REMARK SMILES IDX 33 14 80 15 34 16 85 17 79 18 81 19 35 20 84 21 78 22 77 23
REMARK SMILES IDX 36 25 66 26 47 27 65 28 48 29 51 30 64 31 82 32 49 33 50 34
REMARK SMILES IDX 63 36 83 37 52 38 37 39 38 40 46 41 39 42 45 43 40 44 41 45
REMARK SMILES IDX 42 46 43 47 44 48 67 49 68 50 76 51 69 52 75 53 70 54 71 55
REMARK SMILES IDX 72 56 73 57 74 58 53 59 54 60 62 61 55 62 61 63 56 64 57 65
REMARK SMILES IDX 58 66 59 67 60 68 6 69 7 70 8 71 9 73 10 74 21 75 22 76
REMARK SMILES IDX 26 77 23 78 25 79 27 80 24 81 11 82 12 83 13 84 20 85 14 86
REMARK SMILES IDX 19 87 15 88 16 89 17 90 18 91
REMARK H PARENT 3 6 81 24 51 35 7 72
REMARK Flexibility Score: inf
ROOT
ATOM      1  C   UNL     1       8.020   1.681  -2.431  1.00  0.00     0.042 C 
ENDROOT
BRANCH   1   2
ATOM      2  C   UNL     1       8.611   0.602  -1.212  1.00  0.00     0.118 C 
BRANCH   2   3
ATOM      3  N   UNL     1      10.057   0.431  -0.983  1.00  0.00    -0.352 N 
ATOM      4  O   UNL     1      12.092   0.839  -0.094  1.00  0.00    -0.269 OA
ATOM      5  C   UNL     1      10.874   0.872   0.020  1.00  0.00     0.251 C 
ATOM      6  H   UNL     1      10.516  -0.095  -1.677  1.00  0.00     0.163 HD
BRANCH   5   7
ATOM      7  C   UNL     1      10.242   1.270   1.273  1.00  0.00     0.039 A 
ATOM      8  C   UNL     1       9.261   0.410   1.769  1.00  0.00     0.014 A 
ATOM      9  C   UNL     1      10.616   2.432   1.945  1.00  0.00     0.014 A 
ATOM     10  C   UNL     1       8.537   0.786   2.870  1.00  0.00     0.010 A 
ATOM     11  C   UNL     1       9.966   2.749   3.135  1.00  0.00     0.010 A 
ATOM     12  C   UNL     1       8.927   1.924   3.591  1.00  0.00    -0.014 A 
BRANCH  12  13
ATOM     13  C   UNL     1       8.303   2.086   4.912  1.00  0.00     0.031 A 
ATOM     14  C   UNL     1       7.294   3.154   5.153  1.00  0.00     0.074 A 
ATOM     15  C   UNL     1       8.571   1.116   5.807  1.00  0.00     0.049 A 
ATOM     16  N   UNL     1       6.531   3.323   6.197  1.00  0.00    -0.248 NA
ATOM     17  C   UNL     1       7.110   4.161   4.095  1.00  0.00     0.031 C 
ATOM     18  C   UNL     1       9.540   0.028   5.597  1.00  0.00     0.029 A 
ATOM     19  N   UNL     1       8.011   0.828   7.017  1.00  0.00    -0.354 N 
ATOM     20  C   UNL     1       5.782   4.460   5.934  1.00  0.00     0.074 A 
ATOM     21  C   UNL     1       6.192   4.952   4.637  1.00  0.00     0.031 C 
ATOM     22  C   UNL     1       9.432  -0.857   6.595  1.00  0.00     0.029 A 
ATOM     23  C   UNL     1       8.465  -0.352   7.557  1.00  0.00     0.049 A 
ATOM     24  H   UNL     1       7.350   1.407   7.460  1.00  0.00     0.167 HD
ATOM     25  C   UNL     1       4.842   5.030   6.723  1.00  0.00     0.031 A 
ATOM     26  C   UNL     1       8.145  -0.952   8.716  1.00  0.00     0.031 A 
ATOM     27  C   UNL     1       4.487   4.514   8.020  1.00  0.00     0.049 A 
ATOM     28  C   UNL     1       7.123  -0.276   9.577  1.00  0.00     0.074 A 
ATOM     29  C   UNL     1       3.584   5.022   8.935  1.00  0.00     0.029 A 
ATOM     30  N   UNL     1       5.024   3.362   8.585  1.00  0.00    -0.354 N 
ATOM     31  N   UNL     1       6.438   0.817   9.328  1.00  0.00    -0.248 NA
ATOM     32  C   UNL     1       6.835  -0.898  10.870  1.00  0.00     0.031 C 
ATOM     33  C   UNL     1       3.609   4.203  10.070  1.00  0.00     0.029 A 
ATOM     34  C   UNL     1       4.482   3.150   9.840  1.00  0.00     0.049 A 
ATOM     35  H   UNL     1       5.693   2.781   8.155  1.00  0.00     0.167 HD
ATOM     36  C   UNL     1       5.639   1.021  10.441  1.00  0.00     0.074 A 
ATOM     37  C   UNL     1       5.896  -0.090  11.341  1.00  0.00     0.031 C 
ATOM     38  C   UNL     1       4.782   2.038  10.708  1.00  0.00     0.031 A 
BRANCH  25  39
ATOM     39  C   UNL     1       4.176   6.283   6.224  1.00  0.00    -0.014 A 
ATOM     40  C   UNL     1       3.247   6.244   5.168  1.00  0.00     0.010 A 
ATOM     41  C   UNL     1       4.453   7.515   6.844  1.00  0.00     0.010 A 
ATOM     42  C   UNL     1       2.626   7.417   4.728  1.00  0.00     0.020 A 
ATOM     43  C   UNL     1       3.816   8.687   6.422  1.00  0.00     0.020 A 
ATOM     44  C   UNL     1       2.914   8.631   5.358  1.00  0.00     0.054 A 
BRANCH  44  45
ATOM     45  S   UNL     1       2.064  10.130   4.789  1.00  0.00     0.124 S 
ATOM     46  O   UNL     1       2.698  10.362   3.494  1.00  0.00    -0.237 OA
ATOM     47  O   UNL     1       0.667   9.704   4.735  1.00  0.00    -0.237 OA
ATOM     48  O   UNL     1       2.372  11.118   5.820  1.00  0.00    -0.744 OA
ENDBRANCH  44  45
ENDBRANCH  25  39
BRANCH  26  49
ATOM     49  C   UNL     1       8.848  -2.196   9.127  1.00  0.00    -0.014 A 
ATOM     50  C   UNL     1       8.166  -3.417   9.259  1.00  0.00     0.010 A 
ATOM     51  C   UNL     1      10.238  -2.163   9.360  1.00  0.00     0.010 A 
ATOM     52  C   UNL     1       8.857  -4.574   9.636  1.00  0.00     0.020 A 
ATOM     53  C   UNL     1      10.936  -3.322   9.699  1.00  0.00     0.020 A 
ATOM     54  C   UNL     1      10.237  -4.518   9.854  1.00  0.00     0.054 A 
BRANCH  54  55
ATOM     55  S   UNL     1      11.122  -6.033  10.313  1.00  0.00     0.124 S 
ATOM     56  O   UNL     1      10.744  -6.189  11.714  1.00  0.00    -0.237 OA
ATOM     57  O   UNL     1      10.564  -7.019   9.392  1.00  0.00    -0.237 OA
ATOM     58  O   UNL     1      12.524  -5.695  10.077  1.00  0.00    -0.744 OA
ENDBRANCH  54  55
ENDBRANCH  26  49
BRANCH  38  59
ATOM     59  C   UNL     1       4.064   1.966  12.025  1.00  0.00    -0.014 A 
ATOM     60  C   UNL     1       4.744   2.197  13.234  1.00  0.00     0.010 A 
ATOM     61  C   UNL     1       2.690   1.670  12.047  1.00  0.00     0.010 A 
ATOM     62  C   UNL     1       4.070   2.082  14.450  1.00  0.00     0.020 A 
ATOM     63  C   UNL     1       2.007   1.585  13.260  1.00  0.00     0.020 A 
ATOM     64  C   UNL     1       2.707   1.772  14.454  1.00  0.00     0.054 A 
BRANCH  64  65
ATOM     65  S   UNL     1       1.849   1.641  16.045  1.00  0.00     0.124 S 
ATOM     66  O   UNL     1       2.329   0.355  16.542  1.00  0.00    -0.237 OA
ATOM     67  O   UNL     1       2.332   2.815  16.767  1.00  0.00    -0.237 OA
ATOM     68  O   UNL     1       0.435   1.681  15.679  1.00  0.00    -0.744 OA
ENDBRANCH  64  65
ENDBRANCH  38  59
ENDBRANCH  12  13
ENDBRANCH   5   7
ENDBRANCH   2   3
ENDBRANCH   1   2
BRANCH   1  69
ATOM     69  C   UNL     1       8.302   1.922  -4.599  1.00  0.00     0.117 C 
BRANCH  69  70
ATOM     70  N   UNL     1       8.295   0.846  -5.798  1.00  0.00    -0.355 N 
ATOM     71  C   UNL     1       7.276   0.241  -6.497  1.00  0.00     0.227 C 
ATOM     72  H   UNL     1       9.194   0.567  -6.086  1.00  0.00     0.163 HD
ATOM     73  O   UNL     1       7.606  -0.491  -7.430  1.00  0.00    -0.274 OA
BRANCH  71  74
ATOM     74  C   UNL     1       5.817   0.601  -6.158  1.00  0.00     0.114 C 
BRANCH  74  75
ATOM     75  C   UNL     1       4.702  -0.146  -6.897  1.00  0.00    -0.021 A 
ATOM     76  C   UNL     1       3.616   0.658  -7.311  1.00  0.00     0.006 A 
ATOM     77  C   UNL     1       4.559  -1.542  -7.015  1.00  0.00     0.021 A 
ATOM     78  C   UNL     1       2.431   0.104  -7.791  1.00  0.00     0.000 A 
ATOM     79  C   UNL     1       3.380  -2.091  -7.547  1.00  0.00     0.016 A 
ATOM     80  Br  UNL     1       5.821  -2.805  -6.360  1.00  0.00    -0.051 Br
ATOM     81  C   UNL     1       2.313  -1.273  -7.913  1.00  0.00     0.001 A 
ENDBRANCH  74  75
BRANCH  74  82
ATOM     82  C   UNL     1       5.414   0.617  -4.667  1.00  0.00     0.053 C 
BRANCH  82  83
ATOM     83  C   UNL     1       6.546   1.125  -3.840  1.00  0.00    -0.046 A 
ATOM     84  C   UNL     1       7.994   0.046  -3.692  1.00  0.00     0.011 A 
ATOM     85  C   UNL     1       6.702   2.911  -3.578  1.00  0.00     0.011 A 
ATOM     86  C   UNL     1       9.626   0.798  -3.468  1.00  0.00     0.086 A 
ATOM     87  C   UNL     1       8.323   3.632  -3.300  1.00  0.00     0.086 A 
ATOM     88  C   UNL     1       9.766   2.569  -3.176  1.00  0.00     0.269 A 
BRANCH  88  89
ATOM     89  N   UNL     1      11.023   3.125  -2.743  1.00  0.00     0.062 N 
ATOM     90  O   UNL     1      10.964   4.070  -1.948  1.00  0.00    -0.258 OA
ATOM     91  O   UNL     1      12.046   2.622  -3.217  1.00  0.00    -0.258 OA
ENDBRANCH  88  89
ENDBRANCH  82  83
ENDBRANCH  74  82
ENDBRANCH  71  74
ENDBRANCH  69  70
ENDBRANCH   1  69
TORSDOF 17
