REMARK SMILES Cc1ccc(-c2nc(C)c(C(=O)N3CCC(C(=O)NCCCNC(=O)c4ccc(-c5c6nc(c(-c7ccc(S(=O)(=O)[O-])cc7)c7ccc([nH]7)c(-c7ccc(S(=O)(=O)[O-])cc7)c7nc(c(-c8ccc(S(=O)(=O)[O-])cc8)c8ccc5[nH]8)C=C7)C=C6)cc4)CC3)s2)o1
REMARK SMILES IDX 21 1 20 2 19 3 17 4 18 5 16 7 11 8 12 9 13 10 14 11 87 12
REMARK SMILES IDX 15 13 86 14 10 15 6 16 7 17 88 18 8 19 9 20 5 21 1 22 2 23
REMARK SMILES IDX 3 24 89 25 4 26 22 27 23 28 24 29 25 31 26 32 27 33 85 34
REMARK SMILES IDX 28 35 84 36 29 37 30 38 31 39 78 40 32 41 83 42 77 43 79 44
REMARK SMILES IDX 33 45 82 46 76 47 75 48 34 50 64 51 45 52 63 53 46 54 49 55
REMARK SMILES IDX 62 56 80 57 47 58 48 59 61 61 81 62 50 63 35 64 36 65 44 66
REMARK SMILES IDX 37 67 43 68 38 69 39 70 40 71 41 72 42 73 65 74 66 75 74 76
REMARK SMILES IDX 67 77 73 78 68 79 69 80 70 81 71 82 72 83 51 84 52 85 60 86
REMARK SMILES IDX 53 87 59 88 54 89 55 90 56 91 57 92 58 93
REMARK H PARENT 19 6 23 30 79 49 49 60
REMARK Flexibility Score: inf
ROOT
ATOM      1  C   UNL     1     -10.360   4.879   2.561  1.00  0.00     0.042 C 
ENDROOT
BRANCH   1   2
ATOM      2  C   UNL     1     -10.135   4.627   1.079  1.00  0.00     0.117 C 
BRANCH   2   3
ATOM      3  N   UNL     1     -10.572   5.745   0.254  1.00  0.00    -0.356 N 
ATOM      4  C   UNL     1      -9.864   6.598  -0.534  1.00  0.00     0.223 C 
ATOM      5  O   UNL     1     -10.478   7.481  -1.139  1.00  0.00    -0.275 OA
ATOM      6  H   UNL     1     -11.543   5.910   0.269  1.00  0.00     0.163 HD
BRANCH   4   7
ATOM      7  C   UNL     1      -8.359   6.464  -0.688  1.00  0.00     0.082 C 
ATOM      8  C   UNL     1      -5.400   4.030   0.787  1.00  0.00     0.265 C 
ATOM      9  O   UNL     1      -5.739   3.911   1.965  1.00  0.00    -0.268 OA
ATOM     10  N   UNL     1      -5.978   5.035   0.014  1.00  0.00    -0.338 N 
ATOM     11  C   UNL     1      -6.181   6.345   0.607  1.00  0.00     0.120 C 
ATOM     12  C   UNL     1      -6.507   4.833  -1.325  1.00  0.00     0.120 C 
ATOM     13  C   UNL     1      -7.643   6.737   0.640  1.00  0.00     0.035 C 
ATOM     14  C   UNL     1      -7.996   5.143  -1.388  1.00  0.00     0.035 C 
BRANCH   8  15
ATOM     15  C   UNL     1      -4.324   3.249   0.189  1.00  0.00     0.115 A 
ATOM     16  C   UNL     1      -2.505   1.659  -0.109  1.00  0.00     0.159 A 
ATOM     17  N   UNL     1      -2.431   2.598  -1.024  1.00  0.00    -0.237 NA
ATOM     18  S   UNL     1      -3.855   1.759   0.933  1.00  0.00    -0.105 S 
ATOM     19  C   UNL     1      -3.446   3.523  -0.854  1.00  0.00     0.062 A 
ATOM     20  C   UNL     1      -3.393   4.695  -1.765  1.00  0.00     0.068 C 
BRANCH  16  21
ATOM     21  C   UNL     1      -1.484   0.656   0.004  1.00  0.00     0.162 A 
ATOM     22  C   UNL     1       2.035  -0.031  -0.005  1.00  0.00     0.087 C 
ATOM     23  C   UNL     1       0.567  -0.177   0.037  1.00  0.00     0.101 A 
ATOM     24  C   UNL     1      -0.283  -1.250   0.173  1.00  0.00     0.046 A 
ATOM     25  O   UNL     1      -0.148   0.971  -0.083  1.00  0.00    -0.459 OA
ATOM     26  C   UNL     1      -1.597  -0.715   0.171  1.00  0.00     0.054 A 
ENDBRANCH  16  21
ENDBRANCH   8  15
ENDBRANCH   4   7
ENDBRANCH   2   3
ENDBRANCH   1   2
BRANCH   1  27
ATOM     27  C   UNL     1     -11.826   4.995   2.940  1.00  0.00     0.118 C 
BRANCH  27  28
ATOM     28  N   UNL     1     -12.569   3.772   2.666  1.00  0.00    -0.352 N 
ATOM     29  C   UNL     1     -13.217   2.926   3.529  1.00  0.00     0.251 C 
ATOM     30  H   UNL     1     -12.613   3.515   1.717  1.00  0.00     0.163 HD
ATOM     31  O   UNL     1     -13.599   1.829   3.127  1.00  0.00    -0.269 OA
BRANCH  29  32
ATOM     32  C   UNL     1     -13.439   3.325   4.934  1.00  0.00     0.039 A 
ATOM     33  C   UNL     1     -13.291   2.371   5.942  1.00  0.00     0.014 A 
ATOM     34  C   UNL     1     -13.802   4.635   5.259  1.00  0.00     0.014 A 
ATOM     35  C   UNL     1     -13.452   2.747   7.277  1.00  0.00     0.010 A 
ATOM     36  C   UNL     1     -13.854   5.032   6.590  1.00  0.00     0.010 A 
ATOM     37  C   UNL     1     -13.700   4.089   7.614  1.00  0.00    -0.014 A 
BRANCH  37  38
ATOM     38  C   UNL     1     -13.818   4.516   9.031  1.00  0.00     0.031 A 
ATOM     39  C   UNL     1     -15.102   5.119   9.537  1.00  0.00     0.074 A 
ATOM     40  C   UNL     1     -12.754   4.400   9.851  1.00  0.00     0.049 A 
ATOM     41  N   UNL     1     -15.390   5.558  10.736  1.00  0.00    -0.248 NA
ATOM     42  C   UNL     1     -16.198   5.278   8.565  1.00  0.00     0.031 C 
ATOM     43  C   UNL     1     -11.439   3.881   9.466  1.00  0.00     0.029 A 
ATOM     44  N   UNL     1     -12.612   4.705  11.181  1.00  0.00    -0.354 N 
ATOM     45  C   UNL     1     -16.687   6.053  10.657  1.00  0.00     0.074 A 
ATOM     46  C   UNL     1     -17.108   5.921   9.281  1.00  0.00     0.031 C 
ATOM     47  C   UNL     1     -10.639   3.864  10.544  1.00  0.00     0.029 A 
ATOM     48  C   UNL     1     -11.367   4.409  11.685  1.00  0.00     0.049 A 
ATOM     49  H   UNL     1     -13.332   5.100  11.723  1.00  0.00     0.167 HD
ATOM     50  C   UNL     1     -17.469   6.548  11.646  1.00  0.00     0.031 A 
ATOM     51  C   UNL     1     -10.867   4.556  12.927  1.00  0.00     0.031 A 
ATOM     52  C   UNL     1     -17.049   6.668  13.017  1.00  0.00     0.049 A 
ATOM     53  C   UNL     1     -11.755   5.110  14.008  1.00  0.00     0.074 A 
ATOM     54  C   UNL     1     -17.782   7.105  14.106  1.00  0.00     0.029 A 
ATOM     55  N   UNL     1     -15.783   6.351  13.487  1.00  0.00    -0.354 N 
ATOM     56  N   UNL     1     -13.003   5.506  13.929  1.00  0.00    -0.248 NA
ATOM     57  C   UNL     1     -11.170   5.221  15.351  1.00  0.00     0.031 C 
ATOM     58  C   UNL     1     -16.942   7.109  15.224  1.00  0.00     0.029 A 
ATOM     59  C   UNL     1     -15.707   6.606  14.846  1.00  0.00     0.049 A 
ATOM     60  H   UNL     1     -15.048   5.997  12.937  1.00  0.00     0.167 HD
ATOM     61  C   UNL     1     -13.363   5.882  15.219  1.00  0.00     0.074 A 
ATOM     62  C   UNL     1     -12.206   5.648  16.059  1.00  0.00     0.031 C 
ATOM     63  C   UNL     1     -14.545   6.373  15.668  1.00  0.00     0.031 A 
BRANCH  50  64
ATOM     64  C   UNL     1     -18.860   6.999  11.276  1.00  0.00    -0.014 A 
ATOM     65  C   UNL     1     -19.844   6.076  10.877  1.00  0.00     0.010 A 
ATOM     66  C   UNL     1     -19.200   8.361  11.366  1.00  0.00     0.010 A 
ATOM     67  C   UNL     1     -21.127   6.511  10.533  1.00  0.00     0.020 A 
ATOM     68  C   UNL     1     -20.492   8.797  11.054  1.00  0.00     0.020 A 
ATOM     69  C   UNL     1     -21.442   7.869  10.623  1.00  0.00     0.054 A 
BRANCH  69  70
ATOM     70  S   UNL     1     -23.123   8.400  10.197  1.00  0.00     0.124 S 
ATOM     71  O   UNL     1     -23.134   8.231   8.746  1.00  0.00    -0.237 OA
ATOM     72  O   UNL     1     -23.954   7.460  10.944  1.00  0.00    -0.237 OA
ATOM     73  O   UNL     1     -23.180   9.784  10.662  1.00  0.00    -0.744 OA
ENDBRANCH  69  70
ENDBRANCH  50  64
BRANCH  51  74
ATOM     74  C   UNL     1      -9.464   4.149  13.219  1.00  0.00    -0.014 A 
ATOM     75  C   UNL     1      -9.197   3.037  14.037  1.00  0.00     0.010 A 
ATOM     76  C   UNL     1      -8.386   4.868  12.672  1.00  0.00     0.010 A 
ATOM     77  C   UNL     1      -7.879   2.667  14.323  1.00  0.00     0.020 A 
ATOM     78  C   UNL     1      -7.067   4.482  12.928  1.00  0.00     0.020 A 
ATOM     79  C   UNL     1      -6.822   3.391  13.764  1.00  0.00     0.054 A 
BRANCH  79  80
ATOM     80  S   UNL     1      -5.121   2.867  14.114  1.00  0.00     0.124 S 
ATOM     81  O   UNL     1      -4.965   3.255  15.512  1.00  0.00    -0.237 OA
ATOM     82  O   UNL     1      -5.176   1.429  13.858  1.00  0.00    -0.237 OA
ATOM     83  O   UNL     1      -4.323   3.632  13.159  1.00  0.00    -0.744 OA
ENDBRANCH  79  80
ENDBRANCH  51  74
BRANCH  63  84
ATOM     84  C   UNL     1     -14.660   6.652  17.144  1.00  0.00    -0.014 A 
ATOM     85  C   UNL     1     -13.956   7.707  17.751  1.00  0.00     0.010 A 
ATOM     86  C   UNL     1     -15.517   5.859  17.931  1.00  0.00     0.010 A 
ATOM     87  C   UNL     1     -14.067   7.932  19.125  1.00  0.00     0.020 A 
ATOM     88  C   UNL     1     -15.658   6.103  19.299  1.00  0.00     0.020 A 
ATOM     89  C   UNL     1     -14.915   7.126  19.891  1.00  0.00     0.054 A 
BRANCH  89  90
ATOM     90  S   UNL     1     -15.057   7.450  21.670  1.00  0.00     0.124 S 
ATOM     91  O   UNL     1     -13.774   6.963  22.170  1.00  0.00    -0.237 OA
ATOM     92  O   UNL     1     -15.242   8.899  21.717  1.00  0.00    -0.237 OA
ATOM     93  O   UNL     1     -16.222   6.666  22.074  1.00  0.00    -0.744 OA
ENDBRANCH  89  90
ENDBRANCH  63  84
ENDBRANCH  37  38
ENDBRANCH  29  32
ENDBRANCH  27  28
ENDBRANCH   1  27
TORSDOF 15
