REMARK SMILES Cc1ccccc1N[C@H](C(=O)NCCCNC(=O)c1ccc(-c2c3nc(c(-c4ccc(S(=O)(=O)[O-])cc4)c4ccc([nH]4)c(-c4ccc(S(=O)(=O)[O-])cc4)c4nc(c(-c5ccc(S(=O)(=O)[O-])cc5)c5ccc2[nH]5)C=C4)C=C3)cc1)c1ccccc1
REMARK SMILES IDX 14 1 13 2 12 3 10 4 11 5 9 7 8 8 7 10 1 11 2 12 3 13 4 14
REMARK SMILES IDX 6 15 5 16 79 17 80 18 84 19 81 20 83 21 82 22 15 23 16 24
REMARK SMILES IDX 17 25 18 27 19 28 20 29 78 30 21 31 77 32 22 33 23 34 24 35
REMARK SMILES IDX 71 36 25 37 76 38 70 39 72 40 26 41 75 42 69 43 68 44 27 46
REMARK SMILES IDX 57 47 38 48 56 49 39 50 42 51 55 52 73 53 40 54 41 55 54 57
REMARK SMILES IDX 74 58 43 59 28 60 29 61 37 62 30 63 36 64 31 65 32 66 33 67
REMARK SMILES IDX 34 68 35 69 58 70 59 71 67 72 60 73 66 74 61 75 62 76 63 77
REMARK SMILES IDX 64 78 65 79 44 80 45 81 53 82 46 83 52 84 47 85 48 86 49 87
REMARK SMILES IDX 50 88 51 89
REMARK H PARENT 12 6 8 9 16 26 72 45 42 56
REMARK Flexibility Score: inf
ROOT
ATOM      1  C   UNL     1       1.809   4.255   3.398  1.00  0.00     0.042 C 
ENDROOT
BRANCH   1   2
ATOM      2  C   UNL     1       2.173   4.239   1.926  1.00  0.00     0.117 C 
BRANCH   2   3
ATOM      3  N   UNL     1       1.734   3.015   1.265  1.00  0.00    -0.354 N 
ATOM      4  C   UNL     1       0.893   2.905   0.188  1.00  0.00     0.247 C 
ATOM      5  O   UNL     1       0.655   1.777  -0.261  1.00  0.00    -0.272 OA
ATOM      6  H   UNL     1       2.082   2.171   1.635  1.00  0.00     0.163 HD
BRANCH   4   7
ATOM      7  C   UNL     1       0.189   4.165  -0.403  1.00  0.00     0.200 C 
BRANCH   7   8
ATOM      8  N   UNL     1      -0.914   4.521   0.535  1.00  0.00    -0.370 N 
ATOM      9  H   UNL     1      -1.696   3.938   0.405  1.00  0.00     0.161 HD
BRANCH   8  10
ATOM     10  C   UNL     1      -1.137   5.443   1.534  1.00  0.00     0.038 A 
ATOM     11  C   UNL     1      -2.556   3.773   2.899  1.00  0.00     0.046 C 
ATOM     12  C   UNL     1      -2.037   5.157   2.592  1.00  0.00    -0.028 A 
ATOM     13  C   UNL     1      -2.462   6.176   3.476  1.00  0.00     0.005 A 
ATOM     14  C   UNL     1      -1.949   7.462   3.385  1.00  0.00     0.000 A 
ATOM     15  C   UNL     1      -0.547   6.710   1.572  1.00  0.00     0.026 A 
ATOM     16  C   UNL     1      -0.957   7.716   2.456  1.00  0.00     0.002 A 
ENDBRANCH   8  10
ENDBRANCH   7   8
BRANCH   7  17
ATOM     17  C   UNL     1       1.126   5.238  -0.956  1.00  0.00    -0.016 A 
ATOM     18  C   UNL     1       0.646   6.485  -1.380  1.00  0.00     0.006 A 
ATOM     19  C   UNL     1       2.516   5.016  -1.057  1.00  0.00     0.006 A 
ATOM     20  C   UNL     1       1.534   7.539  -1.629  1.00  0.00     0.000 A 
ATOM     21  C   UNL     1       3.402   6.066  -1.294  1.00  0.00     0.000 A 
ATOM     22  C   UNL     1       2.909   7.339  -1.539  1.00  0.00     0.000 A 
ENDBRANCH   7  17
ENDBRANCH   4   7
ENDBRANCH   2   3
ENDBRANCH   1   2
BRANCH   1  23
ATOM     23  C   UNL     1       3.034   3.981   4.244  1.00  0.00     0.118 C 
BRANCH  23  24
ATOM     24  N   UNL     1       3.750   5.174   4.681  1.00  0.00    -0.352 N 
ATOM     25  C   UNL     1       4.957   5.242   5.364  1.00  0.00     0.251 C 
ATOM     26  H   UNL     1       3.327   6.036   4.464  1.00  0.00     0.163 HD
ATOM     27  O   UNL     1       5.340   6.273   5.886  1.00  0.00    -0.269 OA
BRANCH  25  28
ATOM     28  C   UNL     1       5.802   4.026   5.367  1.00  0.00     0.039 A 
ATOM     29  C   UNL     1       7.058   4.098   4.755  1.00  0.00     0.014 A 
ATOM     30  C   UNL     1       5.232   2.799   5.685  1.00  0.00     0.014 A 
ATOM     31  C   UNL     1       7.649   2.931   4.274  1.00  0.00     0.010 A 
ATOM     32  C   UNL     1       5.738   1.673   5.074  1.00  0.00     0.010 A 
ATOM     33  C   UNL     1       6.931   1.739   4.340  1.00  0.00    -0.014 A 
BRANCH  33  34
ATOM     34  C   UNL     1       7.305   0.506   3.655  1.00  0.00     0.031 A 
ATOM     35  C   UNL     1       7.733  -0.665   4.462  1.00  0.00     0.074 A 
ATOM     36  C   UNL     1       7.135   0.384   2.318  1.00  0.00     0.049 A 
ATOM     37  N   UNL     1       8.382  -1.683   4.005  1.00  0.00    -0.248 NA
ATOM     38  C   UNL     1       7.501  -0.742   5.903  1.00  0.00     0.031 C 
ATOM     39  C   UNL     1       7.112  -0.861   1.553  1.00  0.00     0.029 A 
ATOM     40  N   UNL     1       7.149   1.378   1.336  1.00  0.00    -0.354 N 
ATOM     41  C   UNL     1       8.383  -2.651   4.987  1.00  0.00     0.074 A 
ATOM     42  C   UNL     1       7.895  -1.987   6.170  1.00  0.00     0.031 C 
ATOM     43  C   UNL     1       7.417  -0.586   0.276  1.00  0.00     0.029 A 
ATOM     44  C   UNL     1       7.791   0.817   0.218  1.00  0.00     0.049 A 
ATOM     45  H   UNL     1       6.783   2.288   1.412  1.00  0.00     0.167 HD
ATOM     46  C   UNL     1       8.664  -3.945   4.662  1.00  0.00     0.031 A 
ATOM     47  C   UNL     1       8.952   1.294  -0.319  1.00  0.00     0.031 A 
ATOM     48  C   UNL     1       9.114  -4.059   3.276  1.00  0.00     0.049 A 
ATOM     49  C   UNL     1      10.068   0.272  -0.315  1.00  0.00     0.074 A 
ATOM     50  C   UNL     1       8.477  -4.433   2.105  1.00  0.00     0.029 A 
ATOM     51  N   UNL     1      10.313  -3.461   2.901  1.00  0.00    -0.354 N 
ATOM     52  N   UNL     1      10.039  -0.835   0.374  1.00  0.00    -0.248 NA
ATOM     53  C   UNL     1      11.327   0.445  -1.037  1.00  0.00     0.031 C 
ATOM     54  C   UNL     1       9.252  -3.951   1.017  1.00  0.00     0.029 A 
ATOM     55  C   UNL     1      10.374  -3.321   1.528  1.00  0.00     0.049 A 
ATOM     56  H   UNL     1      11.018  -3.177   3.526  1.00  0.00     0.167 HD
ATOM     57  C   UNL     1      11.232  -1.490   0.240  1.00  0.00     0.074 A 
ATOM     58  C   UNL     1      12.000  -0.660  -0.670  1.00  0.00     0.031 C 
ATOM     59  C   UNL     1      11.506  -2.648   0.906  1.00  0.00     0.031 A 
BRANCH  46  60
ATOM     60  C   UNL     1       8.253  -5.132   5.512  1.00  0.00    -0.014 A 
ATOM     61  C   UNL     1       8.054  -6.388   4.899  1.00  0.00     0.010 A 
ATOM     62  C   UNL     1       7.969  -5.074   6.889  1.00  0.00     0.010 A 
ATOM     63  C   UNL     1       7.512  -7.482   5.594  1.00  0.00     0.020 A 
ATOM     64  C   UNL     1       7.395  -6.146   7.590  1.00  0.00     0.020 A 
ATOM     65  C   UNL     1       7.157  -7.344   6.933  1.00  0.00     0.054 A 
BRANCH  65  66
ATOM     66  S   UNL     1       6.383  -8.734   7.799  1.00  0.00     0.124 S 
ATOM     67  O   UNL     1       5.206  -9.002   6.976  1.00  0.00    -0.237 OA
ATOM     68  O   UNL     1       7.428  -9.751   7.757  1.00  0.00    -0.237 OA
ATOM     69  O   UNL     1       6.093  -8.197   9.128  1.00  0.00    -0.744 OA
ENDBRANCH  65  66
ENDBRANCH  46  60
BRANCH  47  70
ATOM     70  C   UNL     1       9.153   2.760  -0.158  1.00  0.00    -0.014 A 
ATOM     71  C   UNL     1       8.338   3.611  -0.931  1.00  0.00     0.010 A 
ATOM     72  C   UNL     1       9.764   3.263   1.005  1.00  0.00     0.010 A 
ATOM     73  C   UNL     1       7.980   4.871  -0.451  1.00  0.00     0.020 A 
ATOM     74  C   UNL     1       9.407   4.530   1.487  1.00  0.00     0.020 A 
ATOM     75  C   UNL     1       8.459   5.287   0.792  1.00  0.00     0.054 A 
BRANCH  75  76
ATOM     76  S   UNL     1       7.636   6.701   1.584  1.00  0.00     0.124 S 
ATOM     77  O   UNL     1       7.819   7.762   0.598  1.00  0.00    -0.237 OA
ATOM     78  O   UNL     1       6.270   6.199   1.724  1.00  0.00    -0.237 OA
ATOM     79  O   UNL     1       8.376   6.863   2.831  1.00  0.00    -0.744 OA
ENDBRANCH  75  76
ENDBRANCH  47  70
BRANCH  59  80
ATOM     80  C   UNL     1      12.863  -3.294   0.969  1.00  0.00    -0.014 A 
ATOM     81  C   UNL     1      14.067  -2.573   0.912  1.00  0.00     0.010 A 
ATOM     82  C   UNL     1      12.949  -4.682   1.222  1.00  0.00     0.010 A 
ATOM     83  C   UNL     1      15.305  -3.219   1.017  1.00  0.00     0.020 A 
ATOM     84  C   UNL     1      14.178  -5.330   1.371  1.00  0.00     0.020 A 
ATOM     85  C   UNL     1      15.353  -4.597   1.234  1.00  0.00     0.054 A 
BRANCH  85  86
ATOM     86  S   UNL     1      16.956  -5.423   1.398  1.00  0.00     0.124 S 
ATOM     87  O   UNL     1      17.268  -5.748   0.009  1.00  0.00    -0.237 OA
ATOM     88  O   UNL     1      17.797  -4.393   2.004  1.00  0.00    -0.237 OA
ATOM     89  O   UNL     1      16.664  -6.564   2.261  1.00  0.00    -0.744 OA
ENDBRANCH  85  86
ENDBRANCH  59  80
ENDBRANCH  33  34
ENDBRANCH  25  28
ENDBRANCH  23  24
ENDBRANCH   1  23
TORSDOF 16
