REMARK SMILES O=C(NCCCNC(=O)c1ccc2c(=O)n(CCC[NH+]3CCOCC3)c(=O)[nH]c2c1)c1ccc(-c2c3nc(c(-c4ccc(S(=O)(=O)[O-])cc4)c4ccc([nH]4)c(-c4ccc(S(=O)(=O)[O-])cc4)c4nc(c(-c5ccc(S(=O)(=O)[O-])cc5)c5ccc2[nH]5)C=C4)C=C3)cc1
REMARK SMILES IDX 5 1 4 2 3 3 1 4 2 5 31 7 32 8 90 9 33 10 89 11 34 12 35 13
REMARK SMILES IDX 36 14 83 15 37 16 88 17 82 18 84 19 38 20 87 21 81 22 80 23
REMARK SMILES IDX 39 25 69 26 50 27 68 28 51 29 54 30 67 31 85 32 52 33 53 34
REMARK SMILES IDX 66 36 86 37 55 38 40 39 41 40 49 41 42 42 48 43 43 44 44 45
REMARK SMILES IDX 45 46 46 47 47 48 70 49 71 50 79 51 72 52 78 53 73 54 74 55
REMARK SMILES IDX 75 56 76 57 77 58 56 59 57 60 65 61 58 62 64 63 59 64 60 65
REMARK SMILES IDX 61 66 62 67 63 68 6 69 7 70 8 71 9 73 10 74 11 75 30 76
REMARK SMILES IDX 12 77 29 78 13 79 28 80 14 81 26 82 15 84 16 85 27 86 17 87
REMARK SMILES IDX 18 88 19 89 20 90 21 91 25 92 22 94 24 95 23 96
REMARK H PARENT 3 6 84 24 54 35 7 72 28 83 20 93
REMARK Flexibility Score: inf
ROOT
ATOM      1  C   UNL     1       4.989   0.621  -2.553  1.00  0.00     0.042 C 
ENDROOT
BRANCH   1   2
ATOM      2  C   UNL     1       4.633   0.887  -1.101  1.00  0.00     0.118 C 
BRANCH   2   3
ATOM      3  N   UNL     1       3.198   0.857  -0.856  1.00  0.00    -0.352 N 
ATOM      4  O   UNL     1       1.237   0.150  -0.032  1.00  0.00    -0.269 OA
ATOM      5  C   UNL     1       2.463   0.130   0.046  1.00  0.00     0.251 C 
ATOM      6  H   UNL     1       2.669   1.456  -1.431  1.00  0.00     0.163 HD
BRANCH   5   7
ATOM      7  C   UNL     1       3.128  -0.681   1.090  1.00  0.00     0.039 A 
ATOM      8  C   UNL     1       2.552  -1.898   1.465  1.00  0.00     0.014 A 
ATOM      9  C   UNL     1       4.291  -0.240   1.726  1.00  0.00     0.014 A 
ATOM     10  C   UNL     1       3.165  -2.683   2.445  1.00  0.00     0.010 A 
ATOM     11  C   UNL     1       4.959  -1.071   2.617  1.00  0.00     0.010 A 
ATOM     12  C   UNL     1       4.387  -2.287   3.012  1.00  0.00    -0.014 A 
BRANCH  12  13
ATOM     13  C   UNL     1       5.051  -3.103   4.060  1.00  0.00     0.031 A 
ATOM     14  C   UNL     1       5.265  -2.532   5.437  1.00  0.00     0.074 A 
ATOM     15  C   UNL     1       5.484  -4.345   3.769  1.00  0.00     0.049 A 
ATOM     16  N   UNL     1       5.840  -3.082   6.475  1.00  0.00    -0.248 NA
ATOM     17  C   UNL     1       4.799  -1.154   5.672  1.00  0.00     0.031 C 
ATOM     18  C   UNL     1       5.375  -4.993   2.461  1.00  0.00     0.029 A 
ATOM     19  N   UNL     1       6.090  -5.290   4.559  1.00  0.00    -0.354 N 
ATOM     20  C   UNL     1       5.806  -2.120   7.478  1.00  0.00     0.074 A 
ATOM     21  C   UNL     1       5.232  -0.926   6.902  1.00  0.00     0.031 C 
ATOM     22  C   UNL     1       5.849  -6.245   2.552  1.00  0.00     0.029 A 
ATOM     23  C   UNL     1       6.332  -6.478   3.911  1.00  0.00     0.049 A 
ATOM     24  H   UNL     1       6.330  -5.132   5.501  1.00  0.00     0.167 HD
ATOM     25  C   UNL     1       6.177  -2.232   8.775  1.00  0.00     0.031 A 
ATOM     26  C   UNL     1       6.867  -7.631   4.358  1.00  0.00     0.031 A 
ATOM     27  C   UNL     1       6.728  -3.429   9.350  1.00  0.00     0.049 A 
ATOM     28  C   UNL     1       7.271  -7.739   5.801  1.00  0.00     0.074 A 
ATOM     29  C   UNL     1       7.109  -3.654  10.661  1.00  0.00     0.029 A 
ATOM     30  N   UNL     1       6.963  -4.607   8.657  1.00  0.00    -0.354 N 
ATOM     31  N   UNL     1       7.201  -6.828   6.743  1.00  0.00    -0.248 NA
ATOM     32  C   UNL     1       7.811  -9.030   6.247  1.00  0.00     0.031 C 
ATOM     33  C   UNL     1       7.622  -4.951  10.749  1.00  0.00     0.029 A 
ATOM     34  C   UNL     1       7.498  -5.558   9.509  1.00  0.00     0.049 A 
ATOM     35  H   UNL     1       6.776  -4.747   7.700  1.00  0.00     0.167 HD
ATOM     36  C   UNL     1       7.684  -7.436   7.896  1.00  0.00     0.074 A 
ATOM     37  C   UNL     1       8.013  -8.802   7.540  1.00  0.00     0.031 C 
ATOM     38  C   UNL     1       7.845  -6.908   9.135  1.00  0.00     0.031 A 
BRANCH  25  39
ATOM     39  C   UNL     1       5.963  -1.038   9.670  1.00  0.00    -0.014 A 
ATOM     40  C   UNL     1       7.062  -0.366  10.232  1.00  0.00     0.010 A 
ATOM     41  C   UNL     1       4.662  -0.618  10.007  1.00  0.00     0.010 A 
ATOM     42  C   UNL     1       6.867   0.692  11.125  1.00  0.00     0.020 A 
ATOM     43  C   UNL     1       4.462   0.460  10.872  1.00  0.00     0.020 A 
ATOM     44  C   UNL     1       5.566   1.096  11.442  1.00  0.00     0.054 A 
BRANCH  44  45
ATOM     45  S   UNL     1       5.329   2.475  12.596  1.00  0.00     0.124 S 
ATOM     46  O   UNL     1       5.588   1.844  13.886  1.00  0.00    -0.237 OA
ATOM     47  O   UNL     1       6.330   3.441  12.151  1.00  0.00    -0.237 OA
ATOM     48  O   UNL     1       3.943   2.879  12.363  1.00  0.00    -0.744 OA
ENDBRANCH  44  45
ENDBRANCH  25  39
BRANCH  26  49
ATOM     49  C   UNL     1       6.977  -8.782   3.420  1.00  0.00    -0.014 A 
ATOM     50  C   UNL     1       7.881  -8.741   2.343  1.00  0.00     0.010 A 
ATOM     51  C   UNL     1       6.091  -9.869   3.528  1.00  0.00     0.010 A 
ATOM     52  C   UNL     1       7.852  -9.727   1.354  1.00  0.00     0.020 A 
ATOM     53  C   UNL     1       6.078 -10.873   2.555  1.00  0.00     0.020 A 
ATOM     54  C   UNL     1       6.934 -10.776   1.456  1.00  0.00     0.054 A 
BRANCH  54  55
ATOM     55  S   UNL     1       6.847 -11.992   0.112  1.00  0.00     0.124 S 
ATOM     56  O   UNL     1       6.153 -11.237  -0.928  1.00  0.00    -0.237 OA
ATOM     57  O   UNL     1       8.254 -12.279  -0.152  1.00  0.00    -0.237 OA
ATOM     58  O   UNL     1       6.088 -13.095   0.696  1.00  0.00    -0.744 OA
ENDBRANCH  54  55
ENDBRANCH  26  49
BRANCH  38  59
ATOM     59  C   UNL     1       8.429  -7.792  10.206  1.00  0.00    -0.014 A 
ATOM     60  C   UNL     1       7.641  -8.180  11.305  1.00  0.00     0.010 A 
ATOM     61  C   UNL     1       9.788  -8.152  10.177  1.00  0.00     0.010 A 
ATOM     62  C   UNL     1       8.205  -8.891  12.367  1.00  0.00     0.020 A 
ATOM     63  C   UNL     1      10.349  -8.891  11.223  1.00  0.00     0.020 A 
ATOM     64  C   UNL     1       9.558  -9.236  12.322  1.00  0.00     0.054 A 
BRANCH  64  65
ATOM     65  S   UNL     1      10.275 -10.159  13.709  1.00  0.00     0.124 S 
ATOM     66  O   UNL     1      10.471  -9.111  14.706  1.00  0.00    -0.237 OA
ATOM     67  O   UNL     1       9.236 -11.138  14.018  1.00  0.00    -0.237 OA
ATOM     68  O   UNL     1      11.501 -10.723  13.146  1.00  0.00    -0.744 OA
ENDBRANCH  64  65
ENDBRANCH  38  59
ENDBRANCH  12  13
ENDBRANCH   5   7
ENDBRANCH   2   3
ENDBRANCH   1   2
BRANCH   1  69
ATOM     69  C   UNL     1       4.394   1.627  -3.524  1.00  0.00     0.118 C 
BRANCH  69  70
ATOM     70  N   UNL     1       4.959   2.967  -3.390  1.00  0.00    -0.352 N 
ATOM     71  C   UNL     1       5.862   3.625  -4.198  1.00  0.00     0.251 C 
ATOM     72  H   UNL     1       4.650   3.476  -2.606  1.00  0.00     0.163 HD
ATOM     73  O   UNL     1       6.338   4.708  -3.874  1.00  0.00    -0.269 OA
BRANCH  71  74
ATOM     74  C   UNL     1       6.296   2.972  -5.446  1.00  0.00     0.041 A 
ATOM     75  C   UNL     1       5.333   2.487  -6.339  1.00  0.00     0.015 A 
ATOM     76  C   UNL     1       7.659   2.719  -5.641  1.00  0.00     0.040 A 
ATOM     77  C   UNL     1       5.699   1.515  -7.257  1.00  0.00     0.017 A 
ATOM     78  C   UNL     1       8.023   1.812  -6.629  1.00  0.00     0.056 A 
ATOM     79  C   UNL     1       7.041   1.139  -7.341  1.00  0.00     0.064 A 
ATOM     80  N   UNL     1       9.356   1.542  -6.920  1.00  0.00    -0.307 N 
ATOM     81  C   UNL     1       7.442  -0.061  -8.082  1.00  0.00     0.264 A 
ATOM     82  C   UNL     1       9.753   0.671  -7.902  1.00  0.00     0.328 A 
ATOM     83  H   UNL     1      10.051   2.000  -6.393  1.00  0.00     0.171 HD
ATOM     84  O   UNL     1       6.595  -0.941  -8.195  1.00  0.00    -0.268 OA
ATOM     85  N   UNL     1       8.765  -0.123  -8.483  1.00  0.00    -0.260 N 
ATOM     86  O   UNL     1      10.945   0.622  -8.206  1.00  0.00    -0.248 OA
BRANCH  85  87
ATOM     87  C   UNL     1       9.230  -1.081  -9.488  1.00  0.00     0.137 C 
BRANCH  87  88
ATOM     88  C   UNL     1       8.309  -2.170 -10.072  1.00  0.00     0.083 C 
BRANCH  88  89
ATOM     89  C   UNL     1       7.061  -1.749 -10.877  1.00  0.00     0.264 C 
BRANCH  89  90
ATOM     90  N   UNL     1       7.046  -0.328 -11.182  1.00  0.00    -0.331 N 
ATOM     91  C   UNL     1       7.766   0.046 -12.402  1.00  0.00     0.291 C 
ATOM     92  C   UNL     1       5.704   0.270 -11.211  1.00  0.00     0.291 C 
ATOM     93  H   UNL     1       7.553   0.061 -10.388  1.00  0.00     0.348 HD
ATOM     94  C   UNL     1       7.914   1.574 -12.402  1.00  0.00     0.221 C 
ATOM     95  C   UNL     1       5.861   1.799 -11.253  1.00  0.00     0.221 C 
ATOM     96  O   UNL     1       6.630   2.220 -12.393  1.00  0.00    -0.370 OA
ENDBRANCH  89  90
ENDBRANCH  88  89
ENDBRANCH  87  88
ENDBRANCH  85  87
ENDBRANCH  71  74
ENDBRANCH  69  70
ENDBRANCH   1  69
TORSDOF 17
