REMARK SMILES Cc1ccc2oc(-c3ccc4c(c3)OCO4)c/c(=N\[C@H](C)C(=O)NCCCNC(=O)c3ccc(-c4c5nc(c(-c6ccc(S(=O)(=O)[O-])cc6)c6ccc([nH]6)c(-c6ccc(S(=O)(=O)[O-])cc6)c6nc(c(-c7ccc(S(=O)(=O)[O-])cc7)c7ccc4[nH]7)C=C6)C=C5)cc3)c2c1
REMARK SMILES IDX 26 1 25 2 24 3 22 4 23 5 20 7 21 8 19 9 1 10 2 11 3 12 92 13
REMARK SMILES IDX 4 14 91 15 5 16 18 17 6 18 17 19 7 20 8 21 9 22 13 23 10 24
REMARK SMILES IDX 12 25 11 26 14 27 16 28 15 29 27 30 28 31 29 32 30 34 31 35
REMARK SMILES IDX 32 36 90 37 33 38 89 39 34 40 35 41 36 42 83 43 37 44 88 45
REMARK SMILES IDX 82 46 84 47 38 48 87 49 81 50 80 51 39 53 69 54 50 55 68 56
REMARK SMILES IDX 51 57 54 58 67 59 85 60 52 61 53 62 66 64 86 65 55 66 40 67
REMARK SMILES IDX 41 68 49 69 42 70 48 71 43 72 44 73 45 74 46 75 47 76 70 77
REMARK SMILES IDX 71 78 79 79 72 80 78 81 73 82 74 83 75 84 76 85 77 86 56 87
REMARK SMILES IDX 57 88 65 89 58 90 64 91 59 92 60 93 61 94 62 95 63 96
REMARK H PARENT 24 6 28 33 84 52 54 63
REMARK Flexibility Score: inf
ROOT
ATOM      1  C   UNL     1      -0.874  -0.951   3.097  1.00  0.00     0.042 C 
ENDROOT
BRANCH   1   2
ATOM      2  C   UNL     1      -0.001  -0.147   2.146  1.00  0.00     0.117 C 
BRANCH   2   3
ATOM      3  N   UNL     1      -0.743   0.817   1.355  1.00  0.00    -0.354 N 
ATOM      4  C   UNL     1      -0.773   2.182   1.400  1.00  0.00     0.244 C 
ATOM      5  O   UNL     1      -1.431   2.754   0.522  1.00  0.00    -0.273 OA
ATOM      6  H   UNL     1      -1.324   0.419   0.667  1.00  0.00     0.163 HD
BRANCH   4   7
ATOM      7  C   UNL     1      -0.123   2.991   2.542  1.00  0.00     0.191 C 
ATOM      8  C   UNL     1      -1.016   2.902   3.763  1.00  0.00     0.044 C 
BRANCH   7   9
ATOM      9  N   UNL     1       1.296   2.641   2.650  1.00  0.00    -0.271 NA
ATOM     10  C   UNL     1       6.008   1.994   0.572  1.00  0.00     0.044 C 
ATOM     11  C   UNL     1       5.298   1.580   1.827  1.00  0.00    -0.050 A 
ATOM     12  C   UNL     1       5.915   0.709   2.736  1.00  0.00     0.007 A 
ATOM     13  C   UNL     1       4.029   2.098   2.128  1.00  0.00     0.017 A 
ATOM     14  C   UNL     1       5.267   0.341   3.916  1.00  0.00     0.048 A 
ATOM     15  C   UNL     1       3.385   1.739   3.319  1.00  0.00     0.043 A 
ATOM     16  C   UNL     1       4.006   0.859   4.207  1.00  0.00     0.136 A 
ATOM     17  C   UNL     1       2.001   2.208   3.622  1.00  0.00     0.073 A 
ATOM     18  O   UNL     1       3.420   0.447   5.378  1.00  0.00    -0.456 OA
ATOM     19  C   UNL     1       1.604   1.997   5.028  1.00  0.00     0.076 A 
ATOM     20  C   UNL     1       2.290   1.124   5.777  1.00  0.00     0.136 A 
BRANCH  20  21
ATOM     21  C   UNL     1       1.816   0.815   7.126  1.00  0.00     0.021 A 
ATOM     22  C   UNL     1       0.915  -0.255   7.328  1.00  0.00     0.016 A 
ATOM     23  C   UNL     1       2.193   1.634   8.199  1.00  0.00     0.062 A 
ATOM     24  C   UNL     1       0.379  -0.505   8.594  1.00  0.00     0.051 A 
ATOM     25  C   UNL     1       1.653   1.357   9.435  1.00  0.00     0.166 A 
ATOM     26  C   UNL     1       0.768   0.322   9.625  1.00  0.00     0.165 A 
ATOM     27  O   UNL     1       1.897   2.047  10.582  1.00  0.00    -0.454 OA
ATOM     28  O   UNL     1       0.339   0.238  10.911  1.00  0.00    -0.454 OA
ATOM     29  C   UNL     1       1.129   1.271  11.531  1.00  0.00     0.468 C 
ENDBRANCH  20  21
ENDBRANCH   7   9
ENDBRANCH   4   7
ENDBRANCH   2   3
ENDBRANCH   1   2
BRANCH   1  30
ATOM     30  C   UNL     1      -1.844  -1.885   2.391  1.00  0.00     0.118 C 
BRANCH  30  31
ATOM     31  N   UNL     1      -1.170  -2.949   1.655  1.00  0.00    -0.352 N 
ATOM     32  C   UNL     1      -1.147  -4.307   1.864  1.00  0.00     0.251 C 
ATOM     33  H   UNL     1      -0.644  -2.643   0.882  1.00  0.00     0.163 HD
ATOM     34  O   UNL     1      -0.361  -5.003   1.225  1.00  0.00    -0.269 OA
BRANCH  32  35
ATOM     35  C   UNL     1      -2.037  -4.930   2.869  1.00  0.00     0.039 A 
ATOM     36  C   UNL     1      -3.362  -4.515   3.009  1.00  0.00     0.014 A 
ATOM     37  C   UNL     1      -1.541  -5.957   3.677  1.00  0.00     0.014 A 
ATOM     38  C   UNL     1      -4.126  -4.989   4.069  1.00  0.00     0.010 A 
ATOM     39  C   UNL     1      -2.347  -6.507   4.679  1.00  0.00     0.010 A 
ATOM     40  C   UNL     1      -3.631  -5.995   4.913  1.00  0.00    -0.014 A 
BRANCH  40  41
ATOM     41  C   UNL     1      -4.485  -6.508   6.016  1.00  0.00     0.031 A 
ATOM     42  C   UNL     1      -4.078  -6.325   7.454  1.00  0.00     0.074 A 
ATOM     43  C   UNL     1      -5.661  -7.094   5.715  1.00  0.00     0.049 A 
ATOM     44  N   UNL     1      -4.709  -6.702   8.537  1.00  0.00    -0.248 NA
ATOM     45  C   UNL     1      -2.806  -5.631   7.716  1.00  0.00     0.031 C 
ATOM     46  C   UNL     1      -6.173  -7.299   4.357  1.00  0.00     0.029 A 
ATOM     47  N   UNL     1      -6.653  -7.593   6.521  1.00  0.00    -0.354 N 
ATOM     48  C   UNL     1      -3.909  -6.307   9.602  1.00  0.00     0.074 A 
ATOM     49  C   UNL     1      -2.732  -5.684   9.040  1.00  0.00     0.031 C 
ATOM     50  C   UNL     1      -7.407  -7.818   4.426  1.00  0.00     0.029 A 
ATOM     51  C   UNL     1      -7.744  -8.060   5.825  1.00  0.00     0.049 A 
ATOM     52  H   UNL     1      -6.590  -7.615   7.503  1.00  0.00     0.167 HD
ATOM     53  C   UNL     1      -4.144  -6.441  10.929  1.00  0.00     0.031 A 
ATOM     54  C   UNL     1      -8.884  -8.636   6.254  1.00  0.00     0.031 A 
ATOM     55  C   UNL     1      -5.328  -7.049  11.479  1.00  0.00     0.049 A 
ATOM     56  C   UNL     1      -9.089  -8.837   7.726  1.00  0.00     0.074 A 
ATOM     57  C   UNL     1      -5.664  -7.211  12.812  1.00  0.00     0.029 A 
ATOM     58  N   UNL     1      -6.367  -7.589  10.736  1.00  0.00    -0.354 N 
ATOM     59  N   UNL     1      -8.318  -8.459   8.717  1.00  0.00    -0.248 NA
ATOM     60  C   UNL     1     -10.303  -9.552   8.142  1.00  0.00     0.031 C 
ATOM     61  C   UNL     1      -6.874  -7.905  12.875  1.00  0.00     0.029 A 
ATOM     62  C   UNL     1      -7.327  -8.117  11.582  1.00  0.00     0.049 A 
ATOM     63  H   UNL     1      -6.415  -7.596   9.752  1.00  0.00     0.167 HD
ATOM     64  C   UNL     1      -8.951  -8.893   9.875  1.00  0.00     0.074 A 
ATOM     65  C   UNL     1     -10.182  -9.538   9.464  1.00  0.00     0.031 C 
ATOM     66  C   UNL     1      -8.541  -8.771  11.160  1.00  0.00     0.031 A 
BRANCH  53  67
ATOM     67  C   UNL     1      -3.112  -5.927  11.899  1.00  0.00    -0.014 A 
ATOM     68  C   UNL     1      -2.385  -6.837  12.690  1.00  0.00     0.010 A 
ATOM     69  C   UNL     1      -2.951  -4.548  12.122  1.00  0.00     0.010 A 
ATOM     70  C   UNL     1      -1.541  -6.380  13.706  1.00  0.00     0.020 A 
ATOM     71  C   UNL     1      -2.089  -4.086  13.121  1.00  0.00     0.020 A 
ATOM     72  C   UNL     1      -1.407  -5.006  13.923  1.00  0.00     0.054 A 
BRANCH  72  73
ATOM     73  S   UNL     1      -0.332  -4.430  15.267  1.00  0.00     0.124 S 
ATOM     74  O   UNL     1      -1.147  -4.694  16.449  1.00  0.00    -0.237 OA
ATOM     75  O   UNL     1       0.852  -5.273  15.114  1.00  0.00    -0.237 OA
ATOM     76  O   UNL     1      -0.121  -3.018  14.956  1.00  0.00    -0.744 OA
ENDBRANCH  72  73
ENDBRANCH  53  67
BRANCH  54  77
ATOM     77  C   UNL     1      -9.901  -9.058   5.252  1.00  0.00    -0.014 A 
ATOM     78  C   UNL     1      -9.618 -10.102   4.350  1.00  0.00     0.010 A 
ATOM     79  C   UNL     1     -11.110  -8.353   5.123  1.00  0.00     0.010 A 
ATOM     80  C   UNL     1     -10.489 -10.387   3.297  1.00  0.00     0.020 A 
ATOM     81  C   UNL     1     -12.000  -8.657   4.088  1.00  0.00     0.020 A 
ATOM     82  C   UNL     1     -11.667  -9.649   3.162  1.00  0.00     0.054 A 
BRANCH  82  83
ATOM     83  S   UNL     1     -12.753  -9.990   1.749  1.00  0.00     0.124 S 
ATOM     84  O   UNL     1     -12.055  -9.305   0.665  1.00  0.00    -0.237 OA
ATOM     85  O   UNL     1     -12.743 -11.449   1.681  1.00  0.00    -0.237 OA
ATOM     86  O   UNL     1     -14.027  -9.397   2.148  1.00  0.00    -0.744 OA
ENDBRANCH  82  83
ENDBRANCH  54  77
BRANCH  66  87
ATOM     87  C   UNL     1      -9.406  -9.365  12.239  1.00  0.00    -0.014 A 
ATOM     88  C   UNL     1     -10.081  -8.522  13.140  1.00  0.00     0.010 A 
ATOM     89  C   UNL     1      -9.427 -10.755  12.449  1.00  0.00     0.010 A 
ATOM     90  C   UNL     1     -10.723  -9.054  14.260  1.00  0.00     0.020 A 
ATOM     91  C   UNL     1     -10.092 -11.293  13.555  1.00  0.00     0.020 A 
ATOM     92  C   UNL     1     -10.711 -10.435  14.468  1.00  0.00     0.054 A 
BRANCH  92  93
ATOM     93  S   UNL     1     -11.501 -11.103  15.958  1.00  0.00     0.124 S 
ATOM     94  O   UNL     1     -10.525 -10.780  16.994  1.00  0.00    -0.237 OA
ATOM     95  O   UNL     1     -12.755 -10.356  16.019  1.00  0.00    -0.237 OA
ATOM     96  O   UNL     1     -11.647 -12.526  15.660  1.00  0.00    -0.744 OA
ENDBRANCH  92  93
ENDBRANCH  66  87
ENDBRANCH  40  41
ENDBRANCH  32  35
ENDBRANCH  30  31
ENDBRANCH   1  30
TORSDOF 15
