REMARK SMILES Cc1c(C#N)c2ccccc2n1CC(=O)N1CC[C@H](O)C[C@@H]1C(=O)NCCCNC(=O)c1ccc(-c2c3nc(c(-c4ccc(S(=O)(=O)[O-])cc4)c4ccc([nH]4)c(-c4ccc(S(=O)(=O)[O-])cc4)c4nc(c(-c5ccc(S(=O)(=O)[O-])cc5)c5ccc2[nH]5)C=C4)C=C3)cc1
REMARK SMILES IDX 26 1 25 2 23 3 24 4 22 6 16 7 17 8 18 9 21 10 19 11 14 12
REMARK SMILES IDX 15 13 13 14 12 15 1 16 2 17 3 18 6 19 11 20 7 21 10 22 8 23
REMARK SMILES IDX 9 24 4 25 5 26 20 27 27 29 28 30 29 31 30 32 31 34 32 35
REMARK SMILES IDX 33 36 91 37 34 38 90 39 35 40 36 41 37 42 84 43 38 44 89 45
REMARK SMILES IDX 83 46 85 47 39 48 88 49 82 50 81 51 40 53 70 54 51 55 69 56
REMARK SMILES IDX 52 57 55 58 68 59 86 60 53 61 54 62 67 64 87 65 56 66 41 67
REMARK SMILES IDX 42 68 50 69 43 70 49 71 44 72 45 73 46 74 47 75 48 76 71 77
REMARK SMILES IDX 72 78 80 79 73 80 79 81 74 82 75 83 76 84 77 85 78 86 57 87
REMARK SMILES IDX 58 88 66 89 59 90 65 91 60 92 61 93 62 94 63 95 64 96
REMARK H PARENT 25 5 20 28 29 33 85 52 55 63
REMARK Flexibility Score: inf
ROOT
ATOM      1  C   UNL     1       3.526   4.802   4.118  1.00  0.00     0.117 C 
ENDROOT
BRANCH   1   2
ATOM      2  N   UNL     1       4.824   4.818   3.456  1.00  0.00    -0.354 N 
ATOM      3  C   UNL     1       5.408   4.089   2.465  1.00  0.00     0.242 C 
ATOM      4  O   UNL     1       6.447   4.605   2.019  1.00  0.00    -0.273 OA
ATOM      5  H   UNL     1       5.417   5.521   3.807  1.00  0.00     0.163 HD
BRANCH   3   6
ATOM      6  C   UNL     1       5.036   2.647   1.977  1.00  0.00     0.177 C 
ATOM      7  N   UNL     1       3.692   2.366   1.465  1.00  0.00    -0.329 N 
ATOM      8  C   UNL     1       2.651   2.043   2.427  1.00  0.00     0.123 C 
ATOM      9  C   UNL     1       3.090   1.353   3.729  1.00  0.00     0.053 C 
ATOM     10  C   UNL     1       5.506   1.521   2.890  1.00  0.00     0.067 C 
ATOM     11  C   UNL     1       4.580   1.315   4.069  1.00  0.00     0.118 C 
BRANCH   7  12
ATOM     12  C   UNL     1       3.560   2.055   0.111  1.00  0.00     0.243 C 
ATOM     13  O   UNL     1       4.500   1.548  -0.515  1.00  0.00    -0.273 OA
BRANCH  12  14
ATOM     14  C   UNL     1       2.357   2.533  -0.691  1.00  0.00     0.222 C 
BRANCH  14  15
ATOM     15  N   UNL     1       1.042   2.479  -0.072  1.00  0.00    -0.334 N 
ATOM     16  C   UNL     1       0.813  -0.052  -0.134  1.00  0.00     0.066 C 
ATOM     17  C   UNL     1       0.317   1.326   0.170  1.00  0.00     0.034 A 
ATOM     18  C   UNL     1      -0.850   1.712   0.810  1.00  0.00     0.080 A 
ATOM     19  C   UNL     1      -0.849   3.129   0.933  1.00  0.00     0.018 A 
ATOM     20  C   UNL     1       0.328   3.594   0.340  1.00  0.00     0.050 A 
ATOM     21  C   UNL     1      -1.742   4.062   1.501  1.00  0.00     0.012 A 
ATOM     22  C   UNL     1       0.625   4.968   0.272  1.00  0.00     0.027 A 
ATOM     23  C   UNL     1      -1.447   5.427   1.445  1.00  0.00     0.001 A 
ATOM     24  C   UNL     1      -0.283   5.872   0.831  1.00  0.00     0.002 A 
BRANCH  18  25
ATOM     25  C   UNL     1      -1.865   0.823   1.274  1.00  0.00     0.102 C 
ATOM     26  N   UNL     1      -2.694   0.079   1.615  1.00  0.00    -0.192 NA
ENDBRANCH  18  25
ENDBRANCH  14  15
ENDBRANCH  12  14
ENDBRANCH   7  12
BRANCH  11  27
ATOM     27  O   UNL     1       4.888   2.233   5.108  1.00  0.00    -0.393 OA
ATOM     28  H   UNL     1       4.724   3.138   4.799  1.00  0.00     0.210 HD
ENDBRANCH  11  27
ENDBRANCH   3   6
ENDBRANCH   1   2
BRANCH   1  29
ATOM     29  C   UNL     1       3.541   4.912   5.647  1.00  0.00     0.042 C 
BRANCH  29  30
ATOM     30  C   UNL     1       3.970   6.250   6.218  1.00  0.00     0.118 C 
BRANCH  30  31
ATOM     31  N   UNL     1       3.053   7.318   5.914  1.00  0.00    -0.352 N 
ATOM     32  C   UNL     1       1.916   7.803   6.495  1.00  0.00     0.251 C 
ATOM     33  H   UNL     1       3.303   7.813   5.101  1.00  0.00     0.163 HD
ATOM     34  O   UNL     1       1.499   8.855   5.998  1.00  0.00    -0.269 OA
BRANCH  32  35
ATOM     35  C   UNL     1       1.115   7.161   7.583  1.00  0.00     0.039 A 
ATOM     36  C   UNL     1       1.362   5.948   8.227  1.00  0.00     0.014 A 
ATOM     37  C   UNL     1      -0.067   7.852   7.919  1.00  0.00     0.014 A 
ATOM     38  C   UNL     1       0.368   5.374   9.039  1.00  0.00     0.010 A 
ATOM     39  C   UNL     1      -1.036   7.304   8.751  1.00  0.00     0.010 A 
ATOM     40  C   UNL     1      -0.869   6.020   9.241  1.00  0.00    -0.014 A 
BRANCH  40  41
ATOM     41  C   UNL     1      -1.871   5.468  10.170  1.00  0.00     0.031 A 
ATOM     42  C   UNL     1      -1.290   5.298  11.528  1.00  0.00     0.074 A 
ATOM     43  C   UNL     1      -3.189   5.251   9.910  1.00  0.00     0.049 A 
ATOM     44  N   UNL     1      -0.943   4.180  12.072  1.00  0.00    -0.248 NA
ATOM     45  C   UNL     1      -0.813   6.485  12.263  1.00  0.00     0.031 C 
ATOM     46  C   UNL     1      -3.934   5.551   8.681  1.00  0.00     0.029 A 
ATOM     47  N   UNL     1      -4.183   4.743  10.715  1.00  0.00    -0.354 N 
ATOM     48  C   UNL     1      -0.470   4.508  13.335  1.00  0.00     0.074 A 
ATOM     49  C   UNL     1      -0.209   5.923  13.313  1.00  0.00     0.031 C 
ATOM     50  C   UNL     1      -5.271   5.440   8.900  1.00  0.00     0.029 A 
ATOM     51  C   UNL     1      -5.493   4.921  10.239  1.00  0.00     0.049 A 
ATOM     52  H   UNL     1      -3.989   4.286  11.565  1.00  0.00     0.167 HD
ATOM     53  C   UNL     1      -0.640   3.644  14.372  1.00  0.00     0.031 A 
ATOM     54  C   UNL     1      -6.680   4.577  10.832  1.00  0.00     0.031 A 
ATOM     55  C   UNL     1      -0.966   2.325  13.887  1.00  0.00     0.049 A 
ATOM     56  C   UNL     1      -6.352   3.534  11.823  1.00  0.00     0.074 A 
ATOM     57  C   UNL     1      -0.328   1.355  13.145  1.00  0.00     0.029 A 
ATOM     58  N   UNL     1      -2.312   2.097  13.774  1.00  0.00    -0.354 N 
ATOM     59  N   UNL     1      -5.948   2.342  11.496  1.00  0.00    -0.248 NA
ATOM     60  C   UNL     1      -6.048   3.966  13.173  1.00  0.00     0.031 C 
ATOM     61  C   UNL     1      -1.346   0.766  12.335  1.00  0.00     0.029 A 
ATOM     62  C   UNL     1      -2.582   1.312  12.688  1.00  0.00     0.049 A 
ATOM     63  H   UNL     1      -2.993   2.450  14.392  1.00  0.00     0.167 HD
ATOM     64  C   UNL     1      -4.942   2.069  12.405  1.00  0.00     0.074 A 
ATOM     65  C   UNL     1      -5.131   3.049  13.480  1.00  0.00     0.031 C 
ATOM     66  C   UNL     1      -3.885   1.280  12.048  1.00  0.00     0.031 A 
BRANCH  53  67
ATOM     67  C   UNL     1      -1.010   4.103  15.768  1.00  0.00    -0.014 A 
ATOM     68  C   UNL     1      -1.413   5.421  16.073  1.00  0.00     0.010 A 
ATOM     69  C   UNL     1      -1.197   3.140  16.780  1.00  0.00     0.010 A 
ATOM     70  C   UNL     1      -1.893   5.784  17.333  1.00  0.00     0.020 A 
ATOM     71  C   UNL     1      -1.714   3.485  18.039  1.00  0.00     0.020 A 
ATOM     72  C   UNL     1      -2.026   4.814  18.317  1.00  0.00     0.054 A 
BRANCH  72  73
ATOM     73  S   UNL     1      -2.592   5.331  19.955  1.00  0.00     0.124 S 
ATOM     74  O   UNL     1      -1.492   6.188  20.391  1.00  0.00    -0.237 OA
ATOM     75  O   UNL     1      -3.844   6.018  19.655  1.00  0.00    -0.237 OA
ATOM     76  O   UNL     1      -2.727   4.073  20.685  1.00  0.00    -0.744 OA
ENDBRANCH  72  73
ENDBRANCH  53  67
BRANCH  54  77
ATOM     77  C   UNL     1      -7.917   5.410  11.040  1.00  0.00    -0.014 A 
ATOM     78  C   UNL     1      -7.838   6.809  10.941  1.00  0.00     0.010 A 
ATOM     79  C   UNL     1      -9.058   4.875  11.696  1.00  0.00     0.010 A 
ATOM     80  C   UNL     1      -8.778   7.641  11.571  1.00  0.00     0.020 A 
ATOM     81  C   UNL     1     -10.010   5.706  12.328  1.00  0.00     0.020 A 
ATOM     82  C   UNL     1      -9.831   7.087  12.302  1.00  0.00     0.054 A 
BRANCH  82  83
ATOM     83  S   UNL     1     -10.869   8.208  13.296  1.00  0.00     0.124 S 
ATOM     84  O   UNL     1      -9.924   8.681  14.304  1.00  0.00    -0.237 OA
ATOM     85  O   UNL     1     -11.287   9.206  12.315  1.00  0.00    -0.237 OA
ATOM     86  O   UNL     1     -11.938   7.347  13.796  1.00  0.00    -0.744 OA
ENDBRANCH  82  83
ENDBRANCH  54  77
BRANCH  66  87
ATOM     87  C   UNL     1      -4.022   0.394  10.822  1.00  0.00    -0.014 A 
ATOM     88  C   UNL     1      -3.746  -0.972  11.011  1.00  0.00     0.010 A 
ATOM     89  C   UNL     1      -4.286   0.842   9.510  1.00  0.00     0.010 A 
ATOM     90  C   UNL     1      -3.700  -1.861   9.939  1.00  0.00     0.020 A 
ATOM     91  C   UNL     1      -4.273  -0.057   8.425  1.00  0.00     0.020 A 
ATOM     92  C   UNL     1      -3.962  -1.401   8.650  1.00  0.00     0.054 A 
BRANCH  92  93
ATOM     93  S   UNL     1      -3.891  -2.608   7.298  1.00  0.00     0.124 S 
ATOM     94  O   UNL     1      -2.460  -2.901   7.221  1.00  0.00    -0.237 OA
ATOM     95  O   UNL     1      -4.721  -3.701   7.802  1.00  0.00    -0.237 OA
ATOM     96  O   UNL     1      -4.443  -1.890   6.154  1.00  0.00    -0.744 OA
ENDBRANCH  92  93
ENDBRANCH  66  87
ENDBRANCH  40  41
ENDBRANCH  32  35
ENDBRANCH  30  31
ENDBRANCH  29  30
ENDBRANCH   1  29
TORSDOF 18
