REMARK SMILES CC[N@@H+]1CC[C@H](C[NH2+]Cc2cc(C(=O)NCCCNC(=O)c3ccc(-c4c5nc(c(-c6ccc(S(=O)(=O)[O-])cc6)c6ccc([nH]6)c(-c6ccc(S(=O)(=O)[O-])cc6)c6nc(c(-c7ccc(S(=O)(=O)[O-])cc7)c7ccc4[nH]7)C=C6)C=C5)cc3)cs2)C1
REMARK SMILES IDX 16 1 15 2 13 3 14 4 12 6 10 7 11 8 83 9 82 10 9 11 8 12 7 15
REMARK SMILES IDX 6 16 3 17 4 18 84 19 5 21 2 22 1 23 17 24 18 25 19 26 20 27
REMARK SMILES IDX 21 29 22 30 23 31 81 32 24 33 80 34 25 35 26 36 27 37 74 38
REMARK SMILES IDX 28 39 79 40 73 41 75 42 29 43 78 44 72 45 71 46 30 48 60 49
REMARK SMILES IDX 41 50 59 51 42 52 45 53 58 54 76 55 43 56 44 57 57 59 77 60
REMARK SMILES IDX 46 61 31 62 32 63 40 64 33 65 39 66 34 67 35 68 36 69 37 70
REMARK SMILES IDX 38 71 61 72 62 73 70 74 63 75 69 76 64 77 65 78 66 79 67 80
REMARK SMILES IDX 68 81 47 82 48 83 56 84 49 85 55 86 50 87 51 88 52 89 53 90
REMARK SMILES IDX 54 91
REMARK H PARENT 15 5 8 13 8 14 3 20 19 28 75 47 45 58
REMARK Flexibility Score: inf
ROOT
ATOM      1  C   UNL     1      -1.241   0.875  -1.881  1.00  0.00     0.118 C 
ENDROOT
BRANCH   1   2
ATOM      2  N   UNL     1      -2.565   0.773  -2.473  1.00  0.00    -0.352 N 
ATOM      3  C   UNL     1      -3.586   1.677  -2.633  1.00  0.00     0.252 C 
ATOM      4  O   UNL     1      -4.651   1.244  -3.085  1.00  0.00    -0.269 OA
ATOM      5  H   UNL     1      -2.770  -0.121  -2.829  1.00  0.00     0.163 HD
BRANCH   3   6
ATOM      6  C   UNL     1      -3.453   3.079  -2.239  1.00  0.00     0.051 A 
ATOM      7  C   UNL     1      -2.532   5.188  -1.727  1.00  0.00     0.059 A 
ATOM      8  C   UNL     1      -2.327   3.962  -2.339  1.00  0.00     0.035 A 
ATOM      9  S   UNL     1      -4.166   5.373  -1.261  1.00  0.00    -0.142 S 
ATOM     10  C   UNL     1      -4.546   3.787  -1.763  1.00  0.00     0.079 A 
BRANCH   7  11
ATOM     11  C   UNL     1      -1.532   6.278  -1.448  1.00  0.00     0.308 C 
BRANCH  11  12
ATOM     12  N   UNL     1      -0.836   6.071  -0.168  1.00  0.00    -0.341 N 
ATOM     13  H   UNL     1      -0.343   6.928   0.083  1.00  0.00     0.346 HD
ATOM     14  H   UNL     1      -1.532   5.830   0.538  1.00  0.00     0.346 HD
BRANCH  12  15
ATOM     15  C   UNL     1       0.127   4.976  -0.248  1.00  0.00     0.270 C 
BRANCH  15  16
ATOM     16  C   UNL     1       0.826   4.644   1.070  1.00  0.00     0.105 C 
ATOM     17  N   UNL     1       1.905   2.795   2.146  1.00  0.00    -0.335 N 
ATOM     18  C   UNL     1       0.870   3.317   3.051  1.00  0.00     0.262 C 
ATOM     19  C   UNL     1       1.751   3.452   0.849  1.00  0.00     0.271 C 
ATOM     20  H   UNL     1       2.830   3.017   2.513  1.00  0.00     0.348 HD
ATOM     21  C   UNL     1      -0.078   4.134   2.182  1.00  0.00     0.076 C 
BRANCH  17  22
ATOM     22  C   UNL     1       1.901   1.332   2.074  1.00  0.00     0.258 C 
ATOM     23  C   UNL     1       2.853   0.782   1.015  1.00  0.00     0.071 C 
ENDBRANCH  17  22
ENDBRANCH  15  16
ENDBRANCH  12  15
ENDBRANCH  11  12
ENDBRANCH   7  11
ENDBRANCH   3   6
ENDBRANCH   1   2
BRANCH   1  24
ATOM     24  C   UNL     1      -1.172   0.385  -0.437  1.00  0.00     0.042 C 
BRANCH  24  25
ATOM     25  C   UNL     1      -1.232  -1.132  -0.249  1.00  0.00     0.118 C 
BRANCH  25  26
ATOM     26  N   UNL     1      -0.104  -1.840  -0.842  1.00  0.00    -0.352 N 
ATOM     27  C   UNL     1       0.984  -2.504  -0.327  1.00  0.00     0.251 C 
ATOM     28  H   UNL     1      -0.127  -1.843  -1.826  1.00  0.00     0.163 HD
ATOM     29  O   UNL     1       1.828  -2.903  -1.131  1.00  0.00    -0.269 OA
BRANCH  27  30
ATOM     30  C   UNL     1       1.213  -2.732   1.126  1.00  0.00     0.039 A 
ATOM     31  C   UNL     1       2.544  -2.798   1.577  1.00  0.00     0.014 A 
ATOM     32  C   UNL     1       0.189  -2.955   2.045  1.00  0.00     0.014 A 
ATOM     33  C   UNL     1       2.842  -2.986   2.932  1.00  0.00     0.010 A 
ATOM     34  C   UNL     1       0.481  -3.108   3.405  1.00  0.00     0.010 A 
ATOM     35  C   UNL     1       1.809  -3.128   3.862  1.00  0.00    -0.014 A 
BRANCH  35  36
ATOM     36  C   UNL     1       2.088  -3.421   5.292  1.00  0.00     0.031 A 
ATOM     37  C   UNL     1       1.809  -4.802   5.822  1.00  0.00     0.074 A 
ATOM     38  C   UNL     1       2.530  -2.462   6.127  1.00  0.00     0.049 A 
ATOM     39  N   UNL     1       1.862  -5.244   7.052  1.00  0.00    -0.248 NA
ATOM     40  C   UNL     1       1.395  -5.812   4.834  1.00  0.00     0.031 C 
ATOM     41  C   UNL     1       2.845  -1.083   5.750  1.00  0.00     0.029 A 
ATOM     42  N   UNL     1       2.773  -2.500   7.479  1.00  0.00    -0.354 N 
ATOM     43  C   UNL     1       1.458  -6.573   6.991  1.00  0.00     0.074 A 
ATOM     44  C   UNL     1       1.139  -6.856   5.608  1.00  0.00     0.031 C 
ATOM     45  C   UNL     1       3.228  -0.405   6.847  1.00  0.00     0.029 A 
ATOM     46  C   UNL     1       3.164  -1.292   8.006  1.00  0.00     0.049 A 
ATOM     47  H   UNL     1       2.677  -3.317   8.020  1.00  0.00     0.167 HD
ATOM     48  C   UNL     1       1.369  -7.481   7.992  1.00  0.00     0.031 A 
ATOM     49  C   UNL     1       3.429  -0.937   9.280  1.00  0.00     0.031 A 
ATOM     50  C   UNL     1       1.706  -7.215   9.363  1.00  0.00     0.049 A 
ATOM     51  C   UNL     1       3.325  -1.965  10.376  1.00  0.00     0.074 A 
ATOM     52  C   UNL     1       1.686  -8.085  10.439  1.00  0.00     0.029 A 
ATOM     53  N   UNL     1       2.131  -5.988   9.847  1.00  0.00    -0.354 N 
ATOM     54  N   UNL     1       2.974  -3.226  10.294  1.00  0.00    -0.248 NA
ATOM     55  C   UNL     1       3.666  -1.522  11.737  1.00  0.00     0.031 C 
ATOM     56  C   UNL     1       2.072  -7.376  11.582  1.00  0.00     0.029 A 
ATOM     57  C   UNL     1       2.369  -6.075  11.208  1.00  0.00     0.049 A 
ATOM     58  H   UNL     1       2.247  -5.175   9.304  1.00  0.00     0.167 HD
ATOM     59  C   UNL     1       3.085  -3.734  11.585  1.00  0.00     0.074 A 
ATOM     60  C   UNL     1       3.540  -2.648  12.427  1.00  0.00     0.031 C 
ATOM     61  C   UNL     1       2.835  -4.990  12.031  1.00  0.00     0.031 A 
BRANCH  48  62
ATOM     62  C   UNL     1       0.864  -8.850   7.629  1.00  0.00    -0.014 A 
ATOM     63  C   UNL     1       1.669  -9.752   6.910  1.00  0.00     0.010 A 
ATOM     64  C   UNL     1      -0.430  -9.240   8.018  1.00  0.00     0.010 A 
ATOM     65  C   UNL     1       1.169 -11.004   6.544  1.00  0.00     0.020 A 
ATOM     66  C   UNL     1      -0.923 -10.501   7.674  1.00  0.00     0.020 A 
ATOM     67  C   UNL     1      -0.127 -11.366   6.920  1.00  0.00     0.054 A 
BRANCH  67  68
ATOM     68  S   UNL     1      -0.754 -12.997   6.435  1.00  0.00     0.124 S 
ATOM     69  O   UNL     1      -1.092 -12.781   5.030  1.00  0.00    -0.237 OA
ATOM     70  O   UNL     1       0.391 -13.870   6.678  1.00  0.00    -0.237 OA
ATOM     71  O   UNL     1      -1.893 -13.208   7.325  1.00  0.00    -0.744 OA
ENDBRANCH  67  68
ENDBRANCH  48  62
BRANCH  49  72
ATOM     72  C   UNL     1       3.824   0.462   9.601  1.00  0.00    -0.014 A 
ATOM     73  C   UNL     1       5.152   0.764   9.951  1.00  0.00     0.010 A 
ATOM     74  C   UNL     1       2.868   1.493   9.584  1.00  0.00     0.010 A 
ATOM     75  C   UNL     1       5.512   2.067  10.304  1.00  0.00     0.020 A 
ATOM     76  C   UNL     1       3.230   2.802   9.916  1.00  0.00     0.020 A 
ATOM     77  C   UNL     1       4.547   3.078  10.289  1.00  0.00     0.054 A 
BRANCH  77  78
ATOM     78  S   UNL     1       5.039   4.771  10.721  1.00  0.00     0.124 S 
ATOM     79  O   UNL     1       5.099   4.706  12.177  1.00  0.00    -0.237 OA
ATOM     80  O   UNL     1       6.324   4.914  10.040  1.00  0.00    -0.237 OA
ATOM     81  O   UNL     1       3.959   5.588  10.172  1.00  0.00    -0.744 OA
ENDBRANCH  77  78
ENDBRANCH  49  72
BRANCH  61  82
ATOM     82  C   UNL     1       3.095  -5.275  13.486  1.00  0.00    -0.014 A 
ATOM     83  C   UNL     1       2.222  -4.818  14.487  1.00  0.00     0.010 A 
ATOM     84  C   UNL     1       4.206  -6.060  13.848  1.00  0.00     0.010 A 
ATOM     85  C   UNL     1       2.471  -5.115  15.830  1.00  0.00     0.020 A 
ATOM     86  C   UNL     1       4.446  -6.378  15.187  1.00  0.00     0.020 A 
ATOM     87  C   UNL     1       3.584  -5.891  16.172  1.00  0.00     0.054 A 
BRANCH  87  88
ATOM     88  S   UNL     1       3.868  -6.303  17.916  1.00  0.00     0.124 S 
ATOM     89  O   UNL     1       4.458  -5.069  18.427  1.00  0.00    -0.237 OA
ATOM     90  O   UNL     1       2.523  -6.604  18.401  1.00  0.00    -0.237 OA
ATOM     91  O   UNL     1       4.772  -7.450  17.856  1.00  0.00    -0.744 OA
ENDBRANCH  87  88
ENDBRANCH  61  82
ENDBRANCH  35  36
ENDBRANCH  27  30
ENDBRANCH  25  26
ENDBRANCH  24  25
ENDBRANCH   1  24
TORSDOF 18
