REMARK SMILES Cn1c(C(=O)N2CCC[C@@H](C(=O)NCCCNC(=O)c3ccc(-c4c5nc(c(-c6ccc(S(=O)(=O)[O-])cc6)c6ccc([nH]6)c(-c6ccc(S(=O)(=O)[O-])cc6)c6nc(c(-c7ccc(S(=O)(=O)[O-])cc7)c7ccc4[nH]7)C=C6)C=C5)cc3)C2)cc2sccc21
REMARK SMILES IDX 15 1 14 2 13 3 11 4 12 5 10 7 6 8 7 9 80 10 8 11 9 12 4 13
REMARK SMILES IDX 5 14 3 15 1 16 2 17 86 18 81 19 82 20 85 21 83 22 84 23
REMARK SMILES IDX 16 24 17 25 18 26 19 28 20 29 21 30 79 31 22 32 78 33 23 34
REMARK SMILES IDX 24 35 25 36 72 37 26 38 77 39 71 40 73 41 27 42 76 43 70 44
REMARK SMILES IDX 69 45 28 47 58 48 39 49 57 50 40 51 43 52 56 53 74 54 41 55
REMARK SMILES IDX 42 56 55 58 75 59 44 60 29 61 30 62 38 63 31 64 37 65 32 66
REMARK SMILES IDX 33 67 34 68 35 69 36 70 59 71 60 72 68 73 61 74 67 75 62 76
REMARK SMILES IDX 63 77 64 78 65 79 66 80 45 81 46 82 54 83 47 84 53 85 48 86
REMARK SMILES IDX 49 87 50 88 51 89 52 90
REMARK H PARENT 13 6 17 27 73 46 43 57
REMARK Flexibility Score: inf
ROOT
ATOM      1  C   UNL     1       3.161   5.254   5.983  1.00  0.00     0.042 C 
ENDROOT
BRANCH   1   2
ATOM      2  C   UNL     1       2.944   3.745   5.844  1.00  0.00     0.117 C 
BRANCH   2   3
ATOM      3  N   UNL     1       2.066   3.206   6.872  1.00  0.00    -0.356 N 
ATOM      4  C   UNL     1       0.753   2.844   6.810  1.00  0.00     0.224 C 
ATOM      5  O   UNL     1       0.227   2.372   7.818  1.00  0.00    -0.275 OA
ATOM      6  H   UNL     1       2.487   3.083   7.753  1.00  0.00     0.163 HD
BRANCH   4   7
ATOM      7  C   UNL     1      -0.013   2.991   5.512  1.00  0.00     0.098 C 
ATOM      8  N   UNL     1      -1.147   1.710   3.750  1.00  0.00    -0.337 N 
ATOM      9  C   UNL     1      -2.347   2.534   3.832  1.00  0.00     0.120 C 
ATOM     10  C   UNL     1      -0.359   1.593   4.981  1.00  0.00     0.133 C 
ATOM     11  C   UNL     1      -2.054   3.918   4.397  1.00  0.00     0.022 C 
ATOM     12  C   UNL     1      -1.289   3.818   5.718  1.00  0.00     0.017 C 
BRANCH   8  13
ATOM     13  C   UNL     1      -0.744   1.225   2.509  1.00  0.00     0.270 C 
ATOM     14  O   UNL     1      -0.963   1.880   1.491  1.00  0.00    -0.267 OA
BRANCH  13  15
ATOM     15  C   UNL     1      -0.183  -0.127   2.457  1.00  0.00     0.108 A 
ATOM     16  C   UNL     1       0.931  -0.038   0.153  1.00  0.00     0.150 C 
ATOM     17  N   UNL     1       0.487  -0.671   1.371  1.00  0.00    -0.339 N 
ATOM     18  C   UNL     1       0.659  -2.025   1.582  1.00  0.00     0.059 A 
ATOM     19  C   UNL     1      -0.342  -1.146   3.394  1.00  0.00     0.053 A 
ATOM     20  C   UNL     1       0.183  -2.331   2.817  1.00  0.00     0.053 A 
ATOM     21  C   UNL     1       1.164  -3.151   0.872  1.00  0.00     0.038 A 
ATOM     22  S   UNL     1       0.351  -4.012   3.195  1.00  0.00    -0.142 S 
ATOM     23  C   UNL     1       1.033  -4.288   1.640  1.00  0.00     0.068 A 
ENDBRANCH  13  15
ENDBRANCH   8  13
ENDBRANCH   4   7
ENDBRANCH   2   3
ENDBRANCH   1   2
BRANCH   1  24
ATOM     24  C   UNL     1       4.071   5.606   7.154  1.00  0.00     0.118 C 
BRANCH  24  25
ATOM     25  N   UNL     1       5.446   5.138   6.960  1.00  0.00    -0.352 N 
ATOM     26  C   UNL     1       6.527   5.247   7.819  1.00  0.00     0.251 C 
ATOM     27  H   UNL     1       5.626   4.685   6.105  1.00  0.00     0.163 HD
ATOM     28  O   UNL     1       7.663   5.091   7.407  1.00  0.00    -0.269 OA
BRANCH  26  29
ATOM     29  C   UNL     1       6.276   5.574   9.236  1.00  0.00     0.039 A 
ATOM     30  C   UNL     1       7.062   6.513   9.910  1.00  0.00     0.014 A 
ATOM     31  C   UNL     1       5.203   4.959   9.871  1.00  0.00     0.014 A 
ATOM     32  C   UNL     1       6.696   6.902  11.198  1.00  0.00     0.010 A 
ATOM     33  C   UNL     1       4.759   5.449  11.074  1.00  0.00     0.010 A 
ATOM     34  C   UNL     1       5.523   6.386  11.768  1.00  0.00    -0.014 A 
BRANCH  34  35
ATOM     35  C   UNL     1       5.005   6.909  13.034  1.00  0.00     0.031 A 
ATOM     36  C   UNL     1       4.767   8.383  13.067  1.00  0.00     0.074 A 
ATOM     37  C   UNL     1       4.505   6.099  13.995  1.00  0.00     0.049 A 
ATOM     38  N   UNL     1       5.283   9.262  13.863  1.00  0.00    -0.248 NA
ATOM     39  C   UNL     1       3.920   8.967  12.011  1.00  0.00     0.031 C 
ATOM     40  C   UNL     1       4.368   4.636  13.951  1.00  0.00     0.029 A 
ATOM     41  N   UNL     1       3.854   6.421  15.147  1.00  0.00    -0.354 N 
ATOM     42  C   UNL     1       4.672  10.476  13.549  1.00  0.00     0.074 A 
ATOM     43  C   UNL     1       3.984  10.268  12.300  1.00  0.00     0.031 C 
ATOM     44  C   UNL     1       3.450   4.241  14.858  1.00  0.00     0.029 A 
ATOM     45  C   UNL     1       3.081   5.386  15.668  1.00  0.00     0.049 A 
ATOM     46  H   UNL     1       3.923   7.306  15.573  1.00  0.00     0.167 HD
ATOM     47  C   UNL     1       4.569  11.492  14.452  1.00  0.00     0.031 A 
ATOM     48  C   UNL     1       2.166   5.465  16.665  1.00  0.00     0.031 A 
ATOM     49  C   UNL     1       5.436  11.292  15.583  1.00  0.00     0.049 A 
ATOM     50  C   UNL     1       2.453   6.705  17.420  1.00  0.00     0.074 A 
ATOM     51  C   UNL     1       6.797  11.154  15.759  1.00  0.00     0.029 A 
ATOM     52  N   UNL     1       4.852  10.820  16.735  1.00  0.00    -0.354 N 
ATOM     53  N   UNL     1       3.546   6.895  18.105  1.00  0.00    -0.248 NA
ATOM     54  C   UNL     1       1.720   7.911  17.072  1.00  0.00     0.031 C 
ATOM     55  C   UNL     1       6.936  10.178  16.789  1.00  0.00     0.029 A 
ATOM     56  C   UNL     1       5.657   9.828  17.230  1.00  0.00     0.049 A 
ATOM     57  H   UNL     1       4.009  11.137  17.132  1.00  0.00     0.167 HD
ATOM     58  C   UNL     1       3.868   8.227  17.896  1.00  0.00     0.074 A 
ATOM     59  C   UNL     1       2.650   8.827  17.355  1.00  0.00     0.031 C 
ATOM     60  C   UNL     1       5.167   8.651  17.918  1.00  0.00     0.031 A 
BRANCH  47  61
ATOM     61  C   UNL     1       3.399  12.449  14.512  1.00  0.00    -0.014 A 
ATOM     62  C   UNL     1       3.420  13.501  15.454  1.00  0.00     0.010 A 
ATOM     63  C   UNL     1       2.165  12.186  13.882  1.00  0.00     0.010 A 
ATOM     64  C   UNL     1       2.252  14.197  15.797  1.00  0.00     0.020 A 
ATOM     65  C   UNL     1       1.006  12.904  14.182  1.00  0.00     0.020 A 
ATOM     66  C   UNL     1       1.048  13.881  15.167  1.00  0.00     0.054 A 
BRANCH  66  67
ATOM     67  S   UNL     1      -0.477  14.701  15.694  1.00  0.00     0.124 S 
ATOM     68  O   UNL     1      -0.645  14.180  17.046  1.00  0.00    -0.237 OA
ATOM     69  O   UNL     1      -0.118  16.114  15.597  1.00  0.00    -0.237 OA
ATOM     70  O   UNL     1      -1.464  14.247  14.717  1.00  0.00    -0.744 OA
ENDBRANCH  66  67
ENDBRANCH  47  61
BRANCH  48  71
ATOM     71  C   UNL     1       0.905   4.697  16.822  1.00  0.00    -0.014 A 
ATOM     72  C   UNL     1       0.212   4.687  18.046  1.00  0.00     0.010 A 
ATOM     73  C   UNL     1       0.234   4.199  15.685  1.00  0.00     0.010 A 
ATOM     74  C   UNL     1      -1.125   4.257  18.118  1.00  0.00     0.020 A 
ATOM     75  C   UNL     1      -1.095   3.761  15.751  1.00  0.00     0.020 A 
ATOM     76  C   UNL     1      -1.777   3.818  16.963  1.00  0.00     0.054 A 
BRANCH  76  77
ATOM     77  S   UNL     1      -3.557   3.448  17.028  1.00  0.00     0.124 S 
ATOM     78  O   UNL     1      -3.589   2.207  17.796  1.00  0.00    -0.237 OA
ATOM     79  O   UNL     1      -4.101   4.623  17.702  1.00  0.00    -0.237 OA
ATOM     80  O   UNL     1      -3.933   3.317  15.621  1.00  0.00    -0.744 OA
ENDBRANCH  76  77
ENDBRANCH  48  71
BRANCH  60  81
ATOM     81  C   UNL     1       6.218   7.724  18.488  1.00  0.00    -0.014 A 
ATOM     82  C   UNL     1       6.527   6.457  17.954  1.00  0.00     0.010 A 
ATOM     83  C   UNL     1       7.031   8.231  19.518  1.00  0.00     0.010 A 
ATOM     84  C   UNL     1       7.604   5.710  18.457  1.00  0.00     0.020 A 
ATOM     85  C   UNL     1       8.115   7.501  20.010  1.00  0.00     0.020 A 
ATOM     86  C   UNL     1       8.392   6.239  19.483  1.00  0.00     0.054 A 
BRANCH  86  87
ATOM     87  S   UNL     1       9.814   5.294  20.100  1.00  0.00     0.124 S 
ATOM     88  O   UNL     1       9.177   4.174  20.787  1.00  0.00    -0.237 OA
ATOM     89  O   UNL     1      10.535   4.954  18.875  1.00  0.00    -0.237 OA
ATOM     90  O   UNL     1      10.508   6.239  20.974  1.00  0.00    -0.744 OA
ENDBRANCH  86  87
ENDBRANCH  60  81
ENDBRANCH  34  35
ENDBRANCH  26  29
ENDBRANCH  24  25
ENDBRANCH   1  24
TORSDOF 15
