REMARK SMILES O=C(NCCCNC(=O)c1cn(-c2cc(Cl)ncn2)cn1)c1ccc(-c2c3nc(c(-c4ccc(S(=O)(=O)[O-])cc4)c4ccc([nH]4)c(-c4ccc(S(=O)(=O)[O-])cc4)c4nc(c(-c5ccc(S(=O)(=O)[O-])cc5)c5ccc2[nH]5)C=C4)C=C3)cc1
REMARK SMILES IDX 4 1 3 2 1 3 2 4 22 6 23 7 81 8 24 9 80 10 25 11 26 12 27 13
REMARK SMILES IDX 74 14 28 15 79 16 73 17 75 18 29 19 78 20 72 21 71 22 30 24
REMARK SMILES IDX 60 25 41 26 59 27 42 28 45 29 58 30 76 31 43 32 44 33 57 35
REMARK SMILES IDX 77 36 46 37 31 38 32 39 40 40 33 41 39 42 34 43 35 44 36 45
REMARK SMILES IDX 37 46 38 47 61 48 62 49 70 50 63 51 69 52 64 53 65 54 66 55
REMARK SMILES IDX 67 56 68 57 47 58 48 59 56 60 49 61 55 62 50 63 51 64 52 65
REMARK SMILES IDX 53 66 54 67 5 68 6 69 7 70 8 71 9 73 10 74 11 75 21 76 12 77
REMARK SMILES IDX 20 78 13 79 14 80 19 81 15 82 18 83 16 84 17 85
REMARK H PARENT 3 5 75 23 45 34 7 72
REMARK Flexibility Score: inf
ROOT
ATOM      1  C   UNL     1       4.726   0.954   0.334  1.00  0.00     0.118 C 
ENDROOT
BRANCH   1   2
ATOM      2  N   UNL     1       3.322   0.780   0.656  1.00  0.00    -0.352 N 
ATOM      3  O   UNL     1       1.202   0.206   0.723  1.00  0.00    -0.269 OA
ATOM      4  C   UNL     1       2.248   0.170   0.067  1.00  0.00     0.251 C 
ATOM      5  H   UNL     1       3.083   1.206   1.510  1.00  0.00     0.163 HD
BRANCH   4   6
ATOM      6  C   UNL     1       2.233  -0.498  -1.268  1.00  0.00     0.039 A 
ATOM      7  C   UNL     1       3.327  -0.668  -2.116  1.00  0.00     0.014 A 
ATOM      8  C   UNL     1       0.984  -0.994  -1.696  1.00  0.00     0.014 A 
ATOM      9  C   UNL     1       3.174  -1.292  -3.360  1.00  0.00     0.010 A 
ATOM     10  C   UNL     1       0.829  -1.625  -2.933  1.00  0.00     0.010 A 
ATOM     11  C   UNL     1       1.925  -1.763  -3.780  1.00  0.00    -0.014 A 
BRANCH  11  12
ATOM     12  C   UNL     1       1.840  -2.450  -5.074  1.00  0.00     0.031 A 
ATOM     13  C   UNL     1       2.575  -3.745  -5.211  1.00  0.00     0.074 A 
ATOM     14  C   UNL     1       1.026  -2.097  -6.090  1.00  0.00     0.049 A 
ATOM     15  N   UNL     1       3.521  -4.054  -6.040  1.00  0.00    -0.248 NA
ATOM     16  C   UNL     1       2.198  -4.833  -4.298  1.00  0.00     0.031 C 
ATOM     17  C   UNL     1      -0.061  -1.117  -6.080  1.00  0.00     0.029 A 
ATOM     18  N   UNL     1       0.947  -2.643  -7.342  1.00  0.00    -0.354 N 
ATOM     19  C   UNL     1       3.765  -5.417  -5.864  1.00  0.00     0.074 A 
ATOM     20  C   UNL     1       2.978  -5.827  -4.726  1.00  0.00     0.031 C 
ATOM     21  C   UNL     1      -0.821  -1.290  -7.186  1.00  0.00     0.029 A 
ATOM     22  C   UNL     1      -0.192  -2.283  -8.043  1.00  0.00     0.049 A 
ATOM     23  H   UNL     1       1.637  -3.240  -7.711  1.00  0.00     0.167 HD
ATOM     24  C   UNL     1       4.487  -6.170  -6.741  1.00  0.00     0.031 A 
ATOM     25  C   UNL     1      -0.623  -2.797  -9.219  1.00  0.00     0.031 A 
ATOM     26  C   UNL     1       5.231  -5.379  -7.679  1.00  0.00     0.049 A 
ATOM     27  C   UNL     1       0.520  -3.451  -9.895  1.00  0.00     0.074 A 
ATOM     28  C   UNL     1       6.244  -4.446  -7.594  1.00  0.00     0.029 A 
ATOM     29  N   UNL     1       4.753  -5.300  -8.964  1.00  0.00    -0.354 N 
ATOM     30  N   UNL     1       1.547  -2.816 -10.384  1.00  0.00    -0.248 NA
ATOM     31  C   UNL     1       0.677  -4.893  -9.785  1.00  0.00     0.031 C 
ATOM     32  C   UNL     1       6.021  -3.550  -8.679  1.00  0.00     0.029 A 
ATOM     33  C   UNL     1       4.886  -3.993  -9.362  1.00  0.00     0.049 A 
ATOM     34  H   UNL     1       4.384  -6.040  -9.498  1.00  0.00     0.167 HD
ATOM     35  C   UNL     1       2.604  -3.705 -10.280  1.00  0.00     0.074 A 
ATOM     36  C   UNL     1       1.982  -5.001 -10.043  1.00  0.00     0.031 C 
ATOM     37  C   UNL     1       3.888  -3.267 -10.122  1.00  0.00     0.031 A 
BRANCH  24  38
ATOM     38  C   UNL     1       4.309  -7.656  -6.934  1.00  0.00    -0.014 A 
ATOM     39  C   UNL     1       5.273  -8.383  -7.665  1.00  0.00     0.010 A 
ATOM     40  C   UNL     1       3.098  -8.313  -6.639  1.00  0.00     0.010 A 
ATOM     41  C   UNL     1       5.019  -9.688  -8.111  1.00  0.00     0.020 A 
ATOM     42  C   UNL     1       2.852  -9.630  -7.042  1.00  0.00     0.020 A 
ATOM     43  C   UNL     1       3.802 -10.298  -7.806  1.00  0.00     0.054 A 
BRANCH  43  44
ATOM     44  S   UNL     1       3.444 -11.945  -8.471  1.00  0.00     0.124 S 
ATOM     45  O   UNL     1       3.261 -11.661  -9.891  1.00  0.00    -0.237 OA
ATOM     46  O   UNL     1       4.649 -12.694  -8.125  1.00  0.00    -0.237 OA
ATOM     47  O   UNL     1       2.238 -12.349  -7.751  1.00  0.00    -0.744 OA
ENDBRANCH  43  44
ENDBRANCH  24  38
BRANCH  25  48
ATOM     48  C   UNL     1      -2.019  -2.966  -9.686  1.00  0.00    -0.014 A 
ATOM     49  C   UNL     1      -2.306  -3.201 -11.043  1.00  0.00     0.010 A 
ATOM     50  C   UNL     1      -3.052  -3.166  -8.748  1.00  0.00     0.010 A 
ATOM     51  C   UNL     1      -3.567  -3.674 -11.440  1.00  0.00     0.020 A 
ATOM     52  C   UNL     1      -4.314  -3.626  -9.138  1.00  0.00     0.020 A 
ATOM     53  C   UNL     1      -4.558  -3.901 -10.481  1.00  0.00     0.054 A 
BRANCH  53  54
ATOM     54  S   UNL     1      -6.121  -4.681 -10.980  1.00  0.00     0.124 S 
ATOM     55  O   UNL     1      -6.783  -3.607 -11.713  1.00  0.00    -0.237 OA
ATOM     56  O   UNL     1      -5.668  -5.812 -11.785  1.00  0.00    -0.237 OA
ATOM     57  O   UNL     1      -6.745  -5.042  -9.708  1.00  0.00    -0.744 OA
ENDBRANCH  53  54
ENDBRANCH  25  48
BRANCH  37  58
ATOM     58  C   UNL     1       4.206  -1.825 -10.446  1.00  0.00    -0.014 A 
ATOM     59  C   UNL     1       3.594  -0.738  -9.793  1.00  0.00     0.010 A 
ATOM     60  C   UNL     1       5.274  -1.562 -11.324  1.00  0.00     0.010 A 
ATOM     61  C   UNL     1       4.025   0.575 -10.024  1.00  0.00     0.020 A 
ATOM     62  C   UNL     1       5.723  -0.255 -11.544  1.00  0.00     0.020 A 
ATOM     63  C   UNL     1       5.093   0.808 -10.895  1.00  0.00     0.054 A 
BRANCH  63  64
ATOM     64  S   UNL     1       5.705   2.503 -11.110  1.00  0.00     0.124 S 
ATOM     65  O   UNL     1       4.661   3.118 -11.923  1.00  0.00    -0.237 OA
ATOM     66  O   UNL     1       5.802   2.993  -9.736  1.00  0.00    -0.237 OA
ATOM     67  O   UNL     1       6.991   2.325 -11.783  1.00  0.00    -0.744 OA
ENDBRANCH  63  64
ENDBRANCH  37  58
ENDBRANCH  11  12
ENDBRANCH   4   6
ENDBRANCH   1   2
BRANCH   1  68
ATOM     68  C   UNL     1       5.011   2.128  -0.601  1.00  0.00     0.042 C 
BRANCH  68  69
ATOM     69  C   UNL     1       4.449   3.470  -0.130  1.00  0.00     0.118 C 
BRANCH  69  70
ATOM     70  N   UNL     1       5.024   3.935   1.125  1.00  0.00    -0.351 N 
ATOM     71  C   UNL     1       5.852   5.014   1.363  1.00  0.00     0.271 C 
ATOM     72  H   UNL     1       4.788   3.402   1.919  1.00  0.00     0.163 HD
ATOM     73  O   UNL     1       6.231   5.248   2.493  1.00  0.00    -0.267 OA
BRANCH  71  74
ATOM     74  C   UNL     1       6.215   5.840   0.210  1.00  0.00     0.146 A 
ATOM     75  C   UNL     1       5.387   6.718  -0.469  1.00  0.00     0.128 A 
ATOM     76  N   UNL     1       7.447   5.776  -0.403  1.00  0.00    -0.231 NA
ATOM     77  N   UNL     1       6.074   7.060  -1.611  1.00  0.00    -0.290 N 
ATOM     78  C   UNL     1       7.324   6.500  -1.494  1.00  0.00     0.206 A 
BRANCH  77  79
ATOM     79  C   UNL     1       5.589   7.756  -2.748  1.00  0.00     0.142 A 
ATOM     80  C   UNL     1       4.455   8.530  -2.657  1.00  0.00     0.088 A 
ATOM     81  N   UNL     1       6.256   7.570  -3.909  1.00  0.00    -0.219 NA
ATOM     82  C   UNL     1       4.046   9.091  -3.842  1.00  0.00     0.134 A 
ATOM     83  C   UNL     1       5.716   8.116  -5.008  1.00  0.00     0.226 A 
ATOM     84  Cl  UNL     1       2.689  10.142  -3.883  1.00  0.00    -0.062 Cl
ATOM     85  N   UNL     1       4.636   8.901  -5.030  1.00  0.00    -0.224 NA
ENDBRANCH  77  79
ENDBRANCH  71  74
ENDBRANCH  69  70
ENDBRANCH  68  69
ENDBRANCH   1  68
TORSDOF 14
