REMARK SMILES Cc1ccccc1C(=O)Nc1cc(NC(=O)c2ccccc2C)cc(C(=O)NCCCNC(=O)c2ccc(-c3c4nc(c(-c5ccc(S(=O)(=O)[O-])cc5)c5ccc([nH]5)c(-c5ccc(S(=O)(=O)[O-])cc5)c5nc(c(-c6ccc(S(=O)(=O)[O-])cc6)c6ccc3[nH]6)C=C5)C=C4)cc2)c1
REMARK SMILES IDX 30 1 29 2 28 3 26 4 27 5 25 7 11 8 12 9 95 10 13 11 24 12
REMARK SMILES IDX 10 13 8 14 9 15 7 17 1 18 2 19 3 20 4 21 6 22 5 23 14 24
REMARK SMILES IDX 15 25 16 27 17 28 18 29 22 30 19 31 21 32 23 33 20 34 31 35
REMARK SMILES IDX 32 36 33 37 34 39 35 40 36 41 94 42 37 43 93 44 38 45 39 46
REMARK SMILES IDX 40 47 87 48 41 49 92 50 86 51 88 52 42 53 91 54 85 55 84 56
REMARK SMILES IDX 43 58 73 59 54 60 72 61 55 62 58 63 71 64 89 65 56 66 57 67
REMARK SMILES IDX 70 69 90 70 59 71 44 72 45 73 53 74 46 75 52 76 47 77 48 78
REMARK SMILES IDX 49 79 50 80 51 81 74 82 75 83 83 84 76 85 82 86 77 87 78 88
REMARK SMILES IDX 79 89 80 90 81 91 60 92 61 93 69 94 62 95 68 96 63 97 64 98
REMARK SMILES IDX 65 99 66 100 67 101
REMARK H PARENT 28 6 10 16 14 26 32 38 88 57 58 68
REMARK Flexibility Score: inf
ROOT
ATOM      1  C   UNL     1       6.978  -3.354   0.117  1.00  0.00     0.042 C 
ENDROOT
BRANCH   1   2
ATOM      2  C   UNL     1       6.383  -2.926   1.459  1.00  0.00     0.118 C 
BRANCH   2   3
ATOM      3  N   UNL     1       6.748  -1.559   1.808  1.00  0.00    -0.352 N 
ATOM      4  C   UNL     1       6.178  -0.342   1.528  1.00  0.00     0.251 C 
ATOM      5  O   UNL     1       6.657   0.657   2.068  1.00  0.00    -0.269 OA
ATOM      6  H   UNL     1       7.565  -1.496   2.354  1.00  0.00     0.163 HD
BRANCH   4   7
ATOM      7  C   UNL     1       4.995  -0.151   0.636  1.00  0.00     0.043 A 
ATOM      8  C   UNL     1       3.071   1.231   0.089  1.00  0.00     0.044 A 
ATOM      9  C   UNL     1       2.704   0.349  -0.931  1.00  0.00     0.052 A 
ATOM     10  C   UNL     1       4.258   1.028   0.802  1.00  0.00     0.040 A 
ATOM     11  C   UNL     1       3.462  -0.796  -1.154  1.00  0.00     0.044 A 
ATOM     12  C   UNL     1       4.570  -1.051  -0.340  1.00  0.00     0.040 A 
BRANCH   8  13
ATOM     13  N   UNL     1       2.250   2.280   0.526  1.00  0.00    -0.322 N 
ATOM     14  C   UNL     1       0.876   2.345   0.621  1.00  0.00     0.255 C 
ATOM     15  O   UNL     1       0.339   3.417   0.906  1.00  0.00    -0.269 OA
ATOM     16  H   UNL     1       2.727   3.094   0.809  1.00  0.00     0.170 HD
BRANCH  14  17
ATOM     17  C   UNL     1       0.010   1.145   0.444  1.00  0.00     0.043 A 
ATOM     18  C   UNL     1       1.275  -0.389   2.096  1.00  0.00     0.045 C 
ATOM     19  C   UNL     1       0.207  -0.101   1.077  1.00  0.00    -0.038 A 
ATOM     20  C   UNL     1      -0.657  -1.164   0.752  1.00  0.00     0.004 A 
ATOM     21  C   UNL     1      -1.745  -0.975  -0.100  1.00  0.00     0.000 A 
ATOM     22  C   UNL     1      -1.113   1.333  -0.380  1.00  0.00     0.014 A 
ATOM     23  C   UNL     1      -1.990   0.281  -0.644  1.00  0.00     0.001 A 
ENDBRANCH  14  17
ENDBRANCH   8  13
BRANCH  11  24
ATOM     24  N   UNL     1       3.157  -1.779  -2.111  1.00  0.00    -0.322 N 
ATOM     25  C   UNL     1       2.440  -1.724  -3.280  1.00  0.00     0.255 C 
ATOM     26  H   UNL     1       3.523  -2.669  -1.905  1.00  0.00     0.170 HD
ATOM     27  O   UNL     1       2.067  -2.763  -3.823  1.00  0.00    -0.269 OA
BRANCH  25  28
ATOM     28  C   UNL     1       2.175  -0.438  -3.961  1.00  0.00     0.043 A 
ATOM     29  C   UNL     1       0.843  -0.202  -4.334  1.00  0.00     0.014 A 
ATOM     30  C   UNL     1       3.187   0.477  -4.313  1.00  0.00    -0.038 A 
ATOM     31  C   UNL     1       0.497   0.972  -4.998  1.00  0.00     0.001 A 
ATOM     32  C   UNL     1       2.811   1.670  -4.952  1.00  0.00     0.004 A 
ATOM     33  C   UNL     1       4.649   0.256  -4.038  1.00  0.00     0.045 C 
ATOM     34  C   UNL     1       1.479   1.914  -5.293  1.00  0.00     0.000 A 
ENDBRANCH  25  28
ENDBRANCH  11  24
ENDBRANCH   4   7
ENDBRANCH   2   3
ENDBRANCH   1   2
BRANCH   1  35
ATOM     35  C   UNL     1       8.357  -3.973   0.236  1.00  0.00     0.118 C 
BRANCH  35  36
ATOM     36  N   UNL     1       8.425  -5.294  -0.385  1.00  0.00    -0.352 N 
ATOM     37  C   UNL     1       9.560  -6.047  -0.644  1.00  0.00     0.251 C 
ATOM     38  H   UNL     1       7.566  -5.695  -0.650  1.00  0.00     0.163 HD
ATOM     39  O   UNL     1       9.550  -7.062  -1.281  1.00  0.00    -0.269 OA
BRANCH  37  40
ATOM     40  C   UNL     1      10.791  -5.572   0.027  1.00  0.00     0.039 A 
ATOM     41  C   UNL     1      11.164  -6.247   1.195  1.00  0.00     0.014 A 
ATOM     42  C   UNL     1      11.296  -4.313  -0.286  1.00  0.00     0.014 A 
ATOM     43  C   UNL     1      11.921  -5.580   2.149  1.00  0.00     0.010 A 
ATOM     44  C   UNL     1      11.970  -3.623   0.702  1.00  0.00     0.010 A 
ATOM     45  C   UNL     1      12.235  -4.239   1.936  1.00  0.00    -0.014 A 
BRANCH  45  46
ATOM     46  C   UNL     1      12.792  -3.374   2.969  1.00  0.00     0.031 A 
ATOM     47  C   UNL     1      14.223  -2.995   2.901  1.00  0.00     0.074 A 
ATOM     48  C   UNL     1      12.008  -2.874   3.951  1.00  0.00     0.049 A 
ATOM     49  N   UNL     1      14.905  -2.534   3.895  1.00  0.00    -0.248 NA
ATOM     50  C   UNL     1      15.034  -3.211   1.702  1.00  0.00     0.031 C 
ATOM     51  C   UNL     1      12.331  -1.762   4.842  1.00  0.00     0.029 A 
ATOM     52  N   UNL     1      10.847  -3.421   4.505  1.00  0.00    -0.354 N 
ATOM     53  C   UNL     1      16.107  -2.092   3.392  1.00  0.00     0.074 A 
ATOM     54  C   UNL     1      16.197  -2.671   2.076  1.00  0.00     0.031 C 
ATOM     55  C   UNL     1      11.610  -1.890   5.966  1.00  0.00     0.029 A 
ATOM     56  C   UNL     1      10.915  -3.163   5.886  1.00  0.00     0.049 A 
ATOM     57  H   UNL     1      10.127  -3.891   4.025  1.00  0.00     0.167 HD
ATOM     58  C   UNL     1      16.813  -1.151   4.080  1.00  0.00     0.031 A 
ATOM     59  C   UNL     1      10.929  -4.127   6.853  1.00  0.00     0.031 A 
ATOM     60  C   UNL     1      16.309  -0.995   5.444  1.00  0.00     0.049 A 
ATOM     61  C   UNL     1      12.144  -4.049   7.754  1.00  0.00     0.074 A 
ATOM     62  C   UNL     1      15.557  -0.022   6.078  1.00  0.00     0.029 A 
ATOM     63  N   UNL     1      16.347  -2.088   6.303  1.00  0.00    -0.354 N 
ATOM     64  N   UNL     1      13.204  -3.340   7.482  1.00  0.00    -0.248 NA
ATOM     65  C   UNL     1      12.286  -4.798   9.001  1.00  0.00     0.031 C 
ATOM     66  C   UNL     1      15.045  -0.585   7.280  1.00  0.00     0.029 A 
ATOM     67  C   UNL     1      15.526  -1.878   7.394  1.00  0.00     0.049 A 
ATOM     68  H   UNL     1      16.884  -2.899   6.155  1.00  0.00     0.167 HD
ATOM     69  C   UNL     1      14.148  -3.524   8.456  1.00  0.00     0.074 A 
ATOM     70  C   UNL     1      13.521  -4.437   9.395  1.00  0.00     0.031 C 
ATOM     71  C   UNL     1      15.372  -2.921   8.401  1.00  0.00     0.031 A 
BRANCH  58  72
ATOM     72  C   UNL     1      17.798  -0.192   3.436  1.00  0.00    -0.014 A 
ATOM     73  C   UNL     1      18.321   0.882   4.187  1.00  0.00     0.010 A 
ATOM     74  C   UNL     1      18.148  -0.206   2.070  1.00  0.00     0.010 A 
ATOM     75  C   UNL     1      19.100   1.897   3.599  1.00  0.00     0.020 A 
ATOM     76  C   UNL     1      18.940   0.784   1.474  1.00  0.00     0.020 A 
ATOM     77  C   UNL     1      19.394   1.847   2.238  1.00  0.00     0.054 A 
BRANCH  77  78
ATOM     78  S   UNL     1      20.339   3.184   1.464  1.00  0.00     0.124 S 
ATOM     79  O   UNL     1      19.435   4.323   1.602  1.00  0.00    -0.237 OA
ATOM     80  O   UNL     1      21.549   3.234   2.279  1.00  0.00    -0.237 OA
ATOM     81  O   UNL     1      20.538   2.719   0.092  1.00  0.00    -0.744 OA
ENDBRANCH  77  78
ENDBRANCH  58  72
BRANCH  59  82
ATOM     82  C   UNL     1      10.211  -5.377   6.486  1.00  0.00    -0.014 A 
ATOM     83  C   UNL     1       8.804  -5.306   6.401  1.00  0.00     0.010 A 
ATOM     84  C   UNL     1      10.884  -6.413   5.814  1.00  0.00     0.010 A 
ATOM     85  C   UNL     1       8.106  -6.127   5.512  1.00  0.00     0.020 A 
ATOM     86  C   UNL     1      10.183  -7.240   4.925  1.00  0.00     0.020 A 
ATOM     87  C   UNL     1       8.813  -7.038   4.728  1.00  0.00     0.054 A 
BRANCH  87  88
ATOM     88  S   UNL     1       7.951  -7.781   3.309  1.00  0.00     0.124 S 
ATOM     89  O   UNL     1       6.849  -8.491   3.949  1.00  0.00    -0.237 OA
ATOM     90  O   UNL     1       7.570  -6.598   2.535  1.00  0.00    -0.237 OA
ATOM     91  O   UNL     1       8.974  -8.621   2.697  1.00  0.00    -0.744 OA
ENDBRANCH  87  88
ENDBRANCH  59  82
BRANCH  71  92
ATOM     92  C   UNL     1      16.534  -3.203   9.322  1.00  0.00    -0.014 A 
ATOM     93  C   UNL     1      16.738  -4.425   9.981  1.00  0.00     0.010 A 
ATOM     94  C   UNL     1      17.561  -2.235   9.432  1.00  0.00     0.010 A 
ATOM     95  C   UNL     1      17.882  -4.648  10.763  1.00  0.00     0.020 A 
ATOM     96  C   UNL     1      18.723  -2.462  10.174  1.00  0.00     0.020 A 
ATOM     97  C   UNL     1      18.865  -3.663  10.858  1.00  0.00     0.054 A 
BRANCH  97  98
ATOM     98  S   UNL     1      20.371  -3.980  11.814  1.00  0.00     0.124 S 
ATOM     99  O   UNL     1      19.986  -3.516  13.144  1.00  0.00    -0.237 OA
ATOM    100  O   UNL     1      20.548  -5.425  11.682  1.00  0.00    -0.237 OA
ATOM    101  O   UNL     1      21.382  -3.174  11.135  1.00  0.00    -0.744 OA
ENDBRANCH  97  98
ENDBRANCH  71  92
ENDBRANCH  45  46
ENDBRANCH  37  40
ENDBRANCH  35  36
ENDBRANCH   1  35
TORSDOF 17
