REMARK SMILES CC(C)(C)OC(=O)NC[C@H]1CC[C@@H](C(=O)NCCCNC(=O)c2ccc(-c3c4nc(c(-c5ccc(S(=O)(=O)[O-])cc5)c5ccc([nH]5)c(-c5ccc(S(=O)(=O)[O-])cc5)c5nc(c(-c6ccc(S(=O)(=O)[O-])cc6)c6ccc3[nH]6)C=C5)C=C4)cc2)CC1
REMARK SMILES IDX 17 1 16 2 14 3 15 4 13 6 10 7 11 8 84 9 12 10 83 11 9 12
REMARK SMILES IDX 8 13 6 14 7 15 5 17 2 18 1 19 3 20 4 21 18 22 19 23 20 24
REMARK SMILES IDX 21 25 22 27 23 28 24 29 82 30 25 31 81 32 26 33 27 34 28 35
REMARK SMILES IDX 75 36 29 37 80 38 74 39 76 40 30 41 79 42 73 43 72 44 31 46
REMARK SMILES IDX 61 47 42 48 60 49 43 50 46 51 59 52 77 53 44 54 45 55 58 57
REMARK SMILES IDX 78 58 47 59 32 60 33 61 41 62 34 63 40 64 35 65 36 66 37 67
REMARK SMILES IDX 38 68 39 69 62 70 63 71 71 72 64 73 70 74 65 75 66 76 67 77
REMARK SMILES IDX 68 78 69 79 48 80 49 81 57 82 50 83 56 84 51 85 52 86 53 87
REMARK SMILES IDX 54 88 55 89
REMARK H PARENT 16 5 8 16 20 26 76 45 46 56
REMARK Flexibility Score: inf
ROOT
ATOM      1  C   UNL     1       4.000  -2.088  -1.748  1.00  0.00     0.117 C 
ENDROOT
BRANCH   1   2
ATOM      2  N   UNL     1       5.299  -2.735  -1.828  1.00  0.00    -0.356 N 
ATOM      3  C   UNL     1       6.097  -3.183  -2.826  1.00  0.00     0.223 C 
ATOM      4  O   UNL     1       7.142  -3.727  -2.436  1.00  0.00    -0.275 OA
ATOM      5  H   UNL     1       5.696  -2.884  -0.939  1.00  0.00     0.163 HD
BRANCH   3   6
ATOM      6  C   UNL     1       5.856  -3.095  -4.348  1.00  0.00     0.078 C 
ATOM      7  C   UNL     1       3.401  -2.107  -5.796  1.00  0.00     0.008 C 
ATOM      8  C   UNL     1       4.471  -1.121  -5.283  1.00  0.00     0.006 C 
ATOM      9  C   UNL     1       3.419  -3.452  -5.057  1.00  0.00     0.006 C 
ATOM     10  C   UNL     1       5.842  -1.714  -4.997  1.00  0.00     0.014 C 
ATOM     11  C   UNL     1       4.815  -4.045  -4.929  1.00  0.00     0.014 C 
BRANCH   7  12
ATOM     12  C   UNL     1       2.034  -1.384  -5.760  1.00  0.00     0.123 C 
BRANCH  12  13
ATOM     13  N   UNL     1       0.873  -2.231  -5.606  1.00  0.00    -0.321 N 
ATOM     14  C   UNL     1      -0.091  -2.064  -4.649  1.00  0.00     0.407 C 
ATOM     15  O   UNL     1      -1.067  -2.787  -4.574  1.00  0.00    -0.225 OA
ATOM     16  H   UNL     1       0.768  -2.981  -6.234  1.00  0.00     0.167 HD
BRANCH  14  17
ATOM     17  O   UNL     1       0.245  -1.088  -3.774  1.00  0.00    -0.444 OA
BRANCH  17  18
ATOM     18  C   UNL     1      -0.324  -1.064  -2.449  1.00  0.00     0.106 C 
ATOM     19  C   UNL     1       0.639  -0.148  -1.665  1.00  0.00     0.056 C 
ATOM     20  C   UNL     1      -0.381  -2.488  -1.890  1.00  0.00     0.056 C 
ATOM     21  C   UNL     1      -1.698  -0.399  -2.426  1.00  0.00     0.056 C 
ENDBRANCH  17  18
ENDBRANCH  14  17
ENDBRANCH  12  13
ENDBRANCH   7  12
ENDBRANCH   3   6
ENDBRANCH   1   2
BRANCH   1  22
ATOM     22  C   UNL     1       2.906  -3.010  -1.192  1.00  0.00     0.042 C 
BRANCH  22  23
ATOM     23  C   UNL     1       2.570  -3.022   0.321  1.00  0.00     0.118 C 
BRANCH  23  24
ATOM     24  N   UNL     1       1.868  -1.872   0.913  1.00  0.00    -0.352 N 
ATOM     25  C   UNL     1       0.606  -1.653   1.463  1.00  0.00     0.251 C 
ATOM     26  H   UNL     1       2.424  -1.060   0.922  1.00  0.00     0.163 HD
ATOM     27  O   UNL     1       0.428  -0.573   2.032  1.00  0.00    -0.269 OA
BRANCH  25  28
ATOM     28  C   UNL     1      -0.586  -2.550   1.288  1.00  0.00     0.039 A 
ATOM     29  C   UNL     1      -1.828  -1.948   0.970  1.00  0.00     0.014 A 
ATOM     30  C   UNL     1      -0.525  -3.940   1.317  1.00  0.00     0.014 A 
ATOM     31  C   UNL     1      -2.953  -2.716   0.596  1.00  0.00     0.010 A 
ATOM     32  C   UNL     1      -1.639  -4.708   0.926  1.00  0.00     0.010 A 
ATOM     33  C   UNL     1      -2.867  -4.113   0.560  1.00  0.00    -0.014 A 
BRANCH  33  34
ATOM     34  C   UNL     1      -4.085  -4.984   0.479  1.00  0.00     0.031 A 
ATOM     35  C   UNL     1      -4.583  -5.535   1.794  1.00  0.00     0.074 A 
ATOM     36  C   UNL     1      -4.706  -5.353  -0.663  1.00  0.00     0.049 A 
ATOM     37  N   UNL     1      -5.455  -6.477   2.038  1.00  0.00    -0.248 NA
ATOM     38  C   UNL     1      -3.957  -4.966   3.001  1.00  0.00     0.031 C 
ATOM     39  C   UNL     1      -4.383  -4.889  -2.011  1.00  0.00     0.029 A 
ATOM     40  N   UNL     1      -5.749  -6.238  -0.866  1.00  0.00    -0.354 N 
ATOM     41  C   UNL     1      -5.439  -6.647   3.418  1.00  0.00     0.074 A 
ATOM     42  C   UNL     1      -4.436  -5.753   3.948  1.00  0.00     0.031 C 
ATOM     43  C   UNL     1      -5.202  -5.495  -2.896  1.00  0.00     0.029 A 
ATOM     44  C   UNL     1      -6.088  -6.423  -2.191  1.00  0.00     0.049 A 
ATOM     45  H   UNL     1      -6.210  -6.698  -0.127  1.00  0.00     0.167 HD
ATOM     46  C   UNL     1      -6.200  -7.457   4.190  1.00  0.00     0.031 A 
ATOM     47  C   UNL     1      -6.992  -7.253  -2.765  1.00  0.00     0.031 A 
ATOM     48  C   UNL     1      -7.218  -8.328   3.678  1.00  0.00     0.049 A 
ATOM     49  C   UNL     1      -7.815  -8.178  -1.887  1.00  0.00     0.074 A 
ATOM     50  C   UNL     1      -8.066  -9.165   4.379  1.00  0.00     0.029 A 
ATOM     51  N   UNL     1      -7.533  -8.466   2.335  1.00  0.00    -0.354 N 
ATOM     52  N   UNL     1      -7.801  -8.312  -0.581  1.00  0.00    -0.248 NA
ATOM     53  C   UNL     1      -8.782  -9.062  -2.563  1.00  0.00     0.031 C 
ATOM     54  C   UNL     1      -8.860  -9.850   3.455  1.00  0.00     0.029 A 
ATOM     55  C   UNL     1      -8.554  -9.386   2.185  1.00  0.00     0.049 A 
ATOM     56  H   UNL     1      -7.095  -7.981   1.598  1.00  0.00     0.167 HD
ATOM     57  C   UNL     1      -8.778  -9.262  -0.281  1.00  0.00     0.074 A 
ATOM     58  C   UNL     1      -9.373  -9.661  -1.537  1.00  0.00     0.031 C 
ATOM     59  C   UNL     1      -9.151  -9.758   0.927  1.00  0.00     0.031 A 
BRANCH  46  60
ATOM     60  C   UNL     1      -5.930  -7.440   5.672  1.00  0.00    -0.014 A 
ATOM     61  C   UNL     1      -6.199  -6.298   6.449  1.00  0.00     0.010 A 
ATOM     62  C   UNL     1      -5.385  -8.578   6.294  1.00  0.00     0.010 A 
ATOM     63  C   UNL     1      -5.870  -6.271   7.806  1.00  0.00     0.020 A 
ATOM     64  C   UNL     1      -5.093  -8.570   7.660  1.00  0.00     0.020 A 
ATOM     65  C   UNL     1      -5.317  -7.408   8.402  1.00  0.00     0.054 A 
BRANCH  65  66
ATOM     66  S   UNL     1      -4.918  -7.349  10.169  1.00  0.00     0.124 S 
ATOM     67  O   UNL     1      -3.758  -6.461  10.186  1.00  0.00    -0.237 OA
ATOM     68  O   UNL     1      -6.138  -6.800  10.753  1.00  0.00    -0.237 OA
ATOM     69  O   UNL     1      -4.639  -8.742  10.509  1.00  0.00    -0.744 OA
ENDBRANCH  65  66
ENDBRANCH  46  60
BRANCH  47  70
ATOM     70  C   UNL     1      -7.189  -7.278  -4.253  1.00  0.00    -0.014 A 
ATOM     71  C   UNL     1      -8.406  -6.858  -4.826  1.00  0.00     0.010 A 
ATOM     72  C   UNL     1      -6.183  -7.768  -5.107  1.00  0.00     0.010 A 
ATOM     73  C   UNL     1      -8.618  -6.939  -6.210  1.00  0.00     0.020 A 
ATOM     74  C   UNL     1      -6.379  -7.822  -6.495  1.00  0.00     0.020 A 
ATOM     75  C   UNL     1      -7.599  -7.415  -7.038  1.00  0.00     0.054 A 
BRANCH  75  76
ATOM     76  S   UNL     1      -7.873  -7.453  -8.835  1.00  0.00     0.124 S 
ATOM     77  O   UNL     1      -8.855  -8.524  -8.974  1.00  0.00    -0.237 OA
ATOM     78  O   UNL     1      -8.366  -6.105  -9.106  1.00  0.00    -0.237 OA
ATOM     79  O   UNL     1      -6.548  -7.745  -9.379  1.00  0.00    -0.744 OA
ENDBRANCH  75  76
ENDBRANCH  47  70
BRANCH  59  80
ATOM     80  C   UNL     1     -10.293 -10.743   0.973  1.00  0.00    -0.014 A 
ATOM     81  C   UNL     1     -10.151 -12.060   0.504  1.00  0.00     0.010 A 
ATOM     82  C   UNL     1     -11.502 -10.364   1.588  1.00  0.00     0.010 A 
ATOM     83  C   UNL     1     -11.205 -12.972   0.627  1.00  0.00     0.020 A 
ATOM     84  C   UNL     1     -12.546 -11.280   1.741  1.00  0.00     0.020 A 
ATOM     85  C   UNL     1     -12.395 -12.576   1.248  1.00  0.00     0.054 A 
BRANCH  85  86
ATOM     86  S   UNL     1     -13.726 -13.793   1.442  1.00  0.00     0.124 S 
ATOM     87  O   UNL     1     -14.201 -13.947   0.070  1.00  0.00    -0.237 OA
ATOM     88  O   UNL     1     -13.024 -14.948   1.998  1.00  0.00    -0.237 OA
ATOM     89  O   UNL     1     -14.662 -13.142   2.356  1.00  0.00    -0.744 OA
ENDBRANCH  85  86
ENDBRANCH  59  80
ENDBRANCH  33  34
ENDBRANCH  25  28
ENDBRANCH  23  24
ENDBRANCH  22  23
ENDBRANCH   1  22
TORSDOF 17
