REMARK SMILES NS(=O)(=O)c1ccc(-n2nc(C(=O)NCCCNC(=O)c3ccc(-c4c5nc(c(-c6ccc(S(=O)(=O)[O-])cc6)c6ccc([nH]6)c(-c6ccc(S(=O)(=O)[O-])cc6)c6nc(c(-c7ccc(S(=O)(=O)[O-])cc7)c7ccc4[nH]7)C=C6)C=C5)cc3)cc2-c2cc3ccccc3s2)cc1
REMARK SMILES IDX 16 1 15 2 14 3 12 4 13 5 11 7 9 8 10 9 82 10 81 11 8 12 5 13
REMARK SMILES IDX 6 14 93 15 7 16 92 17 2 18 3 19 4 20 1 21 83 24 84 25 91 26
REMARK SMILES IDX 85 27 90 28 86 29 89 30 87 31 88 32 17 33 18 34 19 35 20 37
REMARK SMILES IDX 21 38 22 39 80 40 23 41 79 42 24 43 25 44 26 45 73 46 27 47
REMARK SMILES IDX 78 48 72 49 74 50 28 51 77 52 71 53 70 54 29 56 59 57 40 58
REMARK SMILES IDX 58 59 41 60 44 61 57 62 75 63 42 64 43 65 56 67 76 68 45 69
REMARK SMILES IDX 30 70 31 71 39 72 32 73 38 74 33 75 34 76 35 77 36 78 37 79
REMARK SMILES IDX 60 80 61 81 69 82 62 83 68 84 63 85 64 86 65 87 66 88 67 89
REMARK SMILES IDX 46 90 47 91 55 92 48 93 54 94 49 95 50 96 51 97 52 98 53 99
REMARK H PARENT 14 6 1 22 1 23 18 36 74 55 44 66
REMARK Flexibility Score: inf
ROOT
ATOM      1  C   UNL     1       4.074 -10.027   5.932  1.00  0.00     0.042 C 
ENDROOT
BRANCH   1   2
ATOM      2  C   UNL     1       2.567  -9.764   5.821  1.00  0.00     0.118 C 
BRANCH   2   3
ATOM      3  N   UNL     1       2.075  -8.882   6.873  1.00  0.00    -0.351 N 
ATOM      4  C   UNL     1       1.823  -7.518   6.888  1.00  0.00     0.271 C 
ATOM      5  O   UNL     1       1.240  -7.070   7.874  1.00  0.00    -0.267 OA
ATOM      6  H   UNL     1       1.888  -9.336   7.727  1.00  0.00     0.163 HD
BRANCH   4   7
ATOM      7  C   UNL     1       2.181  -6.681   5.725  1.00  0.00     0.151 A 
ATOM      8  N   UNL     1       1.866  -5.264   4.137  1.00  0.00    -0.231 N 
ATOM      9  N   UNL     1       1.560  -5.519   5.439  1.00  0.00    -0.162 NA
ATOM     10  C   UNL     1       2.689  -6.243   3.627  1.00  0.00     0.085 A 
ATOM     11  C   UNL     1       3.146  -6.930   4.735  1.00  0.00     0.066 A 
BRANCH   8  12
ATOM     12  C   UNL     1       1.451  -4.056   3.533  1.00  0.00     0.065 A 
ATOM     13  C   UNL     1       0.806  -1.606   2.387  1.00  0.00     0.082 A 
ATOM     14  C   UNL     1       0.644  -2.784   1.647  1.00  0.00     0.024 A 
ATOM     15  C   UNL     1       1.271  -1.645   3.703  1.00  0.00     0.024 A 
ATOM     16  C   UNL     1       0.993  -4.012   2.214  1.00  0.00     0.030 A 
ATOM     17  C   UNL     1       1.563  -2.876   4.287  1.00  0.00     0.030 A 
BRANCH  13  18
ATOM     18  S   UNL     1       0.454  -0.049   1.634  1.00  0.00     0.238 S 
ATOM     19  O   UNL     1       1.164   1.000   2.336  1.00  0.00    -0.207 OA
ATOM     20  O   UNL     1      -0.953   0.022   1.337  1.00  0.00    -0.207 OA
BRANCH  18  21
ATOM     21  N   UNL     1       1.238  -0.167   0.148  1.00  0.00    -0.225 NA
ATOM     22  H   UNL     1       1.098   0.694  -0.380  1.00  0.00     0.137 HD
ATOM     23  H   UNL     1       0.855  -0.954  -0.376  1.00  0.00     0.137 HD
ENDBRANCH  18  21
ENDBRANCH  13  18
ENDBRANCH   8  12
BRANCH  10  24
ATOM     24  C   UNL     1       2.955  -6.668   2.282  1.00  0.00     0.054 A 
ATOM     25  C   UNL     1       4.209  -7.012   1.793  1.00  0.00     0.031 A 
ATOM     26  S   UNL     1       1.832  -7.790   1.577  1.00  0.00    -0.134 S 
ATOM     27  C   UNL     1       4.289  -8.464   1.825  1.00  0.00    -0.007 A 
ATOM     28  C   UNL     1       3.010  -9.036   1.830  1.00  0.00     0.035 A 
ATOM     29  C   UNL     1       5.400  -9.322   1.996  1.00  0.00     0.009 A 
ATOM     30  C   UNL     1       2.797 -10.407   2.049  1.00  0.00     0.019 A 
ATOM     31  C   UNL     1       5.195 -10.680   2.266  1.00  0.00     0.001 A 
ATOM     32  C   UNL     1       3.909 -11.210   2.309  1.00  0.00     0.001 A 
ENDBRANCH  10  24
ENDBRANCH   4   7
ENDBRANCH   2   3
ENDBRANCH   1   2
BRANCH   1  33
ATOM     33  C   UNL     1       4.392 -11.249   6.777  1.00  0.00     0.118 C 
BRANCH  33  34
ATOM     34  N   UNL     1       4.038 -12.513   6.117  1.00  0.00    -0.352 N 
ATOM     35  C   UNL     1       4.186 -13.802   6.602  1.00  0.00     0.251 C 
ATOM     36  H   UNL     1       3.647 -12.434   5.216  1.00  0.00     0.163 HD
ATOM     37  O   UNL     1       4.184 -14.761   5.839  1.00  0.00    -0.269 OA
BRANCH  35  38
ATOM     38  C   UNL     1       4.346 -13.991   8.056  1.00  0.00     0.039 A 
ATOM     39  C   UNL     1       5.260 -14.901   8.597  1.00  0.00     0.014 A 
ATOM     40  C   UNL     1       3.591 -13.168   8.882  1.00  0.00     0.014 A 
ATOM     41  C   UNL     1       5.482 -14.892   9.975  1.00  0.00     0.010 A 
ATOM     42  C   UNL     1       3.948 -13.025  10.194  1.00  0.00     0.010 A 
ATOM     43  C   UNL     1       4.842 -13.925  10.765  1.00  0.00    -0.014 A 
BRANCH  43  44
ATOM     44  C   UNL     1       5.196 -13.712  12.167  1.00  0.00     0.031 A 
ATOM     45  C   UNL     1       6.635 -13.373  12.376  1.00  0.00     0.074 A 
ATOM     46  C   UNL     1       4.248 -13.524  13.116  1.00  0.00     0.049 A 
ATOM     47  N   UNL     1       7.539 -14.056  12.996  1.00  0.00    -0.248 NA
ATOM     48  C   UNL     1       7.176 -12.207  11.648  1.00  0.00     0.031 C 
ATOM     49  C   UNL     1       2.790 -13.482  12.923  1.00  0.00     0.029 A 
ATOM     50  N   UNL     1       4.373 -13.165  14.422  1.00  0.00    -0.354 N 
ATOM     51  C   UNL     1       8.690 -13.270  12.967  1.00  0.00     0.074 A 
ATOM     52  C   UNL     1       8.477 -12.299  11.926  1.00  0.00     0.031 C 
ATOM     53  C   UNL     1       2.209 -12.856  13.969  1.00  0.00     0.029 A 
ATOM     54  C   UNL     1       3.218 -12.614  14.982  1.00  0.00     0.049 A 
ATOM     55  H   UNL     1       5.208 -13.283  14.931  1.00  0.00     0.167 HD
ATOM     56  C   UNL     1       9.573 -13.266  14.007  1.00  0.00     0.031 A 
ATOM     57  C   UNL     1       3.106 -11.961  16.169  1.00  0.00     0.031 A 
ATOM     58  C   UNL     1       9.347 -14.390  14.882  1.00  0.00     0.049 A 
ATOM     59  C   UNL     1       4.310 -12.305  16.963  1.00  0.00     0.074 A 
ATOM     60  C   UNL     1       9.320 -15.762  14.726  1.00  0.00     0.029 A 
ATOM     61  N   UNL     1       8.683 -14.128  16.058  1.00  0.00    -0.354 N 
ATOM     62  N   UNL     1       4.575 -13.510  17.385  1.00  0.00    -0.248 NA
ATOM     63  C   UNL     1       5.449 -11.406  16.881  1.00  0.00     0.031 C 
ATOM     64  C   UNL     1       8.247 -16.204  15.554  1.00  0.00     0.029 A 
ATOM     65  C   UNL     1       7.740 -15.101  16.244  1.00  0.00     0.049 A 
ATOM     66  H   UNL     1       8.857 -13.369  16.662  1.00  0.00     0.167 HD
ATOM     67  C   UNL     1       5.941 -13.658  17.189  1.00  0.00     0.074 A 
ATOM     68  C   UNL     1       6.439 -12.299  16.968  1.00  0.00     0.031 C 
ATOM     69  C   UNL     1       6.487 -14.885  16.937  1.00  0.00     0.031 A 
BRANCH  56  70
ATOM     70  C   UNL     1      10.295 -12.018  14.491  1.00  0.00    -0.014 A 
ATOM     71  C   UNL     1      11.092 -12.111  15.653  1.00  0.00     0.010 A 
ATOM     72  C   UNL     1      10.000 -10.716  14.037  1.00  0.00     0.010 A 
ATOM     73  C   UNL     1      11.467 -10.972  16.378  1.00  0.00     0.020 A 
ATOM     74  C   UNL     1      10.406  -9.571  14.726  1.00  0.00     0.020 A 
ATOM     75  C   UNL     1      11.103  -9.708  15.917  1.00  0.00     0.054 A 
BRANCH  75  76
ATOM     76  S   UNL     1      11.495  -8.250  16.911  1.00  0.00     0.124 S 
ATOM     77  O   UNL     1      10.662  -8.461  18.090  1.00  0.00    -0.237 OA
ATOM     78  O   UNL     1      12.934  -8.395  17.112  1.00  0.00    -0.237 OA
ATOM     79  O   UNL     1      11.100  -7.136  16.051  1.00  0.00    -0.744 OA
ENDBRANCH  75  76
ENDBRANCH  56  70
BRANCH  57  80
ATOM     80  C   UNL     1       2.216 -10.822  16.530  1.00  0.00    -0.014 A 
ATOM     81  C   UNL     1       2.076 -10.406  17.870  1.00  0.00     0.010 A 
ATOM     82  C   UNL     1       1.730  -9.956  15.530  1.00  0.00     0.010 A 
ATOM     83  C   UNL     1       1.539  -9.144  18.190  1.00  0.00     0.020 A 
ATOM     84  C   UNL     1       1.187  -8.701  15.841  1.00  0.00     0.020 A 
ATOM     85  C   UNL     1       1.118  -8.289  17.169  1.00  0.00     0.054 A 
BRANCH  85  86
ATOM     86  S   UNL     1       0.607  -6.589  17.573  1.00  0.00     0.124 S 
ATOM     87  O   UNL     1      -0.676  -6.799  18.238  1.00  0.00    -0.237 OA
ATOM     88  O   UNL     1       1.694  -6.124  18.431  1.00  0.00    -0.237 OA
ATOM     89  O   UNL     1       0.528  -5.935  16.269  1.00  0.00    -0.744 OA
ENDBRANCH  85  86
ENDBRANCH  57  80
BRANCH  69  90
ATOM     90  C   UNL     1       5.663 -16.120  17.221  1.00  0.00    -0.014 A 
ATOM     91  C   UNL     1       4.435 -16.428  16.602  1.00  0.00     0.010 A 
ATOM     92  C   UNL     1       6.248 -17.082  18.062  1.00  0.00     0.010 A 
ATOM     93  C   UNL     1       3.800 -17.657  16.849  1.00  0.00     0.020 A 
ATOM     94  C   UNL     1       5.633 -18.312  18.295  1.00  0.00     0.020 A 
ATOM     95  C   UNL     1       4.404 -18.590  17.698  1.00  0.00     0.054 A 
BRANCH  95  96
ATOM     96  S   UNL     1       3.598 -20.186  18.005  1.00  0.00     0.124 S 
ATOM     97  O   UNL     1       2.412 -19.802  18.765  1.00  0.00    -0.237 OA
ATOM     98  O   UNL     1       3.346 -20.689  16.657  1.00  0.00    -0.237 OA
ATOM     99  O   UNL     1       4.596 -20.942  18.762  1.00  0.00    -0.744 OA
ENDBRANCH  95  96
ENDBRANCH  69  90
ENDBRANCH  43  44
ENDBRANCH  35  38
ENDBRANCH  33  34
ENDBRANCH   1  33
TORSDOF 17
