REMARK SMILES [NH3+][C@]1(C(=O)NCCCNC(=O)c2ccc(-c3c4nc(c(-c5ccc(S(=O)(=O)[O-])cc5)c5ccc([nH]5)c(-c5ccc(S(=O)(=O)[O-])cc5)c5nc(c(-c6ccc(S(=O)(=O)[O-])cc6)c6ccc3[nH]6)C=C5)C=C4)cc2)CCC[C@H]1CCSc1ncnc2nc[nH]c12
REMARK SMILES IDX 6 1 5 2 3 3 4 4 2 6 72 7 75 8 73 9 74 10 1 11 76 15 77 16
REMARK SMILES IDX 78 17 79 18 80 19 87 20 81 21 83 22 86 23 82 24 84 25 85 26
REMARK SMILES IDX 7 28 8 29 9 30 10 31 11 33 12 34 13 35 71 36 14 37 70 38
REMARK SMILES IDX 15 39 16 40 17 41 64 42 18 43 69 44 63 45 65 46 19 47 68 48
REMARK SMILES IDX 62 49 61 50 20 52 50 53 31 54 49 55 32 56 35 57 48 58 66 59
REMARK SMILES IDX 33 60 34 61 47 63 67 64 36 65 21 66 22 67 30 68 23 69 29 70
REMARK SMILES IDX 24 71 25 72 26 73 27 74 28 75 51 76 52 77 60 78 53 79 59 80
REMARK SMILES IDX 54 81 55 82 56 83 57 84 58 85 37 86 38 87 46 88 39 89 45 90
REMARK SMILES IDX 40 91 41 92 42 93 43 94 44 95
REMARK H PARENT 5 5 1 12 1 13 1 14 86 27 9 32 65 51 35 62
REMARK Flexibility Score: inf
ROOT
ATOM      1  C   UNL     1       3.261  -1.797   0.189  1.00  0.00     0.118 C 
ENDROOT
BRANCH   1   2
ATOM      2  N   UNL     1       2.200  -1.192   0.975  1.00  0.00    -0.351 N 
ATOM      3  C   UNL     1       0.910  -0.855   0.673  1.00  0.00     0.281 C 
ATOM      4  O   UNL     1       0.208  -0.519   1.629  1.00  0.00    -0.268 OA
ATOM      5  H   UNL     1       2.459  -0.985   1.903  1.00  0.00     0.163 HD
BRANCH   3   6
ATOM      6  C   UNL     1       0.354  -0.954  -0.783  1.00  0.00     0.176 C 
ATOM      7  C   UNL     1       0.082  -2.443  -1.112  1.00  0.00     0.079 C 
ATOM      8  C   UNL     1      -1.020  -0.258  -1.084  1.00  0.00     0.061 C 
ATOM      9  C   UNL     1      -1.187  -2.453  -1.952  1.00  0.00     0.008 C 
ATOM     10  C   UNL     1      -2.035  -1.385  -1.276  1.00  0.00     0.011 C 
BRANCH   6  11
ATOM     11  N   UNL     1       1.299  -0.357  -1.749  1.00  0.00    -0.345 N 
ATOM     12  H   UNL     1       0.915  -0.433  -2.691  1.00  0.00     0.345 HD
ATOM     13  H   UNL     1       2.190  -0.851  -1.703  1.00  0.00     0.345 HD
ATOM     14  H   UNL     1       1.443   0.626  -1.520  1.00  0.00     0.345 HD
ENDBRANCH   6  11
BRANCH   8  15
ATOM     15  C   UNL     1      -1.494   0.949  -0.268  1.00  0.00     0.022 C 
BRANCH  15  16
ATOM     16  C   UNL     1      -0.721   2.237  -0.611  1.00  0.00     0.077 C 
BRANCH  16  17
ATOM     17  S   UNL     1      -1.287   2.873  -2.242  1.00  0.00    -0.104 SA
BRANCH  17  18
ATOM     18  C   UNL     1       0.214   3.062  -3.155  1.00  0.00     0.125 A 
ATOM     19  N   UNL     1       0.778   4.287  -3.211  1.00  0.00    -0.228 NA
ATOM     20  C   UNL     1       0.715   2.094  -4.008  1.00  0.00     0.117 A 
ATOM     21  C   UNL     1       1.778   4.491  -4.094  1.00  0.00     0.225 A 
ATOM     22  C   UNL     1       1.758   2.397  -4.866  1.00  0.00     0.181 A 
ATOM     23  N   UNL     1       0.435   0.786  -4.291  1.00  0.00    -0.341 N 
ATOM     24  N   UNL     1       2.321   3.613  -4.942  1.00  0.00    -0.215 NA
ATOM     25  N   UNL     1       2.125   1.312  -5.617  1.00  0.00    -0.217 NA
ATOM     26  C   UNL     1       1.328   0.346  -5.226  1.00  0.00     0.199 A 
ATOM     27  H   UNL     1      -0.287   0.252  -3.889  1.00  0.00     0.168 HD
ENDBRANCH  17  18
ENDBRANCH  16  17
ENDBRANCH  15  16
ENDBRANCH   8  15
ENDBRANCH   3   6
ENDBRANCH   1   2
BRANCH   1  28
ATOM     28  C   UNL     1       4.325  -0.795  -0.262  1.00  0.00     0.042 C 
BRANCH  28  29
ATOM     29  C   UNL     1       5.132  -0.168   0.874  1.00  0.00     0.118 C 
BRANCH  29  30
ATOM     30  N   UNL     1       5.826  -1.167   1.673  1.00  0.00    -0.352 N 
ATOM     31  C   UNL     1       7.164  -1.425   1.815  1.00  0.00     0.251 C 
ATOM     32  H   UNL     1       5.237  -1.755   2.199  1.00  0.00     0.163 HD
ATOM     33  O   UNL     1       7.509  -2.491   2.333  1.00  0.00    -0.269 OA
BRANCH  31  34
ATOM     34  C   UNL     1       8.191  -0.460   1.367  1.00  0.00     0.039 A 
ATOM     35  C   UNL     1       9.363  -0.950   0.780  1.00  0.00     0.014 A 
ATOM     36  C   UNL     1       8.044   0.913   1.582  1.00  0.00     0.014 A 
ATOM     37  C   UNL     1      10.356  -0.063   0.356  1.00  0.00     0.010 A 
ATOM     38  C   UNL     1       9.009   1.802   1.105  1.00  0.00     0.010 A 
ATOM     39  C   UNL     1      10.172   1.323   0.483  1.00  0.00    -0.014 A 
BRANCH  39  40
ATOM     40  C   UNL     1      11.162   2.283  -0.071  1.00  0.00     0.031 A 
ATOM     41  C   UNL     1      11.945   3.193   0.836  1.00  0.00     0.074 A 
ATOM     42  C   UNL     1      11.300   2.380  -1.408  1.00  0.00     0.049 A 
ATOM     43  N   UNL     1      12.799   4.133   0.520  1.00  0.00    -0.248 NA
ATOM     44  C   UNL     1      11.729   3.040   2.284  1.00  0.00     0.031 C 
ATOM     45  C   UNL     1      10.569   1.579  -2.394  1.00  0.00     0.029 A 
ATOM     46  N   UNL     1      12.091   3.202  -2.171  1.00  0.00    -0.354 N 
ATOM     47  C   UNL     1      13.211   4.694   1.723  1.00  0.00     0.074 A 
ATOM     48  C   UNL     1      12.487   4.011   2.775  1.00  0.00     0.031 C 
ATOM     49  C   UNL     1      10.956   1.938  -3.628  1.00  0.00     0.029 A 
ATOM     50  C   UNL     1      11.927   3.022  -3.525  1.00  0.00     0.049 A 
ATOM     51  H   UNL     1      12.716   3.858  -1.787  1.00  0.00     0.167 HD
ATOM     52  C   UNL     1      14.118   5.679   1.932  1.00  0.00     0.031 A 
ATOM     53  C   UNL     1      12.481   3.667  -4.570  1.00  0.00     0.031 A 
ATOM     54  C   UNL     1      14.838   6.352   0.882  1.00  0.00     0.049 A 
ATOM     55  C   UNL     1      13.467   4.772  -4.310  1.00  0.00     0.074 A 
ATOM     56  C   UNL     1      15.823   7.317   0.998  1.00  0.00     0.029 A 
ATOM     57  N   UNL     1      14.646   6.139  -0.475  1.00  0.00    -0.354 N 
ATOM     58  N   UNL     1      13.900   5.234  -3.162  1.00  0.00    -0.248 NA
ATOM     59  C   UNL     1      14.043   5.437  -5.487  1.00  0.00     0.031 C 
ATOM     60  C   UNL     1      16.185   7.730  -0.289  1.00  0.00     0.029 A 
ATOM     61  C   UNL     1      15.468   6.980  -1.207  1.00  0.00     0.049 A 
ATOM     62  H   UNL     1      14.017   5.487  -0.861  1.00  0.00     0.167 HD
ATOM     63  C   UNL     1      14.812   6.235  -3.478  1.00  0.00     0.074 A 
ATOM     64  C   UNL     1      14.885   6.293  -4.924  1.00  0.00     0.031 C 
ATOM     65  C   UNL     1      15.522   7.035  -2.646  1.00  0.00     0.031 A 
BRANCH  52  66
ATOM     66  C   UNL     1      14.381   6.102   3.354  1.00  0.00    -0.014 A 
ATOM     67  C   UNL     1      15.082   5.268   4.244  1.00  0.00     0.010 A 
ATOM     68  C   UNL     1      13.979   7.379   3.789  1.00  0.00     0.010 A 
ATOM     69  C   UNL     1      15.347   5.688   5.550  1.00  0.00     0.020 A 
ATOM     70  C   UNL     1      14.264   7.813   5.088  1.00  0.00     0.020 A 
ATOM     71  C   UNL     1      14.935   6.958   5.964  1.00  0.00     0.054 A 
BRANCH  71  72
ATOM     72  S   UNL     1      15.321   7.490   7.655  1.00  0.00     0.124 S 
ATOM     73  O   UNL     1      14.397   6.678   8.444  1.00  0.00    -0.237 OA
ATOM     74  O   UNL     1      16.733   7.138   7.787  1.00  0.00    -0.237 OA
ATOM     75  O   UNL     1      15.038   8.922   7.644  1.00  0.00    -0.744 OA
ENDBRANCH  71  72
ENDBRANCH  52  66
BRANCH  53  76
ATOM     76  C   UNL     1      12.108   3.285  -5.960  1.00  0.00    -0.014 A 
ATOM     77  C   UNL     1      13.033   2.632  -6.793  1.00  0.00     0.010 A 
ATOM     78  C   UNL     1      10.820   3.563  -6.453  1.00  0.00     0.010 A 
ATOM     79  C   UNL     1      12.683   2.281  -8.100  1.00  0.00     0.020 A 
ATOM     80  C   UNL     1      10.457   3.187  -7.750  1.00  0.00     0.020 A 
ATOM     81  C   UNL     1      11.396   2.559  -8.569  1.00  0.00     0.054 A 
BRANCH  81  82
ATOM     82  S   UNL     1      10.952   2.051 -10.253  1.00  0.00     0.124 S 
ATOM     83  O   UNL     1      11.670   3.030 -11.064  1.00  0.00    -0.237 OA
ATOM     84  O   UNL     1      11.462   0.683 -10.315  1.00  0.00    -0.237 OA
ATOM     85  O   UNL     1       9.496   2.166 -10.273  1.00  0.00    -0.744 OA
ENDBRANCH  81  82
ENDBRANCH  53  76
BRANCH  65  86
ATOM     86  C   UNL     1      16.451   8.037  -3.278  1.00  0.00    -0.014 A 
ATOM     87  C   UNL     1      15.951   9.179  -3.928  1.00  0.00     0.010 A 
ATOM     88  C   UNL     1      17.843   7.859  -3.177  1.00  0.00     0.010 A 
ATOM     89  C   UNL     1      16.827  10.111  -4.491  1.00  0.00     0.020 A 
ATOM     90  C   UNL     1      18.722   8.803  -3.714  1.00  0.00     0.020 A 
ATOM     91  C   UNL     1      18.207   9.917  -4.380  1.00  0.00     0.054 A 
BRANCH  91  92
ATOM     92  S   UNL     1      19.323  11.166  -5.078  1.00  0.00     0.124 S 
ATOM     93  O   UNL     1      19.203  10.913  -6.511  1.00  0.00    -0.237 OA
ATOM     94  O   UNL     1      18.736  12.419  -4.609  1.00  0.00    -0.237 OA
ATOM     95  O   UNL     1      20.621  10.836  -4.494  1.00  0.00    -0.744 OA
ENDBRANCH  91  92
ENDBRANCH  65  86
ENDBRANCH  39  40
ENDBRANCH  31  34
ENDBRANCH  29  30
ENDBRANCH  28  29
ENDBRANCH   1  28
TORSDOF 18
