REMARK SMILES CC(C)Cc1ccc(-c2cc(Cl)cc3c2O[C@H](C(F)(F)F)C(C(=O)NCCCNC(=O)c2ccc(-c4c5nc(c(-c6ccc(S(=O)(=O)[O-])cc6)c6ccc([nH]6)c(-c6ccc(S(=O)(=O)[O-])cc6)c6nc(c(-c7ccc(S(=O)(=O)[O-])cc7)c7ccc4[nH]7)C=C6)C=C5)cc2)=C3)cc1
REMARK SMILES IDX 27 1 26 2 25 3 23 4 24 5 22 7 9 8 10 9 15 10 11 11 14 12
REMARK SMILES IDX 16 13 12 14 13 15 92 16 17 17 8 18 5 19 6 20 94 21 7 22
REMARK SMILES IDX 93 23 4 24 2 25 1 26 3 27 18 28 19 29 20 30 21 31 28 32
REMARK SMILES IDX 29 33 30 34 31 36 32 37 33 38 91 39 34 40 90 41 35 42 36 43
REMARK SMILES IDX 37 44 84 45 38 46 89 47 83 48 85 49 39 50 88 51 82 52 81 53
REMARK SMILES IDX 40 55 70 56 51 57 69 58 52 59 55 60 68 61 86 62 53 63 54 64
REMARK SMILES IDX 67 66 87 67 56 68 41 69 42 70 50 71 43 72 49 73 44 74 45 75
REMARK SMILES IDX 46 76 47 77 48 78 71 79 72 80 80 81 73 82 79 83 74 84 75 85
REMARK SMILES IDX 76 86 77 87 78 88 57 89 58 90 66 91 59 92 65 93 60 94 61 95
REMARK SMILES IDX 62 96 63 97 64 98
REMARK H PARENT 25 6 29 35 85 54 55 65
REMARK Flexibility Score: inf
ROOT
ATOM      1  C   UNL     1      -6.619   7.936  -9.361  1.00  0.00     0.042 C 
ENDROOT
BRANCH   1   2
ATOM      2  C   UNL     1      -6.344   6.432  -9.441  1.00  0.00     0.118 C 
BRANCH   2   3
ATOM      3  N   UNL     1      -4.997   6.144  -8.986  1.00  0.00    -0.352 N 
ATOM      4  C   UNL     1      -4.650   5.408  -7.901  1.00  0.00     0.251 C 
ATOM      5  O   UNL     1      -3.734   5.780  -7.176  1.00  0.00    -0.270 OA
ATOM      6  H   UNL     1      -4.261   6.521  -9.519  1.00  0.00     0.163 HD
BRANCH   4   7
ATOM      7  C   UNL     1      -5.314   4.080  -7.738  1.00  0.00     0.067 C 
ATOM      8  C   UNL     1      -2.983   2.497  -4.790  1.00  0.00     0.026 A 
ATOM      9  C   UNL     1      -1.638   2.802  -5.129  1.00  0.00     0.033 A 
ATOM     10  C   UNL     1      -3.941   2.697  -5.800  1.00  0.00     0.135 A 
ATOM     11  C   UNL     1      -1.241   3.089  -6.431  1.00  0.00     0.042 A 
ATOM     12  C   UNL     1      -3.504   2.876  -7.138  1.00  0.00     0.019 A 
ATOM     13  O   UNL     1      -5.306   2.787  -5.562  1.00  0.00    -0.475 OA
ATOM     14  Cl  UNL     1       0.410   3.434  -6.762  1.00  0.00    -0.084 Cl
ATOM     15  C   UNL     1      -2.162   3.052  -7.459  1.00  0.00     0.032 A 
ATOM     16  C   UNL     1      -4.536   3.073  -8.181  1.00  0.00     0.025 C 
ATOM     17  C   UNL     1      -5.973   3.851  -6.381  1.00  0.00     0.314 C 
BRANCH   8  18
ATOM     18  C   UNL     1      -3.116   1.749  -3.509  1.00  0.00    -0.015 A 
ATOM     19  C   UNL     1      -2.132  -0.014  -1.477  1.00  0.00    -0.048 A 
ATOM     20  C   UNL     1      -2.057   1.375  -1.324  1.00  0.00     0.004 A 
ATOM     21  C   UNL     1      -2.833  -0.506  -2.586  1.00  0.00     0.004 A 
ATOM     22  C   UNL     1      -2.548   2.243  -2.319  1.00  0.00     0.009 A 
ATOM     23  C   UNL     1      -3.335   0.361  -3.576  1.00  0.00     0.009 A 
BRANCH  19  24
ATOM     24  C   UNL     1      -1.502  -0.960  -0.469  1.00  0.00     0.038 C 
BRANCH  24  25
ATOM     25  C   UNL     1       0.037  -1.167  -0.527  1.00  0.00    -0.013 C 
ATOM     26  C   UNL     1       0.844   0.091  -0.197  1.00  0.00     0.008 C 
ATOM     27  C   UNL     1       0.445  -2.272   0.462  1.00  0.00     0.008 C 
ENDBRANCH  24  25
ENDBRANCH  19  24
ENDBRANCH   8  18
BRANCH  17  28
ATOM     28  C   UNL     1      -7.470   3.547  -6.623  1.00  0.00     0.429 C 
ATOM     29  F   UNL     1      -7.827   2.310  -6.212  1.00  0.00    -0.167 F 
ATOM     30  F   UNL     1      -8.261   4.438  -5.979  1.00  0.00    -0.167 F 
ATOM     31  F   UNL     1      -7.811   3.623  -7.939  1.00  0.00    -0.167 F 
ENDBRANCH  17  28
ENDBRANCH   4   7
ENDBRANCH   2   3
ENDBRANCH   1   2
BRANCH   1  32
ATOM     32  C   UNL     1      -5.715   8.803 -10.238  1.00  0.00     0.118 C 
BRANCH  32  33
ATOM     33  N   UNL     1      -5.846   8.519 -11.658  1.00  0.00    -0.352 N 
ATOM     34  C   UNL     1      -6.039   9.392 -12.701  1.00  0.00     0.251 C 
ATOM     35  H   UNL     1      -5.787   7.568 -11.907  1.00  0.00     0.163 HD
ATOM     36  O   UNL     1      -6.269   8.958 -13.828  1.00  0.00    -0.269 OA
BRANCH  34  37
ATOM     37  C   UNL     1      -6.002  10.850 -12.457  1.00  0.00     0.039 A 
ATOM     38  C   UNL     1      -7.019  11.650 -12.983  1.00  0.00     0.014 A 
ATOM     39  C   UNL     1      -4.981  11.422 -11.693  1.00  0.00     0.014 A 
ATOM     40  C   UNL     1      -7.050  13.014 -12.682  1.00  0.00     0.010 A 
ATOM     41  C   UNL     1      -5.059  12.764 -11.330  1.00  0.00     0.010 A 
ATOM     42  C   UNL     1      -6.094  13.576 -11.819  1.00  0.00    -0.014 A 
BRANCH  42  43
ATOM     43  C   UNL     1      -6.162  15.005 -11.415  1.00  0.00     0.031 A 
ATOM     44  C   UNL     1      -5.039  15.945 -11.766  1.00  0.00     0.074 A 
ATOM     45  C   UNL     1      -7.199  15.442 -10.672  1.00  0.00     0.049 A 
ATOM     46  N   UNL     1      -4.886  17.205 -11.444  1.00  0.00    -0.248 NA
ATOM     47  C   UNL     1      -3.929  15.392 -12.559  1.00  0.00     0.031 C 
ATOM     48  C   UNL     1      -8.329  14.623 -10.226  1.00  0.00     0.029 A 
ATOM     49  N   UNL     1      -7.471  16.685 -10.155  1.00  0.00    -0.354 N 
ATOM     50  C   UNL     1      -3.659  17.586 -11.975  1.00  0.00     0.074 A 
ATOM     51  C   UNL     1      -3.084  16.412 -12.593  1.00  0.00     0.031 C 
ATOM     52  C   UNL     1      -9.183  15.390  -9.530  1.00  0.00     0.029 A 
ATOM     53  C   UNL     1      -8.645  16.743  -9.440  1.00  0.00     0.049 A 
ATOM     54  H   UNL     1      -6.880  17.462 -10.284  1.00  0.00     0.167 HD
ATOM     55  C   UNL     1      -3.072  18.807 -11.968  1.00  0.00     0.031 A 
ATOM     56  C   UNL     1      -9.222  17.766  -8.780  1.00  0.00     0.031 A 
ATOM     57  C   UNL     1      -3.654  19.977 -11.366  1.00  0.00     0.049 A 
ATOM     58  C   UNL     1      -8.550  19.113  -8.783  1.00  0.00     0.074 A 
ATOM     59  C   UNL     1      -3.167  21.272 -11.357  1.00  0.00     0.029 A 
ATOM     60  N   UNL     1      -4.851  19.995 -10.666  1.00  0.00    -0.354 N 
ATOM     61  N   UNL     1      -7.420  19.468  -9.349  1.00  0.00    -0.248 NA
ATOM     62  C   UNL     1      -9.235  20.199  -8.071  1.00  0.00     0.031 C 
ATOM     63  C   UNL     1      -4.042  22.063 -10.606  1.00  0.00     0.029 A 
ATOM     64  C   UNL     1      -5.108  21.274 -10.202  1.00  0.00     0.049 A 
ATOM     65  H   UNL     1      -5.433  19.214 -10.521  1.00  0.00     0.167 HD
ATOM     66  C   UNL     1      -7.276  20.826  -9.086  1.00  0.00     0.074 A 
ATOM     67  C   UNL     1      -8.440  21.230  -8.323  1.00  0.00     0.031 C 
ATOM     68  C   UNL     1      -6.272  21.663  -9.446  1.00  0.00     0.031 A 
BRANCH  55  69
ATOM     69  C   UNL     1      -1.726  18.937 -12.632  1.00  0.00    -0.014 A 
ATOM     70  C   UNL     1      -1.589  18.829 -14.028  1.00  0.00     0.010 A 
ATOM     71  C   UNL     1      -0.585  19.211 -11.854  1.00  0.00     0.010 A 
ATOM     72  C   UNL     1      -0.334  18.948 -14.630  1.00  0.00     0.020 A 
ATOM     73  C   UNL     1       0.668  19.362 -12.455  1.00  0.00     0.020 A 
ATOM     74  C   UNL     1       0.788  19.212 -13.838  1.00  0.00     0.054 A 
BRANCH  74  75
ATOM     75  S   UNL     1       2.401  19.384 -14.649  1.00  0.00     0.124 S 
ATOM     76  O   UNL     1       2.697  18.004 -15.027  1.00  0.00    -0.237 OA
ATOM     77  O   UNL     1       2.106  20.288 -15.758  1.00  0.00    -0.237 OA
ATOM     78  O   UNL     1       3.257  19.941 -13.605  1.00  0.00    -0.744 OA
ENDBRANCH  74  75
ENDBRANCH  55  69
BRANCH  56  79
ATOM     79  C   UNL     1     -10.517  17.562  -8.073  1.00  0.00    -0.014 A 
ATOM     80  C   UNL     1     -11.697  18.152  -8.558  1.00  0.00     0.010 A 
ATOM     81  C   UNL     1     -10.579  16.766  -6.914  1.00  0.00     0.010 A 
ATOM     82  C   UNL     1     -12.911  17.969  -7.888  1.00  0.00     0.020 A 
ATOM     83  C   UNL     1     -11.796  16.556  -6.258  1.00  0.00     0.020 A 
ATOM     84  C   UNL     1     -12.952  17.169  -6.742  1.00  0.00     0.054 A 
BRANCH  84  85
ATOM     85  S   UNL     1     -14.547  16.904  -5.917  1.00  0.00     0.124 S 
ATOM     86  O   UNL     1     -14.779  18.198  -5.284  1.00  0.00    -0.237 OA
ATOM     87  O   UNL     1     -15.429  16.578  -7.035  1.00  0.00    -0.237 OA
ATOM     88  O   UNL     1     -14.278  15.797  -5.002  1.00  0.00    -0.744 OA
ENDBRANCH  84  85
ENDBRANCH  56  79
BRANCH  68  89
ATOM     89  C   UNL     1      -6.401  23.112  -9.056  1.00  0.00    -0.014 A 
ATOM     90  C   UNL     1      -6.254  23.527  -7.721  1.00  0.00     0.010 A 
ATOM     91  C   UNL     1      -6.614  24.079 -10.056  1.00  0.00     0.010 A 
ATOM     92  C   UNL     1      -6.349  24.881  -7.390  1.00  0.00     0.020 A 
ATOM     93  C   UNL     1      -6.680  25.436  -9.733  1.00  0.00     0.020 A 
ATOM     94  C   UNL     1      -6.560  25.828  -8.398  1.00  0.00     0.054 A 
BRANCH  94  95
ATOM     95  S   UNL     1      -6.632  27.583  -7.947  1.00  0.00     0.124 S 
ATOM     96  O   UNL     1      -7.935  27.675  -7.293  1.00  0.00    -0.237 OA
ATOM     97  O   UNL     1      -5.475  27.736  -7.069  1.00  0.00    -0.237 OA
ATOM     98  O   UNL     1      -6.529  28.275  -9.230  1.00  0.00    -0.744 OA
ENDBRANCH  94  95
ENDBRANCH  68  89
ENDBRANCH  42  43
ENDBRANCH  34  37
ENDBRANCH  32  33
ENDBRANCH   1  32
TORSDOF 17
