REMARK SMILES C[C@@H](C(=O)NCCCNC(=O)c1ccc(-c2c3nc(c(-c4ccc(S(=O)(=O)[O-])cc4)c4ccc([nH]4)c(-c4ccc(S(=O)(=O)[O-])cc4)c4nc(c(-c5ccc(S(=O)(=O)[O-])cc5)c5ccc2[nH]5)C=C4)C=C3)cc1)c1ccc(-c2ccccc2)c(F)c1
REMARK SMILES IDX 7 1 6 2 5 3 3 4 4 5 2 7 1 8 72 9 73 10 84 11 74 12 82 13
REMARK SMILES IDX 75 14 83 15 76 16 77 17 81 18 78 19 80 20 79 21 8 22 9 23
REMARK SMILES IDX 10 24 11 26 12 27 13 28 71 29 14 30 70 31 15 32 16 33 17 34
REMARK SMILES IDX 64 35 18 36 69 37 63 38 65 39 19 40 68 41 62 42 61 43 20 45
REMARK SMILES IDX 50 46 31 47 49 48 32 49 35 50 48 51 66 52 33 53 34 54 47 56
REMARK SMILES IDX 67 57 36 58 21 59 22 60 30 61 23 62 29 63 24 64 25 65 26 66
REMARK SMILES IDX 27 67 28 68 51 69 52 70 60 71 53 72 59 73 54 74 55 75 56 76
REMARK SMILES IDX 57 77 58 78 37 79 38 80 46 81 39 82 45 83 40 84 41 85 42 86
REMARK SMILES IDX 43 87 44 88
REMARK H PARENT 5 6 9 25 65 44 35 55
REMARK Flexibility Score: inf
ROOT
ATOM      1  C   UNL     1       4.422  -0.618  -1.127  1.00  0.00     0.042 C 
ENDROOT
BRANCH   1   2
ATOM      2  C   UNL     1       3.522   0.206  -2.047  1.00  0.00     0.117 C 
BRANCH   2   3
ATOM      3  N   UNL     1       2.475  -0.592  -2.655  1.00  0.00    -0.356 N 
ATOM      4  C   UNL     1       1.134  -0.648  -2.407  1.00  0.00     0.227 C 
ATOM      5  O   UNL     1       0.485  -1.427  -3.108  1.00  0.00    -0.274 OA
ATOM      6  H   UNL     1       2.784  -1.196  -3.368  1.00  0.00     0.163 HD
BRANCH   4   7
ATOM      7  C   UNL     1       0.501   0.248  -1.328  1.00  0.00     0.105 C 
ATOM      8  C   UNL     1       0.929  -0.157   0.085  1.00  0.00     0.023 C 
BRANCH   7   9
ATOM      9  C   UNL     1      -1.027   0.274  -1.376  1.00  0.00    -0.033 A 
ATOM     10  C   UNL     1      -1.713   1.495  -1.444  1.00  0.00     0.005 A 
ATOM     11  C   UNL     1      -1.780  -0.905  -1.276  1.00  0.00     0.044 A 
ATOM     12  C   UNL     1      -3.114   1.531  -1.410  1.00  0.00     0.012 A 
ATOM     13  C   UNL     1      -3.173  -0.859  -1.249  1.00  0.00     0.131 A 
ATOM     14  C   UNL     1      -3.873   0.353  -1.306  1.00  0.00     0.017 A 
ATOM     15  F   UNL     1      -3.838  -2.022  -1.157  1.00  0.00    -0.206 F 
BRANCH  14  16
ATOM     16  C   UNL     1      -5.343   0.399  -1.238  1.00  0.00    -0.015 A 
ATOM     17  C   UNL     1      -6.095   1.098  -2.197  1.00  0.00     0.009 A 
ATOM     18  C   UNL     1      -6.039  -0.253  -0.205  1.00  0.00     0.009 A 
ATOM     19  C   UNL     1      -7.491   1.141  -2.128  1.00  0.00     0.001 A 
ATOM     20  C   UNL     1      -7.434  -0.210  -0.134  1.00  0.00     0.001 A 
ATOM     21  C   UNL     1      -8.159   0.487  -1.095  1.00  0.00     0.000 A 
ENDBRANCH  14  16
ENDBRANCH   7   9
ENDBRANCH   4   7
ENDBRANCH   2   3
ENDBRANCH   1   2
BRANCH   1  22
ATOM     22  C   UNL     1       5.153  -1.778  -1.802  1.00  0.00     0.118 C 
BRANCH  22  23
ATOM     23  N   UNL     1       6.059  -1.343  -2.851  1.00  0.00    -0.352 N 
ATOM     24  C   UNL     1       7.395  -1.592  -3.039  1.00  0.00     0.251 C 
ATOM     25  H   UNL     1       5.646  -0.777  -3.542  1.00  0.00     0.163 HD
ATOM     26  O   UNL     1       7.988  -0.979  -3.927  1.00  0.00    -0.269 OA
BRANCH  24  27
ATOM     27  C   UNL     1       8.138  -2.555  -2.192  1.00  0.00     0.039 A 
ATOM     28  C   UNL     1       9.454  -2.240  -1.833  1.00  0.00     0.014 A 
ATOM     29  C   UNL     1       7.592  -3.780  -1.796  1.00  0.00     0.014 A 
ATOM     30  C   UNL     1      10.197  -3.122  -1.044  1.00  0.00     0.010 A 
ATOM     31  C   UNL     1       8.313  -4.632  -0.954  1.00  0.00     0.010 A 
ATOM     32  C   UNL     1       9.624  -4.314  -0.573  1.00  0.00    -0.014 A 
BRANCH  32  33
ATOM     33  C   UNL     1      10.393  -5.212   0.329  1.00  0.00     0.031 A 
ATOM     34  C   UNL     1      10.818  -6.584  -0.120  1.00  0.00     0.074 A 
ATOM     35  C   UNL     1      10.695  -4.793   1.575  1.00  0.00     0.049 A 
ATOM     36  N   UNL     1      11.526  -7.479   0.524  1.00  0.00    -0.248 NA
ATOM     37  C   UNL     1      10.379  -7.017  -1.456  1.00  0.00     0.031 C 
ATOM     38  C   UNL     1      10.298  -3.507   2.154  1.00  0.00     0.029 A 
ATOM     39  N   UNL     1      11.410  -5.401   2.576  1.00  0.00    -0.354 N 
ATOM     40  C   UNL     1      11.611  -8.579  -0.321  1.00  0.00     0.074 A 
ATOM     41  C   UNL     1      10.844  -8.258  -1.506  1.00  0.00     0.031 C 
ATOM     42  C   UNL     1      10.804  -3.408   3.393  1.00  0.00     0.029 A 
ATOM     43  C   UNL     1      11.538  -4.630   3.707  1.00  0.00     0.049 A 
ATOM     44  H   UNL     1      11.795  -6.303   2.492  1.00  0.00     0.167 HD
ATOM     45  C   UNL     1      12.280  -9.744  -0.138  1.00  0.00     0.031 A 
ATOM     46  C   UNL     1      12.181  -4.871   4.866  1.00  0.00     0.031 A 
ATOM     47  C   UNL     1      13.048 -10.064   1.036  1.00  0.00     0.049 A 
ATOM     48  C   UNL     1      12.933  -6.160   5.037  1.00  0.00     0.074 A 
ATOM     49  C   UNL     1      13.804 -11.197   1.290  1.00  0.00     0.029 A 
ATOM     50  N   UNL     1      13.159  -9.253   2.156  1.00  0.00    -0.354 N 
ATOM     51  N   UNL     1      13.057  -7.159   4.196  1.00  0.00    -0.248 NA
ATOM     52  C   UNL     1      13.647  -6.345   6.308  1.00  0.00     0.031 C 
ATOM     53  C   UNL     1      14.340 -11.088   2.579  1.00  0.00     0.029 A 
ATOM     54  C   UNL     1      13.955  -9.867   3.110  1.00  0.00     0.049 A 
ATOM     55  H   UNL     1      12.735  -8.371   2.258  1.00  0.00     0.167 HD
ATOM     56  C   UNL     1      13.874  -8.086   4.831  1.00  0.00     0.074 A 
ATOM     57  C   UNL     1      14.234  -7.519   6.115  1.00  0.00     0.031 C 
ATOM     58  C   UNL     1      14.290  -9.300   4.391  1.00  0.00     0.031 A 
BRANCH  45  59
ATOM     59  C   UNL     1      12.208 -10.764  -1.244  1.00  0.00    -0.014 A 
ATOM     60  C   UNL     1      12.886 -10.560  -2.460  1.00  0.00     0.010 A 
ATOM     61  C   UNL     1      11.484 -11.955  -1.056  1.00  0.00     0.010 A 
ATOM     62  C   UNL     1      12.805 -11.509  -3.483  1.00  0.00     0.020 A 
ATOM     63  C   UNL     1      11.421 -12.918  -2.068  1.00  0.00     0.020 A 
ATOM     64  C   UNL     1      12.068 -12.679  -3.283  1.00  0.00     0.054 A 
BRANCH  64  65
ATOM     65  S   UNL     1      11.991 -13.901  -4.622  1.00  0.00     0.124 S 
ATOM     66  O   UNL     1      11.050 -13.273  -5.547  1.00  0.00    -0.237 OA
ATOM     67  O   UNL     1      13.375 -13.963  -5.082  1.00  0.00    -0.237 OA
ATOM     68  O   UNL     1      11.503 -15.109  -3.961  1.00  0.00    -0.744 OA
ENDBRANCH  64  65
ENDBRANCH  45  59
BRANCH  46  69
ATOM     69  C   UNL     1      12.165  -3.848   5.945  1.00  0.00    -0.014 A 
ATOM     70  C   UNL     1      13.312  -3.083   6.219  1.00  0.00     0.010 A 
ATOM     71  C   UNL     1      10.992  -3.617   6.686  1.00  0.00     0.010 A 
ATOM     72  C   UNL     1      13.291  -2.113   7.225  1.00  0.00     0.020 A 
ATOM     73  C   UNL     1      10.961  -2.631   7.676  1.00  0.00     0.020 A 
ATOM     74  C   UNL     1      12.114  -1.892   7.946  1.00  0.00     0.054 A 
BRANCH  74  75
ATOM     75  S   UNL     1      12.086  -0.581   9.201  1.00  0.00     0.124 S 
ATOM     76  O   UNL     1      12.779  -1.215  10.317  1.00  0.00    -0.237 OA
ATOM     77  O   UNL     1      12.806   0.506   8.542  1.00  0.00    -0.237 OA
ATOM     78  O   UNL     1      10.659  -0.337   9.403  1.00  0.00    -0.744 OA
ENDBRANCH  74  75
ENDBRANCH  46  69
BRANCH  58  79
ATOM     79  C   UNL     1      15.188 -10.087   5.306  1.00  0.00    -0.014 A 
ATOM     80  C   UNL     1      14.682 -10.695   6.469  1.00  0.00     0.010 A 
ATOM     81  C   UNL     1      16.551 -10.229   4.993  1.00  0.00     0.010 A 
ATOM     82  C   UNL     1      15.535 -11.394   7.328  1.00  0.00     0.020 A 
ATOM     83  C   UNL     1      17.402 -10.948   5.838  1.00  0.00     0.020 A 
ATOM     84  C   UNL     1      16.892 -11.508   7.011  1.00  0.00     0.054 A 
BRANCH  84  85
ATOM     85  S   UNL     1      17.981 -12.427   8.134  1.00  0.00     0.124 S 
ATOM     86  O   UNL     1      18.200 -11.457   9.203  1.00  0.00    -0.237 OA
ATOM     87  O   UNL     1      17.170 -13.587   8.495  1.00  0.00    -0.237 OA
ATOM     88  O   UNL     1      19.151 -12.725   7.312  1.00  0.00    -0.744 OA
ENDBRANCH  84  85
ENDBRANCH  58  79
ENDBRANCH  32  33
ENDBRANCH  24  27
ENDBRANCH  22  23
ENDBRANCH   1  22
TORSDOF 15
