REMARK SMILES NS(=O)(=O)c1ccc(-n2nc(C(=O)NCCCNC(=O)c3ccc(-c4c5nc(c(-c6ccc(S(=O)(=O)[O-])cc6)c6ccc([nH]6)c(-c6ccc(S(=O)(=O)[O-])cc6)c6nc(c(-c7ccc(S(=O)(=O)[O-])cc7)c7ccc4[nH]7)C=C6)C=C5)cc3)c(Cl)c2-c2ccc(Cl)cc2)cc1
REMARK SMILES IDX 16 1 15 2 14 3 12 4 13 5 11 7 9 8 10 9 83 10 81 11 82 12
REMARK SMILES IDX 8 13 5 14 6 15 92 16 7 17 91 18 2 19 3 20 4 21 1 22 84 25
REMARK SMILES IDX 85 26 90 27 86 28 89 29 87 30 88 31 17 32 18 33 19 34 20 36
REMARK SMILES IDX 21 37 22 38 80 39 23 40 79 41 24 42 25 43 26 44 73 45 27 46
REMARK SMILES IDX 78 47 72 48 74 49 28 50 77 51 71 52 70 53 29 55 59 56 40 57
REMARK SMILES IDX 58 58 41 59 44 60 57 61 75 62 42 63 43 64 56 66 76 67 45 68
REMARK SMILES IDX 30 69 31 70 39 71 32 72 38 73 33 74 34 75 35 76 36 77 37 78
REMARK SMILES IDX 60 79 61 80 69 81 62 82 68 83 63 84 64 85 65 86 66 87 67 88
REMARK SMILES IDX 46 89 47 90 55 91 48 92 54 93 49 94 50 95 51 96 52 97 53 98
REMARK H PARENT 14 6 1 23 1 24 18 35 74 54 44 65
REMARK Flexibility Score: inf
ROOT
ATOM      1  C   UNL     1       1.128  -6.769  10.656  1.00  0.00     0.042 C 
ENDROOT
BRANCH   1   2
ATOM      2  C   UNL     1       2.376  -5.990  10.222  1.00  0.00     0.118 C 
BRANCH   2   3
ATOM      3  N   UNL     1       3.056  -6.614   9.089  1.00  0.00    -0.351 N 
ATOM      4  C   UNL     1       3.073  -6.306   7.739  1.00  0.00     0.273 C 
ATOM      5  O   UNL     1       3.865  -6.938   7.038  1.00  0.00    -0.267 OA
ATOM      6  H   UNL     1       3.601  -7.398   9.330  1.00  0.00     0.163 HD
BRANCH   4   7
ATOM      7  C   UNL     1       2.248  -5.213   7.196  1.00  0.00     0.169 A 
ATOM      8  N   UNL     1       1.785  -3.438   6.081  1.00  0.00    -0.231 N 
ATOM      9  N   UNL     1       2.723  -4.400   6.219  1.00  0.00    -0.160 NA
ATOM     10  C   UNL     1       0.772  -3.563   7.005  1.00  0.00     0.094 A 
ATOM     11  C   UNL     1       0.910  -4.852   7.469  1.00  0.00     0.100 A 
ATOM     12  Cl  UNL     1      -0.352  -5.727   8.182  1.00  0.00    -0.079 Cl
BRANCH   8  13
ATOM     13  C   UNL     1       1.773  -2.545   4.990  1.00  0.00     0.065 A 
ATOM     14  C   UNL     1       1.145  -0.779   2.948  1.00  0.00     0.082 A 
ATOM     15  C   UNL     1       1.177  -2.154   2.682  1.00  0.00     0.024 A 
ATOM     16  C   UNL     1       1.478  -0.283   4.213  1.00  0.00     0.024 A 
ATOM     17  C   UNL     1       1.512  -3.046   3.706  1.00  0.00     0.030 A 
ATOM     18  C   UNL     1       1.773  -1.171   5.245  1.00  0.00     0.030 A 
BRANCH  14  19
ATOM     19  S   UNL     1       0.635   0.371   1.706  1.00  0.00     0.238 S 
ATOM     20  O   UNL     1       1.228   1.651   1.973  1.00  0.00    -0.207 OA
ATOM     21  O   UNL     1      -0.791   0.202   1.490  1.00  0.00    -0.207 OA
BRANCH  19  22
ATOM     22  N   UNL     1       1.384  -0.182   0.311  1.00  0.00    -0.225 NA
ATOM     23  H   UNL     1       1.144   0.430  -0.469  1.00  0.00     0.137 HD
ATOM     24  H   UNL     1       1.069  -1.131   0.109  1.00  0.00     0.137 HD
ENDBRANCH  19  22
ENDBRANCH  14  19
ENDBRANCH   8  13
BRANCH  10  25
ATOM     25  C   UNL     1      -0.350  -2.670   7.242  1.00  0.00     0.002 A 
ATOM     26  C   UNL     1      -0.324  -1.860   8.385  1.00  0.00     0.012 A 
ATOM     27  C   UNL     1      -1.531  -2.805   6.506  1.00  0.00     0.012 A 
ATOM     28  C   UNL     1      -1.488  -1.227   8.820  1.00  0.00     0.021 A 
ATOM     29  C   UNL     1      -2.695  -2.174   6.945  1.00  0.00     0.021 A 
ATOM     30  C   UNL     1      -2.672  -1.404   8.108  1.00  0.00     0.041 A 
ATOM     31  Cl  UNL     1      -4.130  -0.706   8.698  1.00  0.00    -0.084 Cl
ENDBRANCH  10  25
ENDBRANCH   4   7
ENDBRANCH   2   3
ENDBRANCH   1   2
BRANCH   1  32
ATOM     32  C   UNL     1       1.386  -7.854  11.672  1.00  0.00     0.118 C 
BRANCH  32  33
ATOM     33  N   UNL     1       1.508  -7.371  13.047  1.00  0.00    -0.352 N 
ATOM     34  C   UNL     1       1.622  -8.151  14.191  1.00  0.00     0.251 C 
ATOM     35  H   UNL     1       1.509  -6.395  13.175  1.00  0.00     0.163 HD
ATOM     36  O   UNL     1       1.357  -7.687  15.293  1.00  0.00    -0.269 OA
BRANCH  34  37
ATOM     37  C   UNL     1       2.043  -9.558  14.035  1.00  0.00     0.039 A 
ATOM     38  C   UNL     1       1.477 -10.599  14.772  1.00  0.00     0.014 A 
ATOM     39  C   UNL     1       2.972  -9.831  13.039  1.00  0.00     0.014 A 
ATOM     40  C   UNL     1       1.789 -11.913  14.419  1.00  0.00     0.010 A 
ATOM     41  C   UNL     1       3.068 -11.097  12.536  1.00  0.00     0.010 A 
ATOM     42  C   UNL     1       2.564 -12.156  13.271  1.00  0.00    -0.014 A 
BRANCH  42  43
ATOM     43  C   UNL     1       2.817 -13.505  12.779  1.00  0.00     0.031 A 
ATOM     44  C   UNL     1       1.619 -14.370  12.664  1.00  0.00     0.074 A 
ATOM     45  C   UNL     1       4.006 -13.912  12.279  1.00  0.00     0.049 A 
ATOM     46  N   UNL     1       1.280 -15.339  13.446  1.00  0.00    -0.248 NA
ATOM     47  C   UNL     1       0.606 -14.034  11.651  1.00  0.00     0.031 C 
ATOM     48  C   UNL     1       5.223 -13.127  12.020  1.00  0.00     0.029 A 
ATOM     49  N   UNL     1       4.341 -15.135  11.791  1.00  0.00    -0.354 N 
ATOM     50  C   UNL     1       0.131 -15.889  12.896  1.00  0.00     0.074 A 
ATOM     51  C   UNL     1      -0.341 -14.936  11.920  1.00  0.00     0.031 C 
ATOM     52  C   UNL     1       6.055 -13.824  11.215  1.00  0.00     0.029 A 
ATOM     53  C   UNL     1       5.534 -15.169  11.081  1.00  0.00     0.049 A 
ATOM     54  H   UNL     1       3.782 -15.934  11.931  1.00  0.00     0.167 HD
ATOM     55  C   UNL     1      -0.206 -17.193  13.106  1.00  0.00     0.031 A 
ATOM     56  C   UNL     1       6.066 -16.234  10.435  1.00  0.00     0.031 A 
ATOM     57  C   UNL     1       0.576 -17.782  14.165  1.00  0.00     0.049 A 
ATOM     58  C   UNL     1       5.468 -17.443  11.048  1.00  0.00     0.074 A 
ATOM     59  C   UNL     1       0.769 -17.492  15.502  1.00  0.00     0.029 A 
ATOM     60  N   UNL     1       1.643 -18.568  13.793  1.00  0.00    -0.354 N 
ATOM     61  N   UNL     1       5.677 -17.794  12.287  1.00  0.00    -0.248 NA
ATOM     62  C   UNL     1       4.283 -18.015  10.431  1.00  0.00     0.031 C 
ATOM     63  C   UNL     1       2.165 -17.695  15.723  1.00  0.00     0.029 A 
ATOM     64  C   UNL     1       2.728 -18.174  14.538  1.00  0.00     0.049 A 
ATOM     65  H   UNL     1       1.631 -19.283  13.117  1.00  0.00     0.167 HD
ATOM     66  C   UNL     1       4.450 -18.260  12.737  1.00  0.00     0.074 A 
ATOM     67  C   UNL     1       3.664 -18.474  11.523  1.00  0.00     0.031 C 
ATOM     68  C   UNL     1       4.096 -18.171  14.054  1.00  0.00     0.031 A 
BRANCH  55  69
ATOM     69  C   UNL     1      -0.963 -18.028  12.105  1.00  0.00    -0.014 A 
ATOM     70  C   UNL     1      -1.384 -19.323  12.463  1.00  0.00     0.010 A 
ATOM     71  C   UNL     1      -1.058 -17.679  10.741  1.00  0.00     0.010 A 
ATOM     72  C   UNL     1      -1.840 -20.232  11.498  1.00  0.00     0.020 A 
ATOM     73  C   UNL     1      -1.552 -18.559   9.779  1.00  0.00     0.020 A 
ATOM     74  C   UNL     1      -1.914 -19.843  10.159  1.00  0.00     0.054 A 
BRANCH  74  75
ATOM     75  S   UNL     1      -2.429 -21.044   8.908  1.00  0.00     0.124 S 
ATOM     76  O   UNL     1      -1.321 -21.995   8.930  1.00  0.00    -0.237 OA
ATOM     77  O   UNL     1      -3.695 -21.531   9.450  1.00  0.00    -0.237 OA
ATOM     78  O   UNL     1      -2.545 -20.243   7.692  1.00  0.00    -0.744 OA
ENDBRANCH  74  75
ENDBRANCH  55  69
BRANCH  56  79
ATOM     79  C   UNL     1       6.811 -16.254   9.156  1.00  0.00    -0.014 A 
ATOM     80  C   UNL     1       7.507 -17.406   8.747  1.00  0.00     0.010 A 
ATOM     81  C   UNL     1       6.589 -15.244   8.196  1.00  0.00     0.010 A 
ATOM     82  C   UNL     1       7.895 -17.578   7.408  1.00  0.00     0.020 A 
ATOM     83  C   UNL     1       6.978 -15.406   6.861  1.00  0.00     0.020 A 
ATOM     84  C   UNL     1       7.604 -16.587   6.467  1.00  0.00     0.054 A 
BRANCH  84  85
ATOM     85  S   UNL     1       7.924 -16.908   4.706  1.00  0.00     0.124 S 
ATOM     86  O   UNL     1       9.382 -16.862   4.643  1.00  0.00    -0.237 OA
ATOM     87  O   UNL     1       7.324 -18.225   4.510  1.00  0.00    -0.237 OA
ATOM     88  O   UNL     1       7.238 -15.811   4.026  1.00  0.00    -0.744 OA
ENDBRANCH  84  85
ENDBRANCH  56  79
BRANCH  68  89
ATOM     89  C   UNL     1       5.170 -17.820  15.067  1.00  0.00    -0.014 A 
ATOM     90  C   UNL     1       5.912 -16.621  15.049  1.00  0.00     0.010 A 
ATOM     91  C   UNL     1       5.335 -18.685  16.164  1.00  0.00     0.010 A 
ATOM     92  C   UNL     1       6.812 -16.314  16.084  1.00  0.00     0.020 A 
ATOM     93  C   UNL     1       6.215 -18.377  17.206  1.00  0.00     0.020 A 
ATOM     94  C   UNL     1       6.958 -17.197  17.157  1.00  0.00     0.054 A 
BRANCH  94  95
ATOM     95  S   UNL     1       8.093 -16.783  18.513  1.00  0.00     0.124 S 
ATOM     96  O   UNL     1       9.402 -16.891  17.877  1.00  0.00    -0.237 OA
ATOM     97  O   UNL     1       7.682 -15.430  18.881  1.00  0.00    -0.237 OA
ATOM     98  O   UNL     1       7.813 -17.801  19.526  1.00  0.00    -0.744 OA
ENDBRANCH  94  95
ENDBRANCH  68  89
ENDBRANCH  42  43
ENDBRANCH  34  37
ENDBRANCH  32  33
ENDBRANCH   1  32
TORSDOF 17
