REMARK SMILES CC(=O)Nc1cccc(-c2ccc(F)c(C(=O)NCCCNC(=O)c3ccc(-c4c5nc(c(-c6ccc(S(=O)(=O)[O-])cc6)c6ccc([nH]6)c(-c6ccc(S(=O)(=O)[O-])cc6)c6nc(c(-c7ccc(S(=O)(=O)[O-])cc7)c7ccc4[nH]7)C=C6)C=C5)cc3)c2)c1
REMARK SMILES IDX 20 1 19 2 18 3 16 4 17 5 15 7 10 8 11 9 85 10 12 11 13 12
REMARK SMILES IDX 14 13 9 14 5 15 6 16 86 17 7 18 8 19 4 20 1 21 2 22 3 23
REMARK SMILES IDX 21 25 22 26 23 27 24 29 25 30 26 31 84 32 27 33 83 34 28 35
REMARK SMILES IDX 29 36 30 37 77 38 31 39 82 40 76 41 78 42 32 43 81 44 75 45
REMARK SMILES IDX 74 46 33 48 63 49 44 50 62 51 45 52 48 53 61 54 79 55 46 56
REMARK SMILES IDX 47 57 60 59 80 60 49 61 34 62 35 63 43 64 36 65 42 66 37 67
REMARK SMILES IDX 38 68 39 69 40 70 41 71 64 72 65 73 73 74 66 75 72 76 67 77
REMARK SMILES IDX 68 78 69 79 70 80 71 81 50 82 51 83 59 84 52 85 58 86 53 87
REMARK SMILES IDX 54 88 55 89 56 90 57 91
REMARK H PARENT 18 6 4 24 22 28 78 47 48 58
REMARK Flexibility Score: inf
ROOT
ATOM      1  C   UNL     1       6.407   0.848  -3.782  1.00  0.00     0.042 C 
ENDROOT
BRANCH   1   2
ATOM      2  C   UNL     1       6.306  -0.183  -2.658  1.00  0.00     0.118 C 
BRANCH   2   3
ATOM      3  N   UNL     1       7.503  -0.197  -1.833  1.00  0.00    -0.352 N 
ATOM      4  C   UNL     1       7.882   0.372  -0.641  1.00  0.00     0.254 C 
ATOM      5  O   UNL     1       9.007   0.060  -0.249  1.00  0.00    -0.269 OA
ATOM      6  H   UNL     1       8.218  -0.749  -2.225  1.00  0.00     0.163 HD
BRANCH   4   7
ATOM      7  C   UNL     1       7.040   1.290   0.183  1.00  0.00     0.076 A 
ATOM      8  C   UNL     1       5.029   2.660   0.576  1.00  0.00    -0.017 A 
ATOM      9  C   UNL     1       5.490   2.983   1.853  1.00  0.00     0.012 A 
ATOM     10  C   UNL     1       5.843   1.858  -0.254  1.00  0.00     0.025 A 
ATOM     11  C   UNL     1       6.716   2.482   2.292  1.00  0.00     0.041 A 
ATOM     12  C   UNL     1       7.468   1.635   1.472  1.00  0.00     0.135 A 
ATOM     13  F   UNL     1       8.620   1.172   1.980  1.00  0.00    -0.206 F 
BRANCH   8  14
ATOM     14  C   UNL     1       3.744   3.132   0.042  1.00  0.00    -0.016 A 
ATOM     15  C   UNL     1       1.661   2.600  -1.131  1.00  0.00     0.041 A 
ATOM     16  C   UNL     1       1.491   3.962  -1.398  1.00  0.00     0.026 A 
ATOM     17  C   UNL     1       2.786   2.198  -0.410  1.00  0.00     0.034 A 
ATOM     18  C   UNL     1       2.390   4.906  -0.896  1.00  0.00     0.003 A 
ATOM     19  C   UNL     1       3.509   4.494  -0.173  1.00  0.00     0.009 A 
BRANCH  15  20
ATOM     20  N   UNL     1       0.736   1.712  -1.706  1.00  0.00    -0.326 N 
ATOM     21  C   UNL     1       0.826  -0.219  -0.131  1.00  0.00     0.114 C 
ATOM     22  C   UNL     1       0.408   0.418  -1.427  1.00  0.00     0.221 C 
ATOM     23  O   UNL     1      -0.293  -0.206  -2.228  1.00  0.00    -0.275 OA
ATOM     24  H   UNL     1       0.226   2.099  -2.455  1.00  0.00     0.169 HD
ENDBRANCH  15  20
ENDBRANCH   8  14
ENDBRANCH   4   7
ENDBRANCH   2   3
ENDBRANCH   1   2
BRANCH   1  25
ATOM     25  C   UNL     1       7.231   0.347  -4.969  1.00  0.00     0.118 C 
BRANCH  25  26
ATOM     26  N   UNL     1       6.573  -0.760  -5.659  1.00  0.00    -0.352 N 
ATOM     27  C   UNL     1       6.069  -0.836  -6.936  1.00  0.00     0.251 C 
ATOM     28  H   UNL     1       6.476  -1.582  -5.126  1.00  0.00     0.163 HD
ATOM     29  O   UNL     1       5.334  -1.765  -7.246  1.00  0.00    -0.269 OA
BRANCH  27  30
ATOM     30  C   UNL     1       6.415   0.203  -7.927  1.00  0.00     0.039 A 
ATOM     31  C   UNL     1       5.423   0.710  -8.771  1.00  0.00     0.014 A 
ATOM     32  C   UNL     1       7.730   0.657  -8.035  1.00  0.00     0.014 A 
ATOM     33  C   UNL     1       5.736   1.730  -9.674  1.00  0.00     0.010 A 
ATOM     34  C   UNL     1       8.023   1.722  -8.875  1.00  0.00     0.010 A 
ATOM     35  C   UNL     1       7.031   2.270  -9.704  1.00  0.00    -0.014 A 
BRANCH  35  36
ATOM     36  C   UNL     1       7.409   3.394 -10.597  1.00  0.00     0.031 A 
ATOM     37  C   UNL     1       8.488   3.183 -11.624  1.00  0.00     0.074 A 
ATOM     38  C   UNL     1       6.878   4.618 -10.406  1.00  0.00     0.049 A 
ATOM     39  N   UNL     1       9.132   4.067 -12.340  1.00  0.00    -0.248 NA
ATOM     40  C   UNL     1       8.925   1.794 -11.846  1.00  0.00     0.031 C 
ATOM     41  C   UNL     1       5.832   4.952  -9.436  1.00  0.00     0.029 A 
ATOM     42  N   UNL     1       7.168   5.819 -11.005  1.00  0.00    -0.354 N 
ATOM     43  C   UNL     1      10.070   3.347 -13.071  1.00  0.00     0.074 A 
ATOM     44  C   UNL     1       9.942   1.961 -12.678  1.00  0.00     0.031 C 
ATOM     45  C   UNL     1       5.560   6.265  -9.515  1.00  0.00     0.029 A 
ATOM     46  C   UNL     1       6.450   6.877 -10.496  1.00  0.00     0.049 A 
ATOM     47  H   UNL     1       7.827   5.914 -11.730  1.00  0.00     0.167 HD
ATOM     48  C   UNL     1      10.947   3.797 -13.998  1.00  0.00     0.031 A 
ATOM     49  C   UNL     1       6.521   8.195 -10.771  1.00  0.00     0.031 A 
ATOM     50  C   UNL     1      11.051   5.174 -14.398  1.00  0.00     0.049 A 
ATOM     51  C   UNL     1       7.523   8.676 -11.787  1.00  0.00     0.074 A 
ATOM     52  C   UNL     1      11.887   5.734 -15.348  1.00  0.00     0.029 A 
ATOM     53  N   UNL     1      10.283   6.206 -13.880  1.00  0.00    -0.354 N 
ATOM     54  N   UNL     1       8.393   7.979 -12.478  1.00  0.00    -0.248 NA
ATOM     55  C   UNL     1       7.550  10.119 -12.064  1.00  0.00     0.031 C 
ATOM     56  C   UNL     1      11.649   7.111 -15.379  1.00  0.00     0.029 A 
ATOM     57  C   UNL     1      10.625   7.399 -14.489  1.00  0.00     0.049 A 
ATOM     58  H   UNL     1       9.596   6.104 -13.182  1.00  0.00     0.167 HD
ATOM     59  C   UNL     1       9.036   8.893 -13.306  1.00  0.00     0.074 A 
ATOM     60  C   UNL     1       8.460  10.191 -13.027  1.00  0.00     0.031 C 
ATOM     61  C   UNL     1      10.012   8.674 -14.221  1.00  0.00     0.031 A 
BRANCH  48  62
ATOM     62  C   UNL     1      11.859   2.789 -14.646  1.00  0.00    -0.014 A 
ATOM     63  C   UNL     1      11.353   1.827 -15.538  1.00  0.00     0.010 A 
ATOM     64  C   UNL     1      13.242   2.829 -14.395  1.00  0.00     0.010 A 
ATOM     65  C   UNL     1      12.207   0.897 -16.136  1.00  0.00     0.020 A 
ATOM     66  C   UNL     1      14.105   1.919 -15.015  1.00  0.00     0.020 A 
ATOM     67  C   UNL     1      13.578   0.948 -15.869  1.00  0.00     0.054 A 
BRANCH  67  68
ATOM     68  S   UNL     1      14.665  -0.254 -16.682  1.00  0.00     0.124 S 
ATOM     69  O   UNL     1      14.342  -1.485 -15.964  1.00  0.00    -0.237 OA
ATOM     70  O   UNL     1      14.217  -0.203 -18.071  1.00  0.00    -0.237 OA
ATOM     71  O   UNL     1      16.006   0.272 -16.442  1.00  0.00    -0.744 OA
ENDBRANCH  67  68
ENDBRANCH  48  62
BRANCH  49  72
ATOM     72  C   UNL     1       5.614   9.155 -10.085  1.00  0.00    -0.014 A 
ATOM     73  C   UNL     1       4.592   9.802 -10.803  1.00  0.00     0.010 A 
ATOM     74  C   UNL     1       5.768   9.438  -8.715  1.00  0.00     0.010 A 
ATOM     75  C   UNL     1       3.763  10.735 -10.174  1.00  0.00     0.020 A 
ATOM     76  C   UNL     1       4.922  10.349  -8.075  1.00  0.00     0.020 A 
ATOM     77  C   UNL     1       3.934  11.004  -8.813  1.00  0.00     0.054 A 
BRANCH  77  78
ATOM     78  S   UNL     1       2.829  12.199  -8.011  1.00  0.00     0.124 S 
ATOM     79  O   UNL     1       3.333  13.469  -8.524  1.00  0.00    -0.237 OA
ATOM     80  O   UNL     1       1.515  11.793  -8.501  1.00  0.00    -0.237 OA
ATOM     81  O   UNL     1       3.053  11.965  -6.585  1.00  0.00    -0.744 OA
ENDBRANCH  77  78
ENDBRANCH  49  72
BRANCH  61  82
ATOM     82  C   UNL     1      10.470   9.840 -15.054  1.00  0.00    -0.014 A 
ATOM     83  C   UNL     1      11.311  10.833 -14.526  1.00  0.00     0.010 A 
ATOM     84  C   UNL     1      10.136   9.873 -16.421  1.00  0.00     0.010 A 
ATOM     85  C   UNL     1      11.809  11.844 -15.353  1.00  0.00     0.020 A 
ATOM     86  C   UNL     1      10.651  10.867 -17.255  1.00  0.00     0.020 A 
ATOM     87  C   UNL     1      11.482  11.849 -16.714  1.00  0.00     0.054 A 
BRANCH  87  88
ATOM     88  S   UNL     1      12.217  13.116 -17.784  1.00  0.00     0.124 S 
ATOM     89  O   UNL     1      11.475  14.312 -17.393  1.00  0.00    -0.237 OA
ATOM     90  O   UNL     1      13.623  13.092 -17.388  1.00  0.00    -0.237 OA
ATOM     91  O   UNL     1      11.948  12.629 -19.135  1.00  0.00    -0.744 OA
ENDBRANCH  87  88
ENDBRANCH  61  82
ENDBRANCH  35  36
ENDBRANCH  27  30
ENDBRANCH  25  26
ENDBRANCH   1  25
TORSDOF 15
