REMARK SMILES CC(=O)N[C@@H](Cc1cc(Br)c(O)c(Br)c1)C(=O)NCCCNC(=O)c1ccc(-c2c3nc(c(-c4ccc(S(=O)(=O)[O-])cc4)c4ccc([nH]4)c(-c4ccc(S(=O)(=O)[O-])cc4)c4nc(c(-c5ccc(S(=O)(=O)[O-])cc5)c5ccc2[nH]5)C=C4)C=C3)cc1
REMARK SMILES IDX 20 1 19 2 18 3 16 4 17 5 5 7 4 8 1 9 2 10 3 11 6 13 7 14
REMARK SMILES IDX 8 15 15 16 9 17 13 18 10 19 11 20 14 21 12 22 21 24 22 25
REMARK SMILES IDX 23 26 24 28 25 29 26 30 84 31 27 32 83 33 28 34 29 35 30 36
REMARK SMILES IDX 77 37 31 38 82 39 76 40 78 41 32 42 81 43 75 44 74 45 33 47
REMARK SMILES IDX 63 48 44 49 62 50 45 51 48 52 61 53 79 54 46 55 47 56 60 58
REMARK SMILES IDX 80 59 49 60 34 61 35 62 43 63 36 64 42 65 37 66 38 67 39 68
REMARK SMILES IDX 40 69 41 70 64 71 65 72 73 73 66 74 72 75 67 76 68 77 69 78
REMARK SMILES IDX 70 79 71 80 50 81 51 82 59 83 52 84 58 85 53 86 54 87 55 88
REMARK SMILES IDX 56 89 57 90
REMARK H PARENT 18 6 4 12 12 23 22 27 78 46 48 57
REMARK Flexibility Score: inf
ROOT
ATOM      1  C   UNL     1      -1.221  -4.710   3.243  1.00  0.00     0.042 C 
ENDROOT
BRANCH   1   2
ATOM      2  C   UNL     1       0.158  -4.577   2.635  1.00  0.00     0.117 C 
BRANCH   2   3
ATOM      3  N   UNL     1       0.194  -4.480   1.191  1.00  0.00    -0.354 N 
ATOM      4  C   UNL     1       1.069  -3.798   0.396  1.00  0.00     0.242 C 
ATOM      5  O   UNL     1       1.197  -4.200  -0.766  1.00  0.00    -0.273 OA
ATOM      6  H   UNL     1      -0.512  -4.976   0.716  1.00  0.00     0.163 HD
BRANCH   4   7
ATOM      7  C   UNL     1       1.964  -2.643   0.911  1.00  0.00     0.175 C 
BRANCH   7   8
ATOM      8  N   UNL     1       1.244  -1.668   1.736  1.00  0.00    -0.344 N 
ATOM      9  C   UNL     1       0.985   0.048  -0.023  1.00  0.00     0.114 C 
ATOM     10  C   UNL     1       0.680  -0.490   1.347  1.00  0.00     0.217 C 
ATOM     11  O   UNL     1      -0.041   0.115   2.136  1.00  0.00    -0.275 OA
ATOM     12  H   UNL     1       1.157  -1.893   2.690  1.00  0.00     0.164 HD
ENDBRANCH   7   8
BRANCH   7  13
ATOM     13  C   UNL     1       3.320  -3.095   1.504  1.00  0.00     0.070 C 
BRANCH  13  14
ATOM     14  C   UNL     1       3.297  -3.941   2.756  1.00  0.00    -0.043 A 
ATOM     15  C   UNL     1       3.441  -5.335   2.671  1.00  0.00     0.023 A 
ATOM     16  C   UNL     1       3.069  -3.361   4.013  1.00  0.00     0.023 A 
ATOM     17  C   UNL     1       3.262  -6.136   3.806  1.00  0.00     0.061 A 
ATOM     18  C   UNL     1       2.882  -4.166   5.144  1.00  0.00     0.061 A 
ATOM     19  Br  UNL     1       3.361  -8.019   3.612  1.00  0.00    -0.047 Br
ATOM     20  C   UNL     1       2.950  -5.558   5.038  1.00  0.00     0.143 A 
ATOM     21  Br  UNL     1       2.443  -3.318   6.783  1.00  0.00    -0.047 Br
BRANCH  20  22
ATOM     22  O   UNL     1       2.670  -6.332   6.132  1.00  0.00    -0.506 OA
ATOM     23  H   UNL     1       2.713  -7.265   6.069  1.00  0.00     0.293 HD
ENDBRANCH  20  22
ENDBRANCH  13  14
ENDBRANCH   7  13
ENDBRANCH   4   7
ENDBRANCH   2   3
ENDBRANCH   1   2
BRANCH   1  24
ATOM     24  C   UNL     1      -1.849  -6.077   3.023  1.00  0.00     0.118 C 
BRANCH  24  25
ATOM     25  N   UNL     1      -1.087  -7.169   3.629  1.00  0.00    -0.352 N 
ATOM     26  C   UNL     1      -1.344  -7.951   4.731  1.00  0.00     0.251 C 
ATOM     27  H   UNL     1      -0.243  -7.381   3.167  1.00  0.00     0.163 HD
ATOM     28  O   UNL     1      -0.449  -8.668   5.175  1.00  0.00    -0.269 OA
BRANCH  26  29
ATOM     29  C   UNL     1      -2.670  -7.911   5.391  1.00  0.00     0.039 A 
ATOM     30  C   UNL     1      -2.751  -7.992   6.784  1.00  0.00     0.014 A 
ATOM     31  C   UNL     1      -3.837  -7.782   4.641  1.00  0.00     0.014 A 
ATOM     32  C   UNL     1      -3.988  -7.832   7.418  1.00  0.00     0.010 A 
ATOM     33  C   UNL     1      -5.041  -7.495   5.273  1.00  0.00     0.010 A 
ATOM     34  C   UNL     1      -5.135  -7.519   6.671  1.00  0.00    -0.014 A 
BRANCH  34  35
ATOM     35  C   UNL     1      -6.441  -7.207   7.313  1.00  0.00     0.031 A 
ATOM     36  C   UNL     1      -7.670  -8.007   6.955  1.00  0.00     0.074 A 
ATOM     37  C   UNL     1      -6.548  -6.136   8.127  1.00  0.00     0.049 A 
ATOM     38  N   UNL     1      -8.915  -7.807   7.305  1.00  0.00    -0.248 NA
ATOM     39  C   UNL     1      -7.484  -9.154   6.048  1.00  0.00     0.031 C 
ATOM     40  C   UNL     1      -5.455  -5.229   8.492  1.00  0.00     0.029 A 
ATOM     41  N   UNL     1      -7.636  -5.614   8.783  1.00  0.00    -0.354 N 
ATOM     42  C   UNL     1      -9.659  -8.767   6.628  1.00  0.00     0.074 A 
ATOM     43  C   UNL     1      -8.735  -9.524   5.814  1.00  0.00     0.031 C 
ATOM     44  C   UNL     1      -5.922  -4.282   9.322  1.00  0.00     0.029 A 
ATOM     45  C   UNL     1      -7.354  -4.484   9.516  1.00  0.00     0.049 A 
ATOM     46  H   UNL     1      -8.536  -6.012   8.734  1.00  0.00     0.167 HD
ATOM     47  C   UNL     1     -10.988  -9.012   6.693  1.00  0.00     0.031 A 
ATOM     48  C   UNL     1      -8.156  -3.690  10.252  1.00  0.00     0.031 A 
ATOM     49  C   UNL     1     -11.895  -8.301   7.553  1.00  0.00     0.049 A 
ATOM     50  C   UNL     1      -9.618  -4.027  10.360  1.00  0.00     0.074 A 
ATOM     51  C   UNL     1     -13.238  -8.550   7.777  1.00  0.00     0.029 A 
ATOM     52  N   UNL     1     -11.552  -7.210   8.336  1.00  0.00    -0.354 N 
ATOM     53  N   UNL     1     -10.282  -5.004   9.788  1.00  0.00    -0.248 NA
ATOM     54  C   UNL     1     -10.438  -3.165  11.223  1.00  0.00     0.031 C 
ATOM     55  C   UNL     1     -13.718  -7.581   8.662  1.00  0.00     0.029 A 
ATOM     56  C   UNL     1     -12.663  -6.761   9.028  1.00  0.00     0.049 A 
ATOM     57  H   UNL     1     -10.653  -6.814   8.391  1.00  0.00     0.167 HD
ATOM     58  C   UNL     1     -11.590  -4.888  10.245  1.00  0.00     0.074 A 
ATOM     59  C   UNL     1     -11.620  -3.761  11.153  1.00  0.00     0.031 C 
ATOM     60  C   UNL     1     -12.671  -5.646   9.938  1.00  0.00     0.031 A 
BRANCH  47  61
ATOM     61  C   UNL     1     -11.551 -10.104   5.822  1.00  0.00    -0.014 A 
ATOM     62  C   UNL     1     -11.292 -11.459   6.094  1.00  0.00     0.010 A 
ATOM     63  C   UNL     1     -12.415  -9.771   4.763  1.00  0.00     0.010 A 
ATOM     64  C   UNL     1     -11.866 -12.460   5.306  1.00  0.00     0.020 A 
ATOM     65  C   UNL     1     -13.012 -10.771   3.989  1.00  0.00     0.020 A 
ATOM     66  C   UNL     1     -12.724 -12.110   4.260  1.00  0.00     0.054 A 
BRANCH  66  67
ATOM     67  S   UNL     1     -13.500 -13.433   3.292  1.00  0.00     0.124 S 
ATOM     68  O   UNL     1     -12.380 -13.911   2.485  1.00  0.00    -0.237 OA
ATOM     69  O   UNL     1     -13.967 -14.354   4.325  1.00  0.00    -0.237 OA
ATOM     70  O   UNL     1     -14.555 -12.748   2.549  1.00  0.00    -0.744 OA
ENDBRANCH  66  67
ENDBRANCH  47  61
BRANCH  48  71
ATOM     71  C   UNL     1      -7.599  -2.500  10.954  1.00  0.00    -0.014 A 
ATOM     72  C   UNL     1      -7.499  -2.478  12.356  1.00  0.00     0.010 A 
ATOM     73  C   UNL     1      -7.183  -1.373  10.222  1.00  0.00     0.010 A 
ATOM     74  C   UNL     1      -7.031  -1.338  13.016  1.00  0.00     0.020 A 
ATOM     75  C   UNL     1      -6.687  -0.241  10.877  1.00  0.00     0.020 A 
ATOM     76  C   UNL     1      -6.633  -0.224  12.272  1.00  0.00     0.054 A 
BRANCH  76  77
ATOM     77  S   UNL     1      -6.013   1.240  13.147  1.00  0.00     0.124 S 
ATOM     78  O   UNL     1      -7.246   1.830  13.659  1.00  0.00    -0.237 OA
ATOM     79  O   UNL     1      -5.125   0.659  14.151  1.00  0.00    -0.237 OA
ATOM     80  O   UNL     1      -5.340   2.004  12.099  1.00  0.00    -0.744 OA
ENDBRANCH  76  77
ENDBRANCH  48  71
BRANCH  60  81
ATOM     81  C   UNL     1     -13.970  -5.310  10.618  1.00  0.00    -0.014 A 
ATOM     82  C   UNL     1     -14.707  -4.169  10.258  1.00  0.00     0.010 A 
ATOM     83  C   UNL     1     -14.488  -6.186  11.590  1.00  0.00     0.010 A 
ATOM     84  C   UNL     1     -15.926  -3.892  10.882  1.00  0.00     0.020 A 
ATOM     85  C   UNL     1     -15.719  -5.927  12.196  1.00  0.00     0.020 A 
ATOM     86  C   UNL     1     -16.424  -4.773  11.848  1.00  0.00     0.054 A 
BRANCH  86  87
ATOM     87  S   UNL     1     -18.030  -4.417  12.611  1.00  0.00     0.124 S 
ATOM     88  O   UNL     1     -17.695  -3.334  13.531  1.00  0.00    -0.237 OA
ATOM     89  O   UNL     1     -18.853  -4.036  11.465  1.00  0.00    -0.237 OA
ATOM     90  O   UNL     1     -18.400  -5.681  13.243  1.00  0.00    -0.744 OA
ENDBRANCH  86  87
ENDBRANCH  60  81
ENDBRANCH  34  35
ENDBRANCH  26  29
ENDBRANCH  24  25
ENDBRANCH   1  24
TORSDOF 17
