REMARK SMILES C[C@@H]1[C@@H](C(=O)NCCCNC(=O)c2ccc(-c3c4nc(c(-c5ccc(S(=O)(=O)[O-])cc5)c5ccc([nH]5)c(-c5ccc(S(=O)(=O)[O-])cc5)c5nc(c(-c6ccc(S(=O)(=O)[O-])cc6)c6ccc3[nH]6)C=C5)C=C4)cc2)CCN1C(=O)[C@@H](C)OCc1ccccc1
REMARK SMILES IDX 7 1 6 2 4 3 5 4 3 6 1 7 2 8 75 9 73 10 74 11 76 12 77 13
REMARK SMILES IDX 78 14 79 15 80 16 81 17 82 18 83 19 87 20 84 21 86 22 85 23
REMARK SMILES IDX 8 24 9 25 10 26 11 27 12 29 13 30 14 31 72 32 15 33 71 34
REMARK SMILES IDX 16 35 17 36 18 37 65 38 19 39 70 40 64 41 66 42 20 43 69 44
REMARK SMILES IDX 63 45 62 46 21 48 51 49 32 50 50 51 33 52 36 53 49 54 67 55
REMARK SMILES IDX 34 56 35 57 48 59 68 60 37 61 22 62 23 63 31 64 24 65 30 66
REMARK SMILES IDX 25 67 26 68 27 69 28 70 29 71 52 72 53 73 61 74 54 75 60 76
REMARK SMILES IDX 55 77 56 78 57 79 58 80 59 81 38 82 39 83 47 84 40 85 46 86
REMARK SMILES IDX 41 87 42 88 43 89 44 90 45 91
REMARK H PARENT 6 5 10 28 66 47 36 58
REMARK Flexibility Score: inf
ROOT
ATOM      1  C   UNL     1      -2.849   2.767  -0.766  1.00  0.00     0.117 C 
ENDROOT
BRANCH   1   2
ATOM      2  N   UNL     1      -2.028   2.009  -1.693  1.00  0.00    -0.356 N 
ATOM      3  C   UNL     1      -1.050   1.099  -1.419  1.00  0.00     0.225 C 
ATOM      4  O   UNL     1      -0.502   0.539  -2.365  1.00  0.00    -0.275 OA
ATOM      5  H   UNL     1      -2.201   2.173  -2.648  1.00  0.00     0.163 HD
BRANCH   3   6
ATOM      6  C   UNL     1      -0.660   0.871   0.031  1.00  0.00     0.102 C 
ATOM      7  C   UNL     1       1.262   0.163   1.474  1.00  0.00     0.032 C 
ATOM      8  C   UNL     1       0.493  -0.133   0.177  1.00  0.00     0.094 C 
ATOM      9  N   UNL     1      -0.162  -1.431   0.264  1.00  0.00    -0.337 N 
ATOM     10  C   UNL     1      -1.776   0.209   0.847  1.00  0.00     0.037 C 
ATOM     11  C   UNL     1      -1.556  -1.281   0.640  1.00  0.00     0.121 C 
BRANCH   9  12
ATOM     12  C   UNL     1       0.313  -2.687  -0.046  1.00  0.00     0.251 C 
ATOM     13  O   UNL     1      -0.333  -3.679   0.325  1.00  0.00    -0.272 OA
BRANCH  12  14
ATOM     14  C   UNL     1       1.546  -2.911  -1.001  1.00  0.00     0.204 C 
ATOM     15  C   UNL     1       1.197  -2.476  -2.426  1.00  0.00     0.049 C 
BRANCH  14  16
ATOM     16  O   UNL     1       2.923  -2.820  -0.680  1.00  0.00    -0.364 OA
BRANCH  16  17
ATOM     17  C   UNL     1       3.585  -1.575  -0.528  1.00  0.00     0.196 C 
BRANCH  17  18
ATOM     18  C   UNL     1       3.759  -0.749  -1.778  1.00  0.00    -0.022 A 
ATOM     19  C   UNL     1       4.216  -1.331  -2.966  1.00  0.00     0.006 A 
ATOM     20  C   UNL     1       3.457   0.622  -1.772  1.00  0.00     0.006 A 
ATOM     21  C   UNL     1       4.266  -0.585  -4.144  1.00  0.00     0.000 A 
ATOM     22  C   UNL     1       3.496   1.365  -2.952  1.00  0.00     0.000 A 
ATOM     23  C   UNL     1       3.886   0.756  -4.141  1.00  0.00     0.000 A 
ENDBRANCH  17  18
ENDBRANCH  16  17
ENDBRANCH  14  16
ENDBRANCH  12  14
ENDBRANCH   9  12
ENDBRANCH   3   6
ENDBRANCH   1   2
BRANCH   1  24
ATOM     24  C   UNL     1      -3.063   4.203  -1.207  1.00  0.00     0.042 C 
BRANCH  24  25
ATOM     25  C   UNL     1      -3.746   4.336  -2.560  1.00  0.00     0.118 C 
BRANCH  25  26
ATOM     26  N   UNL     1      -5.072   3.734  -2.591  1.00  0.00    -0.352 N 
ATOM     27  C   UNL     1      -6.321   4.314  -2.581  1.00  0.00     0.251 C 
ATOM     28  H   UNL     1      -5.077   2.750  -2.625  1.00  0.00     0.163 HD
ATOM     29  O   UNL     1      -7.311   3.616  -2.414  1.00  0.00    -0.269 OA
BRANCH  27  30
ATOM     30  C   UNL     1      -6.457   5.779  -2.736  1.00  0.00     0.039 A 
ATOM     31  C   UNL     1      -7.372   6.468  -1.937  1.00  0.00     0.014 A 
ATOM     32  C   UNL     1      -5.679   6.474  -3.661  1.00  0.00     0.014 A 
ATOM     33  C   UNL     1      -7.435   7.863  -2.004  1.00  0.00     0.010 A 
ATOM     34  C   UNL     1      -5.656   7.863  -3.640  1.00  0.00     0.010 A 
ATOM     35  C   UNL     1      -6.540   8.575  -2.819  1.00  0.00    -0.014 A 
BRANCH  35  36
ATOM     36  C   UNL     1      -6.513  10.060  -2.845  1.00  0.00     0.031 A 
ATOM     37  C   UNL     1      -6.755  10.793  -4.140  1.00  0.00     0.074 A 
ATOM     38  C   UNL     1      -6.192  10.746  -1.730  1.00  0.00     0.049 A 
ATOM     39  N   UNL     1      -6.676  12.075  -4.389  1.00  0.00    -0.248 NA
ATOM     40  C   UNL     1      -7.094   9.975  -5.317  1.00  0.00     0.031 C 
ATOM     41  C   UNL     1      -5.886  10.154  -0.424  1.00  0.00     0.029 A 
ATOM     42  N   UNL     1      -6.062  12.096  -1.516  1.00  0.00    -0.354 N 
ATOM     43  C   UNL     1      -6.926  12.211  -5.750  1.00  0.00     0.074 A 
ATOM     44  C   UNL     1      -7.100  10.879  -6.285  1.00  0.00     0.031 C 
ATOM     45  C   UNL     1      -5.642  11.135   0.460  1.00  0.00     0.029 A 
ATOM     46  C   UNL     1      -5.726  12.422  -0.222  1.00  0.00     0.049 A 
ATOM     47  H   UNL     1      -6.197  12.768  -2.222  1.00  0.00     0.167 HD
ATOM     48  C   UNL     1      -7.031  13.342  -6.486  1.00  0.00     0.031 A 
ATOM     49  C   UNL     1      -5.505  13.621   0.350  1.00  0.00     0.031 A 
ATOM     50  C   UNL     1      -6.887  14.667  -5.947  1.00  0.00     0.049 A 
ATOM     51  C   UNL     1      -5.633  14.865  -0.485  1.00  0.00     0.074 A 
ATOM     52  C   UNL     1      -7.036  15.881  -6.594  1.00  0.00     0.029 A 
ATOM     53  N   UNL     1      -6.569  14.952  -4.627  1.00  0.00    -0.354 N 
ATOM     54  N   UNL     1      -5.929  14.974  -1.759  1.00  0.00    -0.248 NA
ATOM     55  C   UNL     1      -5.409  16.147   0.196  1.00  0.00     0.031 C 
ATOM     56  C   UNL     1      -6.761  16.900  -5.677  1.00  0.00     0.029 A 
ATOM     57  C   UNL     1      -6.498  16.322  -4.445  1.00  0.00     0.049 A 
ATOM     58  H   UNL     1      -6.416  14.280  -3.925  1.00  0.00     0.167 HD
ATOM     59  C   UNL     1      -5.955  16.339  -2.024  1.00  0.00     0.074 A 
ATOM     60  C   UNL     1      -5.658  17.013  -0.777  1.00  0.00     0.031 C 
ATOM     61  C   UNL     1      -6.204  16.976  -3.195  1.00  0.00     0.031 A 
BRANCH  48  62
ATOM     62  C   UNL     1      -7.321  13.191  -7.957  1.00  0.00    -0.014 A 
ATOM     63  C   UNL     1      -8.570  12.725  -8.407  1.00  0.00     0.010 A 
ATOM     64  C   UNL     1      -6.343  13.546  -8.904  1.00  0.00     0.010 A 
ATOM     65  C   UNL     1      -8.820  12.573  -9.773  1.00  0.00     0.020 A 
ATOM     66  C   UNL     1      -6.600  13.425 -10.273  1.00  0.00     0.020 A 
ATOM     67  C   UNL     1      -7.831  12.921 -10.697  1.00  0.00     0.054 A 
BRANCH  67  68
ATOM     68  S   UNL     1      -8.191  12.733 -12.465  1.00  0.00     0.124 S 
ATOM     69  O   UNL     1      -8.139  11.282 -12.628  1.00  0.00    -0.237 OA
ATOM     70  O   UNL     1      -9.518  13.331 -12.588  1.00  0.00    -0.237 OA
ATOM     71  O   UNL     1      -7.114  13.472 -13.119  1.00  0.00    -0.744 OA
ENDBRANCH  67  68
ENDBRANCH  48  62
BRANCH  49  72
ATOM     72  C   UNL     1      -5.164  13.703   1.798  1.00  0.00    -0.014 A 
ATOM     73  C   UNL     1      -6.095  14.216   2.719  1.00  0.00     0.010 A 
ATOM     74  C   UNL     1      -3.915  13.258   2.265  1.00  0.00     0.010 A 
ATOM     75  C   UNL     1      -5.776  14.299   4.078  1.00  0.00     0.020 A 
ATOM     76  C   UNL     1      -3.602  13.313   3.627  1.00  0.00     0.020 A 
ATOM     77  C   UNL     1      -4.532  13.844   4.523  1.00  0.00     0.054 A 
BRANCH  77  78
ATOM     78  S   UNL     1      -4.159  13.912   6.298  1.00  0.00     0.124 S 
ATOM     79  O   UNL     1      -3.932  15.338   6.506  1.00  0.00    -0.237 OA
ATOM     80  O   UNL     1      -5.376  13.369   6.896  1.00  0.00    -0.237 OA
ATOM     81  O   UNL     1      -2.977  13.063   6.430  1.00  0.00    -0.744 OA
ENDBRANCH  77  78
ENDBRANCH  49  72
BRANCH  61  82
ATOM     82  C   UNL     1      -6.204  18.480  -3.178  1.00  0.00    -0.014 A 
ATOM     83  C   UNL     1      -5.007  19.209  -3.062  1.00  0.00     0.010 A 
ATOM     84  C   UNL     1      -7.418  19.173  -3.342  1.00  0.00     0.010 A 
ATOM     85  C   UNL     1      -5.028  20.606  -3.079  1.00  0.00     0.020 A 
ATOM     86  C   UNL     1      -7.439  20.569  -3.388  1.00  0.00     0.020 A 
ATOM     87  C   UNL     1      -6.245  21.277  -3.243  1.00  0.00     0.054 A 
BRANCH  87  88
ATOM     88  S   UNL     1      -6.239  23.089  -3.309  1.00  0.00     0.124 S 
ATOM     89  O   UNL     1      -6.007  23.443  -1.912  1.00  0.00    -0.237 OA
ATOM     90  O   UNL     1      -5.134  23.373  -4.222  1.00  0.00    -0.237 OA
ATOM     91  O   UNL     1      -7.566  23.421  -3.824  1.00  0.00    -0.744 OA
ENDBRANCH  87  88
ENDBRANCH  61  82
ENDBRANCH  35  36
ENDBRANCH  27  30
ENDBRANCH  25  26
ENDBRANCH  24  25
ENDBRANCH   1  24
TORSDOF 18
