REMARK SMILES C[NH+](C)CCNC(=O)NC1(CC(=O)NCCCNC(=O)c2ccc(-c3c4nc(c(-c5ccc(S(=O)(=O)[O-])cc5)c5ccc([nH]5)c(-c5ccc(S(=O)(=O)[O-])cc5)c5nc(c(-c6ccc(S(=O)(=O)[O-])cc6)c6ccc3[nH]6)C=C5)C=C4)cc2)CCC1
REMARK SMILES IDX 15 1 14 2 12 3 13 4 11 6 10 7 81 8 83 9 82 10 9 11 6 12 7 13
REMARK SMILES IDX 8 15 5 17 4 18 2 19 1 20 3 21 16 23 17 24 18 25 19 26 20 28
REMARK SMILES IDX 21 29 22 30 80 31 23 32 79 33 24 34 25 35 26 36 73 37 27 38
REMARK SMILES IDX 78 39 72 40 74 41 28 42 77 43 71 44 70 45 29 47 59 48 40 49
REMARK SMILES IDX 58 50 41 51 44 52 57 53 75 54 42 55 43 56 56 58 76 59 45 60
REMARK SMILES IDX 30 61 31 62 39 63 32 64 38 65 33 66 34 67 35 68 36 69 37 70
REMARK SMILES IDX 60 71 61 72 69 73 62 74 68 75 63 76 64 77 65 78 66 79 67 80
REMARK SMILES IDX 46 81 47 82 55 83 48 84 54 85 49 86 50 87 51 88 52 89 53 90
REMARK H PARENT 14 5 6 14 9 16 2 22 18 27 74 46 44 57
REMARK Flexibility Score: inf
ROOT
ATOM      1  C   UNL     1      -1.469   0.598  -6.700  1.00  0.00     0.117 C 
ENDROOT
BRANCH   1   2
ATOM      2  N   UNL     1      -0.478   1.633  -6.907  1.00  0.00    -0.356 N 
ATOM      3  C   UNL     1       0.879   1.553  -6.927  1.00  0.00     0.222 C 
ATOM      4  O   UNL     1       1.521   2.597  -7.063  1.00  0.00    -0.275 OA
ATOM      5  H   UNL     1      -0.843   2.535  -7.057  1.00  0.00     0.163 HD
BRANCH   3   6
ATOM      6  C   UNL     1       1.609   0.232  -6.767  1.00  0.00     0.128 C 
BRANCH   6   7
ATOM      7  C   UNL     1       1.778  -0.281  -5.313  1.00  0.00     0.051 C 
ATOM      8  C   UNL     1       2.921  -1.329  -5.164  1.00  0.00     0.029 C 
ATOM      9  C   UNL     1       0.762  -1.407  -5.028  1.00  0.00     0.029 C 
ATOM     10  C   UNL     1       1.887  -2.450  -5.036  1.00  0.00     0.005 C 
BRANCH   7  11
ATOM     11  N   UNL     1       1.978   0.884  -4.416  1.00  0.00    -0.332 N 
ATOM     12  N   UNL     1       1.653   0.493  -2.082  1.00  0.00    -0.332 N 
ATOM     13  C   UNL     1       1.968   1.247  -3.129  1.00  0.00     0.315 C 
ATOM     14  H   UNL     1       1.763   0.962  -1.223  1.00  0.00     0.165 HD
ATOM     15  O   UNL     1       2.293   2.416  -2.890  1.00  0.00    -0.249 OA
ATOM     16  H   UNL     1       2.196   1.672  -4.965  1.00  0.00     0.165 HD
BRANCH  12  17
ATOM     17  C   UNL     1       1.186  -0.858  -1.929  1.00  0.00     0.179 C 
BRANCH  17  18
ATOM     18  C   UNL     1       1.420  -1.490  -0.546  1.00  0.00     0.283 C 
BRANCH  18  19
ATOM     19  N   UNL     1       0.550  -1.120   0.573  1.00  0.00    -0.338 N 
ATOM     20  C   UNL     1       0.827   0.186   1.150  1.00  0.00     0.332 C 
ATOM     21  C   UNL     1      -0.874  -1.294   0.305  1.00  0.00     0.332 C 
ATOM     22  H   UNL     1       0.798  -1.803   1.288  1.00  0.00     0.347 HD
ENDBRANCH  18  19
ENDBRANCH  17  18
ENDBRANCH  12  17
ENDBRANCH   7  11
ENDBRANCH   6   7
ENDBRANCH   3   6
ENDBRANCH   1   2
BRANCH   1  23
ATOM     23  C   UNL     1      -1.890   0.486  -5.234  1.00  0.00     0.042 C 
BRANCH  23  24
ATOM     24  C   UNL     1      -3.007   1.442  -4.828  1.00  0.00     0.118 C 
BRANCH  24  25
ATOM     25  N   UNL     1      -4.280   1.073  -5.427  1.00  0.00    -0.352 N 
ATOM     26  C   UNL     1      -5.514   0.866  -4.864  1.00  0.00     0.251 C 
ATOM     27  H   UNL     1      -4.251   0.949  -6.403  1.00  0.00     0.163 HD
ATOM     28  O   UNL     1      -6.391   0.359  -5.562  1.00  0.00    -0.269 OA
BRANCH  26  29
ATOM     29  C   UNL     1      -5.814   1.226  -3.455  1.00  0.00     0.039 A 
ATOM     30  C   UNL     1      -6.750   0.449  -2.762  1.00  0.00     0.014 A 
ATOM     31  C   UNL     1      -5.267   2.352  -2.834  1.00  0.00     0.014 A 
ATOM     32  C   UNL     1      -7.114   0.782  -1.455  1.00  0.00     0.010 A 
ATOM     33  C   UNL     1      -5.579   2.644  -1.502  1.00  0.00     0.010 A 
ATOM     34  C   UNL     1      -6.520   1.874  -0.804  1.00  0.00    -0.014 A 
BRANCH  34  35
ATOM     35  C   UNL     1      -6.904   2.230   0.588  1.00  0.00     0.031 A 
ATOM     36  C   UNL     1      -7.614   3.529   0.877  1.00  0.00     0.074 A 
ATOM     37  C   UNL     1      -6.607   1.388   1.599  1.00  0.00     0.049 A 
ATOM     38  N   UNL     1      -8.030   4.004   2.024  1.00  0.00    -0.248 NA
ATOM     39  C   UNL     1      -7.875   4.416  -0.268  1.00  0.00     0.031 C 
ATOM     40  C   UNL     1      -5.898   0.113   1.459  1.00  0.00     0.029 A 
ATOM     41  N   UNL     1      -6.871   1.474   2.943  1.00  0.00    -0.354 N 
ATOM     42  C   UNL     1      -8.595   5.243   1.741  1.00  0.00     0.074 A 
ATOM     43  C   UNL     1      -8.419   5.471   0.323  1.00  0.00     0.031 C 
ATOM     44  C   UNL     1      -5.818  -0.479   2.662  1.00  0.00     0.029 A 
ATOM     45  C   UNL     1      -6.437   0.385   3.662  1.00  0.00     0.049 A 
ATOM     46  H   UNL     1      -7.329   2.243   3.354  1.00  0.00     0.167 HD
ATOM     47  C   UNL     1      -9.226   6.104   2.576  1.00  0.00     0.031 A 
ATOM     48  C   UNL     1      -6.532   0.108   4.977  1.00  0.00     0.031 A 
ATOM     49  C   UNL     1      -9.409   5.877   3.985  1.00  0.00     0.049 A 
ATOM     50  C   UNL     1      -7.227   1.085   5.885  1.00  0.00     0.074 A 
ATOM     51  C   UNL     1     -10.056   6.678   4.911  1.00  0.00     0.029 A 
ATOM     52  N   UNL     1      -8.951   4.763   4.672  1.00  0.00    -0.354 N 
ATOM     53  N   UNL     1      -7.791   2.232   5.587  1.00  0.00    -0.248 NA
ATOM     54  C   UNL     1      -7.312   0.722   7.307  1.00  0.00     0.031 C 
ATOM     55  C   UNL     1      -9.957   6.065   6.165  1.00  0.00     0.029 A 
ATOM     56  C   UNL     1      -9.293   4.859   6.011  1.00  0.00     0.049 A 
ATOM     57  H   UNL     1      -8.456   4.014   4.268  1.00  0.00     0.167 HD
ATOM     58  C   UNL     1      -8.322   2.712   6.779  1.00  0.00     0.074 A 
ATOM     59  C   UNL     1      -8.028   1.724   7.797  1.00  0.00     0.031 C 
ATOM     60  C   UNL     1      -8.994   3.867   7.011  1.00  0.00     0.031 A 
BRANCH  47  61
ATOM     61  C   UNL     1      -9.775   7.374   1.978  1.00  0.00    -0.014 A 
ATOM     62  C   UNL     1     -10.896   7.345   1.129  1.00  0.00     0.010 A 
ATOM     63  C   UNL     1      -9.191   8.614   2.296  1.00  0.00     0.010 A 
ATOM     64  C   UNL     1     -11.398   8.525   0.576  1.00  0.00     0.020 A 
ATOM     65  C   UNL     1      -9.707   9.801   1.765  1.00  0.00     0.020 A 
ATOM     66  C   UNL     1     -10.797   9.746   0.894  1.00  0.00     0.054 A 
BRANCH  66  67
ATOM     67  S   UNL     1     -11.482  11.265   0.176  1.00  0.00     0.124 S 
ATOM     68  O   UNL     1     -11.025  11.175  -1.209  1.00  0.00    -0.237 OA
ATOM     69  O   UNL     1     -12.919  11.095   0.374  1.00  0.00    -0.237 OA
ATOM     70  O   UNL     1     -10.868  12.330   0.966  1.00  0.00    -0.744 OA
ENDBRANCH  66  67
ENDBRANCH  47  61
BRANCH  48  71
ATOM     71  C   UNL     1      -5.978  -1.164   5.516  1.00  0.00    -0.014 A 
ATOM     72  C   UNL     1      -6.838  -2.180   5.970  1.00  0.00     0.010 A 
ATOM     73  C   UNL     1      -4.587  -1.361   5.590  1.00  0.00     0.010 A 
ATOM     74  C   UNL     1      -6.318  -3.357   6.516  1.00  0.00     0.020 A 
ATOM     75  C   UNL     1      -4.064  -2.549   6.109  1.00  0.00     0.020 A 
ATOM     76  C   UNL     1      -4.933  -3.533   6.585  1.00  0.00     0.054 A 
BRANCH  76  77
ATOM     77  S   UNL     1      -4.279  -5.080   7.269  1.00  0.00     0.124 S 
ATOM     78  O   UNL     1      -4.474  -4.884   8.702  1.00  0.00    -0.237 OA
ATOM     79  O   UNL     1      -5.132  -6.089   6.646  1.00  0.00    -0.237 OA
ATOM     80  O   UNL     1      -2.888  -5.089   6.821  1.00  0.00    -0.744 OA
ENDBRANCH  76  77
ENDBRANCH  48  71
BRANCH  60  81
ATOM     81  C   UNL     1      -9.489   4.104   8.412  1.00  0.00    -0.014 A 
ATOM     82  C   UNL     1      -8.602   4.426   9.455  1.00  0.00     0.010 A 
ATOM     83  C   UNL     1     -10.868   4.030   8.683  1.00  0.00     0.010 A 
ATOM     84  C   UNL     1      -9.081   4.627  10.752  1.00  0.00     0.020 A 
ATOM     85  C   UNL     1     -11.353   4.257   9.973  1.00  0.00     0.020 A 
ATOM     86  C   UNL     1     -10.454   4.536  11.004  1.00  0.00     0.054 A 
BRANCH  86  87
ATOM     87  S   UNL     1     -11.055   4.823  12.691  1.00  0.00     0.124 S 
ATOM     88  O   UNL     1     -10.700   3.572  13.356  1.00  0.00    -0.237 OA
ATOM     89  O   UNL     1     -10.293   5.997  13.110  1.00  0.00    -0.237 OA
ATOM     90  O   UNL     1     -12.488   5.049  12.513  1.00  0.00    -0.744 OA
ENDBRANCH  86  87
ENDBRANCH  60  81
ENDBRANCH  34  35
ENDBRANCH  26  29
ENDBRANCH  24  25
ENDBRANCH  23  24
ENDBRANCH   1  23
TORSDOF 18
