REMARK SMILES CC1(C)CC(=O)C(C)(C)c2ccc(NC(=O)c3ccc(C(=O)NCCCNC(=O)c4ccc(-c5c6nc(c(-c7ccc(S(=O)(=O)[O-])cc7)c7ccc([nH]7)c(-c7ccc(S(=O)(=O)[O-])cc7)c7nc(c(-c8ccc(S(=O)(=O)[O-])cc8)c8ccc5[nH]8)C=C7)C=C6)cc4)cc3)cc21
REMARK SMILES IDX 25 1 24 2 23 3 21 4 22 5 20 7 17 8 18 9 91 10 19 11 90 12
REMARK SMILES IDX 15 13 14 14 16 16 13 17 1 18 2 19 3 20 4 21 93 22 5 23 10 24
REMARK SMILES IDX 92 25 6 26 7 27 11 28 8 29 9 30 12 31 26 32 27 33 28 34
REMARK SMILES IDX 29 36 30 37 31 38 89 39 32 40 88 41 33 42 34 43 35 44 82 45
REMARK SMILES IDX 36 46 87 47 81 48 83 49 37 50 86 51 80 52 79 53 38 55 68 56
REMARK SMILES IDX 49 57 67 58 50 59 53 60 66 61 84 62 51 63 52 64 65 66 85 67
REMARK SMILES IDX 54 68 39 69 40 70 48 71 41 72 47 73 42 74 43 75 44 76 45 77
REMARK SMILES IDX 46 78 69 79 70 80 78 81 71 82 77 83 72 84 73 85 74 86 75 87
REMARK SMILES IDX 76 88 55 89 56 90 64 91 57 92 63 93 58 94 59 95 60 96 61 97
REMARK SMILES IDX 62 98
REMARK H PARENT 23 6 14 15 27 35 83 54 53 65
REMARK Flexibility Score: inf
ROOT
ATOM      1  C   UNL     1      -1.310  -3.237   5.646  1.00  0.00     0.042 C 
ENDROOT
BRANCH   1   2
ATOM      2  C   UNL     1       0.033  -3.668   5.071  1.00  0.00     0.118 C 
BRANCH   2   3
ATOM      3  N   UNL     1       0.101  -3.678   3.618  1.00  0.00    -0.352 N 
ATOM      4  C   UNL     1       1.072  -3.332   2.708  1.00  0.00     0.251 C 
ATOM      5  O   UNL     1       0.838  -3.598   1.526  1.00  0.00    -0.269 OA
ATOM      6  H   UNL     1      -0.727  -4.003   3.194  1.00  0.00     0.163 HD
BRANCH   4   7
ATOM      7  C   UNL     1       2.305  -2.551   3.034  1.00  0.00     0.039 A 
ATOM      8  C   UNL     1       4.121  -0.477   3.525  1.00  0.00     0.040 A 
ATOM      9  C   UNL     1       3.828  -0.827   2.209  1.00  0.00     0.014 A 
ATOM     10  C   UNL     1       3.718  -1.316   4.565  1.00  0.00     0.014 A 
ATOM     11  C   UNL     1       2.901  -1.848   1.972  1.00  0.00     0.014 A 
ATOM     12  C   UNL     1       2.845  -2.379   4.307  1.00  0.00     0.014 A 
BRANCH   8  13
ATOM     13  C   UNL     1       4.824   0.774   3.866  1.00  0.00     0.255 C 
ATOM     14  N   UNL     1       4.421   2.010   3.402  1.00  0.00    -0.322 N 
ATOM     15  H   UNL     1       5.045   2.731   3.645  1.00  0.00     0.170 HD
ATOM     16  O   UNL     1       5.812   0.696   4.597  1.00  0.00    -0.269 OA
BRANCH  14  17
ATOM     17  C   UNL     1       3.314   2.474   2.657  1.00  0.00     0.041 A 
ATOM     18  C   UNL     1       0.732   0.241  -0.062  1.00  0.00     0.016 C 
ATOM     19  C   UNL     1       0.095   1.181   0.990  1.00  0.00    -0.003 C 
ATOM     20  C   UNL     1      -0.472   0.333   2.152  1.00  0.00     0.016 C 
ATOM     21  C   UNL     1      -1.109   1.886   0.351  1.00  0.00     0.087 C 
ATOM     22  C   UNL     1       1.177   2.174   1.454  1.00  0.00    -0.036 A 
ATOM     23  C   UNL     1      -0.641   2.922  -0.635  1.00  0.00     0.143 C 
ATOM     24  C   UNL     1       1.293   3.468   0.905  1.00  0.00    -0.031 A 
ATOM     25  C   UNL     1       2.165   1.738   2.374  1.00  0.00     0.030 A 
ATOM     26  O   UNL     1      -1.035   2.896  -1.802  1.00  0.00    -0.299 OA
ATOM     27  C   UNL     1       0.257   4.031  -0.076  1.00  0.00     0.049 C 
ATOM     28  C   UNL     1       2.385   4.263   1.308  1.00  0.00     0.007 A 
ATOM     29  C   UNL     1       0.923   4.750  -1.268  1.00  0.00     0.024 C 
ATOM     30  C   UNL     1      -0.661   5.021   0.664  1.00  0.00     0.024 C 
ATOM     31  C   UNL     1       3.387   3.768   2.151  1.00  0.00     0.026 A 
ENDBRANCH  14  17
ENDBRANCH   8  13
ENDBRANCH   4   7
ENDBRANCH   2   3
ENDBRANCH   1   2
BRANCH   1  32
ATOM     32  C   UNL     1      -2.501  -4.090   5.246  1.00  0.00     0.118 C 
BRANCH  32  33
ATOM     33  N   UNL     1      -2.421  -5.466   5.721  1.00  0.00    -0.352 N 
ATOM     34  C   UNL     1      -2.941  -6.101   6.829  1.00  0.00     0.251 C 
ATOM     35  H   UNL     1      -1.893  -6.057   5.137  1.00  0.00     0.163 HD
ATOM     36  O   UNL     1      -2.589  -7.250   7.067  1.00  0.00    -0.269 OA
BRANCH  34  37
ATOM     37  C   UNL     1      -3.876  -5.413   7.755  1.00  0.00     0.039 A 
ATOM     38  C   UNL     1      -4.837  -4.522   7.293  1.00  0.00     0.014 A 
ATOM     39  C   UNL     1      -3.816  -5.697   9.126  1.00  0.00     0.014 A 
ATOM     40  C   UNL     1      -5.561  -3.750   8.194  1.00  0.00     0.010 A 
ATOM     41  C   UNL     1      -4.649  -5.018  10.027  1.00  0.00     0.010 A 
ATOM     42  C   UNL     1      -5.490  -3.992   9.576  1.00  0.00    -0.014 A 
BRANCH  42  43
ATOM     43  C   UNL     1      -6.335  -3.173  10.492  1.00  0.00     0.031 A 
ATOM     44  C   UNL     1      -5.721  -2.301  11.557  1.00  0.00     0.074 A 
ATOM     45  C   UNL     1      -7.670  -3.144  10.292  1.00  0.00     0.049 A 
ATOM     46  N   UNL     1      -6.310  -1.436  12.345  1.00  0.00    -0.248 NA
ATOM     47  C   UNL     1      -4.270  -2.411  11.777  1.00  0.00     0.031 C 
ATOM     48  C   UNL     1      -8.384  -3.948   9.296  1.00  0.00     0.029 A 
ATOM     49  N   UNL     1      -8.656  -2.378  10.864  1.00  0.00    -0.354 N 
ATOM     50  C   UNL     1      -5.310  -0.911  13.157  1.00  0.00     0.074 A 
ATOM     51  C   UNL     1      -4.081  -1.582  12.795  1.00  0.00     0.031 C 
ATOM     52  C   UNL     1      -9.665  -3.561   9.253  1.00  0.00     0.029 A 
ATOM     53  C   UNL     1      -9.891  -2.546  10.277  1.00  0.00     0.049 A 
ATOM     54  H   UNL     1      -8.496  -1.768  11.620  1.00  0.00     0.167 HD
ATOM     55  C   UNL     1      -5.405   0.053  14.103  1.00  0.00     0.031 A 
ATOM     56  C   UNL     1     -11.078  -1.957  10.524  1.00  0.00     0.031 A 
ATOM     57  C   UNL     1      -6.630   0.729  14.447  1.00  0.00     0.049 A 
ATOM     58  C   UNL     1     -11.162  -0.910  11.595  1.00  0.00     0.074 A 
ATOM     59  C   UNL     1      -6.816   1.744  15.371  1.00  0.00     0.029 A 
ATOM     60  N   UNL     1      -7.873   0.468  13.888  1.00  0.00    -0.354 N 
ATOM     61  N   UNL     1     -10.197  -0.410  12.329  1.00  0.00    -0.248 NA
ATOM     62  C   UNL     1     -12.489  -0.350  11.877  1.00  0.00     0.031 C 
ATOM     63  C   UNL     1      -8.179   2.043  15.424  1.00  0.00     0.029 A 
ATOM     64  C   UNL     1      -8.835   1.274  14.476  1.00  0.00     0.049 A 
ATOM     65  H   UNL     1      -8.046  -0.192  13.179  1.00  0.00     0.167 HD
ATOM     66  C   UNL     1     -10.801   0.519  13.166  1.00  0.00     0.074 A 
ATOM     67  C   UNL     1     -12.207   0.543  12.818  1.00  0.00     0.031 C 
ATOM     68  C   UNL     1     -10.239   1.273  14.143  1.00  0.00     0.031 A 
BRANCH  55  69
ATOM     69  C   UNL     1      -4.155   0.455  14.848  1.00  0.00    -0.014 A 
ATOM     70  C   UNL     1      -4.058   0.213  16.232  1.00  0.00     0.010 A 
ATOM     71  C   UNL     1      -3.132   1.183  14.212  1.00  0.00     0.010 A 
ATOM     72  C   UNL     1      -2.985   0.719  16.971  1.00  0.00     0.020 A 
ATOM     73  C   UNL     1      -2.041   1.664  14.943  1.00  0.00     0.020 A 
ATOM     74  C   UNL     1      -1.987   1.451  16.322  1.00  0.00     0.054 A 
BRANCH  74  75
ATOM     75  S   UNL     1      -0.619   2.130  17.303  1.00  0.00     0.124 S 
ATOM     76  O   UNL     1      -1.260   3.243  17.997  1.00  0.00    -0.237 OA
ATOM     77  O   UNL     1      -0.236   0.997  18.143  1.00  0.00    -0.237 OA
ATOM     78  O   UNL     1       0.369   2.507  16.295  1.00  0.00    -0.744 OA
ENDBRANCH  74  75
ENDBRANCH  55  69
BRANCH  56  79
ATOM     79  C   UNL     1     -12.263  -2.349   9.709  1.00  0.00    -0.014 A 
ATOM     80  C   UNL     1     -12.769  -3.662   9.779  1.00  0.00     0.010 A 
ATOM     81  C   UNL     1     -12.820  -1.454   8.780  1.00  0.00     0.010 A 
ATOM     82  C   UNL     1     -13.747  -4.096   8.883  1.00  0.00     0.020 A 
ATOM     83  C   UNL     1     -13.828  -1.874   7.905  1.00  0.00     0.020 A 
ATOM     84  C   UNL     1     -14.257  -3.203   7.938  1.00  0.00     0.054 A 
BRANCH  84  85
ATOM     85  S   UNL     1     -15.464  -3.814   6.729  1.00  0.00     0.124 S 
ATOM     86  O   UNL     1     -14.615  -4.585   5.825  1.00  0.00    -0.237 OA
ATOM     87  O   UNL     1     -16.376  -4.598   7.558  1.00  0.00    -0.237 OA
ATOM     88  O   UNL     1     -16.032  -2.592   6.165  1.00  0.00    -0.744 OA
ENDBRANCH  84  85
ENDBRANCH  56  79
BRANCH  68  89
ATOM     89  C   UNL     1     -11.145   2.174  14.944  1.00  0.00    -0.014 A 
ATOM     90  C   UNL     1     -11.001   3.571  14.864  1.00  0.00     0.010 A 
ATOM     91  C   UNL     1     -12.070   1.633  15.855  1.00  0.00     0.010 A 
ATOM     92  C   UNL     1     -11.742   4.410  15.700  1.00  0.00     0.020 A 
ATOM     93  C   UNL     1     -12.839   2.471  16.669  1.00  0.00     0.020 A 
ATOM     94  C   UNL     1     -12.652   3.853  16.602  1.00  0.00     0.054 A 
BRANCH  94  95
ATOM     95  S   UNL     1     -13.597   4.958  17.687  1.00  0.00     0.124 S 
ATOM     96  O   UNL     1     -12.600   5.336  18.683  1.00  0.00    -0.237 OA
ATOM     97  O   UNL     1     -14.014   6.022  16.777  1.00  0.00    -0.237 OA
ATOM     98  O   UNL     1     -14.681   4.110  18.178  1.00  0.00    -0.744 OA
ENDBRANCH  94  95
ENDBRANCH  68  89
ENDBRANCH  42  43
ENDBRANCH  34  37
ENDBRANCH  32  33
ENDBRANCH   1  32
TORSDOF 15
