REMARK SMILES C[NH2+][C@]1(C(=O)NCCCNC(=O)c2ccc(-c3c4nc(c(-c5ccc(S(=O)(=O)[O-])cc5)c5ccc([nH]5)c(-c5ccc(S(=O)(=O)[O-])cc5)c5nc(c(-c6ccc(S(=O)(=O)[O-])cc6)c6ccc3[nH]6)C=C5)C=C4)cc2)CCC[C@H]([N@H+]2CCC[C@@H]2C2CCCC2)C1
REMARK SMILES IDX 8 1 7 2 6 3 4 4 5 5 3 7 73 8 87 9 74 10 76 11 75 12 2 13
REMARK SMILES IDX 1 14 77 17 78 18 81 19 79 21 80 22 82 23 83 24 86 25 84 26
REMARK SMILES IDX 85 27 9 28 10 29 11 30 12 32 13 33 14 34 72 35 15 36 71 37
REMARK SMILES IDX 16 38 17 39 18 40 65 41 19 42 70 43 64 44 66 45 20 46 69 47
REMARK SMILES IDX 63 48 62 49 21 51 51 52 32 53 50 54 33 55 36 56 49 57 67 58
REMARK SMILES IDX 34 59 35 60 48 62 68 63 37 64 22 65 23 66 31 67 24 68 30 69
REMARK SMILES IDX 25 70 26 71 27 72 28 73 29 74 52 75 53 76 61 77 54 78 60 79
REMARK SMILES IDX 55 80 56 81 57 82 58 83 59 84 38 85 39 86 47 87 40 88 46 89
REMARK SMILES IDX 41 90 42 91 43 92 44 93 45 94
REMARK H PARENT 6 6 2 15 2 16 77 20 10 31 66 50 36 61
REMARK Flexibility Score: inf
ROOT
ATOM      1  C   UNL     1       1.384  -2.037   4.077  1.00  0.00     0.042 C 
ENDROOT
BRANCH   1   2
ATOM      2  C   UNL     1       1.202  -0.581   3.609  1.00  0.00     0.118 C 
BRANCH   2   3
ATOM      3  N   UNL     1       1.566  -0.330   2.216  1.00  0.00    -0.351 N 
ATOM      4  C   UNL     1       0.850  -0.165   1.064  1.00  0.00     0.281 C 
ATOM      5  O   UNL     1       1.456   0.455   0.173  1.00  0.00    -0.268 OA
ATOM      6  H   UNL     1       2.538  -0.265   2.078  1.00  0.00     0.163 HD
BRANCH   4   7
ATOM      7  C   UNL     1      -0.618  -0.721   0.779  1.00  0.00     0.181 C 
ATOM      8  C   UNL     1      -1.093  -1.778   1.821  1.00  0.00     0.079 C 
ATOM      9  C   UNL     1      -1.618   0.447   0.733  1.00  0.00     0.144 C 
ATOM     10  C   UNL     1      -2.450  -1.684   2.545  1.00  0.00     0.013 C 
ATOM     11  C   UNL     1      -3.103   0.076   0.970  1.00  0.00     0.191 C 
ATOM     12  C   UNL     1      -3.150  -0.353   2.438  1.00  0.00     0.065 C 
BRANCH   7  13
ATOM     13  N   UNL     1      -0.646  -1.158  -0.660  1.00  0.00    -0.336 N 
ATOM     14  C   UNL     1       0.375  -2.086  -1.113  1.00  0.00     0.331 C 
ATOM     15  H   UNL     1      -1.551  -1.598  -0.826  1.00  0.00     0.346 HD
ATOM     16  H   UNL     1      -0.465  -0.304  -1.188  1.00  0.00     0.346 HD
ENDBRANCH   7  13
BRANCH  11  17
ATOM     17  N   UNL     1      -3.976  -0.881   0.261  1.00  0.00    -0.330 N 
ATOM     18  C   UNL     1      -5.309  -0.332   0.016  1.00  0.00     0.262 C 
ATOM     19  C   UNL     1      -3.742  -1.982  -0.709  1.00  0.00     0.187 C 
ATOM     20  H   UNL     1      -3.622  -1.494   0.996  1.00  0.00     0.348 HD
ATOM     21  C   UNL     1      -6.096  -1.598  -0.175  1.00  0.00     0.067 C 
ATOM     22  C   UNL     1      -5.188  -2.410  -1.077  1.00  0.00     0.071 C 
BRANCH  19  23
ATOM     23  C   UNL     1      -2.910  -3.274  -0.417  1.00  0.00     0.047 C 
ATOM     24  C   UNL     1      -3.337  -4.398   0.546  1.00  0.00     0.010 C 
ATOM     25  C   UNL     1      -2.599  -4.135  -1.658  1.00  0.00     0.010 C 
ATOM     26  C   UNL     1      -2.206  -5.423   0.374  1.00  0.00     0.001 C 
ATOM     27  C   UNL     1      -1.778  -5.299  -1.089  1.00  0.00     0.001 C 
ENDBRANCH  19  23
ENDBRANCH  11  17
ENDBRANCH   4   7
ENDBRANCH   2   3
ENDBRANCH   1   2
BRANCH   1  28
ATOM     28  C   UNL     1       2.824  -2.513   4.135  1.00  0.00     0.118 C 
BRANCH  28  29
ATOM     29  N   UNL     1       3.595  -1.744   5.094  1.00  0.00    -0.352 N 
ATOM     30  C   UNL     1       4.015  -2.097   6.344  1.00  0.00     0.251 C 
ATOM     31  H   UNL     1       3.851  -0.839   4.801  1.00  0.00     0.163 HD
ATOM     32  O   UNL     1       4.311  -1.202   7.149  1.00  0.00    -0.269 OA
BRANCH  30  33
ATOM     33  C   UNL     1       4.142  -3.515   6.738  1.00  0.00     0.039 A 
ATOM     34  C   UNL     1       3.888  -3.880   8.063  1.00  0.00     0.014 A 
ATOM     35  C   UNL     1       4.599  -4.475   5.828  1.00  0.00     0.014 A 
ATOM     36  C   UNL     1       4.073  -5.203   8.469  1.00  0.00     0.010 A 
ATOM     37  C   UNL     1       4.707  -5.808   6.213  1.00  0.00     0.010 A 
ATOM     38  C   UNL     1       4.472  -6.180   7.544  1.00  0.00    -0.014 A 
BRANCH  38  39
ATOM     39  C   UNL     1       4.687  -7.590   7.953  1.00  0.00     0.031 A 
ATOM     40  C   UNL     1       6.064  -8.194   7.874  1.00  0.00     0.074 A 
ATOM     41  C   UNL     1       3.635  -8.338   8.337  1.00  0.00     0.049 A 
ATOM     42  N   UNL     1       6.442  -9.422   8.122  1.00  0.00    -0.248 NA
ATOM     43  C   UNL     1       7.157  -7.311   7.432  1.00  0.00     0.031 C 
ATOM     44  C   UNL     1       2.249  -7.872   8.417  1.00  0.00     0.029 A 
ATOM     45  N   UNL     1       3.567  -9.651   8.725  1.00  0.00    -0.354 N 
ATOM     46  C   UNL     1       7.804  -9.463   7.848  1.00  0.00     0.074 A 
ATOM     47  C   UNL     1       8.179  -8.151   7.369  1.00  0.00     0.031 C 
ATOM     48  C   UNL     1       1.472  -8.877   8.850  1.00  0.00     0.029 A 
ATOM     49  C   UNL     1       2.295 -10.066   9.041  1.00  0.00     0.049 A 
ATOM     50  H   UNL     1       4.354 -10.241   8.773  1.00  0.00     0.167 HD
ATOM     51  C   UNL     1       8.669 -10.495   7.998  1.00  0.00     0.031 A 
ATOM     52  C   UNL     1       1.841 -11.272   9.434  1.00  0.00     0.031 A 
ATOM     53  C   UNL     1       8.291 -11.792   8.492  1.00  0.00     0.049 A 
ATOM     54  C   UNL     1       2.821 -12.402   9.597  1.00  0.00     0.074 A 
ATOM     55  C   UNL     1       9.098 -12.889   8.735  1.00  0.00     0.029 A 
ATOM     56  N   UNL     1       6.996 -12.166   8.820  1.00  0.00    -0.354 N 
ATOM     57  N   UNL     1       4.116 -12.404   9.389  1.00  0.00    -0.248 NA
ATOM     58  C   UNL     1       2.280 -13.686  10.061  1.00  0.00     0.031 C 
ATOM     59  C   UNL     1       8.283 -13.942   9.166  1.00  0.00     0.029 A 
ATOM     60  C   UNL     1       6.978 -13.482   9.245  1.00  0.00     0.049 A 
ATOM     61  H   UNL     1       6.206 -11.581   8.759  1.00  0.00     0.167 HD
ATOM     62  C   UNL     1       4.550 -13.681   9.724  1.00  0.00     0.074 A 
ATOM     63  C   UNL     1       3.382 -14.419  10.161  1.00  0.00     0.031 C 
ATOM     64  C   UNL     1       5.803 -14.197   9.678  1.00  0.00     0.031 A 
BRANCH  51  65
ATOM     65  C   UNL     1      10.109 -10.261   7.621  1.00  0.00    -0.014 A 
ATOM     66  C   UNL     1      10.934  -9.418   8.388  1.00  0.00     0.010 A 
ATOM     67  C   UNL     1      10.658 -10.923   6.507  1.00  0.00     0.010 A 
ATOM     68  C   UNL     1      12.268  -9.209   8.025  1.00  0.00     0.020 A 
ATOM     69  C   UNL     1      11.999 -10.739   6.157  1.00  0.00     0.020 A 
ATOM     70  C   UNL     1      12.791  -9.868   6.909  1.00  0.00     0.054 A 
BRANCH  70  71
ATOM     71  S   UNL     1      14.530  -9.596   6.473  1.00  0.00     0.124 S 
ATOM     72  O   UNL     1      14.494  -8.242   5.925  1.00  0.00    -0.237 OA
ATOM     73  O   UNL     1      15.208  -9.733   7.760  1.00  0.00    -0.237 OA
ATOM     74  O   UNL     1      14.816 -10.652   5.506  1.00  0.00    -0.744 OA
ENDBRANCH  70  71
ENDBRANCH  51  65
BRANCH  52  75
ATOM     75  C   UNL     1       0.393 -11.463   9.717  1.00  0.00    -0.014 A 
ATOM     76  C   UNL     1      -0.058 -11.637  11.037  1.00  0.00     0.010 A 
ATOM     77  C   UNL     1      -0.546 -11.451   8.669  1.00  0.00     0.010 A 
ATOM     78  C   UNL     1      -1.419 -11.814  11.303  1.00  0.00     0.020 A 
ATOM     79  C   UNL     1      -1.910 -11.600   8.934  1.00  0.00     0.020 A 
ATOM     80  C   UNL     1      -2.337 -11.793  10.249  1.00  0.00     0.054 A 
BRANCH  80  81
ATOM     81  S   UNL     1      -4.103 -11.973  10.623  1.00  0.00     0.124 S 
ATOM     82  O   UNL     1      -4.204 -13.396  10.931  1.00  0.00    -0.237 OA
ATOM     83  O   UNL     1      -4.281 -11.066  11.754  1.00  0.00    -0.237 OA
ATOM     84  O   UNL     1      -4.758 -11.550   9.387  1.00  0.00    -0.744 OA
ENDBRANCH  80  81
ENDBRANCH  52  75
BRANCH  64  85
ATOM     85  C   UNL     1       5.984 -15.616  10.145  1.00  0.00    -0.014 A 
ATOM     86  C   UNL     1       5.538 -16.701   9.371  1.00  0.00     0.010 A 
ATOM     87  C   UNL     1       6.665 -15.865  11.351  1.00  0.00     0.010 A 
ATOM     88  C   UNL     1       5.744 -18.011   9.810  1.00  0.00     0.020 A 
ATOM     89  C   UNL     1       6.897 -17.173  11.780  1.00  0.00     0.020 A 
ATOM     90  C   UNL     1       6.422 -18.239  11.012  1.00  0.00     0.054 A 
BRANCH  90  91
ATOM     91  S   UNL     1       6.718 -19.949  11.537  1.00  0.00     0.124 S 
ATOM     92  O   UNL     1       5.393 -20.362  11.991  1.00  0.00    -0.237 OA
ATOM     93  O   UNL     1       7.189 -20.585  10.309  1.00  0.00    -0.237 OA
ATOM     94  O   UNL     1       7.725 -19.820  12.589  1.00  0.00    -0.744 OA
ENDBRANCH  90  91
ENDBRANCH  64  85
ENDBRANCH  38  39
ENDBRANCH  30  33
ENDBRANCH  28  29
ENDBRANCH   1  28
TORSDOF 16
