REMARK SMILES CC[C@](C)(C(=O)NCCCNC(=O)c1ccc(-c2c3nc(c(-c4ccc(S(=O)(=O)[O-])cc4)c4ccc([nH]4)c(-c4ccc(S(=O)(=O)[O-])cc4)c4nc(c(-c5ccc(S(=O)(=O)[O-])cc5)c5ccc2[nH]5)C=C4)C=C3)cc1)[C@H]1CCC[C@H](OC)C1
REMARK SMILES IDX 9 1 8 2 7 3 5 4 6 5 3 7 4 8 2 9 1 10 74 11 75 12 81 13 76 14
REMARK SMILES IDX 78 15 77 16 79 17 80 18 10 19 11 20 12 21 13 23 14 24 15 25
REMARK SMILES IDX 73 26 16 27 72 28 17 29 18 30 19 31 66 32 20 33 71 34 65 35
REMARK SMILES IDX 67 36 21 37 70 38 64 39 63 40 22 42 52 43 33 44 51 45 34 46
REMARK SMILES IDX 37 47 50 48 68 49 35 50 36 51 49 53 69 54 38 55 23 56 24 57
REMARK SMILES IDX 32 58 25 59 31 60 26 61 27 62 28 63 29 64 30 65 53 66 54 67
REMARK SMILES IDX 62 68 55 69 61 70 56 71 57 72 58 73 59 74 60 75 39 76 40 77
REMARK SMILES IDX 48 78 41 79 47 80 42 81 43 82 44 83 45 84 46 85
REMARK H PARENT 7 6 11 22 67 41 37 52
REMARK Flexibility Score: inf
ROOT
ATOM      1  C   UNL     1       5.042   0.764  -7.022  1.00  0.00     0.042 C 
ENDROOT
BRANCH   1   2
ATOM      2  C   UNL     1       3.635   1.192  -6.625  1.00  0.00     0.117 C 
BRANCH   2   3
ATOM      3  N   UNL     1       3.068   0.324  -5.608  1.00  0.00    -0.356 N 
ATOM      4  C   UNL     1       2.764   0.491  -4.295  1.00  0.00     0.226 C 
ATOM      5  O   UNL     1       2.097  -0.429  -3.809  1.00  0.00    -0.274 OA
ATOM      6  H   UNL     1       2.861  -0.579  -5.941  1.00  0.00     0.163 HD
BRANCH   4   7
ATOM      7  C   UNL     1       3.088   1.781  -3.489  1.00  0.00     0.049 C 
ATOM      8  C   UNL     1       4.553   2.212  -3.676  1.00  0.00     0.022 C 
BRANCH   7   9
ATOM      9  C   UNL     1       2.174   2.925  -4.061  1.00  0.00     0.013 C 
ATOM     10  C   UNL     1       0.721   2.542  -4.345  1.00  0.00     0.005 C 
ENDBRANCH   7   9
BRANCH   7  11
ATOM     11  C   UNL     1       2.765   1.582  -1.925  1.00  0.00     0.007 C 
ATOM     12  C   UNL     1       3.240   0.279  -1.225  1.00  0.00     0.005 C 
ATOM     13  C   UNL     1       3.153   2.774  -1.003  1.00  0.00     0.036 C 
ATOM     14  C   UNL     1       4.689   0.255  -0.756  1.00  0.00     0.003 C 
ATOM     15  C   UNL     1       4.607   2.768  -0.493  1.00  0.00     0.118 C 
ATOM     16  C   UNL     1       5.013   1.440   0.141  1.00  0.00     0.032 C 
BRANCH  15  17
ATOM     17  O   UNL     1       4.899   3.902   0.332  1.00  0.00    -0.381 OA
ATOM     18  C   UNL     1       4.261   3.962   1.595  1.00  0.00     0.195 C 
ENDBRANCH  15  17
ENDBRANCH   7  11
ENDBRANCH   4   7
ENDBRANCH   2   3
ENDBRANCH   1   2
BRANCH   1  19
ATOM     19  C   UNL     1       5.088  -0.585  -7.727  1.00  0.00     0.118 C 
BRANCH  19  20
ATOM     20  N   UNL     1       4.361  -0.570  -8.989  1.00  0.00    -0.352 N 
ATOM     21  C   UNL     1       4.820  -0.676 -10.274  1.00  0.00     0.251 C 
ATOM     22  H   UNL     1       3.385  -0.467  -8.904  1.00  0.00     0.163 HD
ATOM     23  O   UNL     1       4.066  -0.378 -11.206  1.00  0.00    -0.269 OA
BRANCH  21  24
ATOM     24  C   UNL     1       6.196  -1.134 -10.554  1.00  0.00     0.039 A 
ATOM     25  C   UNL     1       6.900  -0.554 -11.613  1.00  0.00     0.014 A 
ATOM     26  C   UNL     1       6.779  -2.165  -9.812  1.00  0.00     0.014 A 
ATOM     27  C   UNL     1       8.200  -0.977 -11.895  1.00  0.00     0.010 A 
ATOM     28  C   UNL     1       8.106  -2.521 -10.035  1.00  0.00     0.010 A 
ATOM     29  C   UNL     1       8.824  -1.946 -11.091  1.00  0.00    -0.014 A 
BRANCH  29  30
ATOM     30  C   UNL     1      10.217  -2.380 -11.362  1.00  0.00     0.031 A 
ATOM     31  C   UNL     1      10.506  -3.805 -11.755  1.00  0.00     0.074 A 
ATOM     32  C   UNL     1      11.226  -1.499 -11.218  1.00  0.00     0.049 A 
ATOM     33  N   UNL     1      11.656  -4.367 -12.028  1.00  0.00    -0.248 NA
ATOM     34  C   UNL     1       9.360  -4.726 -11.824  1.00  0.00     0.031 C 
ATOM     35  C   UNL     1      11.081  -0.107 -10.784  1.00  0.00     0.029 A 
ATOM     36  N   UNL     1      12.575  -1.642 -11.423  1.00  0.00    -0.354 N 
ATOM     37  C   UNL     1      11.373  -5.703 -12.287  1.00  0.00     0.074 A 
ATOM     38  C   UNL     1       9.953  -5.882 -12.081  1.00  0.00     0.031 C 
ATOM     39  C   UNL     1      12.286   0.485 -10.792  1.00  0.00     0.029 A 
ATOM     40  C   UNL     1      13.292  -0.491 -11.200  1.00  0.00     0.049 A 
ATOM     41  H   UNL     1      12.990  -2.490 -11.704  1.00  0.00     0.167 HD
ATOM     42  C   UNL     1      12.213  -6.689 -12.687  1.00  0.00     0.031 A 
ATOM     43  C   UNL     1      14.611  -0.245 -11.317  1.00  0.00     0.031 A 
ATOM     44  C   UNL     1      13.623  -6.504 -12.906  1.00  0.00     0.049 A 
ATOM     45  C   UNL     1      15.520  -1.346 -11.787  1.00  0.00     0.074 A 
ATOM     46  C   UNL     1      14.552  -7.423 -13.360  1.00  0.00     0.029 A 
ATOM     47  N   UNL     1      14.306  -5.316 -12.691  1.00  0.00    -0.354 N 
ATOM     48  N   UNL     1      15.221  -2.587 -12.091  1.00  0.00    -0.248 NA
ATOM     49  C   UNL     1      16.939  -1.007 -11.949  1.00  0.00     0.031 C 
ATOM     50  C   UNL     1      15.806  -6.801 -13.381  1.00  0.00     0.029 A 
ATOM     51  C   UNL     1      15.648  -5.481 -12.989  1.00  0.00     0.049 A 
ATOM     52  H   UNL     1      13.897  -4.479 -12.373  1.00  0.00     0.167 HD
ATOM     53  C   UNL     1      16.413  -3.173 -12.499  1.00  0.00     0.074 A 
ATOM     54  C   UNL     1      17.431  -2.143 -12.424  1.00  0.00     0.031 C 
ATOM     55  C   UNL     1      16.647  -4.447 -12.899  1.00  0.00     0.031 A 
BRANCH  42  56
ATOM     56  C   UNL     1      11.619  -8.054 -12.919  1.00  0.00    -0.014 A 
ATOM     57  C   UNL     1      10.759  -8.293 -14.007  1.00  0.00     0.010 A 
ATOM     58  C   UNL     1      11.942  -9.117 -12.057  1.00  0.00     0.010 A 
ATOM     59  C   UNL     1      10.197  -9.558 -14.202  1.00  0.00     0.020 A 
ATOM     60  C   UNL     1      11.405 -10.391 -12.265  1.00  0.00     0.020 A 
ATOM     61  C   UNL     1      10.520 -10.598 -13.326  1.00  0.00     0.054 A 
BRANCH  61  62
ATOM     62  S   UNL     1       9.790 -12.234 -13.613  1.00  0.00     0.124 S 
ATOM     63  O   UNL     1       8.413 -12.030 -13.170  1.00  0.00    -0.237 OA
ATOM     64  O   UNL     1       9.966 -12.417 -15.052  1.00  0.00    -0.237 OA
ATOM     65  O   UNL     1      10.589 -13.122 -12.773  1.00  0.00    -0.744 OA
ENDBRANCH  61  62
ENDBRANCH  42  56
BRANCH  43  66
ATOM     66  C   UNL     1      15.140   1.112 -11.012  1.00  0.00    -0.014 A 
ATOM     67  C   UNL     1      15.579   1.956 -12.047  1.00  0.00     0.010 A 
ATOM     68  C   UNL     1      15.185   1.575  -9.685  1.00  0.00     0.010 A 
ATOM     69  C   UNL     1      16.070   3.233 -11.759  1.00  0.00     0.020 A 
ATOM     70  C   UNL     1      15.651   2.861  -9.396  1.00  0.00     0.020 A 
ATOM     71  C   UNL     1      16.102   3.678 -10.435  1.00  0.00     0.054 A 
BRANCH  71  72
ATOM     72  S   UNL     1      16.689   5.360 -10.088  1.00  0.00     0.124 S 
ATOM     73  O   UNL     1      18.133   5.214 -10.239  1.00  0.00    -0.237 OA
ATOM     74  O   UNL     1      16.020   6.148 -11.121  1.00  0.00    -0.237 OA
ATOM     75  O   UNL     1      16.222   5.609  -8.726  1.00  0.00    -0.744 OA
ENDBRANCH  71  72
ENDBRANCH  43  66
BRANCH  55  76
ATOM     76  C   UNL     1      18.054  -4.790 -13.306  1.00  0.00    -0.014 A 
ATOM     77  C   UNL     1      19.079  -4.908 -12.351  1.00  0.00     0.010 A 
ATOM     78  C   UNL     1      18.347  -5.027 -14.662  1.00  0.00     0.010 A 
ATOM     79  C   UNL     1      20.383  -5.213 -12.750  1.00  0.00     0.020 A 
ATOM     80  C   UNL     1      19.643  -5.359 -15.061  1.00  0.00     0.020 A 
ATOM     81  C   UNL     1      20.657  -5.431 -14.104  1.00  0.00     0.054 A 
BRANCH  81  82
ATOM     82  S   UNL     1      22.353  -5.845 -14.596  1.00  0.00     0.124 S 
ATOM     83  O   UNL     1      23.018  -4.548 -14.511  1.00  0.00    -0.237 OA
ATOM     84  O   UNL     1      22.752  -6.824 -13.587  1.00  0.00    -0.237 OA
ATOM     85  O   UNL     1      22.200  -6.380 -15.947  1.00  0.00    -0.744 OA
ENDBRANCH  81  82
ENDBRANCH  55  76
ENDBRANCH  29  30
ENDBRANCH  21  24
ENDBRANCH  19  20
ENDBRANCH   1  19
TORSDOF 16
