REMARK SMILES Cc1ccccc1C[C@H](CCSc1ccccc1)C(=O)NCCCNC(=O)c1ccc(-c2c3nc(c(-c4ccc(S(=O)(=O)[O-])cc4)c4ccc([nH]4)c(-c4ccc(S(=O)(=O)[O-])cc4)c4nc(c(-c5ccc(S(=O)(=O)[O-])cc5)c5ccc2[nH]5)C=C4)C=C3)cc1
REMARK SMILES IDX 22 1 21 2 19 3 20 4 9 6 8 7 7 8 1 9 2 10 3 11 4 12 6 13 5 14
REMARK SMILES IDX 10 15 11 16 12 17 13 18 14 19 18 20 15 21 17 22 16 23 23 24
REMARK SMILES IDX 24 25 25 26 26 27 27 29 28 30 29 31 87 32 30 33 86 34 31 35
REMARK SMILES IDX 32 36 33 37 80 38 34 39 85 40 79 41 81 42 35 43 84 44 78 45
REMARK SMILES IDX 77 46 36 48 66 49 47 50 65 51 48 52 51 53 64 54 82 55 49 56
REMARK SMILES IDX 50 57 63 59 83 60 52 61 37 62 38 63 46 64 39 65 45 66 40 67
REMARK SMILES IDX 41 68 42 69 43 70 44 71 67 72 68 73 76 74 69 75 75 76 70 77
REMARK SMILES IDX 71 78 72 79 73 80 74 81 53 82 54 83 62 84 55 85 61 86 56 87
REMARK SMILES IDX 57 88 58 89 59 90 60 91
REMARK H PARENT 21 5 25 28 81 47 51 58
REMARK Flexibility Score: inf
ROOT
ATOM      1  C   UNL     1      -0.022   5.015   1.815  1.00  0.00     0.117 C 
ENDROOT
BRANCH   1   2
ATOM      2  N   UNL     1       1.054   5.150   0.840  1.00  0.00    -0.356 N 
ATOM      3  C   UNL     1       1.186   4.651  -0.420  1.00  0.00     0.223 C 
ATOM      4  O   UNL     1       2.184   4.980  -1.067  1.00  0.00    -0.275 OA
ATOM      5  H   UNL     1       1.816   5.694   1.145  1.00  0.00     0.163 HD
BRANCH   3   6
ATOM      6  C   UNL     1       0.197   3.647  -1.006  1.00  0.00     0.083 C 
BRANCH   6   7
ATOM      7  C   UNL     1      -1.281   4.098  -1.078  1.00  0.00     0.049 C 
BRANCH   7   8
ATOM      8  C   UNL     1      -1.599   5.351  -1.882  1.00  0.00    -0.044 A 
ATOM      9  C   UNL     1      -3.284   4.158  -3.421  1.00  0.00     0.044 C 
ATOM     10  C   UNL     1      -2.503   5.361  -2.968  1.00  0.00    -0.048 A 
ATOM     11  C   UNL     1      -2.798   6.580  -3.613  1.00  0.00     0.004 A 
ATOM     12  C   UNL     1      -2.225   7.779  -3.200  1.00  0.00     0.000 A 
ATOM     13  C   UNL     1      -1.063   6.585  -1.466  1.00  0.00     0.004 A 
ATOM     14  C   UNL     1      -1.361   7.782  -2.119  1.00  0.00     0.000 A 
ENDBRANCH   7   8
ENDBRANCH   6   7
BRANCH   6  15
ATOM     15  C   UNL     1       0.445   2.301  -0.280  1.00  0.00     0.025 C 
BRANCH  15  16
ATOM     16  C   UNL     1      -0.295   1.063  -0.791  1.00  0.00     0.076 C 
BRANCH  16  17
ATOM     17  S   UNL     1       0.531   0.218  -2.185  1.00  0.00    -0.126 SA
BRANCH  17  18
ATOM     18  C   UNL     1      -0.268   0.987  -3.575  1.00  0.00     0.007 A 
ATOM     19  C   UNL     1       0.343   2.068  -4.215  1.00  0.00     0.015 A 
ATOM     20  C   UNL     1      -1.469   0.482  -4.081  1.00  0.00     0.015 A 
ATOM     21  C   UNL     1      -0.267   2.679  -5.311  1.00  0.00     0.001 A 
ATOM     22  C   UNL     1      -2.065   1.073  -5.199  1.00  0.00     0.001 A 
ATOM     23  C   UNL     1      -1.468   2.177  -5.807  1.00  0.00     0.000 A 
ENDBRANCH  17  18
ENDBRANCH  16  17
ENDBRANCH  15  16
ENDBRANCH   6  15
ENDBRANCH   3   6
ENDBRANCH   1   2
BRANCH   1  24
ATOM     24  C   UNL     1       0.460   4.577   3.189  1.00  0.00     0.042 C 
BRANCH  24  25
ATOM     25  C   UNL     1       1.222   5.658   3.909  1.00  0.00     0.118 C 
BRANCH  25  26
ATOM     26  N   UNL     1       0.430   6.773   4.423  1.00  0.00    -0.352 N 
ATOM     27  C   UNL     1       0.960   7.490   5.493  1.00  0.00     0.251 C 
ATOM     28  H   UNL     1      -0.441   7.008   4.029  1.00  0.00     0.163 HD
ATOM     29  O   UNL     1       0.861   7.201   6.653  1.00  0.00    -0.269 OA
BRANCH  27  30
ATOM     30  C   UNL     1       1.939   8.513   5.022  1.00  0.00     0.039 A 
ATOM     31  C   UNL     1       1.663   9.876   4.989  1.00  0.00     0.014 A 
ATOM     32  C   UNL     1       3.069   7.987   4.401  1.00  0.00     0.014 A 
ATOM     33  C   UNL     1       2.497  10.704   4.231  1.00  0.00     0.010 A 
ATOM     34  C   UNL     1       3.767   8.766   3.521  1.00  0.00     0.010 A 
ATOM     35  C   UNL     1       3.500  10.133   3.445  1.00  0.00    -0.014 A 
BRANCH  35  36
ATOM     36  C   UNL     1       4.409  10.829   2.549  1.00  0.00     0.031 A 
ATOM     37  C   UNL     1       5.827  10.986   2.961  1.00  0.00     0.074 A 
ATOM     38  C   UNL     1       4.034  11.085   1.276  1.00  0.00     0.049 A 
ATOM     39  N   UNL     1       6.665  11.787   2.397  1.00  0.00    -0.248 NA
ATOM     40  C   UNL     1       6.417  10.246   4.077  1.00  0.00     0.031 C 
ATOM     41  C   UNL     1       4.911  11.377   0.145  1.00  0.00     0.029 A 
ATOM     42  N   UNL     1       2.757  11.338   0.778  1.00  0.00    -0.354 N 
ATOM     43  C   UNL     1       7.924  11.449   2.841  1.00  0.00     0.074 A 
ATOM     44  C   UNL     1       7.713  10.533   3.934  1.00  0.00     0.031 C 
ATOM     45  C   UNL     1       4.209  12.059  -0.774  1.00  0.00     0.029 A 
ATOM     46  C   UNL     1       2.915  12.353  -0.181  1.00  0.00     0.049 A 
ATOM     47  H   UNL     1       1.918  10.897   1.043  1.00  0.00     0.167 HD
ATOM     48  C   UNL     1       9.016  11.877   2.150  1.00  0.00     0.031 A 
ATOM     49  C   UNL     1       2.378  13.604  -0.052  1.00  0.00     0.031 A 
ATOM     50  C   UNL     1       8.634  12.733   1.033  1.00  0.00     0.049 A 
ATOM     51  C   UNL     1       3.426  14.700  -0.064  1.00  0.00     0.074 A 
ATOM     52  C   UNL     1       8.499  12.514  -0.328  1.00  0.00     0.029 A 
ATOM     53  N   UNL     1       8.018  13.946   1.302  1.00  0.00    -0.354 N 
ATOM     54  N   UNL     1       4.705  14.492   0.088  1.00  0.00    -0.248 NA
ATOM     55  C   UNL     1       3.119  16.119  -0.218  1.00  0.00     0.031 C 
ATOM     56  C   UNL     1       7.735  13.583  -0.868  1.00  0.00     0.029 A 
ATOM     57  C   UNL     1       7.433  14.457   0.162  1.00  0.00     0.049 A 
ATOM     58  H   UNL     1       8.001  14.382   2.185  1.00  0.00     0.167 HD
ATOM     59  C   UNL     1       5.386  15.683   0.060  1.00  0.00     0.074 A 
ATOM     60  C   UNL     1       4.344  16.674  -0.146  1.00  0.00     0.031 C 
ATOM     61  C   UNL     1       6.743  15.740   0.220  1.00  0.00     0.031 A 
BRANCH  48  62
ATOM     62  C   UNL     1      10.409  11.324   2.336  1.00  0.00    -0.014 A 
ATOM     63  C   UNL     1      11.309  11.341   1.250  1.00  0.00     0.010 A 
ATOM     64  C   UNL     1      10.888  10.757   3.532  1.00  0.00     0.010 A 
ATOM     65  C   UNL     1      12.581  10.756   1.326  1.00  0.00     0.020 A 
ATOM     66  C   UNL     1      12.146  10.136   3.613  1.00  0.00     0.020 A 
ATOM     67  C   UNL     1      12.984  10.134   2.503  1.00  0.00     0.054 A 
BRANCH  67  68
ATOM     68  S   UNL     1      14.610   9.336   2.564  1.00  0.00     0.124 S 
ATOM     69  O   UNL     1      14.533   8.380   1.462  1.00  0.00    -0.237 OA
ATOM     70  O   UNL     1      15.519  10.459   2.361  1.00  0.00    -0.237 OA
ATOM     71  O   UNL     1      14.652   8.735   3.896  1.00  0.00    -0.744 OA
ENDBRANCH  67  68
ENDBRANCH  48  62
BRANCH  49  72
ATOM     72  C   UNL     1       1.099  13.627   0.720  1.00  0.00    -0.014 A 
ATOM     73  C   UNL     1      -0.018  13.014   0.110  1.00  0.00     0.010 A 
ATOM     74  C   UNL     1       1.130  13.738   2.122  1.00  0.00     0.010 A 
ATOM     75  C   UNL     1      -0.949  12.311   0.880  1.00  0.00     0.020 A 
ATOM     76  C   UNL     1       0.182  13.050   2.896  1.00  0.00     0.020 A 
ATOM     77  C   UNL     1      -0.784  12.260   2.264  1.00  0.00     0.054 A 
BRANCH  77  78
ATOM     78  S   UNL     1      -1.691  10.985   3.198  1.00  0.00     0.124 S 
ATOM     79  O   UNL     1      -3.056  11.139   2.706  1.00  0.00    -0.237 OA
ATOM     80  O   UNL     1      -1.004   9.759   2.787  1.00  0.00    -0.237 OA
ATOM     81  O   UNL     1      -1.477  11.371   4.589  1.00  0.00    -0.744 OA
ENDBRANCH  77  78
ENDBRANCH  49  72
BRANCH  61  82
ATOM     82  C   UNL     1       7.602  16.977   0.407  1.00  0.00    -0.014 A 
ATOM     83  C   UNL     1       7.119  18.249   0.740  1.00  0.00     0.010 A 
ATOM     84  C   UNL     1       9.016  16.831   0.364  1.00  0.00     0.010 A 
ATOM     85  C   UNL     1       7.993  19.324   0.977  1.00  0.00     0.020 A 
ATOM     86  C   UNL     1       9.895  17.879   0.646  1.00  0.00     0.020 A 
ATOM     87  C   UNL     1       9.374  19.132   0.930  1.00  0.00     0.054 A 
BRANCH  87  88
ATOM     88  S   UNL     1      10.486  20.507   1.315  1.00  0.00     0.124 S 
ATOM     89  O   UNL     1      10.595  21.177   0.022  1.00  0.00    -0.237 OA
ATOM     90  O   UNL     1       9.751  21.243   2.341  1.00  0.00    -0.237 OA
ATOM     91  O   UNL     1      11.701  19.846   1.784  1.00  0.00    -0.744 OA
ENDBRANCH  87  88
ENDBRANCH  61  82
ENDBRANCH  35  36
ENDBRANCH  27  30
ENDBRANCH  25  26
ENDBRANCH  24  25
ENDBRANCH   1  24
TORSDOF 19
