REMARK SMILES CC[NH2+]C[C@@H](C)C(=O)N1CCO[C@@H](CC(=O)NCCCNC(=O)c2ccc(-c3c4nc(c(-c5ccc(S(=O)(=O)[O-])cc5)c5ccc([nH]5)c(-c5ccc(S(=O)(=O)[O-])cc5)c5nc(c(-c6ccc(S(=O)(=O)[O-])cc6)c6ccc3[nH]6)C=C5)C=C4)cc2)C1
REMARK SMILES IDX 15 1 16 2 17 3 14 5 13 6 9 7 10 8 84 9 11 10 12 11 7 12 8 13
REMARK SMILES IDX 5 14 6 15 4 16 3 17 2 20 1 21 18 22 19 23 20 24 21 25 22 26
REMARK SMILES IDX 23 28 24 29 25 30 83 31 26 32 82 33 27 34 28 35 29 36 76 37
REMARK SMILES IDX 30 38 81 39 75 40 77 41 31 42 80 43 74 44 73 45 32 47 62 48
REMARK SMILES IDX 43 49 61 50 44 51 47 52 60 53 78 54 45 55 46 56 59 58 79 59
REMARK SMILES IDX 48 60 33 61 34 62 42 63 35 64 41 65 36 66 37 67 38 68 39 69
REMARK SMILES IDX 40 70 63 71 64 72 72 73 65 74 71 75 66 76 67 77 68 78 69 79
REMARK SMILES IDX 70 80 49 81 50 82 58 83 51 84 57 85 52 86 53 87 54 88 55 89
REMARK SMILES IDX 56 90
REMARK H PARENT 17 4 3 18 3 19 21 27 77 46 47 57
REMARK Flexibility Score: inf
ROOT
ATOM      1  C   UNL     1       3.262  -9.175  -3.787  1.00  0.00     0.222 C 
ATOM      2  O   UNL     1       4.424  -8.926  -4.113  1.00  0.00    -0.275 OA
ATOM      3  N   UNL     1       2.296  -9.111  -4.749  1.00  0.00    -0.356 N 
ATOM      4  H   UNL     1       2.633  -8.886  -5.646  1.00  0.00     0.163 HD
ENDROOT
BRANCH   1   5
ATOM      5  C   UNL     1       2.921  -9.506  -2.351  1.00  0.00     0.133 C 
BRANCH   5   6
ATOM      6  C   UNL     1       2.819  -8.254  -1.477  1.00  0.00     0.147 C 
ATOM      7  N   UNL     1       1.383  -6.245  -1.099  1.00  0.00    -0.337 N 
ATOM      8  C   UNL     1       1.123  -6.715   0.257  1.00  0.00     0.148 C 
ATOM      9  C   UNL     1       1.722  -7.324  -2.004  1.00  0.00     0.152 C 
ATOM     10  C   UNL     1       2.301  -7.559   0.745  1.00  0.00     0.182 C 
ATOM     11  O   UNL     1       2.519  -8.683  -0.129  1.00  0.00    -0.374 OA
BRANCH   7  12
ATOM     12  C   UNL     1       0.619  -5.225  -1.655  1.00  0.00     0.231 C 
ATOM     13  O   UNL     1      -0.298  -5.463  -2.441  1.00  0.00    -0.274 OA
BRANCH  12  14
ATOM     14  C   UNL     1       1.113  -3.800  -1.416  1.00  0.00     0.130 C 
ATOM     15  C   UNL     1       2.612  -3.711  -1.717  1.00  0.00     0.024 C 
BRANCH  14  16
ATOM     16  C   UNL     1       0.740  -3.285  -0.023  1.00  0.00     0.273 C 
BRANCH  16  17
ATOM     17  N   UNL     1       1.159  -1.918   0.292  1.00  0.00    -0.346 N 
ATOM     18  H   UNL     1       0.960  -1.738   1.276  1.00  0.00     0.346 HD
ATOM     19  H   UNL     1       2.154  -1.852   0.082  1.00  0.00     0.346 HD
BRANCH  17  20
ATOM     20  C   UNL     1       0.478  -0.904  -0.512  1.00  0.00     0.257 C 
ATOM     21  C   UNL     1       0.905   0.474  -0.031  1.00  0.00     0.071 C 
ENDBRANCH  17  20
ENDBRANCH  16  17
ENDBRANCH  14  16
ENDBRANCH  12  14
ENDBRANCH   7  12
ENDBRANCH   5   6
ENDBRANCH   1   5
BRANCH   3  22
ATOM     22  C   UNL     1       0.852  -9.318  -4.683  1.00  0.00     0.117 C 
BRANCH  22  23
ATOM     23  C   UNL     1       0.060  -8.024  -4.887  1.00  0.00     0.042 C 
BRANCH  23  24
ATOM     24  C   UNL     1       0.065  -7.489  -6.312  1.00  0.00     0.118 C 
BRANCH  24  25
ATOM     25  N   UNL     1      -1.039  -8.020  -7.093  1.00  0.00    -0.352 N 
ATOM     26  C   UNL     1      -2.183  -7.404  -7.544  1.00  0.00     0.251 C 
ATOM     27  H   UNL     1      -0.954  -8.970  -7.338  1.00  0.00     0.163 HD
ATOM     28  O   UNL     1      -3.097  -8.109  -7.969  1.00  0.00    -0.269 OA
BRANCH  26  29
ATOM     29  C   UNL     1      -2.345  -5.926  -7.527  1.00  0.00     0.039 A 
ATOM     30  C   UNL     1      -3.617  -5.396  -7.282  1.00  0.00     0.014 A 
ATOM     31  C   UNL     1      -1.295  -5.056  -7.833  1.00  0.00     0.014 A 
ATOM     32  C   UNL     1      -3.825  -4.011  -7.307  1.00  0.00     0.010 A 
ATOM     33  C   UNL     1      -1.484  -3.672  -7.781  1.00  0.00     0.010 A 
ATOM     34  C   UNL     1      -2.756  -3.131  -7.537  1.00  0.00    -0.014 A 
BRANCH  34  35
ATOM     35  C   UNL     1      -2.957  -1.655  -7.559  1.00  0.00     0.031 A 
ATOM     36  C   UNL     1      -2.713  -0.871  -8.825  1.00  0.00     0.074 A 
ATOM     37  C   UNL     1      -3.317  -1.004  -6.434  1.00  0.00     0.049 A 
ATOM     38  N   UNL     1      -2.784   0.422  -9.023  1.00  0.00    -0.248 NA
ATOM     39  C   UNL     1      -2.317  -1.637 -10.018  1.00  0.00     0.031 C 
ATOM     40  C   UNL     1      -3.554  -1.630  -5.132  1.00  0.00     0.029 A 
ATOM     41  N   UNL     1      -3.543   0.332  -6.205  1.00  0.00    -0.354 N 
ATOM     42  C   UNL     1      -2.419   0.625 -10.350  1.00  0.00     0.074 A 
ATOM     43  C   UNL     1      -2.088  -0.672 -10.898  1.00  0.00     0.031 C 
ATOM     44  C   UNL     1      -3.918  -0.685  -4.249  1.00  0.00     0.029 A 
ATOM     45  C   UNL     1      -3.903   0.618  -4.909  1.00  0.00     0.049 A 
ATOM     46  H   UNL     1      -3.455   1.020  -6.904  1.00  0.00     0.167 HD
ATOM     47  C   UNL     1      -2.376   1.781 -11.057  1.00  0.00     0.031 A 
ATOM     48  C   UNL     1      -4.186   1.793  -4.313  1.00  0.00     0.031 A 
ATOM     49  C   UNL     1      -2.728   3.071 -10.525  1.00  0.00     0.049 A 
ATOM     50  C   UNL     1      -4.145   3.062  -5.120  1.00  0.00     0.074 A 
ATOM     51  C   UNL     1      -2.767   4.290 -11.180  1.00  0.00     0.029 A 
ATOM     52  N   UNL     1      -3.106   3.310  -9.213  1.00  0.00    -0.354 N 
ATOM     53  N   UNL     1      -3.844   3.224  -6.386  1.00  0.00    -0.248 NA
ATOM     54  C   UNL     1      -4.492   4.307  -4.419  1.00  0.00     0.031 C 
ATOM     55  C   UNL     1      -3.131   5.274 -10.254  1.00  0.00     0.029 A 
ATOM     56  C   UNL     1      -3.366   4.659  -9.034  1.00  0.00     0.049 A 
ATOM     57  H   UNL     1      -3.180   2.623  -8.512  1.00  0.00     0.167 HD
ATOM     58  C   UNL     1      -3.992   4.583  -6.639  1.00  0.00     0.074 A 
ATOM     59  C   UNL     1      -4.419   5.198  -5.399  1.00  0.00     0.031 C 
ATOM     60  C   UNL     1      -3.794   5.260  -7.797  1.00  0.00     0.031 A 
BRANCH  47  61
ATOM     61  C   UNL     1      -1.926   1.703 -12.492  1.00  0.00    -0.014 A 
ATOM     62  C   UNL     1      -2.744   1.123 -13.480  1.00  0.00     0.010 A 
ATOM     63  C   UNL     1      -0.685   2.249 -12.867  1.00  0.00     0.010 A 
ATOM     64  C   UNL     1      -2.309   1.051 -14.806  1.00  0.00     0.020 A 
ATOM     65  C   UNL     1      -0.258   2.203 -14.197  1.00  0.00     0.020 A 
ATOM     66  C   UNL     1      -1.065   1.585 -15.155  1.00  0.00     0.054 A 
BRANCH  66  67
ATOM     67  S   UNL     1      -0.530   1.489 -16.886  1.00  0.00     0.124 S 
ATOM     68  O   UNL     1      -0.151   0.083 -17.005  1.00  0.00    -0.237 OA
ATOM     69  O   UNL     1      -1.731   1.880 -17.618  1.00  0.00    -0.237 OA
ATOM     70  O   UNL     1       0.577   2.440 -16.959  1.00  0.00    -0.744 OA
ENDBRANCH  66  67
ENDBRANCH  47  61
BRANCH  48  71
ATOM     71  C   UNL     1      -4.557   1.821  -2.872  1.00  0.00    -0.014 A 
ATOM     72  C   UNL     1      -5.885   2.072  -2.484  1.00  0.00     0.010 A 
ATOM     73  C   UNL     1      -3.588   1.578  -1.881  1.00  0.00     0.010 A 
ATOM     74  C   UNL     1      -6.235   2.096  -1.131  1.00  0.00     0.020 A 
ATOM     75  C   UNL     1      -3.939   1.576  -0.528  1.00  0.00     0.020 A 
ATOM     76  C   UNL     1      -5.260   1.847  -0.161  1.00  0.00     0.054 A 
BRANCH  76  77
ATOM     77  S   UNL     1      -5.747   1.827   1.587  1.00  0.00     0.124 S 
ATOM     78  O   UNL     1      -5.886   3.250   1.878  1.00  0.00    -0.237 OA
ATOM     79  O   UNL     1      -6.992   1.062   1.560  1.00  0.00    -0.237 OA
ATOM     80  O   UNL     1      -4.628   1.157   2.244  1.00  0.00    -0.744 OA
ENDBRANCH  76  77
ENDBRANCH  48  71
BRANCH  60  81
ATOM     81  C   UNL     1      -4.071   6.739  -7.796  1.00  0.00    -0.014 A 
ATOM     82  C   UNL     1      -3.190   7.645  -7.181  1.00  0.00     0.010 A 
ATOM     83  C   UNL     1      -5.199   7.233  -8.476  1.00  0.00     0.010 A 
ATOM     84  C   UNL     1      -3.446   9.018  -7.224  1.00  0.00     0.020 A 
ATOM     85  C   UNL     1      -5.446   8.607  -8.542  1.00  0.00     0.020 A 
ATOM     86  C   UNL     1      -4.573   9.491  -7.905  1.00  0.00     0.054 A 
BRANCH  86  87
ATOM     87  S   UNL     1      -4.856  11.281  -7.992  1.00  0.00     0.124 S 
ATOM     88  O   UNL     1      -5.354  11.575  -6.652  1.00  0.00    -0.237 OA
ATOM     89  O   UNL     1      -3.527  11.803  -8.298  1.00  0.00    -0.237 OA
ATOM     90  O   UNL     1      -5.836  11.424  -9.067  1.00  0.00    -0.744 OA
ENDBRANCH  86  87
ENDBRANCH  60  81
ENDBRANCH  34  35
ENDBRANCH  26  29
ENDBRANCH  24  25
ENDBRANCH  23  24
ENDBRANCH  22  23
ENDBRANCH   3  22
TORSDOF 19
