REMARK SMILES COc1ccc(/C=C/c2cc(OC)cc(OC)c2/C=C/C(=O)NCCCNC(=O)c2ccc(-c3c4nc(c(-c5ccc(S(=O)(=O)[O-])cc5)c5ccc([nH]5)c(-c5ccc(S(=O)(=O)[O-])cc5)c5nc(c(-c6ccc(S(=O)(=O)[O-])cc6)c6ccc3[nH]6)C=C5)C=C4)cc2)cc1
REMARK SMILES IDX 24 1 23 2 21 3 22 4 20 6 19 7 18 8 9 9 10 10 11 11 15 12
REMARK SMILES IDX 14 13 8 14 7 15 6 16 3 17 4 18 91 19 5 20 90 21 2 22 1 23
REMARK SMILES IDX 12 24 13 25 16 26 17 27 25 28 26 29 27 30 28 31 29 33 30 34
REMARK SMILES IDX 31 35 89 36 32 37 88 38 33 39 34 40 35 41 82 42 36 43 87 44
REMARK SMILES IDX 81 45 83 46 37 47 86 48 80 49 79 50 38 52 68 53 49 54 67 55
REMARK SMILES IDX 50 56 53 57 66 58 84 59 51 60 52 61 65 63 85 64 54 65 39 66
REMARK SMILES IDX 40 67 48 68 41 69 47 70 42 71 43 72 44 73 45 74 46 75 69 76
REMARK SMILES IDX 70 77 78 78 71 79 77 80 72 81 73 82 74 83 75 84 76 85 55 86
REMARK SMILES IDX 56 87 64 88 57 89 63 90 58 91 59 92 60 93 61 94 62 95
REMARK H PARENT 23 5 27 32 83 51 53 62
REMARK Flexibility Score: inf
ROOT
ATOM      1  C   UNL     1       4.522  -2.686  -5.195  1.00  0.00     0.118 C 
ENDROOT
BRANCH   1   2
ATOM      2  N   UNL     1       5.556  -3.393  -5.919  1.00  0.00    -0.352 N 
ATOM      3  C   UNL     1       5.763  -3.394  -7.261  1.00  0.00     0.244 C 
ATOM      4  O   UNL     1       6.706  -3.993  -7.765  1.00  0.00    -0.270 OA
ATOM      5  H   UNL     1       6.177  -3.934  -5.379  1.00  0.00     0.163 HD
BRANCH   3   6
ATOM      6  C   UNL     1       4.852  -2.597  -8.102  1.00  0.00     0.072 C 
ATOM      7  C   UNL     1       3.595  -3.014  -8.316  1.00  0.00     0.018 C 
BRANCH   7   8
ATOM      8  C   UNL     1       2.701  -2.353  -9.277  1.00  0.00     0.024 A 
ATOM      9  C   UNL     1       1.535  -1.695  -8.781  1.00  0.00    -0.011 A 
ATOM     10  C   UNL     1       0.626  -1.107  -9.678  1.00  0.00     0.055 A 
ATOM     11  C   UNL     1       0.830  -1.175 -11.052  1.00  0.00     0.123 A 
ATOM     12  C   UNL     1       2.914  -2.394 -10.674  1.00  0.00     0.130 A 
ATOM     13  C   UNL     1       1.979  -1.790 -11.533  1.00  0.00     0.093 A 
BRANCH   9  14
ATOM     14  C   UNL     1       1.131  -1.653  -7.355  1.00  0.00     0.009 C 
ATOM     15  C   UNL     1       1.662  -0.833  -6.430  1.00  0.00     0.009 C 
BRANCH  15  16
ATOM     16  C   UNL     1       1.284  -0.807  -4.997  1.00  0.00    -0.025 A 
ATOM     17  C   UNL     1       0.711  -0.826  -2.217  1.00  0.00     0.118 A 
ATOM     18  C   UNL     1      -0.215  -1.310  -3.140  1.00  0.00     0.047 A 
ATOM     19  C   UNL     1       1.927  -0.330  -2.679  1.00  0.00     0.047 A 
ATOM     20  C   UNL     1       0.061  -1.291  -4.515  1.00  0.00     0.012 A 
ATOM     21  C   UNL     1       2.200  -0.303  -4.057  1.00  0.00     0.012 A 
BRANCH  17  22
ATOM     22  O   UNL     1       0.335  -0.922  -0.907  1.00  0.00    -0.497 OA
ATOM     23  C   UNL     1       0.959  -0.012  -0.007  1.00  0.00     0.278 C 
ENDBRANCH  17  22
ENDBRANCH  15  16
ENDBRANCH   9  14
BRANCH  11  24
ATOM     24  O   UNL     1      -0.149  -0.622 -11.832  1.00  0.00    -0.497 OA
ATOM     25  C   UNL     1      -0.173  -1.052 -13.191  1.00  0.00     0.278 C 
ENDBRANCH  11  24
BRANCH  12  26
ATOM     26  O   UNL     1       3.906  -2.966 -11.426  1.00  0.00    -0.496 OA
ATOM     27  C   UNL     1       4.924  -3.788 -10.889  1.00  0.00     0.278 C 
ENDBRANCH  12  26
ENDBRANCH   7   8
ENDBRANCH   3   6
ENDBRANCH   1   2
BRANCH   1  28
ATOM     28  C   UNL     1       3.565  -3.649  -4.516  1.00  0.00     0.042 C 
BRANCH  28  29
ATOM     29  C   UNL     1       4.165  -4.276  -3.271  1.00  0.00     0.118 C 
BRANCH  29  30
ATOM     30  N   UNL     1       4.538  -3.273  -2.278  1.00  0.00    -0.352 N 
ATOM     31  C   UNL     1       4.084  -3.105  -0.995  1.00  0.00     0.251 C 
ATOM     32  H   UNL     1       5.214  -2.621  -2.573  1.00  0.00     0.163 HD
ATOM     33  O   UNL     1       4.306  -2.056  -0.401  1.00  0.00    -0.269 OA
BRANCH  31  34
ATOM     34  C   UNL     1       3.350  -4.206  -0.342  1.00  0.00     0.039 A 
ATOM     35  C   UNL     1       2.278  -3.911   0.501  1.00  0.00     0.014 A 
ATOM     36  C   UNL     1       3.744  -5.531  -0.547  1.00  0.00     0.014 A 
ATOM     37  C   UNL     1       1.587  -4.953   1.118  1.00  0.00     0.010 A 
ATOM     38  C   UNL     1       2.984  -6.566  -0.031  1.00  0.00     0.010 A 
ATOM     39  C   UNL     1       1.927  -6.287   0.844  1.00  0.00    -0.014 A 
BRANCH  39  40
ATOM     40  C   UNL     1       1.250  -7.416   1.522  1.00  0.00     0.031 A 
ATOM     41  C   UNL     1       2.054  -8.330   2.409  1.00  0.00     0.074 A 
ATOM     42  C   UNL     1      -0.058  -7.645   1.298  1.00  0.00     0.049 A 
ATOM     43  N   UNL     1       1.675  -9.409   3.043  1.00  0.00    -0.248 NA
ATOM     44  C   UNL     1       3.483  -8.010   2.578  1.00  0.00     0.031 C 
ATOM     45  C   UNL     1      -0.923  -6.848   0.426  1.00  0.00     0.029 A 
ATOM     46  N   UNL     1      -0.886  -8.619   1.790  1.00  0.00    -0.354 N 
ATOM     47  C   UNL     1       2.820  -9.905   3.658  1.00  0.00     0.074 A 
ATOM     48  C   UNL     1       3.918  -9.053   3.267  1.00  0.00     0.031 C 
ATOM     49  C   UNL     1      -2.170  -7.344   0.474  1.00  0.00     0.029 A 
ATOM     50  C   UNL     1      -2.182  -8.516   1.344  1.00  0.00     0.049 A 
ATOM     51  H   UNL     1      -0.582  -9.327   2.403  1.00  0.00     0.167 HD
ATOM     52  C   UNL     1       2.941 -10.958   4.500  1.00  0.00     0.031 A 
ATOM     53  C   UNL     1      -3.257  -9.281   1.611  1.00  0.00     0.031 A 
ATOM     54  C   UNL     1       1.835 -11.785   4.900  1.00  0.00     0.049 A 
ATOM     55  C   UNL     1      -3.101 -10.441   2.557  1.00  0.00     0.074 A 
ATOM     56  C   UNL     1       1.829 -12.848   5.784  1.00  0.00     0.029 A 
ATOM     57  N   UNL     1       0.533 -11.634   4.443  1.00  0.00    -0.354 N 
ATOM     58  N   UNL     1      -2.022 -10.867   3.171  1.00  0.00    -0.248 NA
ATOM     59  C   UNL     1      -4.314 -11.209   2.864  1.00  0.00     0.031 C 
ATOM     60  C   UNL     1       0.533 -13.372   5.823  1.00  0.00     0.029 A 
ATOM     61  C   UNL     1      -0.282 -12.592   5.018  1.00  0.00     0.049 A 
ATOM     62  H   UNL     1       0.235 -10.947   3.805  1.00  0.00     0.167 HD
ATOM     63  C   UNL     1      -2.435 -11.927   3.970  1.00  0.00     0.074 A 
ATOM     64  C   UNL     1      -3.863 -12.068   3.767  1.00  0.00     0.031 C 
ATOM     65  C   UNL     1      -1.703 -12.710   4.803  1.00  0.00     0.031 A 
BRANCH  52  66
ATOM     66  C   UNL     1       4.316 -11.267   5.035  1.00  0.00    -0.014 A 
ATOM     67  C   UNL     1       4.972 -10.387   5.917  1.00  0.00     0.010 A 
ATOM     68  C   UNL     1       4.957 -12.463   4.666  1.00  0.00     0.010 A 
ATOM     69  C   UNL     1       6.259 -10.672   6.378  1.00  0.00     0.020 A 
ATOM     70  C   UNL     1       6.231 -12.770   5.153  1.00  0.00     0.020 A 
ATOM     71  C   UNL     1       6.882 -11.862   5.991  1.00  0.00     0.054 A 
BRANCH  71  72
ATOM     72  S   UNL     1       8.545 -12.216   6.622  1.00  0.00     0.124 S 
ATOM     73  O   UNL     1       9.360 -11.259   5.877  1.00  0.00    -0.237 OA
ATOM     74  O   UNL     1       8.409 -11.946   8.051  1.00  0.00    -0.237 OA
ATOM     75  O   UNL     1       8.758 -13.618   6.273  1.00  0.00    -0.744 OA
ENDBRANCH  71  72
ENDBRANCH  52  66
BRANCH  53  76
ATOM     76  C   UNL     1      -4.576  -8.949   1.006  1.00  0.00    -0.014 A 
ATOM     77  C   UNL     1      -5.625  -8.457   1.804  1.00  0.00     0.010 A 
ATOM     78  C   UNL     1      -4.788  -9.108  -0.376  1.00  0.00     0.010 A 
ATOM     79  C   UNL     1      -6.867  -8.155   1.236  1.00  0.00     0.020 A 
ATOM     80  C   UNL     1      -6.018  -8.778  -0.952  1.00  0.00     0.020 A 
ATOM     81  C   UNL     1      -7.054  -8.316  -0.139  1.00  0.00     0.054 A 
BRANCH  81  82
ATOM     82  S   UNL     1      -8.661  -7.876  -0.859  1.00  0.00     0.124 S 
ATOM     83  O   UNL     1      -9.517  -8.952  -0.371  1.00  0.00    -0.237 OA
ATOM     84  O   UNL     1      -8.912  -6.556  -0.285  1.00  0.00    -0.237 OA
ATOM     85  O   UNL     1      -8.404  -7.883  -2.298  1.00  0.00    -0.744 OA
ENDBRANCH  81  82
ENDBRANCH  53  76
BRANCH  65  86
ATOM     86  C   UNL     1      -2.446 -13.745   5.605  1.00  0.00    -0.014 A 
ATOM     87  C   UNL     1      -3.014 -14.880   5.002  1.00  0.00     0.010 A 
ATOM     88  C   UNL     1      -2.544 -13.587   7.000  1.00  0.00     0.010 A 
ATOM     89  C   UNL     1      -3.714 -15.811   5.773  1.00  0.00     0.020 A 
ATOM     90  C   UNL     1      -3.212 -14.534   7.779  1.00  0.00     0.020 A 
ATOM     91  C   UNL     1      -3.812 -15.629   7.157  1.00  0.00     0.054 A 
BRANCH  91  92
ATOM     92  S   UNL     1      -4.714 -16.858   8.138  1.00  0.00     0.124 S 
ATOM     93  O   UNL     1      -6.101 -16.568   7.785  1.00  0.00    -0.237 OA
ATOM     94  O   UNL     1      -4.187 -18.122   7.631  1.00  0.00    -0.237 OA
ATOM     95  O   UNL     1      -4.343 -16.542   9.515  1.00  0.00    -0.744 OA
ENDBRANCH  91  92
ENDBRANCH  65  86
ENDBRANCH  39  40
ENDBRANCH  31  34
ENDBRANCH  29  30
ENDBRANCH  28  29
ENDBRANCH   1  28
TORSDOF 19
