REMARK SMILES Cc1ccccc1OC1(C(=O)NCCCNC(=O)c2ccc(-c3c4nc(c(-c5ccc(S(=O)(=O)[O-])cc5)c5ccc([nH]5)c(-c5ccc(S(=O)(=O)[O-])cc5)c5nc(c(-c6ccc(S(=O)(=O)[O-])cc6)c6ccc3[nH]6)C=C5)C=C4)cc2)CCN(C(=O)[C@H]2CCCCO2)CC1
REMARK SMILES IDX 14 1 13 2 12 3 10 4 11 5 9 7 79 8 91 9 80 10 90 11 81 12
REMARK SMILES IDX 82 13 83 14 8 15 7 16 1 17 2 18 3 19 4 20 6 21 5 22 84 23
REMARK SMILES IDX 85 24 89 25 86 26 88 27 87 28 15 29 16 30 17 31 18 33 19 34
REMARK SMILES IDX 20 35 78 36 21 37 77 38 22 39 23 40 24 41 71 42 25 43 76 44
REMARK SMILES IDX 70 45 72 46 26 47 75 48 69 49 68 50 27 52 57 53 38 54 56 55
REMARK SMILES IDX 39 56 42 57 55 58 73 59 40 60 41 61 54 63 74 64 43 65 28 66
REMARK SMILES IDX 29 67 37 68 30 69 36 70 31 71 32 72 33 73 34 74 35 75 58 76
REMARK SMILES IDX 59 77 67 78 60 79 66 80 61 81 62 82 63 83 64 84 65 85 44 86
REMARK SMILES IDX 45 87 53 88 46 89 52 90 47 91 48 92 49 93 50 94 51 95
REMARK H PARENT 12 6 16 32 72 51 42 62
REMARK Flexibility Score: inf
ROOT
ATOM      1  C   UNL     1       8.252  -2.656  -2.495  1.00  0.00     0.042 C 
ENDROOT
BRANCH   1   2
ATOM      2  C   UNL     1       6.911  -3.485  -2.933  1.00  0.00     0.118 C 
BRANCH   2   3
ATOM      3  N   UNL     1       6.831  -4.958  -3.199  1.00  0.00    -0.353 N 
ATOM      4  C   UNL     1       5.970  -6.000  -2.837  1.00  0.00     0.264 C 
ATOM      5  O   UNL     1       5.851  -6.974  -3.592  1.00  0.00    -0.270 OA
ATOM      6  H   UNL     1       7.568  -5.270  -3.772  1.00  0.00     0.163 HD
BRANCH   4   7
ATOM      7  C   UNL     1       5.223  -6.003  -1.425  1.00  0.00     0.190 C 
ATOM      8  C   UNL     1       6.408  -6.016  -0.465  1.00  0.00     0.080 C 
ATOM      9  C   UNL     1       4.229  -4.855  -1.484  1.00  0.00     0.080 C 
ATOM     10  C   UNL     1       6.740  -4.682   0.167  1.00  0.00     0.124 C 
ATOM     11  C   UNL     1       4.540  -3.637  -0.646  1.00  0.00     0.124 C 
ATOM     12  N   UNL     1       5.641  -3.711   0.315  1.00  0.00    -0.340 N 
ATOM     13  C   UNL     1       5.817  -2.761   1.327  1.00  0.00     0.251 C 
ATOM     14  O   UNL     1       6.767  -2.830   2.112  1.00  0.00    -0.272 OA
BRANCH   7  15
ATOM     15  O   UNL     1       4.459  -7.242  -1.195  1.00  0.00    -0.477 OA
BRANCH  15  16
ATOM     16  C   UNL     1       3.558  -7.546  -0.185  1.00  0.00     0.123 A 
ATOM     17  C   UNL     1       4.012  -5.869   1.763  1.00  0.00     0.048 C 
ATOM     18  C   UNL     1       3.298  -6.976   1.079  1.00  0.00    -0.009 A 
ATOM     19  C   UNL     1       2.259  -7.479   1.910  1.00  0.00     0.007 A 
ATOM     20  C   UNL     1       1.500  -8.575   1.550  1.00  0.00     0.001 A 
ATOM     21  C   UNL     1       2.774  -8.674  -0.511  1.00  0.00     0.047 A 
ATOM     22  C   UNL     1       1.769  -9.184   0.338  1.00  0.00     0.004 A 
ENDBRANCH  15  16
ENDBRANCH   7  15
BRANCH  13  23
ATOM     23  C   UNL     1       4.759  -1.645   1.464  1.00  0.00     0.207 C 
ATOM     24  C   UNL     1       3.547  -2.192   2.233  1.00  0.00     0.042 C 
ATOM     25  O   UNL     1       5.365  -0.555   2.169  1.00  0.00    -0.368 OA
ATOM     26  C   UNL     1       2.592  -1.098   2.676  1.00  0.00     0.006 C 
ATOM     27  C   UNL     1       4.471   0.507   2.457  1.00  0.00     0.161 C 
ATOM     28  C   UNL     1       3.358   0.016   3.366  1.00  0.00     0.029 C 
ENDBRANCH  13  23
ENDBRANCH   4   7
ENDBRANCH   2   3
ENDBRANCH   1   2
BRANCH   1  29
ATOM     29  C   UNL     1       8.863  -1.661  -3.605  1.00  0.00     0.118 C 
BRANCH  29  30
ATOM     30  N   UNL     1      10.226  -0.820  -3.603  1.00  0.00    -0.352 N 
ATOM     31  C   UNL     1      11.469  -0.584  -4.353  1.00  0.00     0.251 C 
ATOM     32  H   UNL     1      10.235  -0.247  -2.803  1.00  0.00     0.163 HD
ATOM     33  O   UNL     1      11.692   0.633  -4.518  1.00  0.00    -0.269 OA
BRANCH  31  34
ATOM     34  C   UNL     1      12.589  -1.490  -5.037  1.00  0.00     0.039 A 
ATOM     35  C   UNL     1      13.062  -1.255  -6.366  1.00  0.00     0.014 A 
ATOM     36  C   UNL     1      13.181  -2.603  -4.480  1.00  0.00     0.014 A 
ATOM     37  C   UNL     1      13.359  -2.369  -7.230  1.00  0.00     0.010 A 
ATOM     38  C   UNL     1      13.521  -3.699  -5.317  1.00  0.00     0.010 A 
ATOM     39  C   UNL     1      13.344  -3.661  -6.707  1.00  0.00    -0.014 A 
BRANCH  39  40
ATOM     40  C   UNL     1      13.053  -4.929  -7.487  1.00  0.00     0.031 A 
ATOM     41  C   UNL     1      14.133  -5.852  -7.810  1.00  0.00     0.074 A 
ATOM     42  C   UNL     1      11.841  -5.455  -7.843  1.00  0.00     0.049 A 
ATOM     43  N   UNL     1      14.349  -6.355  -8.980  1.00  0.00    -0.248 NA
ATOM     44  C   UNL     1      15.028  -6.328  -6.772  1.00  0.00     0.031 C 
ATOM     45  C   UNL     1      11.420  -6.727  -8.464  1.00  0.00     0.029 A 
ATOM     46  N   UNL     1      10.600  -4.894  -7.653  1.00  0.00    -0.354 N 
ATOM     47  C   UNL     1      15.162  -7.445  -8.764  1.00  0.00     0.074 A 
ATOM     48  C   UNL     1      15.717  -7.252  -7.442  1.00  0.00     0.031 C 
ATOM     49  C   UNL     1      10.152  -6.609  -8.933  1.00  0.00     0.029 A 
ATOM     50  C   UNL     1       9.711  -5.257  -8.658  1.00  0.00     0.049 A 
ATOM     51  H   UNL     1      10.369  -4.308  -6.897  1.00  0.00     0.167 HD
ATOM     52  C   UNL     1      15.098  -8.545  -9.571  1.00  0.00     0.031 A 
ATOM     53  C   UNL     1       9.267  -4.279  -9.507  1.00  0.00     0.031 A 
ATOM     54  C   UNL     1      13.974  -8.466 -10.516  1.00  0.00     0.049 A 
ATOM     55  C   UNL     1       9.917  -4.452 -10.846  1.00  0.00     0.074 A 
ATOM     56  C   UNL     1      12.761  -9.139 -10.580  1.00  0.00     0.029 A 
ATOM     57  N   UNL     1      13.853  -7.378 -11.375  1.00  0.00    -0.354 N 
ATOM     58  N   UNL     1      10.878  -5.304 -11.041  1.00  0.00    -0.248 NA
ATOM     59  C   UNL     1       9.562  -3.737 -12.064  1.00  0.00     0.031 C 
ATOM     60  C   UNL     1      11.878  -8.384 -11.401  1.00  0.00     0.029 A 
ATOM     61  C   UNL     1      12.564  -7.278 -11.871  1.00  0.00     0.049 A 
ATOM     62  H   UNL     1      14.586  -6.762 -11.601  1.00  0.00     0.167 HD
ATOM     63  C   UNL     1      11.245  -5.322 -12.344  1.00  0.00     0.074 A 
ATOM     64  C   UNL     1      10.396  -4.312 -12.954  1.00  0.00     0.031 C 
ATOM     65  C   UNL     1      12.202  -6.189 -12.779  1.00  0.00     0.031 A 
BRANCH  52  66
ATOM     66  C   UNL     1      15.854  -9.828  -9.274  1.00  0.00    -0.014 A 
ATOM     67  C   UNL     1      15.453 -11.048  -9.851  1.00  0.00     0.010 A 
ATOM     68  C   UNL     1      17.002  -9.886  -8.456  1.00  0.00     0.010 A 
ATOM     69  C   UNL     1      16.111 -12.258  -9.569  1.00  0.00     0.020 A 
ATOM     70  C   UNL     1      17.634 -11.090  -8.117  1.00  0.00     0.020 A 
ATOM     71  C   UNL     1      17.190 -12.273  -8.688  1.00  0.00     0.054 A 
BRANCH  71  72
ATOM     72  S   UNL     1      18.049 -13.831  -8.355  1.00  0.00     0.124 S 
ATOM     73  O   UNL     1      16.982 -14.681  -7.834  1.00  0.00    -0.237 OA
ATOM     74  O   UNL     1      18.558 -14.195  -9.675  1.00  0.00    -0.237 OA
ATOM     75  O   UNL     1      19.075 -13.463  -7.379  1.00  0.00    -0.744 OA
ENDBRANCH  71  72
ENDBRANCH  52  66
BRANCH  53  76
ATOM     76  C   UNL     1       8.924  -2.957  -8.817  1.00  0.00    -0.014 A 
ATOM     77  C   UNL     1       7.897  -3.094  -7.861  1.00  0.00     0.010 A 
ATOM     78  C   UNL     1       9.997  -2.195  -8.381  1.00  0.00     0.010 A 
ATOM     79  C   UNL     1       8.257  -3.299  -6.524  1.00  0.00     0.020 A 
ATOM     80  C   UNL     1      10.272  -2.234  -7.001  1.00  0.00     0.020 A 
ATOM     81  C   UNL     1       9.569  -3.068  -6.144  1.00  0.00     0.054 A 
BRANCH  81  82
ATOM     82  S   UNL     1      10.260  -4.222  -4.636  1.00  0.00     0.124 S 
ATOM     83  O   UNL     1       9.014  -4.861  -4.252  1.00  0.00    -0.237 OA
ATOM     84  O   UNL     1      11.171  -5.205  -5.214  1.00  0.00    -0.237 OA
ATOM     85  O   UNL     1      10.837  -3.384  -3.618  1.00  0.00    -0.744 OA
ENDBRANCH  81  82
ENDBRANCH  53  76
BRANCH  65  86
ATOM     86  C   UNL     1      12.827  -6.171 -14.140  1.00  0.00    -0.014 A 
ATOM     87  C   UNL     1      12.828  -5.057 -14.988  1.00  0.00     0.010 A 
ATOM     88  C   UNL     1      13.561  -7.308 -14.555  1.00  0.00     0.010 A 
ATOM     89  C   UNL     1      13.464  -5.104 -16.231  1.00  0.00     0.020 A 
ATOM     90  C   UNL     1      14.249  -7.343 -15.763  1.00  0.00     0.020 A 
ATOM     91  C   UNL     1      14.166  -6.249 -16.611  1.00  0.00     0.054 A 
BRANCH  91  92
ATOM     92  S   UNL     1      15.004  -6.278 -18.208  1.00  0.00     0.124 S 
ATOM     93  O   UNL     1      13.897  -6.554 -19.120  1.00  0.00    -0.237 OA
ATOM     94  O   UNL     1      15.570  -4.934 -18.299  1.00  0.00    -0.237 OA
ATOM     95  O   UNL     1      15.984  -7.352 -18.067  1.00  0.00    -0.744 OA
ENDBRANCH  91  92
ENDBRANCH  65  86
ENDBRANCH  39  40
ENDBRANCH  31  34
ENDBRANCH  29  30
ENDBRANCH   1  29
TORSDOF 16
