REMARK SMILES O=C(COc1ccc(C(=O)/C=C/c2ccc(Cl)c([N+](=O)[O-])c2)cc1)NCCCNC(=O)c1ccc(-c2c3nc(c(-c4ccc(S(=O)(=O)[O-])cc4)c4ccc([nH]4)c(-c4ccc(S(=O)(=O)[O-])cc4)c4nc(c(-c5ccc(S(=O)(=O)[O-])cc5)c5ccc2[nH]5)C=C4)C=C3)cc1
REMARK SMILES IDX 1 1 2 2 25 3 3 5 4 6 5 7 6 8 24 9 7 10 23 11 8 12 9 13 10 14
REMARK SMILES IDX 11 15 12 16 13 17 14 18 22 19 15 20 18 21 16 22 17 23 19 24
REMARK SMILES IDX 20 25 21 26 26 27 27 28 28 29 29 30 30 31 31 33 32 34 33 35
REMARK SMILES IDX 91 36 34 37 90 38 35 39 36 40 37 41 84 42 38 43 89 44 83 45
REMARK SMILES IDX 85 46 39 47 88 48 82 49 81 50 40 52 70 53 51 54 69 55 52 56
REMARK SMILES IDX 55 57 68 58 86 59 53 60 54 61 67 63 87 64 56 65 41 66 42 67
REMARK SMILES IDX 50 68 43 69 49 70 44 71 45 72 46 73 47 74 48 75 71 76 72 77
REMARK SMILES IDX 80 78 73 79 79 80 74 81 75 82 76 83 77 84 78 85 57 86 58 87
REMARK SMILES IDX 66 88 59 89 65 90 60 91 61 92 62 93 63 94 64 95
REMARK H PARENT 25 4 29 32 85 51 55 62
REMARK Flexibility Score: inf
ROOT
ATOM      1  O   UNL     1       1.060  -0.101   0.513  1.00  0.00    -0.271 OA
ATOM      2  C   UNL     1       2.262  -0.129   0.268  1.00  0.00     0.257 C 
ATOM      3  N   UNL     1       2.935   0.894  -0.373  1.00  0.00    -0.353 N 
ATOM      4  H   UNL     1       3.919   0.912  -0.341  1.00  0.00     0.163 HD
ENDROOT
BRANCH   2   5
ATOM      5  C   UNL     1       3.148  -1.330   0.634  1.00  0.00     0.329 C 
BRANCH   5   6
ATOM      6  O   UNL     1       4.065  -1.770  -0.375  1.00  0.00    -0.484 OA
BRANCH   6   7
ATOM      7  C   UNL     1       3.424  -2.356  -1.435  1.00  0.00     0.120 A 
ATOM      8  C   UNL     1       3.385  -3.742  -1.556  1.00  0.00     0.047 A 
ATOM      9  C   UNL     1       2.914  -1.561  -2.456  1.00  0.00     0.047 A 
ATOM     10  C   UNL     1       2.727  -4.325  -2.650  1.00  0.00     0.016 A 
ATOM     11  C   UNL     1       2.261  -2.135  -3.543  1.00  0.00     0.016 A 
ATOM     12  C   UNL     1       2.112  -3.521  -3.623  1.00  0.00     0.022 A 
BRANCH  12  13
ATOM     13  C   UNL     1       1.362  -4.157  -4.744  1.00  0.00     0.185 C 
ATOM     14  O   UNL     1       1.631  -5.301  -5.097  1.00  0.00    -0.289 OA
BRANCH  13  15
ATOM     15  C   UNL     1       0.295  -3.403  -5.473  1.00  0.00     0.053 C 
ATOM     16  C   UNL     1      -0.501  -2.486  -4.902  1.00  0.00     0.012 C 
BRANCH  16  17
ATOM     17  C   UNL     1      -1.494  -1.705  -5.640  1.00  0.00    -0.019 A 
ATOM     18  C   UNL     1      -1.210  -0.383  -5.991  1.00  0.00     0.010 A 
ATOM     19  C   UNL     1      -2.751  -2.237  -5.938  1.00  0.00     0.095 A 
ATOM     20  C   UNL     1      -2.180   0.402  -6.620  1.00  0.00     0.028 A 
ATOM     21  C   UNL     1      -3.739  -1.443  -6.564  1.00  0.00     0.288 A 
ATOM     22  C   UNL     1      -3.452  -0.114  -6.908  1.00  0.00     0.118 A 
ATOM     23  Cl  UNL     1      -4.530   0.991  -7.685  1.00  0.00    -0.077 Cl
BRANCH  21  24
ATOM     24  N   UNL     1      -5.047  -2.072  -6.803  1.00  0.00     0.064 N 
ATOM     25  O   UNL     1      -6.003  -1.376  -7.157  1.00  0.00    -0.258 OA
ATOM     26  O   UNL     1      -5.127  -3.296  -6.615  1.00  0.00    -0.258 OA
ENDBRANCH  21  24
ENDBRANCH  16  17
ENDBRANCH  13  15
ENDBRANCH  12  13
ENDBRANCH   6   7
ENDBRANCH   5   6
ENDBRANCH   2   5
BRANCH   3  27
ATOM     27  C   UNL     1       2.235   1.942  -1.093  1.00  0.00     0.117 C 
BRANCH  27  28
ATOM     28  C   UNL     1       2.534   3.341  -0.584  1.00  0.00     0.042 C 
BRANCH  28  29
ATOM     29  C   UNL     1       3.997   3.753  -0.686  1.00  0.00     0.118 C 
BRANCH  29  30
ATOM     30  N   UNL     1       4.488   3.821  -2.055  1.00  0.00    -0.352 N 
ATOM     31  C   UNL     1       5.162   4.827  -2.708  1.00  0.00     0.251 C 
ATOM     32  H   UNL     1       4.310   3.020  -2.600  1.00  0.00     0.163 HD
ATOM     33  O   UNL     1       5.367   4.717  -3.913  1.00  0.00    -0.269 OA
BRANCH  31  34
ATOM     34  C   UNL     1       5.617   6.039  -1.984  1.00  0.00     0.039 A 
ATOM     35  C   UNL     1       5.548   7.274  -2.637  1.00  0.00     0.014 A 
ATOM     36  C   UNL     1       6.142   5.972  -0.691  1.00  0.00     0.014 A 
ATOM     37  C   UNL     1       5.959   8.437  -1.978  1.00  0.00     0.010 A 
ATOM     38  C   UNL     1       6.464   7.141  -0.004  1.00  0.00     0.010 A 
ATOM     39  C   UNL     1       6.398   8.385  -0.646  1.00  0.00    -0.014 A 
BRANCH  39  40
ATOM     40  C   UNL     1       6.830   9.616   0.068  1.00  0.00     0.031 A 
ATOM     41  C   UNL     1       8.256   9.759   0.540  1.00  0.00     0.074 A 
ATOM     42  C   UNL     1       5.939  10.596   0.320  1.00  0.00     0.049 A 
ATOM     43  N   UNL     1       8.819  10.755   1.175  1.00  0.00    -0.248 NA
ATOM     44  C   UNL     1       9.160   8.624   0.289  1.00  0.00     0.031 C 
ATOM     45  C   UNL     1       4.520  10.565  -0.041  1.00  0.00     0.029 A 
ATOM     46  N   UNL     1       6.097  11.813   0.936  1.00  0.00    -0.354 N 
ATOM     47  C   UNL     1      10.133  10.363   1.410  1.00  0.00     0.074 A 
ATOM     48  C   UNL     1      10.266   9.015   0.905  1.00  0.00     0.031 C 
ATOM     49  C   UNL     1       3.947  11.723   0.326  1.00  0.00     0.029 A 
ATOM     50  C   UNL     1       4.946  12.565   0.978  1.00  0.00     0.049 A 
ATOM     51  H   UNL     1       6.953  12.119   1.313  1.00  0.00     0.167 HD
ATOM     52  C   UNL     1      11.146  11.067   1.970  1.00  0.00     0.031 A 
ATOM     53  C   UNL     1       4.719  13.795   1.479  1.00  0.00     0.031 A 
ATOM     54  C   UNL     1      11.017  12.413   2.460  1.00  0.00     0.049 A 
ATOM     55  C   UNL     1       5.861  14.561   2.090  1.00  0.00     0.074 A 
ATOM     56  C   UNL     1      11.996  13.230   2.999  1.00  0.00     0.029 A 
ATOM     57  N   UNL     1       9.838  13.142   2.471  1.00  0.00    -0.354 N 
ATOM     58  N   UNL     1       7.112  14.196   2.243  1.00  0.00    -0.248 NA
ATOM     59  C   UNL     1       5.565  15.916   2.575  1.00  0.00     0.031 C 
ATOM     60  C   UNL     1      11.397  14.435   3.383  1.00  0.00     0.029 A 
ATOM     61  C   UNL     1      10.060  14.393   3.021  1.00  0.00     0.049 A 
ATOM     62  H   UNL     1       8.970  12.818   2.136  1.00  0.00     0.167 HD
ATOM     63  C   UNL     1       7.759  15.291   2.806  1.00  0.00     0.074 A 
ATOM     64  C   UNL     1       6.764  16.333   2.954  1.00  0.00     0.031 C 
ATOM     65  C   UNL     1       9.062  15.424   3.161  1.00  0.00     0.031 A 
BRANCH  52  66
ATOM     66  C   UNL     1      12.487  10.387   2.082  1.00  0.00    -0.014 A 
ATOM     67  C   UNL     1      13.252  10.093   0.938  1.00  0.00     0.010 A 
ATOM     68  C   UNL     1      13.005  10.066   3.350  1.00  0.00     0.010 A 
ATOM     69  C   UNL     1      14.487   9.449   1.057  1.00  0.00     0.020 A 
ATOM     70  C   UNL     1      14.254   9.451   3.475  1.00  0.00     0.020 A 
ATOM     71  C   UNL     1      14.979   9.130   2.326  1.00  0.00     0.054 A 
BRANCH  71  72
ATOM     72  S   UNL     1      16.592   8.310   2.451  1.00  0.00     0.124 S 
ATOM     73  O   UNL     1      16.282   6.964   1.974  1.00  0.00    -0.237 OA
ATOM     74  O   UNL     1      17.429   9.113   1.563  1.00  0.00    -0.237 OA
ATOM     75  O   UNL     1      16.921   8.406   3.870  1.00  0.00    -0.744 OA
ENDBRANCH  71  72
ENDBRANCH  52  66
BRANCH  53  76
ATOM     76  C   UNL     1       3.358  14.395   1.393  1.00  0.00    -0.014 A 
ATOM     77  C   UNL     1       3.106  15.480   0.534  1.00  0.00     0.010 A 
ATOM     78  C   UNL     1       2.303  13.878   2.167  1.00  0.00     0.010 A 
ATOM     79  C   UNL     1       1.833  16.053   0.469  1.00  0.00     0.020 A 
ATOM     80  C   UNL     1       1.021  14.428   2.082  1.00  0.00     0.020 A 
ATOM     81  C   UNL     1       0.797  15.521   1.243  1.00  0.00     0.054 A 
BRANCH  81  82
ATOM     82  S   UNL     1      -0.859  16.251   1.108  1.00  0.00     0.124 S 
ATOM     83  O   UNL     1      -0.691  17.518   1.812  1.00  0.00    -0.237 OA
ATOM     84  O   UNL     1      -1.043  16.349  -0.338  1.00  0.00    -0.237 OA
ATOM     85  O   UNL     1      -1.718  15.273   1.772  1.00  0.00    -0.744 OA
ENDBRANCH  81  82
ENDBRANCH  53  76
BRANCH  65  86
ATOM     86  C   UNL     1       9.502  16.762   3.694  1.00  0.00    -0.014 A 
ATOM     87  C   UNL     1       9.094  17.225   4.958  1.00  0.00     0.010 A 
ATOM     88  C   UNL     1      10.370  17.557   2.922  1.00  0.00     0.010 A 
ATOM     89  C   UNL     1       9.506  18.479   5.417  1.00  0.00     0.020 A 
ATOM     90  C   UNL     1      10.810  18.797   3.392  1.00  0.00     0.020 A 
ATOM     91  C   UNL     1      10.358  19.259   4.629  1.00  0.00     0.054 A 
BRANCH  91  92
ATOM     92  S   UNL     1      10.892  20.876   5.253  1.00  0.00     0.124 S 
ATOM     93  O   UNL     1       9.682  21.678   5.092  1.00  0.00    -0.237 OA
ATOM     94  O   UNL     1      11.270  20.578   6.633  1.00  0.00    -0.237 OA
ATOM     95  O   UNL     1      12.002  21.238   4.374  1.00  0.00    -0.744 OA
ENDBRANCH  91  92
ENDBRANCH  65  86
ENDBRANCH  39  40
ENDBRANCH  31  34
ENDBRANCH  29  30
ENDBRANCH  28  29
ENDBRANCH  27  28
ENDBRANCH   3  27
TORSDOF 19
