REMARK SMILES CSc1ccc(C[NH+]2CCC(CC(=O)NCCCNC(=O)c3ccc(-c4c5nc(c(-c6ccc(S(=O)(=O)[O-])cc6)c6ccc([nH]6)c(-c6ccc(S(=O)(=O)[O-])cc6)c6nc(c(-c7ccc(S(=O)(=O)[O-])cc7)c7ccc4[nH]7)C=C6)C=C5)cc3)CC2)cc1
REMARK SMILES IDX 16 1 15 2 13 3 14 4 12 6 11 7 8 8 9 9 83 10 10 12 82 13 7 14
REMARK SMILES IDX 6 15 3 16 4 17 85 18 5 19 84 20 2 21 1 22 17 23 18 24 19 25
REMARK SMILES IDX 20 26 21 28 22 29 23 30 81 31 24 32 80 33 25 34 26 35 27 36
REMARK SMILES IDX 74 37 28 38 79 39 73 40 75 41 29 42 78 43 72 44 71 45 30 47
REMARK SMILES IDX 60 48 41 49 59 50 42 51 45 52 58 53 76 54 43 55 44 56 57 58
REMARK SMILES IDX 77 59 46 60 31 61 32 62 40 63 33 64 39 65 34 66 35 67 36 68
REMARK SMILES IDX 37 69 38 70 61 71 62 72 70 73 63 74 69 75 64 76 65 77 66 78
REMARK SMILES IDX 67 79 68 80 47 81 48 82 56 83 49 84 55 85 50 86 51 87 52 88
REMARK SMILES IDX 53 89 54 90
REMARK H PARENT 15 5 8 11 19 27 75 46 45 57
REMARK Flexibility Score: inf
ROOT
ATOM      1  C   UNL     1      -3.067  -6.989   8.045  1.00  0.00     0.117 C 
ENDROOT
BRANCH   1   2
ATOM      2  N   UNL     1      -4.059  -6.608   7.045  1.00  0.00    -0.356 N 
ATOM      3  C   UNL     1      -4.161  -6.905   5.716  1.00  0.00     0.220 C 
ATOM      4  O   UNL     1      -5.155  -6.503   5.108  1.00  0.00    -0.275 OA
ATOM      5  H   UNL     1      -4.782  -6.036   7.390  1.00  0.00     0.163 HD
BRANCH   3   6
ATOM      6  C   UNL     1      -3.073  -7.681   4.990  1.00  0.00     0.104 C 
BRANCH   6   7
ATOM      7  C   UNL     1      -2.047  -6.761   4.303  1.00  0.00     0.009 C 
ATOM      8  N   UNL     1       0.795  -6.019   4.119  1.00  0.00    -0.331 N 
ATOM      9  C   UNL     1      -0.144  -5.129   4.803  1.00  0.00     0.262 C 
ATOM     10  C   UNL     1       0.140  -6.688   2.992  1.00  0.00     0.262 C 
ATOM     11  H   UNL     1       1.078  -6.757   4.763  1.00  0.00     0.348 HD
ATOM     12  C   UNL     1      -1.326  -5.908   5.340  1.00  0.00     0.066 C 
ATOM     13  C   UNL     1      -1.022  -7.565   3.489  1.00  0.00     0.066 C 
BRANCH   8  14
ATOM     14  C   UNL     1       2.052  -5.326   3.763  1.00  0.00     0.299 C 
BRANCH  14  15
ATOM     15  C   UNL     1       1.884  -3.945   3.163  1.00  0.00     0.006 A 
ATOM     16  C   UNL     1       1.200  -1.399   2.162  1.00  0.00     0.007 A 
ATOM     17  C   UNL     1       1.154  -2.526   1.336  1.00  0.00     0.015 A 
ATOM     18  C   UNL     1       1.628  -1.547   3.484  1.00  0.00     0.015 A 
ATOM     19  C   UNL     1       1.508  -3.785   1.826  1.00  0.00     0.011 A 
ATOM     20  C   UNL     1       1.976  -2.806   3.979  1.00  0.00     0.011 A 
BRANCH  16  21
ATOM     21  S   UNL     1       0.646   0.216   1.637  1.00  0.00    -0.130 SA
ATOM     22  C   UNL     1       1.220   0.253  -0.079  1.00  0.00     0.091 C 
ENDBRANCH  16  21
ENDBRANCH  14  15
ENDBRANCH   8  14
ENDBRANCH   6   7
ENDBRANCH   3   6
ENDBRANCH   1   2
BRANCH   1  23
ATOM     23  C   UNL     1      -2.237  -5.813   8.573  1.00  0.00     0.042 C 
BRANCH  23  24
ATOM     24  C   UNL     1      -3.020  -4.794   9.393  1.00  0.00     0.118 C 
BRANCH  24  25
ATOM     25  N   UNL     1      -2.980  -5.114  10.808  1.00  0.00    -0.352 N 
ATOM     26  C   UNL     1      -2.270  -4.523  11.827  1.00  0.00     0.251 C 
ATOM     27  H   UNL     1      -3.549  -5.869  11.081  1.00  0.00     0.163 HD
ATOM     28  O   UNL     1      -2.150  -5.133  12.887  1.00  0.00    -0.269 OA
BRANCH  26  29
ATOM     29  C   UNL     1      -1.648  -3.181  11.678  1.00  0.00     0.039 A 
ATOM     30  C   UNL     1      -0.437  -2.928  12.334  1.00  0.00     0.014 A 
ATOM     31  C   UNL     1      -2.280  -2.140  10.992  1.00  0.00     0.014 A 
ATOM     32  C   UNL     1       0.145  -1.656  12.281  1.00  0.00     0.010 A 
ATOM     33  C   UNL     1      -1.664  -0.890  10.879  1.00  0.00     0.010 A 
ATOM     34  C   UNL     1      -0.456  -0.625  11.542  1.00  0.00    -0.014 A 
BRANCH  34  35
ATOM     35  C   UNL     1       0.139   0.739  11.493  1.00  0.00     0.031 A 
ATOM     36  C   UNL     1      -0.598   1.912  12.093  1.00  0.00     0.074 A 
ATOM     37  C   UNL     1       1.322   0.942  10.881  1.00  0.00     0.049 A 
ATOM     38  N   UNL     1      -0.265   3.178  12.108  1.00  0.00    -0.248 NA
ATOM     39  C   UNL     1      -1.887   1.625  12.744  1.00  0.00     0.031 C 
ATOM     40  C   UNL     1       2.131  -0.095  10.236  1.00  0.00     0.029 A 
ATOM     41  N   UNL     1       2.050   2.092  10.698  1.00  0.00    -0.354 N 
ATOM     42  C   UNL     1      -1.309   3.840  12.745  1.00  0.00     0.074 A 
ATOM     43  C   UNL     1      -2.306   2.841  13.065  1.00  0.00     0.031 C 
ATOM     44  C   UNL     1       3.254   0.462   9.753  1.00  0.00     0.029 A 
ATOM     45  C   UNL     1       3.230   1.898  10.020  1.00  0.00     0.049 A 
ATOM     46  H   UNL     1       1.755   2.973  11.023  1.00  0.00     0.167 HD
ATOM     47  C   UNL     1      -1.426   5.154  13.054  1.00  0.00     0.031 A 
ATOM     48  C   UNL     1       4.186   2.773   9.649  1.00  0.00     0.031 A 
ATOM     49  C   UNL     1      -0.430   6.150  12.757  1.00  0.00     0.049 A 
ATOM     50  C   UNL     1       4.037   4.227  10.001  1.00  0.00     0.074 A 
ATOM     51  C   UNL     1      -0.436   7.497  13.077  1.00  0.00     0.029 A 
ATOM     52  N   UNL     1       0.751   5.907  12.073  1.00  0.00    -0.354 N 
ATOM     53  N   UNL     1       3.062   4.822  10.647  1.00  0.00    -0.248 NA
ATOM     54  C   UNL     1       5.121   5.126   9.582  1.00  0.00     0.031 C 
ATOM     55  C   UNL     1       0.725   8.077  12.553  1.00  0.00     0.029 A 
ATOM     56  C   UNL     1       1.474   7.082  11.945  1.00  0.00     0.049 A 
ATOM     57  H   UNL     1       1.034   5.030  11.728  1.00  0.00     0.167 HD
ATOM     58  C   UNL     1       3.427   6.162  10.729  1.00  0.00     0.074 A 
ATOM     59  C   UNL     1       4.716   6.287  10.080  1.00  0.00     0.031 C 
ATOM     60  C   UNL     1       2.753   7.195  11.293  1.00  0.00     0.031 A 
BRANCH  47  61
ATOM     61  C   UNL     1      -2.689   5.592  13.748  1.00  0.00    -0.014 A 
ATOM     62  C   UNL     1      -2.936   5.246  15.089  1.00  0.00     0.010 A 
ATOM     63  C   UNL     1      -3.633   6.375  13.059  1.00  0.00     0.010 A 
ATOM     64  C   UNL     1      -4.127   5.630  15.712  1.00  0.00     0.020 A 
ATOM     65  C   UNL     1      -4.813   6.784  13.687  1.00  0.00     0.020 A 
ATOM     66  C   UNL     1      -5.063   6.389  15.003  1.00  0.00     0.054 A 
BRANCH  66  67
ATOM     67  S   UNL     1      -6.601   6.875  15.833  1.00  0.00     0.124 S 
ATOM     68  O   UNL     1      -7.363   5.629  15.805  1.00  0.00    -0.237 OA
ATOM     69  O   UNL     1      -6.137   7.297  17.152  1.00  0.00    -0.237 OA
ATOM     70  O   UNL     1      -7.126   7.946  14.990  1.00  0.00    -0.744 OA
ENDBRANCH  66  67
ENDBRANCH  47  61
BRANCH  48  71
ATOM     71  C   UNL     1       5.387   2.287   8.918  1.00  0.00    -0.014 A 
ATOM     72  C   UNL     1       6.629   2.205   9.571  1.00  0.00     0.010 A 
ATOM     73  C   UNL     1       5.290   1.883   7.574  1.00  0.00     0.010 A 
ATOM     74  C   UNL     1       7.756   1.733   8.891  1.00  0.00     0.020 A 
ATOM     75  C   UNL     1       6.410   1.390   6.898  1.00  0.00     0.020 A 
ATOM     76  C   UNL     1       7.638   1.326   7.559  1.00  0.00     0.054 A 
BRANCH  76  77
ATOM     77  S   UNL     1       9.097   0.651   6.717  1.00  0.00     0.124 S 
ATOM     78  O   UNL     1       9.860   1.858   6.417  1.00  0.00    -0.237 OA
ATOM     79  O   UNL     1       9.674  -0.226   7.733  1.00  0.00    -0.237 OA
ATOM     80  O   UNL     1       8.532  -0.039   5.559  1.00  0.00    -0.744 OA
ENDBRANCH  76  77
ENDBRANCH  48  71
BRANCH  60  81
ATOM     81  C   UNL     1       3.407   8.549  11.257  1.00  0.00    -0.014 A 
ATOM     82  C   UNL     1       3.457   9.299  10.069  1.00  0.00     0.010 A 
ATOM     83  C   UNL     1       3.933   9.100  12.439  1.00  0.00     0.010 A 
ATOM     84  C   UNL     1       4.047  10.566  10.058  1.00  0.00     0.020 A 
ATOM     85  C   UNL     1       4.503  10.376  12.437  1.00  0.00     0.020 A 
ATOM     86  C   UNL     1       4.569  11.096  11.242  1.00  0.00     0.054 A 
BRANCH  86  87
ATOM     87  S   UNL     1       5.290  12.760  11.215  1.00  0.00     0.124 S 
ATOM     88  O   UNL     1       6.588  12.518  10.591  1.00  0.00    -0.237 OA
ATOM     89  O   UNL     1       4.335  13.514  10.406  1.00  0.00    -0.237 OA
ATOM     90  O   UNL     1       5.337  13.140  12.625  1.00  0.00    -0.744 OA
ENDBRANCH  86  87
ENDBRANCH  60  81
ENDBRANCH  34  35
ENDBRANCH  26  29
ENDBRANCH  24  25
ENDBRANCH  23  24
ENDBRANCH   1  23
TORSDOF 17
