REMARK SMILES N#CCCNC(=O)COc1ccc(C(=O)NCCCNC(=O)c2ccc(-c3c4nc(c(-c5ccc(S(=O)(=O)[O-])cc5)c5ccc([nH]5)c(-c5ccc(S(=O)(=O)[O-])cc5)c5nc(c(-c6ccc(S(=O)(=O)[O-])cc6)c6ccc3[nH]6)C=C5)C=C4)cc2)nc1
REMARK SMILES IDX 14 1 15 2 16 3 13 5 10 6 11 7 84 8 12 9 83 10 9 11 8 12 6 13
REMARK SMILES IDX 5 14 7 16 4 17 3 18 2 19 1 20 17 21 18 22 19 23 20 24 21 25
REMARK SMILES IDX 22 27 23 28 24 29 82 30 25 31 81 32 26 33 27 34 28 35 75 36
REMARK SMILES IDX 29 37 80 38 74 39 76 40 30 41 79 42 73 43 72 44 31 46 61 47
REMARK SMILES IDX 42 48 60 49 43 50 46 51 59 52 77 53 44 54 45 55 58 57 78 58
REMARK SMILES IDX 47 59 32 60 33 61 41 62 34 63 40 64 35 65 36 66 37 67 38 68
REMARK SMILES IDX 39 69 62 70 63 71 71 72 64 73 70 74 65 75 66 76 67 77 68 78
REMARK SMILES IDX 69 79 48 80 49 81 57 82 50 83 56 84 51 85 52 86 53 87 54 88
REMARK SMILES IDX 55 89
REMARK H PARENT 16 4 5 15 20 26 76 45 46 56
REMARK Flexibility Score: inf
ROOT
ATOM      1  C   UNL     1       5.734   5.581   3.110  1.00  0.00     0.269 C 
ATOM      2  O   UNL     1       6.513   5.529   4.064  1.00  0.00    -0.268 OA
ATOM      3  N   UNL     1       4.722   6.512   3.199  1.00  0.00    -0.351 N 
ATOM      4  H   UNL     1       4.697   6.986   4.062  1.00  0.00     0.163 HD
ENDROOT
BRANCH   1   5
ATOM      5  C   UNL     1       5.928   4.660   1.933  1.00  0.00     0.128 A 
ATOM      6  C   UNL     1       6.436   2.855  -0.109  1.00  0.00     0.138 A 
ATOM      7  C   UNL     1       5.191   3.456  -0.012  1.00  0.00     0.050 A 
ATOM      8  C   UNL     1       7.378   3.199   0.848  1.00  0.00     0.158 A 
ATOM      9  C   UNL     1       4.923   4.331   1.038  1.00  0.00     0.038 A 
ATOM     10  N   UNL     1       7.164   4.097   1.839  1.00  0.00    -0.247 NA
BRANCH   6  11
ATOM     11  O   UNL     1       6.736   1.847  -0.975  1.00  0.00    -0.482 OA
BRANCH  11  12
ATOM     12  C   UNL     1       6.355   2.054  -2.326  1.00  0.00     0.329 C 
BRANCH  12  13
ATOM     13  C   UNL     1       4.878   1.987  -2.738  1.00  0.00     0.257 C 
ATOM     14  N   UNL     1       4.058   1.015  -2.242  1.00  0.00    -0.352 N 
ATOM     15  H   UNL     1       3.117   1.077  -2.523  1.00  0.00     0.163 HD
ATOM     16  O   UNL     1       4.405   2.808  -3.527  1.00  0.00    -0.271 OA
BRANCH  14  17
ATOM     17  C   UNL     1       4.368  -0.102  -1.358  1.00  0.00     0.131 C 
BRANCH  17  18
ATOM     18  C   UNL     1       3.825   0.062   0.065  1.00  0.00     0.141 C 
BRANCH  18  19
ATOM     19  C   UNL     1       2.305   0.062   0.065  1.00  0.00     0.064 C 
ATOM     20  N   UNL     1       1.044   0.062   0.065  1.00  0.00    -0.198 NA
ENDBRANCH  18  19
ENDBRANCH  17  18
ENDBRANCH  14  17
ENDBRANCH  12  13
ENDBRANCH  11  12
ENDBRANCH   6  11
ENDBRANCH   1   5
BRANCH   3  21
ATOM     21  C   UNL     1       3.685   6.933   2.274  1.00  0.00     0.118 C 
BRANCH  21  22
ATOM     22  C   UNL     1       2.356   6.231   2.560  1.00  0.00     0.042 C 
BRANCH  22  23
ATOM     23  C   UNL     1       1.579   6.854   3.715  1.00  0.00     0.118 C 
BRANCH  23  24
ATOM     24  N   UNL     1       1.095   8.184   3.378  1.00  0.00    -0.352 N 
ATOM     25  C   UNL     1      -0.178   8.692   3.389  1.00  0.00     0.251 C 
ATOM     26  H   UNL     1       1.792   8.820   3.098  1.00  0.00     0.163 HD
ATOM     27  O   UNL     1      -0.394   9.766   2.833  1.00  0.00    -0.269 OA
BRANCH  25  28
ATOM     28  C   UNL     1      -1.283   7.969   4.057  1.00  0.00     0.039 A 
ATOM     29  C   UNL     1      -2.560   8.022   3.489  1.00  0.00     0.014 A 
ATOM     30  C   UNL     1      -1.089   7.303   5.270  1.00  0.00     0.014 A 
ATOM     31  C   UNL     1      -3.631   7.387   4.120  1.00  0.00     0.010 A 
ATOM     32  C   UNL     1      -2.141   6.606   5.859  1.00  0.00     0.010 A 
ATOM     33  C   UNL     1      -3.427   6.660   5.303  1.00  0.00    -0.014 A 
BRANCH  33  34
ATOM     34  C   UNL     1      -4.551   5.978   5.990  1.00  0.00     0.031 A 
ATOM     35  C   UNL     1      -4.972   6.417   7.367  1.00  0.00     0.074 A 
ATOM     36  C   UNL     1      -5.154   4.927   5.402  1.00  0.00     0.049 A 
ATOM     37  N   UNL     1      -5.887   5.910   8.153  1.00  0.00    -0.248 NA
ATOM     38  C   UNL     1      -4.247   7.559   7.949  1.00  0.00     0.031 C 
ATOM     39  C   UNL     1      -4.806   4.378   4.090  1.00  0.00     0.029 A 
ATOM     40  N   UNL     1      -6.180   4.127   5.836  1.00  0.00    -0.354 N 
ATOM     41  C   UNL     1      -5.834   6.656   9.326  1.00  0.00     0.074 A 
ATOM     42  C   UNL     1      -4.760   7.612   9.169  1.00  0.00     0.031 C 
ATOM     43  C   UNL     1      -5.615   3.342   3.819  1.00  0.00     0.029 A 
ATOM     44  C   UNL     1      -6.514   3.131   4.949  1.00  0.00     0.049 A 
ATOM     45  H   UNL     1      -6.633   4.253   6.701  1.00  0.00     0.167 HD
ATOM     46  C   UNL     1      -6.621   6.569  10.426  1.00  0.00     0.031 A 
ATOM     47  C   UNL     1      -7.437   2.154   5.037  1.00  0.00     0.031 A 
ATOM     48  C   UNL     1      -7.691   5.618  10.574  1.00  0.00     0.049 A 
ATOM     49  C   UNL     1      -8.312   2.083   6.257  1.00  0.00     0.074 A 
ATOM     50  C   UNL     1      -8.576   5.471  11.627  1.00  0.00     0.029 A 
ATOM     51  N   UNL     1      -8.021   4.649   9.637  1.00  0.00    -0.354 N 
ATOM     52  N   UNL     1      -8.285   2.833   7.334  1.00  0.00    -0.248 NA
ATOM     53  C   UNL     1      -9.353   1.047   6.266  1.00  0.00     0.031 C 
ATOM     54  C   UNL     1      -9.414   4.386  11.346  1.00  0.00     0.029 A 
ATOM     55  C   UNL     1      -9.087   3.893  10.092  1.00  0.00     0.049 A 
ATOM     56  H   UNL     1      -7.563   4.519   8.775  1.00  0.00     0.167 HD
ATOM     57  C   UNL     1      -9.322   2.375   8.140  1.00  0.00     0.074 A 
ATOM     58  C   UNL     1      -9.963   1.293   7.419  1.00  0.00     0.031 C 
ATOM     59  C   UNL     1      -9.709   2.814   9.364  1.00  0.00     0.031 A 
BRANCH  46  60
ATOM     60  C   UNL     1      -6.335   7.529  11.553  1.00  0.00    -0.014 A 
ATOM     61  C   UNL     1      -6.565   8.910  11.408  1.00  0.00     0.010 A 
ATOM     62  C   UNL     1      -5.821   7.048  12.771  1.00  0.00     0.010 A 
ATOM     63  C   UNL     1      -6.222   9.798  12.431  1.00  0.00     0.020 A 
ATOM     64  C   UNL     1      -5.507   7.931  13.810  1.00  0.00     0.020 A 
ATOM     65  C   UNL     1      -5.684   9.303  13.622  1.00  0.00     0.054 A 
BRANCH  65  66
ATOM     66  S   UNL     1      -5.227  10.479  14.926  1.00  0.00     0.124 S 
ATOM     67  O   UNL     1      -3.996  11.055  14.392  1.00  0.00    -0.237 OA
ATOM     68  O   UNL     1      -6.376  11.380  14.964  1.00  0.00    -0.237 OA
ATOM     69  O   UNL     1      -5.060   9.638  16.108  1.00  0.00    -0.744 OA
ENDBRANCH  65  66
ENDBRANCH  46  60
BRANCH  47  70
ATOM     70  C   UNL     1      -7.588   1.190   3.914  1.00  0.00    -0.014 A 
ATOM     71  C   UNL     1      -8.692   1.269   3.048  1.00  0.00     0.010 A 
ATOM     72  C   UNL     1      -6.594   0.224   3.670  1.00  0.00     0.010 A 
ATOM     73  C   UNL     1      -8.801   0.398   1.960  1.00  0.00     0.020 A 
ATOM     74  C   UNL     1      -6.688  -0.632   2.568  1.00  0.00     0.020 A 
ATOM     75  C   UNL     1      -7.795  -0.543   1.722  1.00  0.00     0.054 A 
BRANCH  75  76
ATOM     76  S   UNL     1      -7.921  -1.607   0.258  1.00  0.00     0.124 S 
ATOM     77  O   UNL     1      -8.981  -2.532   0.644  1.00  0.00    -0.237 OA
ATOM     78  O   UNL     1      -8.265  -0.654  -0.795  1.00  0.00    -0.237 OA
ATOM     79  O   UNL     1      -6.587  -2.194   0.145  1.00  0.00    -0.744 OA
ENDBRANCH  75  76
ENDBRANCH  47  70
BRANCH  59  80
ATOM     80  C   UNL     1     -10.903   2.144   9.990  1.00  0.00    -0.014 A 
ATOM     81  C   UNL     1     -10.822   0.838  10.504  1.00  0.00     0.010 A 
ATOM     82  C   UNL     1     -12.110   2.856  10.111  1.00  0.00     0.010 A 
ATOM     83  C   UNL     1     -11.939   0.243  11.097  1.00  0.00     0.020 A 
ATOM     84  C   UNL     1     -13.221   2.275  10.728  1.00  0.00     0.020 A 
ATOM     85  C   UNL     1     -13.132   0.965  11.204  1.00  0.00     0.054 A 
BRANCH  85  86
ATOM     86  S   UNL     1     -14.557   0.185  12.011  1.00  0.00     0.124 S 
ATOM     87  O   UNL     1     -15.006  -0.758  10.991  1.00  0.00    -0.237 OA
ATOM     88  O   UNL     1     -13.962  -0.414  13.204  1.00  0.00    -0.237 OA
ATOM     89  O   UNL     1     -15.463   1.303  12.270  1.00  0.00    -0.744 OA
ENDBRANCH  85  86
ENDBRANCH  59  80
ENDBRANCH  33  34
ENDBRANCH  25  28
ENDBRANCH  23  24
ENDBRANCH  22  23
ENDBRANCH  21  22
ENDBRANCH   3  21
TORSDOF 19
