REMARK SMILES C[C@H](CNC(=O)Cn1cccc1C(=O)NCCCNC(=O)c1ccc(-c2c3nc(c(-c4ccc(S(=O)(=O)[O-])cc4)c4ccc([nH]4)c(-c4ccc(S(=O)(=O)[O-])cc4)c4nc(c(-c5ccc(S(=O)(=O)[O-])cc5)c5ccc2[nH]5)C=C4)C=C3)cc1)[NH+](C)C
REMARK SMILES IDX 16 1 15 2 13 3 14 4 12 6 8 7 9 8 10 9 11 10 7 11 5 12 4 13
REMARK SMILES IDX 6 15 3 16 2 17 1 18 82 19 83 20 84 21 17 23 18 24 19 25
REMARK SMILES IDX 20 26 21 28 22 29 23 30 81 31 24 32 80 33 25 34 26 35 27 36
REMARK SMILES IDX 74 37 28 38 79 39 73 40 75 41 29 42 78 43 72 44 71 45 30 47
REMARK SMILES IDX 60 48 41 49 59 50 42 51 45 52 58 53 76 54 43 55 44 56 57 58
REMARK SMILES IDX 77 59 46 60 31 61 32 62 40 63 33 64 39 65 34 66 35 67 36 68
REMARK SMILES IDX 37 69 38 70 61 71 62 72 70 73 63 74 69 75 64 76 65 77 66 78
REMARK SMILES IDX 67 79 68 80 47 81 48 82 56 83 49 84 55 85 50 86 51 87 52 88
REMARK SMILES IDX 53 89 54 90
REMARK H PARENT 15 5 4 14 82 22 19 27 75 46 45 57
REMARK Flexibility Score: inf
ROOT
ATOM      1  C   UNL     1       3.211  -0.267   2.326  1.00  0.00     0.118 C 
ENDROOT
BRANCH   1   2
ATOM      2  N   UNL     1       3.824   0.822   1.600  1.00  0.00    -0.351 N 
ATOM      3  C   UNL     1       4.233   1.103   0.329  1.00  0.00     0.267 C 
ATOM      4  O   UNL     1       4.619   2.275   0.221  1.00  0.00    -0.268 OA
ATOM      5  H   UNL     1       3.998   1.584   2.198  1.00  0.00     0.163 HD
BRANCH   3   6
ATOM      6  C   UNL     1       4.223   0.237  -0.855  1.00  0.00     0.107 A 
ATOM      7  N   UNL     1       3.941  -1.096  -1.127  1.00  0.00    -0.334 N 
ATOM      8  C   UNL     1       4.223  -1.378  -2.454  1.00  0.00     0.087 A 
ATOM      9  C   UNL     1       4.569  -0.220  -3.091  1.00  0.00     0.020 A 
ATOM     10  C   UNL     1       4.552   0.780  -2.107  1.00  0.00     0.033 A 
BRANCH   7  11
ATOM     11  C   UNL     1       3.598  -2.191  -0.241  1.00  0.00     0.222 C 
BRANCH  11  12
ATOM     12  C   UNL     1       2.145  -2.648  -0.181  1.00  0.00     0.240 C 
ATOM     13  N   UNL     1       1.052  -1.839  -0.183  1.00  0.00    -0.349 N 
ATOM     14  H   UNL     1       0.202  -2.327  -0.100  1.00  0.00     0.163 HD
ATOM     15  O   UNL     1       1.910  -3.856  -0.027  1.00  0.00    -0.273 OA
BRANCH  13  16
ATOM     16  C   UNL     1       0.889  -0.394  -0.284  1.00  0.00     0.180 C 
BRANCH  16  17
ATOM     17  C   UNL     1       0.264   0.135  -1.603  1.00  0.00     0.199 C 
ATOM     18  C   UNL     1       0.812  -0.564  -2.858  1.00  0.00     0.077 C 
BRANCH  17  19
ATOM     19  N   UNL     1      -1.213   0.248  -1.544  1.00  0.00    -0.336 N 
ATOM     20  C   UNL     1      -1.753   0.962  -2.701  1.00  0.00     0.332 C 
ATOM     21  C   UNL     1      -1.911  -1.012  -1.322  1.00  0.00     0.332 C 
ATOM     22  H   UNL     1      -1.395   0.806  -0.709  1.00  0.00     0.347 HD
ENDBRANCH  17  19
ENDBRANCH  16  17
ENDBRANCH  13  16
ENDBRANCH  11  12
ENDBRANCH   7  11
ENDBRANCH   3   6
ENDBRANCH   1   2
BRANCH   1  23
ATOM     23  C   UNL     1       4.240  -1.158   3.022  1.00  0.00     0.042 C 
BRANCH  23  24
ATOM     24  C   UNL     1       4.220  -0.959   4.525  1.00  0.00     0.118 C 
BRANCH  24  25
ATOM     25  N   UNL     1       2.978  -1.477   5.086  1.00  0.00    -0.352 N 
ATOM     26  C   UNL     1       2.497  -1.348   6.366  1.00  0.00     0.251 C 
ATOM     27  H   UNL     1       2.408  -1.987   4.465  1.00  0.00     0.163 HD
ATOM     28  O   UNL     1       1.619  -2.089   6.772  1.00  0.00    -0.269 OA
BRANCH  26  29
ATOM     29  C   UNL     1       3.086  -0.325   7.247  1.00  0.00     0.039 A 
ATOM     30  C   UNL     1       3.468  -0.700   8.536  1.00  0.00     0.014 A 
ATOM     31  C   UNL     1       3.258   0.987   6.790  1.00  0.00     0.014 A 
ATOM     32  C   UNL     1       4.097   0.234   9.347  1.00  0.00     0.010 A 
ATOM     33  C   UNL     1       3.930   1.905   7.576  1.00  0.00     0.010 A 
ATOM     34  C   UNL     1       4.353   1.522   8.850  1.00  0.00    -0.014 A 
BRANCH  34  35
ATOM     35  C   UNL     1       5.173   2.440   9.662  1.00  0.00     0.031 A 
ATOM     36  C   UNL     1       6.658   2.024   9.636  1.00  0.00     0.074 A 
ATOM     37  C   UNL     1       4.483   3.412  10.337  1.00  0.00     0.049 A 
ATOM     38  N   UNL     1       7.541   2.065  10.582  1.00  0.00    -0.248 NA
ATOM     39  C   UNL     1       7.222   1.365   8.422  1.00  0.00     0.031 C 
ATOM     40  C   UNL     1       3.031   3.686  10.179  1.00  0.00     0.029 A 
ATOM     41  N   UNL     1       4.823   4.356  11.280  1.00  0.00    -0.354 N 
ATOM     42  C   UNL     1       8.773   1.589  10.068  1.00  0.00     0.074 A 
ATOM     43  C   UNL     1       8.488   1.085   8.758  1.00  0.00     0.031 C 
ATOM     44  C   UNL     1       2.614   4.638  11.042  1.00  0.00     0.029 A 
ATOM     45  C   UNL     1       3.734   5.073  11.849  1.00  0.00     0.049 A 
ATOM     46  H   UNL     1       5.756   4.524  11.543  1.00  0.00     0.167 HD
ATOM     47  C   UNL     1       9.961   1.746  10.729  1.00  0.00     0.031 A 
ATOM     48  C   UNL     1       3.723   5.899  12.942  1.00  0.00     0.031 A 
ATOM     49  C   UNL     1       9.727   2.432  11.955  1.00  0.00     0.049 A 
ATOM     50  C   UNL     1       5.124   5.977  13.380  1.00  0.00     0.074 A 
ATOM     51  C   UNL     1       9.151   2.042  13.135  1.00  0.00     0.029 A 
ATOM     52  N   UNL     1       9.747   3.806  11.886  1.00  0.00    -0.354 N 
ATOM     53  N   UNL     1       6.068   6.620  12.766  1.00  0.00    -0.248 NA
ATOM     54  C   UNL     1       5.535   5.181  14.545  1.00  0.00     0.031 C 
ATOM     55  C   UNL     1       8.365   3.161  13.478  1.00  0.00     0.029 A 
ATOM     56  C   UNL     1       8.704   4.247  12.660  1.00  0.00     0.049 A 
ATOM     57  H   UNL     1      10.384   4.362  11.382  1.00  0.00     0.167 HD
ATOM     58  C   UNL     1       7.196   5.993  13.231  1.00  0.00     0.074 A 
ATOM     59  C   UNL     1       6.846   5.398  14.504  1.00  0.00     0.031 C 
ATOM     60  C   UNL     1       8.121   5.529  12.351  1.00  0.00     0.031 A 
BRANCH  47  61
ATOM     61  C   UNL     1      11.408   1.562  10.346  1.00  0.00    -0.014 A 
ATOM     62  C   UNL     1      12.350   1.531  11.412  1.00  0.00     0.010 A 
ATOM     63  C   UNL     1      11.908   1.759   9.053  1.00  0.00     0.010 A 
ATOM     64  C   UNL     1      13.700   1.826  11.222  1.00  0.00     0.020 A 
ATOM     65  C   UNL     1      13.279   2.021   8.848  1.00  0.00     0.020 A 
ATOM     66  C   UNL     1      14.153   2.103   9.939  1.00  0.00     0.054 A 
BRANCH  66  67
ATOM     67  S   UNL     1      15.877   2.638   9.744  1.00  0.00     0.124 S 
ATOM     68  O   UNL     1      15.867   3.955  10.375  1.00  0.00    -0.237 OA
ATOM     69  O   UNL     1      16.612   1.604  10.471  1.00  0.00    -0.237 OA
ATOM     70  O   UNL     1      16.078   2.634   8.298  1.00  0.00    -0.744 OA
ENDBRANCH  66  67
ENDBRANCH  47  61
BRANCH  48  71
ATOM     71  C   UNL     1       2.707   6.544  13.862  1.00  0.00    -0.014 A 
ATOM     72  C   UNL     1       1.321   6.607  13.672  1.00  0.00     0.010 A 
ATOM     73  C   UNL     1       3.174   7.044  15.113  1.00  0.00     0.010 A 
ATOM     74  C   UNL     1       0.456   6.984  14.732  1.00  0.00     0.020 A 
ATOM     75  C   UNL     1       2.335   7.364  16.181  1.00  0.00     0.020 A 
ATOM     76  C   UNL     1       0.968   7.299  15.996  1.00  0.00     0.054 A 
BRANCH  76  77
ATOM     77  S   UNL     1      -0.124   7.480  17.437  1.00  0.00     0.124 S 
ATOM     78  O   UNL     1      -0.574   8.863  17.320  1.00  0.00    -0.237 OA
ATOM     79  O   UNL     1      -1.143   6.460  17.199  1.00  0.00    -0.237 OA
ATOM     80  O   UNL     1       0.759   7.205  18.571  1.00  0.00    -0.744 OA
ENDBRANCH  76  77
ENDBRANCH  48  71
BRANCH  60  81
ATOM     81  C   UNL     1       8.145   6.217  10.991  1.00  0.00    -0.014 A 
ATOM     82  C   UNL     1       8.373   7.605  10.931  1.00  0.00     0.010 A 
ATOM     83  C   UNL     1       7.873   5.559   9.774  1.00  0.00     0.010 A 
ATOM     84  C   UNL     1       8.335   8.307   9.717  1.00  0.00     0.020 A 
ATOM     85  C   UNL     1       7.832   6.254   8.547  1.00  0.00     0.020 A 
ATOM     86  C   UNL     1       8.070   7.628   8.528  1.00  0.00     0.054 A 
BRANCH  86  87
ATOM     87  S   UNL     1       8.054   8.572   6.973  1.00  0.00     0.124 S 
ATOM     88  O   UNL     1       7.016   9.572   7.212  1.00  0.00    -0.237 OA
ATOM     89  O   UNL     1       9.417   9.093   6.909  1.00  0.00    -0.237 OA
ATOM     90  O   UNL     1       7.723   7.573   5.958  1.00  0.00    -0.744 OA
ENDBRANCH  86  87
ENDBRANCH  60  81
ENDBRANCH  34  35
ENDBRANCH  26  29
ENDBRANCH  24  25
ENDBRANCH  23  24
ENDBRANCH   1  23
TORSDOF 18
