REMARK SMILES CCC(=O)N1CCC[C@](C[C@H]2CC(c3ccc(C)cc3)=NO2)(C(=O)NCCCNC(=O)c2ccc(-c3c4nc(c(-c5ccc(S(=O)(=O)[O-])cc5)c5ccc([nH]5)c(-c5ccc(S(=O)(=O)[O-])cc5)c5nc(c(-c6ccc(S(=O)(=O)[O-])cc6)c6ccc3[nH]6)C=C5)C=C4)cc2)C1
REMARK SMILES IDX 27 1 26 2 25 3 23 4 24 5 9 7 5 8 6 9 92 10 7 11 8 12 3 13
REMARK SMILES IDX 4 14 2 15 1 16 10 17 11 18 12 19 22 20 13 21 21 22 14 23
REMARK SMILES IDX 15 24 20 25 16 26 19 27 17 28 18 29 28 30 29 31 30 32 31 34
REMARK SMILES IDX 32 35 33 36 91 37 34 38 90 39 35 40 36 41 37 42 84 43 38 44
REMARK SMILES IDX 89 45 83 46 85 47 39 48 88 49 82 50 81 51 40 53 70 54 51 55
REMARK SMILES IDX 69 56 52 57 55 58 68 59 86 60 53 61 54 62 67 64 87 65 56 66
REMARK SMILES IDX 41 67 42 68 50 69 43 70 49 71 44 72 45 73 46 74 47 75 48 76
REMARK SMILES IDX 71 77 72 78 80 79 73 80 79 81 74 82 75 83 76 84 77 85 78 86
REMARK SMILES IDX 57 87 58 88 66 89 59 90 65 91 60 92 61 93 62 94 63 95 64 96
REMARK H PARENT 25 6 29 33 85 52 55 63
REMARK Flexibility Score: inf
ROOT
ATOM      1  C   UNL     1       4.842  -3.447  -5.706  1.00  0.00     0.042 C 
ENDROOT
BRANCH   1   2
ATOM      2  C   UNL     1       3.557  -2.662  -5.471  1.00  0.00     0.117 C 
BRANCH   2   3
ATOM      3  N   UNL     1       3.036  -2.816  -4.111  1.00  0.00    -0.355 N 
ATOM      4  C   UNL     1       3.075  -2.102  -2.954  1.00  0.00     0.228 C 
ATOM      5  O   UNL     1       2.379  -2.557  -2.035  1.00  0.00    -0.274 OA
ATOM      6  H   UNL     1       2.525  -3.651  -4.007  1.00  0.00     0.163 HD
BRANCH   4   7
ATOM      7  C   UNL     1       4.034  -0.914  -2.647  1.00  0.00     0.070 C 
ATOM      8  N   UNL     1       2.211   0.823  -2.410  1.00  0.00    -0.342 N 
ATOM      9  C   UNL     1       2.639   1.533  -3.609  1.00  0.00     0.119 C 
ATOM     10  C   UNL     1       3.259   0.070  -1.699  1.00  0.00     0.136 C 
ATOM     11  C   UNL     1       3.331   0.597  -4.576  1.00  0.00     0.023 C 
ATOM     12  C   UNL     1       4.484  -0.112  -3.866  1.00  0.00     0.021 C 
BRANCH   8  13
ATOM     13  C   UNL     1       0.863   0.857  -2.095  1.00  0.00     0.222 C 
ATOM     14  O   UNL     1       0.005   1.040  -2.966  1.00  0.00    -0.275 OA
BRANCH  13  15
ATOM     15  C   UNL     1       0.445   0.957  -0.635  1.00  0.00     0.097 C 
ATOM     16  C   UNL     1       0.660  -0.227   0.277  1.00  0.00     0.014 C 
ENDBRANCH  13  15
ENDBRANCH   8  13
BRANCH   7  17
ATOM     17  C   UNL     1       5.228  -1.596  -1.885  1.00  0.00     0.067 C 
BRANCH  17  18
ATOM     18  C   UNL     1       6.510  -0.852  -1.461  1.00  0.00     0.211 C 
ATOM     19  C   UNL     1       7.467  -0.473  -2.570  1.00  0.00     0.108 C 
ATOM     20  O   UNL     1       6.260   0.341  -0.713  1.00  0.00    -0.392 OA
ATOM     21  C   UNL     1       7.328   1.004  -2.501  1.00  0.00     0.091 C 
ATOM     22  N   UNL     1       6.727   1.456  -1.450  1.00  0.00    -0.090 NA
BRANCH  21  23
ATOM     23  C   UNL     1       7.824   1.875  -3.580  1.00  0.00    -0.001 A 
ATOM     24  C   UNL     1       7.502   1.585  -4.909  1.00  0.00     0.010 A 
ATOM     25  C   UNL     1       8.520   3.042  -3.265  1.00  0.00     0.010 A 
ATOM     26  C   UNL     1       7.846   2.479  -5.921  1.00  0.00     0.004 A 
ATOM     27  C   UNL     1       8.894   3.919  -4.287  1.00  0.00     0.004 A 
ATOM     28  C   UNL     1       8.535   3.658  -5.617  1.00  0.00    -0.051 A 
ATOM     29  C   UNL     1       8.909   4.615  -6.710  1.00  0.00     0.044 C 
ENDBRANCH  21  23
ENDBRANCH  17  18
ENDBRANCH   7  17
ENDBRANCH   4   7
ENDBRANCH   2   3
ENDBRANCH   1   2
BRANCH   1  30
ATOM     30  C   UNL     1       4.562  -4.747  -6.448  1.00  0.00     0.118 C 
BRANCH  30  31
ATOM     31  N   UNL     1       4.823  -4.694  -7.883  1.00  0.00    -0.352 N 
ATOM     32  C   UNL     1       4.621  -5.705  -8.813  1.00  0.00     0.251 C 
ATOM     33  H   UNL     1       5.183  -3.846  -8.231  1.00  0.00     0.163 HD
ATOM     34  O   UNL     1       5.099  -5.666  -9.932  1.00  0.00    -0.269 OA
BRANCH  32  35
ATOM     35  C   UNL     1       3.696  -6.787  -8.416  1.00  0.00     0.039 A 
ATOM     36  C   UNL     1       2.440  -6.803  -9.032  1.00  0.00     0.014 A 
ATOM     37  C   UNL     1       3.937  -7.498  -7.245  1.00  0.00     0.014 A 
ATOM     38  C   UNL     1       1.360  -7.369  -8.363  1.00  0.00     0.010 A 
ATOM     39  C   UNL     1       2.847  -7.962  -6.537  1.00  0.00     0.010 A 
ATOM     40  C   UNL     1       1.551  -7.853  -7.072  1.00  0.00    -0.014 A 
BRANCH  40  41
ATOM     41  C   UNL     1       0.469  -8.231  -6.168  1.00  0.00     0.031 A 
ATOM     42  C   UNL     1       0.294  -9.662  -5.817  1.00  0.00     0.074 A 
ATOM     43  C   UNL     1      -0.273  -7.287  -5.545  1.00  0.00     0.049 A 
ATOM     44  N   UNL     1      -0.741 -10.159  -5.227  1.00  0.00    -0.248 NA
ATOM     45  C   UNL     1       1.274 -10.679  -6.194  1.00  0.00     0.031 C 
ATOM     46  C   UNL     1      -1.089  -7.472  -4.346  1.00  0.00     0.029 A 
ATOM     47  N   UNL     1      -0.626  -6.011  -5.992  1.00  0.00    -0.354 N 
ATOM     48  C   UNL     1      -0.411 -11.438  -4.838  1.00  0.00     0.074 A 
ATOM     49  C   UNL     1       0.781 -11.756  -5.581  1.00  0.00     0.031 C 
ATOM     50  C   UNL     1      -2.040  -6.527  -4.322  1.00  0.00     0.029 A 
ATOM     51  C   UNL     1      -1.959  -5.816  -5.586  1.00  0.00     0.049 A 
ATOM     52  H   UNL     1      -0.059  -5.378  -6.489  1.00  0.00     0.167 HD
ATOM     53  C   UNL     1      -1.086 -12.014  -3.802  1.00  0.00     0.031 A 
ATOM     54  C   UNL     1      -3.006  -5.636  -6.446  1.00  0.00     0.031 A 
ATOM     55  C   UNL     1      -2.308 -11.273  -3.486  1.00  0.00     0.049 A 
ATOM     56  C   UNL     1      -4.100  -6.674  -6.279  1.00  0.00     0.074 A 
ATOM     57  C   UNL     1      -2.679 -10.424  -2.457  1.00  0.00     0.029 A 
ATOM     58  N   UNL     1      -3.281 -11.137  -4.474  1.00  0.00    -0.354 N 
ATOM     59  N   UNL     1      -3.956  -7.784  -5.609  1.00  0.00    -0.248 NA
ATOM     60  C   UNL     1      -5.424  -6.567  -6.889  1.00  0.00     0.031 C 
ATOM     61  C   UNL     1      -3.817  -9.686  -2.889  1.00  0.00     0.029 A 
ATOM     62  C   UNL     1      -4.159 -10.118  -4.159  1.00  0.00     0.049 A 
ATOM     63  H   UNL     1      -3.335 -11.691  -5.286  1.00  0.00     0.167 HD
ATOM     64  C   UNL     1      -5.103  -8.528  -5.687  1.00  0.00     0.074 A 
ATOM     65  C   UNL     1      -6.000  -7.717  -6.491  1.00  0.00     0.031 C 
ATOM     66  C   UNL     1      -5.217  -9.752  -5.094  1.00  0.00     0.031 A 
BRANCH  53  67
ATOM     67  C   UNL     1      -0.483 -13.083  -2.901  1.00  0.00    -0.014 A 
ATOM     68  C   UNL     1      -1.062 -13.346  -1.641  1.00  0.00     0.010 A 
ATOM     69  C   UNL     1       0.714 -13.776  -3.172  1.00  0.00     0.010 A 
ATOM     70  C   UNL     1      -0.446 -14.187  -0.693  1.00  0.00     0.020 A 
ATOM     71  C   UNL     1       1.341 -14.615  -2.240  1.00  0.00     0.020 A 
ATOM     72  C   UNL     1       0.766 -14.802  -0.994  1.00  0.00     0.054 A 
BRANCH  72  73
ATOM     73  S   UNL     1       1.599 -15.822   0.250  1.00  0.00     0.124 S 
ATOM     74  O   UNL     1       1.841 -14.867   1.328  1.00  0.00    -0.237 OA
ATOM     75  O   UNL     1       0.606 -16.855   0.530  1.00  0.00    -0.237 OA
ATOM     76  O   UNL     1       2.803 -16.293  -0.435  1.00  0.00    -0.744 OA
ENDBRANCH  72  73
ENDBRANCH  53  67
BRANCH  54  77
ATOM     77  C   UNL     1      -2.638  -4.971  -7.726  1.00  0.00    -0.014 A 
ATOM     78  C   UNL     1      -2.268  -3.611  -7.655  1.00  0.00     0.010 A 
ATOM     79  C   UNL     1      -2.213  -5.737  -8.826  1.00  0.00     0.010 A 
ATOM     80  C   UNL     1      -1.324  -3.087  -8.541  1.00  0.00     0.020 A 
ATOM     81  C   UNL     1      -1.274  -5.208  -9.723  1.00  0.00     0.020 A 
ATOM     82  C   UNL     1      -0.777  -3.917  -9.519  1.00  0.00     0.054 A 
BRANCH  82  83
ATOM     83  S   UNL     1       0.746  -3.364 -10.347  1.00  0.00     0.124 S 
ATOM     84  O   UNL     1       0.352  -2.079 -10.915  1.00  0.00    -0.237 OA
ATOM     85  O   UNL     1       1.685  -3.296  -9.227  1.00  0.00    -0.237 OA
ATOM     86  O   UNL     1       1.007  -4.426 -11.313  1.00  0.00    -0.744 OA
ENDBRANCH  82  83
ENDBRANCH  54  77
BRANCH  66  87
ATOM     87  C   UNL     1      -6.367 -10.711  -5.284  1.00  0.00    -0.014 A 
ATOM     88  C   UNL     1      -7.161 -10.765  -6.441  1.00  0.00     0.010 A 
ATOM     89  C   UNL     1      -6.589 -11.710  -4.306  1.00  0.00     0.010 A 
ATOM     90  C   UNL     1      -8.172 -11.727  -6.586  1.00  0.00     0.020 A 
ATOM     91  C   UNL     1      -7.566 -12.698  -4.459  1.00  0.00     0.020 A 
ATOM     92  C   UNL     1      -8.372 -12.684  -5.591  1.00  0.00     0.054 A 
BRANCH  92  93
ATOM     93  S   UNL     1      -9.638 -13.961  -5.809  1.00  0.00     0.124 S 
ATOM     94  O   UNL     1     -10.812 -13.325  -5.218  1.00  0.00    -0.237 OA
ATOM     95  O   UNL     1      -9.685 -14.138  -7.259  1.00  0.00    -0.237 OA
ATOM     96  O   UNL     1      -9.102 -15.101  -5.068  1.00  0.00    -0.744 OA
ENDBRANCH  92  93
ENDBRANCH  66  87
ENDBRANCH  40  41
ENDBRANCH  32  35
ENDBRANCH  30  31
ENDBRANCH   1  30
TORSDOF 18
