REMARK SMILES O=C(C[C@H](C(=O)OC[C@@H]1CCCO1)[NH+]1CCOCC1)NCCCNC(=O)c1ccc(-c2c3nc(c(-c4ccc(S(=O)(=O)[O-])cc4)c4ccc([nH]4)c(-c4ccc(S(=O)(=O)[O-])cc4)c4nc(c(-c5ccc(S(=O)(=O)[O-])cc5)c5ccc2[nH]5)C=C4)C=C3)cc1
REMARK SMILES IDX 21 1 20 2 1 3 2 4 3 6 4 7 14 8 15 9 19 10 16 12 18 13 17 14
REMARK SMILES IDX 5 15 6 16 7 17 8 18 9 19 10 20 13 21 11 22 12 23 22 24 23 25
REMARK SMILES IDX 24 26 25 27 26 29 27 30 28 31 86 32 29 33 85 34 30 35 31 36
REMARK SMILES IDX 32 37 79 38 33 39 84 40 78 41 80 42 34 43 83 44 77 45 76 46
REMARK SMILES IDX 35 48 65 49 46 50 64 51 47 52 50 53 63 54 81 55 48 56 49 57
REMARK SMILES IDX 62 59 82 60 51 61 36 62 37 63 45 64 38 65 44 66 39 67 40 68
REMARK SMILES IDX 41 69 42 70 43 71 66 72 67 73 75 74 68 75 74 76 69 77 70 78
REMARK SMILES IDX 71 79 72 80 73 81 52 82 53 83 61 84 54 85 60 86 55 87 56 88
REMARK SMILES IDX 57 89 58 90 59 91
REMARK H PARENT 20 5 14 11 24 28 80 47 50 58
REMARK Flexibility Score: inf
ROOT
ATOM      1  C   UNL     1       7.340  -1.745   1.024  1.00  0.00     0.117 C 
ENDROOT
BRANCH   1   2
ATOM      2  N   UNL     1       6.241  -0.914   0.577  1.00  0.00    -0.356 N 
ATOM      3  O   UNL     1       7.412   0.143  -1.089  1.00  0.00    -0.275 OA
ATOM      4  C   UNL     1       6.344  -0.129  -0.548  1.00  0.00     0.226 C 
ATOM      5  H   UNL     1       5.401  -0.910   1.090  1.00  0.00     0.163 HD
BRANCH   4   6
ATOM      6  C   UNL     1       5.028   0.350  -1.103  1.00  0.00     0.177 C 
BRANCH   6   7
ATOM      7  C   UNL     1       4.102  -0.720  -1.720  1.00  0.00     0.304 C 
BRANCH   7   8
ATOM      8  N   UNL     1       4.636  -1.756  -2.648  1.00  0.00    -0.319 N 
ATOM      9  C   UNL     1       3.595  -2.468  -3.421  1.00  0.00     0.291 C 
ATOM     10  C   UNL     1       5.618  -2.743  -2.174  1.00  0.00     0.291 C 
ATOM     11  H   UNL     1       5.181  -1.122  -3.232  1.00  0.00     0.348 HD
ATOM     12  C   UNL     1       3.044  -3.742  -2.749  1.00  0.00     0.221 C 
ATOM     13  C   UNL     1       5.038  -4.004  -1.518  1.00  0.00     0.221 C 
ATOM     14  O   UNL     1       4.093  -4.644  -2.380  1.00  0.00    -0.370 OA
ENDBRANCH   7   8
BRANCH   7  15
ATOM     15  C   UNL     1       3.065  -1.220  -0.711  1.00  0.00     0.365 C 
ATOM     16  O   UNL     1       1.855  -1.118  -0.893  1.00  0.00    -0.245 OA
BRANCH  15  17
ATOM     17  O   UNL     1       3.634  -1.841   0.360  1.00  0.00    -0.459 OA
BRANCH  17  18
ATOM     18  C   UNL     1       2.692  -2.408   1.292  1.00  0.00     0.265 C 
BRANCH  18  19
ATOM     19  C   UNL     1       2.323  -1.419   2.404  1.00  0.00     0.156 C 
ATOM     20  C   UNL     1       0.824  -1.341   2.667  1.00  0.00     0.038 C 
ATOM     21  O   UNL     1       2.772  -0.081   2.101  1.00  0.00    -0.375 OA
ATOM     22  C   UNL     1       0.648   0.086   3.120  1.00  0.00     0.031 C 
ATOM     23  C   UNL     1       1.660   0.811   2.262  1.00  0.00     0.161 C 
ENDBRANCH  18  19
ENDBRANCH  17  18
ENDBRANCH  15  17
ENDBRANCH   7  15
ENDBRANCH   6   7
ENDBRANCH   4   6
ENDBRANCH   1   2
BRANCH   1  24
ATOM     24  C   UNL     1       7.545  -1.738   2.526  1.00  0.00     0.042 C 
BRANCH  24  25
ATOM     25  C   UNL     1       6.329  -2.148   3.344  1.00  0.00     0.118 C 
BRANCH  25  26
ATOM     26  N   UNL     1       5.868  -3.508   3.095  1.00  0.00    -0.352 N 
ATOM     27  C   UNL     1       5.537  -4.497   3.996  1.00  0.00     0.251 C 
ATOM     28  H   UNL     1       5.780  -3.756   2.146  1.00  0.00     0.163 HD
ATOM     29  O   UNL     1       5.220  -5.607   3.592  1.00  0.00    -0.269 OA
BRANCH  27  30
ATOM     30  C   UNL     1       5.601  -4.220   5.450  1.00  0.00     0.039 A 
ATOM     31  C   UNL     1       6.241  -5.140   6.285  1.00  0.00     0.014 A 
ATOM     32  C   UNL     1       5.073  -3.042   5.983  1.00  0.00     0.014 A 
ATOM     33  C   UNL     1       6.430  -4.834   7.636  1.00  0.00     0.010 A 
ATOM     34  C   UNL     1       5.340  -2.700   7.306  1.00  0.00     0.010 A 
ATOM     35  C   UNL     1       6.025  -3.590   8.148  1.00  0.00    -0.014 A 
BRANCH  35  36
ATOM     36  C   UNL     1       6.319  -3.194   9.550  1.00  0.00     0.031 A 
ATOM     37  C   UNL     1       5.195  -2.903  10.509  1.00  0.00     0.074 A 
ATOM     38  C   UNL     1       7.598  -3.026   9.945  1.00  0.00     0.049 A 
ATOM     39  N   UNL     1       5.255  -2.493  11.750  1.00  0.00    -0.248 NA
ATOM     40  C   UNL     1       3.824  -3.066   9.998  1.00  0.00     0.031 C 
ATOM     41  C   UNL     1       8.780  -3.221   9.101  1.00  0.00     0.029 A 
ATOM     42  N   UNL     1       8.119  -2.645  11.157  1.00  0.00    -0.354 N 
ATOM     43  C   UNL     1       3.936  -2.332  12.161  1.00  0.00     0.074 A 
ATOM     44  C   UNL     1       3.100  -2.636  11.021  1.00  0.00     0.031 C 
ATOM     45  C   UNL     1       9.885  -2.991   9.829  1.00  0.00     0.029 A 
ATOM     46  C   UNL     1       9.494  -2.594  11.178  1.00  0.00     0.049 A 
ATOM     47  H   UNL     1       7.561  -2.429  11.939  1.00  0.00     0.167 HD
ATOM     48  C   UNL     1       3.461  -1.986  13.381  1.00  0.00     0.031 A 
ATOM     49  C   UNL     1      10.346  -2.263  12.168  1.00  0.00     0.031 A 
ATOM     50  C   UNL     1       4.292  -1.700  14.520  1.00  0.00     0.049 A 
ATOM     51  C   UNL     1       9.795  -1.887  13.516  1.00  0.00     0.074 A 
ATOM     52  C   UNL     1       3.904  -1.399  15.814  1.00  0.00     0.029 A 
ATOM     53  N   UNL     1       5.679  -1.678  14.503  1.00  0.00    -0.354 N 
ATOM     54  N   UNL     1       8.544  -1.811  13.903  1.00  0.00    -0.248 NA
ATOM     55  C   UNL     1      10.772  -1.567  14.566  1.00  0.00     0.031 C 
ATOM     56  C   UNL     1       5.055  -1.149  16.568  1.00  0.00     0.029 A 
ATOM     57  C   UNL     1       6.162  -1.349  15.758  1.00  0.00     0.049 A 
ATOM     58  H   UNL     1       6.237  -1.869  13.715  1.00  0.00     0.167 HD
ATOM     59  C   UNL     1       8.585  -1.461  15.248  1.00  0.00     0.074 A 
ATOM     60  C   UNL     1       9.983  -1.356  15.611  1.00  0.00     0.031 C 
ATOM     61  C   UNL     1       7.556  -1.248  16.106  1.00  0.00     0.031 A 
BRANCH  48  62
ATOM     62  C   UNL     1       1.966  -1.900  13.545  1.00  0.00    -0.014 A 
ATOM     63  C   UNL     1       1.165  -3.057  13.518  1.00  0.00     0.010 A 
ATOM     64  C   UNL     1       1.356  -0.651  13.763  1.00  0.00     0.010 A 
ATOM     65  C   UNL     1      -0.222  -2.962  13.658  1.00  0.00     0.020 A 
ATOM     66  C   UNL     1      -0.028  -0.555  13.934  1.00  0.00     0.020 A 
ATOM     67  C   UNL     1      -0.810  -1.710  13.861  1.00  0.00     0.054 A 
BRANCH  67  68
ATOM     68  S   UNL     1      -2.611  -1.618  14.053  1.00  0.00     0.124 S 
ATOM     69  O   UNL     1      -3.071  -1.852  12.686  1.00  0.00    -0.237 OA
ATOM     70  O   UNL     1      -2.888  -2.695  15.001  1.00  0.00    -0.237 OA
ATOM     71  O   UNL     1      -2.837  -0.269  14.564  1.00  0.00    -0.744 OA
ENDBRANCH  67  68
ENDBRANCH  48  62
BRANCH  49  72
ATOM     72  C   UNL     1      11.815  -2.297  11.928  1.00  0.00    -0.014 A 
ATOM     73  C   UNL     1      12.611  -3.292  12.521  1.00  0.00     0.010 A 
ATOM     74  C   UNL     1      12.425  -1.340  11.096  1.00  0.00     0.010 A 
ATOM     75  C   UNL     1      13.992  -3.319  12.305  1.00  0.00     0.020 A 
ATOM     76  C   UNL     1      13.802  -1.380  10.855  1.00  0.00     0.020 A 
ATOM     77  C   UNL     1      14.578  -2.364  11.471  1.00  0.00     0.054 A 
BRANCH  77  78
ATOM     78  S   UNL     1      16.365  -2.449  11.163  1.00  0.00     0.124 S 
ATOM     79  O   UNL     1      16.913  -1.963  12.425  1.00  0.00    -0.237 OA
ATOM     80  O   UNL     1      16.570  -3.868  10.888  1.00  0.00    -0.237 OA
ATOM     81  O   UNL     1      16.555  -1.565  10.015  1.00  0.00    -0.744 OA
ENDBRANCH  77  78
ENDBRANCH  49  72
BRANCH  61  82
ATOM     82  C   UNL     1       7.902  -0.914  17.533  1.00  0.00    -0.014 A 
ATOM     83  C   UNL     1       8.435   0.340  17.881  1.00  0.00     0.010 A 
ATOM     84  C   UNL     1       7.642  -1.855  18.546  1.00  0.00     0.010 A 
ATOM     85  C   UNL     1       8.734   0.633  19.215  1.00  0.00     0.020 A 
ATOM     86  C   UNL     1       7.913  -1.554  19.883  1.00  0.00     0.020 A 
ATOM     87  C   UNL     1       8.473  -0.317  20.207  1.00  0.00     0.054 A 
BRANCH  87  88
ATOM     88  S   UNL     1       8.834   0.102  21.935  1.00  0.00     0.124 S 
ATOM     89  O   UNL     1      10.290   0.011  21.971  1.00  0.00    -0.237 OA
ATOM     90  O   UNL     1       8.284   1.449  22.060  1.00  0.00    -0.237 OA
ATOM     91  O   UNL     1       8.126  -0.926  22.695  1.00  0.00    -0.744 OA
ENDBRANCH  87  88
ENDBRANCH  61  82
ENDBRANCH  35  36
ENDBRANCH  27  30
ENDBRANCH  25  26
ENDBRANCH  24  25
ENDBRANCH   1  24
TORSDOF 19
