REMARK SMILES O=C(NCCCNC(=O)[C@H](c1c[nH]c2ccc(Cl)cc12)[NH+]1CCN(c2cccc(Cl)c2)CC1)c1ccc(-c2c3nc(c(-c4ccc(S(=O)(=O)[O-])cc4)c4ccc([nH]4)c(-c4ccc(S(=O)(=O)[O-])cc4)c4nc(c(-c5ccc(S(=O)(=O)[O-])cc5)c5ccc2[nH]5)C=C4)C=C3)cc1
REMARK SMILES IDX 4 1 3 2 1 3 2 4 34 6 35 7 93 8 36 9 92 10 37 11 38 12 39 13
REMARK SMILES IDX 86 14 40 15 91 16 85 17 87 18 41 19 90 20 84 21 83 22 42 24
REMARK SMILES IDX 72 25 53 26 71 27 54 28 57 29 70 30 88 31 55 32 56 33 69 35
REMARK SMILES IDX 89 36 58 37 43 38 44 39 52 40 45 41 51 42 46 43 47 44 48 45
REMARK SMILES IDX 49 46 50 47 73 48 74 49 82 50 75 51 81 52 76 53 77 54 78 55
REMARK SMILES IDX 79 56 80 57 59 58 60 59 68 60 61 61 67 62 62 63 63 64 64 65
REMARK SMILES IDX 65 66 66 67 5 68 6 69 7 70 8 71 9 73 10 74 21 75 22 76 33 77
REMARK SMILES IDX 23 79 32 80 24 81 25 82 26 83 31 84 27 85 29 86 28 87 30 88
REMARK SMILES IDX 11 89 12 90 20 91 13 92 14 93 19 94 15 96 17 97 16 98 18 99
REMARK H PARENT 3 5 87 23 57 34 7 72 21 78 13 95
REMARK Flexibility Score: inf
ROOT
ATOM      1  C   UNL     1      10.255   2.746  -3.030  1.00  0.00     0.118 C 
ENDROOT
BRANCH   1   2
ATOM      2  N   UNL     1      11.576   3.128  -3.507  1.00  0.00    -0.352 N 
ATOM      3  O   UNL     1      13.466   4.350  -3.538  1.00  0.00    -0.269 OA
ATOM      4  C   UNL     1      12.541   3.884  -2.884  1.00  0.00     0.251 C 
ATOM      5  H   UNL     1      11.812   2.798  -4.404  1.00  0.00     0.163 HD
BRANCH   4   6
ATOM      6  C   UNL     1      12.452   4.125  -1.427  1.00  0.00     0.039 A 
ATOM      7  C   UNL     1      12.011   3.109  -0.580  1.00  0.00     0.014 A 
ATOM      8  C   UNL     1      12.838   5.359  -0.895  1.00  0.00     0.014 A 
ATOM      9  C   UNL     1      11.787   3.376   0.759  1.00  0.00     0.010 A 
ATOM     10  C   UNL     1      12.748   5.579   0.484  1.00  0.00     0.010 A 
ATOM     11  C   UNL     1      12.205   4.593   1.320  1.00  0.00    -0.014 A 
BRANCH  11  12
ATOM     12  C   UNL     1      12.160   4.723   2.798  1.00  0.00     0.031 A 
ATOM     13  C   UNL     1      11.314   5.761   3.477  1.00  0.00     0.074 A 
ATOM     14  C   UNL     1      12.851   3.819   3.524  1.00  0.00     0.049 A 
ATOM     15  N   UNL     1      11.112   5.936   4.758  1.00  0.00    -0.248 NA
ATOM     16  C   UNL     1      10.611   6.730   2.622  1.00  0.00     0.031 C 
ATOM     17  C   UNL     1      13.724   2.780   2.963  1.00  0.00     0.029 A 
ATOM     18  N   UNL     1      12.897   3.589   4.874  1.00  0.00    -0.354 N 
ATOM     19  C   UNL     1      10.272   7.037   4.867  1.00  0.00     0.074 A 
ATOM     20  C   UNL     1      10.025   7.510   3.521  1.00  0.00     0.031 C 
ATOM     21  C   UNL     1      14.145   1.976   3.947  1.00  0.00     0.029 A 
ATOM     22  C   UNL     1      13.654   2.492   5.216  1.00  0.00     0.049 A 
ATOM     23  H   UNL     1      12.434   4.153   5.534  1.00  0.00     0.167 HD
ATOM     24  C   UNL     1       9.751   7.594   5.987  1.00  0.00     0.031 A 
ATOM     25  C   UNL     1      13.943   1.966   6.419  1.00  0.00     0.031 A 
ATOM     26  C   UNL     1      10.015   7.117   7.322  1.00  0.00     0.049 A 
ATOM     27  C   UNL     1      13.367   2.617   7.640  1.00  0.00     0.074 A 
ATOM     28  C   UNL     1       9.539   7.613   8.524  1.00  0.00     0.029 A 
ATOM     29  N   UNL     1      10.823   6.033   7.632  1.00  0.00    -0.354 N 
ATOM     30  N   UNL     1      12.564   3.652   7.716  1.00  0.00    -0.248 NA
ATOM     31  C   UNL     1      13.732   2.032   8.934  1.00  0.00     0.031 C 
ATOM     32  C   UNL     1      10.097   6.859   9.562  1.00  0.00     0.029 A 
ATOM     33  C   UNL     1      10.871   5.854   9.006  1.00  0.00     0.049 A 
ATOM     34  H   UNL     1      11.293   5.472   6.973  1.00  0.00     0.167 HD
ATOM     35  C   UNL     1      12.326   3.842   9.070  1.00  0.00     0.074 A 
ATOM     36  C   UNL     1      13.036   2.788   9.770  1.00  0.00     0.031 C 
ATOM     37  C   UNL     1      11.598   4.808   9.682  1.00  0.00     0.031 A 
BRANCH  24  38
ATOM     38  C   UNL     1       8.853   8.793   5.822  1.00  0.00    -0.014 A 
ATOM     39  C   UNL     1       7.558   8.662   5.289  1.00  0.00     0.010 A 
ATOM     40  C   UNL     1       9.282  10.059   6.265  1.00  0.00     0.010 A 
ATOM     41  C   UNL     1       6.720   9.775   5.176  1.00  0.00     0.020 A 
ATOM     42  C   UNL     1       8.438  11.171   6.178  1.00  0.00     0.020 A 
ATOM     43  C   UNL     1       7.166  11.023   5.623  1.00  0.00     0.054 A 
BRANCH  43  44
ATOM     44  S   UNL     1       6.040  12.441   5.497  1.00  0.00     0.124 S 
ATOM     45  O   UNL     1       6.013  12.676   4.056  1.00  0.00    -0.237 OA
ATOM     46  O   UNL     1       4.803  11.918   6.071  1.00  0.00    -0.237 OA
ATOM     47  O   UNL     1       6.700  13.479   6.285  1.00  0.00    -0.744 OA
ENDBRANCH  43  44
ENDBRANCH  24  38
BRANCH  25  48
ATOM     48  C   UNL     1      14.858   0.795   6.516  1.00  0.00    -0.014 A 
ATOM     49  C   UNL     1      14.399  -0.453   6.967  1.00  0.00     0.010 A 
ATOM     50  C   UNL     1      16.207   0.930   6.136  1.00  0.00     0.010 A 
ATOM     51  C   UNL     1      15.278  -1.537   7.061  1.00  0.00     0.020 A 
ATOM     52  C   UNL     1      17.079  -0.158   6.192  1.00  0.00     0.020 A 
ATOM     53  C   UNL     1      16.612  -1.381   6.672  1.00  0.00     0.054 A 
BRANCH  53  54
ATOM     54  S   UNL     1      17.730  -2.806   6.771  1.00  0.00     0.124 S 
ATOM     55  O   UNL     1      17.974  -2.899   8.207  1.00  0.00    -0.237 OA
ATOM     56  O   UNL     1      16.926  -3.880   6.194  1.00  0.00    -0.237 OA
ATOM     57  O   UNL     1      18.878  -2.396   5.965  1.00  0.00    -0.744 OA
ENDBRANCH  53  54
ENDBRANCH  25  48
BRANCH  37  58
ATOM     58  C   UNL     1      11.524   4.747  11.184  1.00  0.00    -0.014 A 
ATOM     59  C   UNL     1      12.647   5.041  11.979  1.00  0.00     0.010 A 
ATOM     60  C   UNL     1      10.315   4.393  11.806  1.00  0.00     0.010 A 
ATOM     61  C   UNL     1      12.575   4.929  13.369  1.00  0.00     0.020 A 
ATOM     62  C   UNL     1      10.230   4.311  13.198  1.00  0.00     0.020 A 
ATOM     63  C   UNL     1      11.368   4.558  13.969  1.00  0.00     0.054 A 
BRANCH  63  64
ATOM     64  S   UNL     1      11.297   4.426  15.775  1.00  0.00     0.124 S 
ATOM     65  O   UNL     1      12.024   3.182  16.017  1.00  0.00    -0.237 OA
ATOM     66  O   UNL     1      11.973   5.645  16.213  1.00  0.00    -0.237 OA
ATOM     67  O   UNL     1       9.865   4.377  16.063  1.00  0.00    -0.744 OA
ENDBRANCH  63  64
ENDBRANCH  37  58
ENDBRANCH  11  12
ENDBRANCH   4   6
ENDBRANCH   1   2
BRANCH   1  68
ATOM     68  C   UNL     1       9.162   3.528  -3.734  1.00  0.00     0.042 C 
BRANCH  68  69
ATOM     69  C   UNL     1       8.980   3.095  -5.182  1.00  0.00     0.118 C 
BRANCH  69  70
ATOM     70  N   UNL     1       8.395   1.770  -5.260  1.00  0.00    -0.351 N 
ATOM     71  C   UNL     1       7.067   1.423  -5.186  1.00  0.00     0.283 C 
ATOM     72  H   UNL     1       9.028   1.026  -5.381  1.00  0.00     0.163 HD
ATOM     73  O   UNL     1       6.833   0.239  -4.932  1.00  0.00    -0.268 OA
BRANCH  71  74
ATOM     74  C   UNL     1       5.983   2.524  -5.394  1.00  0.00     0.307 C 
BRANCH  74  75
ATOM     75  N   UNL     1       4.788   2.088  -6.168  1.00  0.00    -0.318 N 
ATOM     76  C   UNL     1       4.150   0.800  -5.864  1.00  0.00     0.284 C 
ATOM     77  C   UNL     1       3.731   3.112  -6.289  1.00  0.00     0.284 C 
ATOM     78  H   UNL     1       5.265   1.937  -7.056  1.00  0.00     0.349 HD
ATOM     79  C   UNL     1       3.251   0.776  -4.621  1.00  0.00     0.178 C 
ATOM     80  C   UNL     1       2.699   3.188  -5.133  1.00  0.00     0.178 C 
ATOM     81  N   UNL     1       2.258   1.858  -4.669  1.00  0.00    -0.360 N 
BRANCH  81  82
ATOM     82  C   UNL     1       1.227   1.855  -3.734  1.00  0.00     0.038 A 
ATOM     83  C   UNL     1      -0.058   2.241  -4.138  1.00  0.00     0.026 A 
ATOM     84  C   UNL     1       1.410   1.478  -2.398  1.00  0.00     0.046 A 
ATOM     85  C   UNL     1      -1.136   2.227  -3.251  1.00  0.00     0.004 A 
ATOM     86  C   UNL     1       0.336   1.475  -1.506  1.00  0.00     0.043 A 
ATOM     87  C   UNL     1      -0.939   1.840  -1.929  1.00  0.00     0.020 A 
ATOM     88  Cl  UNL     1       0.587   1.014   0.134  1.00  0.00    -0.084 Cl
ENDBRANCH  81  82
ENDBRANCH  74  75
BRANCH  74  89
ATOM     89  C   UNL     1       5.713   3.286  -4.114  1.00  0.00     0.044 A 
ATOM     90  C   UNL     1       5.388   2.788  -2.863  1.00  0.00     0.094 A 
ATOM     91  C   UNL     1       5.872   4.712  -3.932  1.00  0.00     0.011 A 
ATOM     92  N   UNL     1       5.182   3.835  -2.005  1.00  0.00    -0.361 N 
ATOM     93  C   UNL     1       5.524   5.017  -2.615  1.00  0.00     0.046 A 
ATOM     94  C   UNL     1       6.318   5.767  -4.760  1.00  0.00     0.031 A 
ATOM     95  H   UNL     1       4.840   3.753  -1.086  1.00  0.00     0.166 HD
ATOM     96  C   UNL     1       5.566   6.315  -2.093  1.00  0.00     0.028 A 
ATOM     97  C   UNL     1       6.418   7.059  -4.234  1.00  0.00     0.041 A 
ATOM     98  C   UNL     1       6.037   7.334  -2.925  1.00  0.00     0.022 A 
ATOM     99  Cl  UNL     1       7.050   8.320  -5.222  1.00  0.00    -0.084 Cl
ENDBRANCH  74  89
ENDBRANCH  71  74
ENDBRANCH  69  70
ENDBRANCH  68  69
ENDBRANCH   1  68
TORSDOF 16
