REMARK SMILES [NH3+][C@H]1CN(C(=O)OCC2c3ccccc3-c3ccccc32)C[C@@H]1C(=O)NCCCNC(=O)c1ccc(-c2c3nc(c(-c4ccc(S(=O)(=O)[O-])cc4)c4ccc([nH]4)c(-c4ccc(S(=O)(=O)[O-])cc4)c4nc(c(-c5ccc(S(=O)(=O)[O-])cc5)c5ccc2[nH]5)C=C4)C=C3)cc1
REMARK SMILES IDX 27 1 26 2 24 3 25 4 23 6 2 7 3 8 4 9 22 10 1 11 5 15 6 16
REMARK SMILES IDX 7 17 8 18 9 19 10 20 21 21 11 22 15 23 16 24 20 25 12 26
REMARK SMILES IDX 14 27 17 28 19 29 13 30 18 31 28 32 29 33 30 34 31 35 32 37
REMARK SMILES IDX 33 38 34 39 92 40 35 41 91 42 36 43 37 44 38 45 85 46 39 47
REMARK SMILES IDX 90 48 84 49 86 50 40 51 89 52 83 53 82 54 41 56 71 57 52 58
REMARK SMILES IDX 70 59 53 60 56 61 69 62 87 63 54 64 55 65 68 67 88 68 57 69
REMARK SMILES IDX 42 70 43 71 51 72 44 73 50 74 45 75 46 76 47 77 48 78 49 79
REMARK SMILES IDX 72 80 73 81 81 82 74 83 80 84 75 85 76 86 77 87 78 88 79 89
REMARK SMILES IDX 58 90 59 91 67 92 60 93 66 94 61 95 62 96 63 97 64 98 65 99
REMARK H PARENT 26 5 1 12 1 13 1 14 30 36 86 55 56 66
REMARK Flexibility Score: inf
ROOT
ATOM      1  C   UNL     1      -3.768  -0.983  -1.359  1.00  0.00     0.117 C 
ENDROOT
BRANCH   1   2
ATOM      2  N   UNL     1      -3.098  -0.200  -0.332  1.00  0.00    -0.356 N 
ATOM      3  C   UNL     1      -1.827   0.301  -0.317  1.00  0.00     0.231 C 
ATOM      4  O   UNL     1      -1.429   0.858   0.705  1.00  0.00    -0.274 OA
ATOM      5  H   UNL     1      -3.637  -0.004   0.467  1.00  0.00     0.163 HD
BRANCH   3   6
ATOM      6  C   UNL     1      -0.969   0.157  -1.562  1.00  0.00     0.158 C 
ATOM      7  C   UNL     1       0.492   0.573  -1.314  1.00  0.00     0.215 C 
ATOM      8  C   UNL     1       0.456   2.107  -1.494  1.00  0.00     0.188 C 
ATOM      9  N   UNL     1      -0.697   2.368  -2.339  1.00  0.00    -0.301 N 
ATOM     10  C   UNL     1      -1.441   1.155  -2.615  1.00  0.00     0.143 C 
BRANCH   7  11
ATOM     11  N   UNL     1       1.376  -0.066  -2.310  1.00  0.00    -0.353 N 
ATOM     12  H   UNL     1       2.341   0.215  -2.138  1.00  0.00     0.344 HD
ATOM     13  H   UNL     1       1.099   0.225  -3.248  1.00  0.00     0.344 HD
ATOM     14  H   UNL     1       1.299  -1.080  -2.233  1.00  0.00     0.344 HD
ENDBRANCH   7  11
BRANCH   9  15
ATOM     15  C   UNL     1      -1.141   3.599  -2.729  1.00  0.00     0.410 C 
ATOM     16  O   UNL     1      -2.205   3.780  -3.313  1.00  0.00    -0.224 OA
BRANCH  15  17
ATOM     17  O   UNL     1      -0.277   4.598  -2.396  1.00  0.00    -0.448 OA
BRANCH  17  18
ATOM     18  C   UNL     1      -0.743   5.929  -2.710  1.00  0.00     0.248 C 
BRANCH  18  19
ATOM     19  C   UNL     1      -0.737   6.194  -4.224  1.00  0.00     0.088 C 
ATOM     20  C   UNL     1      -1.905   7.054  -4.695  1.00  0.00    -0.029 A 
ATOM     21  C   UNL     1       0.457   7.021  -4.696  1.00  0.00    -0.029 A 
ATOM     22  C   UNL     1      -3.263   6.815  -4.542  1.00  0.00     0.005 A 
ATOM     23  C   UNL     1      -1.434   8.179  -5.405  1.00  0.00    -0.014 A 
ATOM     24  C   UNL     1       0.013   8.158  -5.408  1.00  0.00    -0.014 A 
ATOM     25  C   UNL     1       1.808   6.754  -4.535  1.00  0.00     0.005 A 
ATOM     26  C   UNL     1      -4.161   7.727  -5.097  1.00  0.00     0.000 A 
ATOM     27  C   UNL     1      -2.327   9.080  -5.963  1.00  0.00     0.009 A 
ATOM     28  C   UNL     1       0.924   9.035  -5.972  1.00  0.00     0.009 A 
ATOM     29  C   UNL     1       2.725   7.644  -5.098  1.00  0.00     0.000 A 
ATOM     30  C   UNL     1      -3.698   8.849  -5.803  1.00  0.00     0.001 A 
ATOM     31  C   UNL     1       2.288   8.772  -5.814  1.00  0.00     0.001 A 
ENDBRANCH  18  19
ENDBRANCH  17  18
ENDBRANCH  15  17
ENDBRANCH   9  15
ENDBRANCH   3   6
ENDBRANCH   1   2
BRANCH   1  32
ATOM     32  C   UNL     1      -3.997  -2.423  -0.916  1.00  0.00     0.042 C 
BRANCH  32  33
ATOM     33  C   UNL     1      -4.939  -2.568   0.277  1.00  0.00     0.118 C 
BRANCH  33  34
ATOM     34  N   UNL     1      -6.286  -2.093  -0.005  1.00  0.00    -0.352 N 
ATOM     35  C   UNL     1      -7.493  -2.743   0.084  1.00  0.00     0.251 C 
ATOM     36  H   UNL     1      -6.341  -1.158  -0.309  1.00  0.00     0.163 HD
ATOM     37  O   UNL     1      -8.500  -2.204  -0.367  1.00  0.00    -0.269 OA
BRANCH  35  38
ATOM     38  C   UNL     1      -7.585  -4.089   0.694  1.00  0.00     0.039 A 
ATOM     39  C   UNL     1      -8.405  -5.045   0.088  1.00  0.00     0.014 A 
ATOM     40  C   UNL     1      -6.890  -4.408   1.863  1.00  0.00     0.014 A 
ATOM     41  C   UNL     1      -8.472  -6.338   0.615  1.00  0.00     0.010 A 
ATOM     42  C   UNL     1      -6.895  -5.718   2.340  1.00  0.00     0.010 A 
ATOM     43  C   UNL     1      -7.685  -6.698   1.721  1.00  0.00    -0.014 A 
BRANCH  43  44
ATOM     44  C   UNL     1      -7.663  -8.096   2.228  1.00  0.00     0.031 A 
ATOM     45  C   UNL     1      -8.130  -8.411   3.625  1.00  0.00     0.074 A 
ATOM     46  C   UNL     1      -7.167  -9.078   1.449  1.00  0.00     0.049 A 
ATOM     47  N   UNL     1      -8.137  -9.560   4.252  1.00  0.00    -0.248 NA
ATOM     48  C   UNL     1      -8.634  -7.286   4.430  1.00  0.00     0.031 C 
ATOM     49  C   UNL     1      -6.649  -8.901   0.089  1.00  0.00     0.029 A 
ATOM     50  N   UNL     1      -7.010 -10.422   1.688  1.00  0.00    -0.354 N 
ATOM     51  C   UNL     1      -8.631  -9.296   5.524  1.00  0.00     0.074 A 
ATOM     52  C   UNL     1      -8.863  -7.870   5.598  1.00  0.00     0.031 C 
ATOM     53  C   UNL     1      -6.262 -10.092  -0.394  1.00  0.00     0.029 A 
ATOM     54  C   UNL     1      -6.455 -11.110   0.633  1.00  0.00     0.049 A 
ATOM     55  H   UNL     1      -7.271 -10.852   2.534  1.00  0.00     0.167 HD
ATOM     56  C   UNL     1      -8.885 -10.162   6.535  1.00  0.00     0.031 A 
ATOM     57  C   UNL     1      -6.127 -12.411   0.507  1.00  0.00     0.031 A 
ATOM     58  C   UNL     1      -8.653 -11.582   6.458  1.00  0.00     0.049 A 
ATOM     59  C   UNL     1      -6.392 -13.348   1.654  1.00  0.00     0.074 A 
ATOM     60  C   UNL     1      -8.927 -12.549   7.409  1.00  0.00     0.029 A 
ATOM     61  N   UNL     1      -8.087 -12.237   5.375  1.00  0.00    -0.354 N 
ATOM     62  N   UNL     1      -6.923 -13.089   2.825  1.00  0.00    -0.248 NA
ATOM     63  C   UNL     1      -6.023 -14.757   1.457  1.00  0.00     0.031 C 
ATOM     64  C   UNL     1      -8.466 -13.778   6.929  1.00  0.00     0.029 A 
ATOM     65  C   UNL     1      -7.973 -13.591   5.647  1.00  0.00     0.049 A 
ATOM     66  H   UNL     1      -7.807 -11.804   4.536  1.00  0.00     0.167 HD
ATOM     67  C   UNL     1      -6.980 -14.308   3.493  1.00  0.00     0.074 A 
ATOM     68  C   UNL     1      -6.445 -15.305   2.588  1.00  0.00     0.031 C 
ATOM     69  C   UNL     1      -7.437 -14.576   4.741  1.00  0.00     0.031 A 
BRANCH  56  70
ATOM     70  C   UNL     1      -9.433  -9.597   7.821  1.00  0.00    -0.014 A 
ATOM     71  C   UNL     1     -10.732  -9.061   7.888  1.00  0.00     0.010 A 
ATOM     72  C   UNL     1      -8.656  -9.648   8.993  1.00  0.00     0.010 A 
ATOM     73  C   UNL     1     -11.227  -8.548   9.090  1.00  0.00     0.020 A 
ATOM     74  C   UNL     1      -9.159  -9.166  10.205  1.00  0.00     0.020 A 
ATOM     75  C   UNL     1     -10.436  -8.604  10.242  1.00  0.00     0.054 A 
BRANCH  75  76
ATOM     76  S   UNL     1     -11.115  -7.952  11.792  1.00  0.00     0.124 S 
ATOM     77  O   UNL     1     -11.121  -6.514  11.538  1.00  0.00    -0.237 OA
ATOM     78  O   UNL     1     -12.431  -8.584  11.855  1.00  0.00    -0.237 OA
ATOM     79  O   UNL     1     -10.163  -8.401  12.805  1.00  0.00    -0.744 OA
ENDBRANCH  75  76
ENDBRANCH  56  70
BRANCH  57  80
ATOM     80  C   UNL     1      -5.516 -12.905  -0.758  1.00  0.00    -0.014 A 
ATOM     81  C   UNL     1      -6.227 -13.771  -1.608  1.00  0.00     0.010 A 
ATOM     82  C   UNL     1      -4.218 -12.503  -1.125  1.00  0.00     0.010 A 
ATOM     83  C   UNL     1      -5.645 -14.241  -2.789  1.00  0.00     0.020 A 
ATOM     84  C   UNL     1      -3.645 -12.945  -2.321  1.00  0.00     0.020 A 
ATOM     85  C   UNL     1      -4.358 -13.822  -3.140  1.00  0.00     0.054 A 
BRANCH  85  86
ATOM     86  S   UNL     1      -3.644 -14.406  -4.702  1.00  0.00     0.124 S 
ATOM     87  O   UNL     1      -3.375 -15.810  -4.407  1.00  0.00    -0.237 OA
ATOM     88  O   UNL     1      -4.722 -14.153  -5.654  1.00  0.00    -0.237 OA
ATOM     89  O   UNL     1      -2.462 -13.564  -4.873  1.00  0.00    -0.744 OA
ENDBRANCH  85  86
ENDBRANCH  57  80
BRANCH  69  90
ATOM     90  C   UNL     1      -7.417 -16.012   5.196  1.00  0.00    -0.014 A 
ATOM     91  C   UNL     1      -6.211 -16.677   5.480  1.00  0.00     0.010 A 
ATOM     92  C   UNL     1      -8.634 -16.691   5.394  1.00  0.00     0.010 A 
ATOM     93  C   UNL     1      -6.221 -18.003   5.920  1.00  0.00     0.020 A 
ATOM     94  C   UNL     1      -8.650 -18.006   5.867  1.00  0.00     0.020 A 
ATOM     95  C   UNL     1      -7.441 -18.659   6.113  1.00  0.00     0.054 A 
BRANCH  95  96
ATOM     96  S   UNL     1      -7.427 -20.365   6.727  1.00  0.00     0.124 S 
ATOM     97  O   UNL     1      -6.931 -21.102   5.568  1.00  0.00    -0.237 OA
ATOM     98  O   UNL     1      -6.510 -20.288   7.862  1.00  0.00    -0.237 OA
ATOM     99  O   UNL     1      -8.822 -20.621   7.077  1.00  0.00    -0.744 OA
ENDBRANCH  95  96
ENDBRANCH  69  90
ENDBRANCH  43  44
ENDBRANCH  35  38
ENDBRANCH  33  34
ENDBRANCH  32  33
ENDBRANCH   1  32
TORSDOF 18
