REMARK SMILES C[C@H](C[NH3+])CS/C=C/C(=O)NCCCNC(=O)c1ccc(-c2c3nc(c(-c4ccc(S(=O)(=O)[O-])cc4)c4ccc([nH]4)c(-c4ccc(S(=O)(=O)[O-])cc4)c4nc(c(-c5ccc(S(=O)(=O)[O-])cc5)c5ccc2[nH]5)C=C4)C=C3)cc1
REMARK SMILES IDX 12 1 11 2 9 3 10 4 8 6 7 7 6 8 5 9 2 10 1 11 3 12 4 13 13 17
REMARK SMILES IDX 14 18 15 19 16 20 17 22 18 23 19 24 77 25 20 26 76 27 21 28
REMARK SMILES IDX 22 29 23 30 70 31 24 32 75 33 69 34 71 35 25 36 74 37 68 38
REMARK SMILES IDX 67 39 26 41 56 42 37 43 55 44 38 45 41 46 54 47 72 48 39 49
REMARK SMILES IDX 40 50 53 52 73 53 42 54 27 55 28 56 36 57 29 58 35 59 30 60
REMARK SMILES IDX 31 61 32 62 33 63 34 64 57 65 58 66 66 67 59 68 65 69 60 70
REMARK SMILES IDX 61 71 62 72 63 73 64 74 43 75 44 76 52 77 45 78 51 79 46 80
REMARK SMILES IDX 47 81 48 82 49 83 50 84
REMARK H PARENT 11 5 4 14 4 15 4 16 15 21 71 40 41 51
REMARK Flexibility Score: inf
ROOT
ATOM      1  C   UNL     1      -0.756   1.067   4.505  1.00  0.00     0.118 C 
ENDROOT
BRANCH   1   2
ATOM      2  N   UNL     1      -0.029  -0.090   4.012  1.00  0.00    -0.352 N 
ATOM      3  C   UNL     1      -0.220  -0.832   2.892  1.00  0.00     0.244 C 
ATOM      4  O   UNL     1       0.409  -1.875   2.728  1.00  0.00    -0.270 OA
ATOM      5  H   UNL     1       0.720  -0.383   4.580  1.00  0.00     0.163 HD
BRANCH   3   6
ATOM      6  C   UNL     1      -1.174  -0.405   1.850  1.00  0.00     0.078 C 
ATOM      7  C   UNL     1      -1.062   0.805   1.290  1.00  0.00     0.046 C 
BRANCH   7   8
ATOM      8  S   UNL     1      -1.859   1.241  -0.173  1.00  0.00    -0.133 SA
BRANCH   8   9
ATOM      9  C   UNL     1      -0.888   0.282  -1.395  1.00  0.00     0.083 C 
BRANCH   9  10
ATOM     10  C   UNL     1       0.599   0.678  -1.545  1.00  0.00     0.051 C 
ATOM     11  C   UNL     1       1.107   0.208  -2.916  1.00  0.00     0.014 C 
BRANCH  10  12
ATOM     12  C   UNL     1       1.553   0.158  -0.447  1.00  0.00     0.262 C 
BRANCH  12  13
ATOM     13  N   UNL     1       1.564  -1.293  -0.295  1.00  0.00    -0.357 N 
ATOM     14  H   UNL     1       0.637  -1.613  -0.014  1.00  0.00     0.344 HD
ATOM     15  H   UNL     1       2.245  -1.556   0.417  1.00  0.00     0.344 HD
ATOM     16  H   UNL     1       1.817  -1.726  -1.184  1.00  0.00     0.344 HD
ENDBRANCH  12  13
ENDBRANCH  10  12
ENDBRANCH   9  10
ENDBRANCH   8   9
ENDBRANCH   7   8
ENDBRANCH   3   6
ENDBRANCH   1   2
BRANCH   1  17
ATOM     17  C   UNL     1      -2.032   0.677   5.236  1.00  0.00     0.042 C 
BRANCH  17  18
ATOM     18  C   UNL     1      -1.768  -0.042   6.554  1.00  0.00     0.118 C 
BRANCH  18  19
ATOM     19  N   UNL     1      -1.094   0.816   7.521  1.00  0.00    -0.352 N 
ATOM     20  C   UNL     1      -1.560   1.373   8.685  1.00  0.00     0.251 C 
ATOM     21  H   UNL     1      -0.158   1.030   7.306  1.00  0.00     0.163 HD
ATOM     22  O   UNL     1      -0.917   2.277   9.220  1.00  0.00    -0.269 OA
BRANCH  20  23
ATOM     23  C   UNL     1      -2.821   0.901   9.293  1.00  0.00     0.039 A 
ATOM     24  C   UNL     1      -3.687   1.828   9.880  1.00  0.00     0.014 A 
ATOM     25  C   UNL     1      -3.132  -0.461   9.323  1.00  0.00     0.014 A 
ATOM     26  C   UNL     1      -4.888   1.393  10.445  1.00  0.00     0.010 A 
ATOM     27  C   UNL     1      -4.367  -0.881   9.802  1.00  0.00     0.010 A 
ATOM     28  C   UNL     1      -5.252   0.038  10.384  1.00  0.00    -0.014 A 
BRANCH  28  29
ATOM     29  C   UNL     1      -6.538  -0.449  10.942  1.00  0.00     0.031 A 
ATOM     30  C   UNL     1      -6.538  -1.432  12.082  1.00  0.00     0.074 A 
ATOM     31  C   UNL     1      -7.699  -0.062  10.380  1.00  0.00     0.049 A 
ATOM     32  N   UNL     1      -7.551  -2.025  12.661  1.00  0.00    -0.248 NA
ATOM     33  C   UNL     1      -5.225  -1.822  12.622  1.00  0.00     0.031 C 
ATOM     34  C   UNL     1      -7.829   0.861   9.250  1.00  0.00     0.029 A 
ATOM     35  N   UNL     1      -8.994  -0.398  10.684  1.00  0.00    -0.354 N 
ATOM     36  C   UNL     1      -6.997  -2.871  13.616  1.00  0.00     0.074 A 
ATOM     37  C   UNL     1      -5.560  -2.758  13.496  1.00  0.00     0.031 C 
ATOM     38  C   UNL     1      -9.131   1.047   8.983  1.00  0.00     0.029 A 
ATOM     39  C   UNL     1      -9.926   0.226   9.890  1.00  0.00     0.049 A 
ATOM     40  H   UNL     1      -9.232  -1.027  11.403  1.00  0.00     0.167 HD
ATOM     41  C   UNL     1      -7.625  -3.654  14.526  1.00  0.00     0.031 A 
ATOM     42  C   UNL     1     -11.271   0.148   9.894  1.00  0.00     0.031 A 
ATOM     43  C   UNL     1      -9.054  -3.758  14.644  1.00  0.00     0.049 A 
ATOM     44  C   UNL     1     -11.949  -0.739  10.900  1.00  0.00     0.074 A 
ATOM     45  C   UNL     1      -9.794  -4.488  15.557  1.00  0.00     0.029 A 
ATOM     46  N   UNL     1      -9.963  -3.112  13.817  1.00  0.00    -0.354 N 
ATOM     47  N   UNL     1     -11.410  -1.495  11.828  1.00  0.00    -0.248 NA
ATOM     48  C   UNL     1     -13.416  -0.775  10.867  1.00  0.00     0.031 C 
ATOM     49  C   UNL     1     -11.150  -4.319  15.254  1.00  0.00     0.029 A 
ATOM     50  C   UNL     1     -11.256  -3.440  14.187  1.00  0.00     0.049 A 
ATOM     51  H   UNL     1      -9.723  -2.510  13.077  1.00  0.00     0.167 HD
ATOM     52  C   UNL     1     -12.475  -2.074  12.509  1.00  0.00     0.074 A 
ATOM     53  C   UNL     1     -13.687  -1.573  11.891  1.00  0.00     0.031 C 
ATOM     54  C   UNL     1     -12.451  -2.936  13.556  1.00  0.00     0.031 A 
BRANCH  41  55
ATOM     55  C   UNL     1      -6.753  -4.465  15.451  1.00  0.00    -0.014 A 
ATOM     56  C   UNL     1      -5.950  -3.842  16.426  1.00  0.00     0.010 A 
ATOM     57  C   UNL     1      -6.720  -5.866  15.335  1.00  0.00     0.010 A 
ATOM     58  C   UNL     1      -5.080  -4.597  17.216  1.00  0.00     0.020 A 
ATOM     59  C   UNL     1      -5.875  -6.629  16.148  1.00  0.00     0.020 A 
ATOM     60  C   UNL     1      -5.039  -5.986  17.063  1.00  0.00     0.054 A 
BRANCH  60  61
ATOM     61  S   UNL     1      -3.880  -6.940  18.081  1.00  0.00     0.124 S 
ATOM     62  O   UNL     1      -2.603  -6.647  17.436  1.00  0.00    -0.237 OA
ATOM     63  O   UNL     1      -4.061  -6.357  19.408  1.00  0.00    -0.237 OA
ATOM     64  O   UNL     1      -4.348  -8.317  17.940  1.00  0.00    -0.744 OA
ENDBRANCH  60  61
ENDBRANCH  41  55
BRANCH  42  65
ATOM     65  C   UNL     1     -12.059   0.976   8.941  1.00  0.00    -0.014 A 
ATOM     66  C   UNL     1     -12.771   2.096   9.405  1.00  0.00     0.010 A 
ATOM     67  C   UNL     1     -12.066   0.680   7.566  1.00  0.00     0.010 A 
ATOM     68  C   UNL     1     -13.478   2.905   8.512  1.00  0.00     0.020 A 
ATOM     69  C   UNL     1     -12.752   1.502   6.667  1.00  0.00     0.020 A 
ATOM     70  C   UNL     1     -13.459   2.606   7.147  1.00  0.00     0.054 A 
BRANCH  70  71
ATOM     71  S   UNL     1     -14.321   3.717   5.999  1.00  0.00     0.124 S 
ATOM     72  O   UNL     1     -15.721   3.404   6.267  1.00  0.00    -0.237 OA
ATOM     73  O   UNL     1     -13.870   5.035   6.439  1.00  0.00    -0.237 OA
ATOM     74  O   UNL     1     -13.826   3.304   4.688  1.00  0.00    -0.744 OA
ENDBRANCH  70  71
ENDBRANCH  42  65
BRANCH  54  75
ATOM     75  C   UNL     1     -13.777  -3.368  14.124  1.00  0.00    -0.014 A 
ATOM     76  C   UNL     1     -14.612  -4.263  13.432  1.00  0.00     0.010 A 
ATOM     77  C   UNL     1     -14.168  -2.905  15.394  1.00  0.00     0.010 A 
ATOM     78  C   UNL     1     -15.830  -4.663  13.988  1.00  0.00     0.020 A 
ATOM     79  C   UNL     1     -15.371  -3.325  15.965  1.00  0.00     0.020 A 
ATOM     80  C   UNL     1     -16.202  -4.191  15.251  1.00  0.00     0.054 A 
BRANCH  80  81
ATOM     81  S   UNL     1     -17.767  -4.759  15.970  1.00  0.00     0.124 S 
ATOM     82  O   UNL     1     -18.748  -4.006  15.194  1.00  0.00    -0.237 OA
ATOM     83  O   UNL     1     -17.734  -6.197  15.715  1.00  0.00    -0.237 OA
ATOM     84  O   UNL     1     -17.660  -4.380  17.377  1.00  0.00    -0.744 OA
ENDBRANCH  80  81
ENDBRANCH  54  75
ENDBRANCH  28  29
ENDBRANCH  20  23
ENDBRANCH  18  19
ENDBRANCH  17  18
ENDBRANCH   1  17
TORSDOF 18
