REMARK SMILES CC(C)(C)c1ccc(OCc2nnc(SCC(=O)NCCCNC(=O)c3ccc(-c4c5nc(c(-c6ccc(S(=O)(=O)[O-])cc6)c6ccc([nH]6)c(-c6ccc(S(=O)(=O)[O-])cc6)c6nc(c(-c7ccc(S(=O)(=O)[O-])cc7)c7ccc4[nH]7)C=C6)C=C5)cc3)o2)cc1
REMARK SMILES IDX 17 1 18 2 19 3 16 5 15 6 14 7 11 8 12 9 86 10 13 11 10 12
REMARK SMILES IDX 9 13 8 14 5 15 6 16 88 17 7 18 87 19 2 20 1 21 3 22 4 23
REMARK SMILES IDX 20 24 21 25 22 26 23 27 24 28 25 30 26 31 27 32 85 33 28 34
REMARK SMILES IDX 84 35 29 36 30 37 31 38 78 39 32 40 83 41 77 42 79 43 33 44
REMARK SMILES IDX 82 45 76 46 75 47 34 49 64 50 45 51 63 52 46 53 49 54 62 55
REMARK SMILES IDX 80 56 47 57 48 58 61 60 81 61 50 62 35 63 36 64 44 65 37 66
REMARK SMILES IDX 43 67 38 68 39 69 40 70 41 71 42 72 65 73 66 74 74 75 67 76
REMARK SMILES IDX 73 77 68 78 69 79 70 80 71 81 72 82 51 83 52 84 60 85 53 86
REMARK SMILES IDX 59 87 54 88 55 89 56 90 57 91 58 92
REMARK H PARENT 19 4 23 29 79 48 49 59
REMARK Flexibility Score: inf
ROOT
ATOM      1  C   UNL     1       4.361   3.656  -2.039  1.00  0.00     0.230 C 
ATOM      2  O   UNL     1       3.858   3.293  -0.975  1.00  0.00    -0.274 OA
ATOM      3  N   UNL     1       5.709   3.522  -2.148  1.00  0.00    -0.355 N 
ATOM      4  H   UNL     1       6.150   3.119  -1.366  1.00  0.00     0.163 HD
ENDROOT
BRANCH   1   5
ATOM      5  C   UNL     1       3.504   4.095  -3.208  1.00  0.00     0.179 C 
BRANCH   5   6
ATOM      6  S   UNL     1       3.831   5.765  -3.808  1.00  0.00    -0.055 SA
BRANCH   6   7
ATOM      7  C   UNL     1       3.359   6.764  -2.475  1.00  0.00     0.277 A 
ATOM      8  C   UNL     1       2.518   7.459  -0.642  1.00  0.00     0.254 A 
ATOM      9  N   UNL     1       2.871   8.532  -1.321  1.00  0.00    -0.108 NA
ATOM     10  O   UNL     1       2.816   6.301  -1.314  1.00  0.00    -0.412 OA
ATOM     11  N   UNL     1       3.420   8.079  -2.503  1.00  0.00    -0.101 NA
BRANCH   8  12
ATOM     12  C   UNL     1       1.726   7.388   0.620  1.00  0.00     0.328 C 
BRANCH  12  13
ATOM     13  O   UNL     1       1.947   6.173   1.347  1.00  0.00    -0.484 OA
BRANCH  13  14
ATOM     14  C   UNL     1       1.392   5.011   0.888  1.00  0.00     0.120 A 
ATOM     15  C   UNL     1       0.683   2.437  -0.071  1.00  0.00    -0.042 A 
ATOM     16  C   UNL     1       1.464   2.593   1.084  1.00  0.00     0.008 A 
ATOM     17  C   UNL     1       0.201   3.609  -0.682  1.00  0.00     0.008 A 
ATOM     18  C   UNL     1       1.814   3.864   1.554  1.00  0.00     0.047 A 
ATOM     19  C   UNL     1       0.533   4.880  -0.199  1.00  0.00     0.047 A 
BRANCH  15  20
ATOM     20  C   UNL     1       0.392   1.065  -0.698  1.00  0.00    -0.013 C 
ATOM     21  C   UNL     1       0.968  -0.123   0.104  1.00  0.00     0.016 C 
ATOM     22  C   UNL     1       1.012   0.998  -2.112  1.00  0.00     0.016 C 
ATOM     23  C   UNL     1      -1.133   0.859  -0.801  1.00  0.00     0.016 C 
ENDBRANCH  15  20
ENDBRANCH  13  14
ENDBRANCH  12  13
ENDBRANCH   8  12
ENDBRANCH   6   7
ENDBRANCH   5   6
ENDBRANCH   1   5
BRANCH   3  24
ATOM     24  C   UNL     1       6.601   3.877  -3.233  1.00  0.00     0.117 C 
BRANCH  24  25
ATOM     25  C   UNL     1       7.328   5.189  -2.953  1.00  0.00     0.042 C 
BRANCH  25  26
ATOM     26  C   UNL     1       8.198   5.159  -1.700  1.00  0.00     0.118 C 
BRANCH  26  27
ATOM     27  N   UNL     1       9.290   4.202  -1.802  1.00  0.00    -0.352 N 
ATOM     28  C   UNL     1      10.643   4.406  -1.722  1.00  0.00     0.251 C 
ATOM     29  H   UNL     1       9.015   3.268  -1.949  1.00  0.00     0.163 HD
ATOM     30  O   UNL     1      11.409   3.493  -2.038  1.00  0.00    -0.269 OA
BRANCH  28  31
ATOM     31  C   UNL     1      11.185   5.707  -1.277  1.00  0.00     0.039 A 
ATOM     32  C   UNL     1      12.308   6.230  -1.923  1.00  0.00     0.014 A 
ATOM     33  C   UNL     1      10.613   6.398  -0.205  1.00  0.00     0.014 A 
ATOM     34  C   UNL     1      12.829   7.463  -1.524  1.00  0.00     0.010 A 
ATOM     35  C   UNL     1      11.079   7.665   0.134  1.00  0.00     0.010 A 
ATOM     36  C   UNL     1      12.205   8.203  -0.506  1.00  0.00    -0.014 A 
BRANCH  36  37
ATOM     37  C   UNL     1      12.736   9.521  -0.073  1.00  0.00     0.031 A 
ATOM     38  C   UNL     1      13.247   9.704   1.332  1.00  0.00     0.074 A 
ATOM     39  C   UNL     1      12.713  10.566  -0.923  1.00  0.00     0.049 A 
ATOM     40  N   UNL     1      13.720  10.781   1.906  1.00  0.00    -0.248 NA
ATOM     41  C   UNL     1      13.195   8.528   2.216  1.00  0.00     0.031 C 
ATOM     42  C   UNL     1      12.213  10.530  -2.299  1.00  0.00     0.029 A 
ATOM     43  N   UNL     1      13.123  11.865  -0.753  1.00  0.00    -0.354 N 
ATOM     44  C   UNL     1      13.997  10.418   3.220  1.00  0.00     0.074 A 
ATOM     45  C   UNL     1      13.586   9.040   3.372  1.00  0.00     0.031 C 
ATOM     46  C   UNL     1      12.382  11.738  -2.859  1.00  0.00     0.029 A 
ATOM     47  C   UNL     1      12.961  12.645  -1.873  1.00  0.00     0.049 A 
ATOM     48  H   UNL     1      13.497  12.206   0.092  1.00  0.00     0.167 HD
ATOM     49  C   UNL     1      14.561  11.157   4.207  1.00  0.00     0.031 A 
ATOM     50  C   UNL     1      13.249  13.944  -2.085  1.00  0.00     0.031 A 
ATOM     51  C   UNL     1      14.972  12.527   4.050  1.00  0.00     0.049 A 
ATOM     52  C   UNL     1      13.865  14.750  -0.975  1.00  0.00     0.074 A 
ATOM     53  C   UNL     1      15.602  13.348   4.968  1.00  0.00     0.029 A 
ATOM     54  N   UNL     1      14.789  13.281   2.899  1.00  0.00    -0.354 N 
ATOM     55  N   UNL     1      14.178  14.374   0.243  1.00  0.00    -0.248 NA
ATOM     56  C   UNL     1      14.182  16.153  -1.274  1.00  0.00     0.031 C 
ATOM     57  C   UNL     1      15.748  14.615   4.393  1.00  0.00     0.029 A 
ATOM     58  C   UNL     1      15.272  14.564   3.091  1.00  0.00     0.049 A 
ATOM     59  H   UNL     1      14.376  12.951   2.068  1.00  0.00     0.167 HD
ATOM     60  C   UNL     1      14.764  15.483   0.843  1.00  0.00     0.074 A 
ATOM     61  C   UNL     1      14.766  16.541  -0.148  1.00  0.00     0.031 C 
ATOM     62  C   UNL     1      15.264  15.610   2.098  1.00  0.00     0.031 A 
BRANCH  49  63
ATOM     63  C   UNL     1      14.739  10.492   5.549  1.00  0.00    -0.014 A 
ATOM     64  C   UNL     1      15.636   9.421   5.723  1.00  0.00     0.010 A 
ATOM     65  C   UNL     1      13.993  10.940   6.654  1.00  0.00     0.010 A 
ATOM     66  C   UNL     1      15.730   8.766   6.954  1.00  0.00     0.020 A 
ATOM     67  C   UNL     1      14.110  10.311   7.897  1.00  0.00     0.020 A 
ATOM     68  C   UNL     1      14.957   9.210   8.031  1.00  0.00     0.054 A 
BRANCH  68  69
ATOM     69  S   UNL     1      15.081   8.329   9.612  1.00  0.00     0.124 S 
ATOM     70  O   UNL     1      14.360   7.091   9.323  1.00  0.00    -0.237 OA
ATOM     71  O   UNL     1      16.523   8.187   9.789  1.00  0.00    -0.237 OA
ATOM     72  O   UNL     1      14.424   9.224  10.561  1.00  0.00    -0.744 OA
ENDBRANCH  68  69
ENDBRANCH  49  63
BRANCH  50  73
ATOM     73  C   UNL     1      13.001  14.544  -3.425  1.00  0.00    -0.014 A 
ATOM     74  C   UNL     1      14.080  14.858  -4.270  1.00  0.00     0.010 A 
ATOM     75  C   UNL     1      11.689  14.765  -3.881  1.00  0.00     0.010 A 
ATOM     76  C   UNL     1      13.853  15.386  -5.544  1.00  0.00     0.020 A 
ATOM     77  C   UNL     1      11.457  15.268  -5.165  1.00  0.00     0.020 A 
ATOM     78  C   UNL     1      12.542  15.580  -5.987  1.00  0.00     0.054 A 
BRANCH  78  79
ATOM     79  S   UNL     1      12.274  16.193  -7.673  1.00  0.00     0.124 S 
ATOM     80  O   UNL     1      12.703  17.584  -7.564  1.00  0.00    -0.237 OA
ATOM     81  O   UNL     1      13.141  15.324  -8.465  1.00  0.00    -0.237 OA
ATOM     82  O   UNL     1      10.842  15.994  -7.887  1.00  0.00    -0.744 OA
ENDBRANCH  78  79
ENDBRANCH  50  73
BRANCH  62  83
ATOM     83  C   UNL     1      15.904  16.926   2.460  1.00  0.00    -0.014 A 
ATOM     84  C   UNL     1      15.141  18.093   2.641  1.00  0.00     0.010 A 
ATOM     85  C   UNL     1      17.295  16.980   2.665  1.00  0.00     0.010 A 
ATOM     86  C   UNL     1      15.763  19.297   2.982  1.00  0.00     0.020 A 
ATOM     87  C   UNL     1      17.916  18.174   3.037  1.00  0.00     0.020 A 
ATOM     88  C   UNL     1      17.148  19.331   3.176  1.00  0.00     0.054 A 
BRANCH  88  89
ATOM     89  S   UNL     1      17.927  20.898   3.649  1.00  0.00     0.124 S 
ATOM     90  O   UNL     1      17.873  21.654   2.400  1.00  0.00    -0.237 OA
ATOM     91  O   UNL     1      17.054  21.382   4.715  1.00  0.00    -0.237 OA
ATOM     92  O   UNL     1      19.267  20.503   4.080  1.00  0.00    -0.744 OA
ENDBRANCH  88  89
ENDBRANCH  62  83
ENDBRANCH  36  37
ENDBRANCH  28  31
ENDBRANCH  26  27
ENDBRANCH  25  26
ENDBRANCH  24  25
ENDBRANCH   3  24
TORSDOF 19
