REMARK SMILES O=C(COc1ccccc1[C@@H]1[NH2+]CCc2cc(O)c(O)cc21)NCCCNC(=O)c1ccc(-c2c3nc(c(-c4ccc(S(=O)(=O)[O-])cc4)c4ccc([nH]4)c(-c4ccc(S(=O)(=O)[O-])cc4)c4nc(c(-c5ccc(S(=O)(=O)[O-])cc5)c5ccc2[nH]5)C=C4)C=C3)cc1
REMARK SMILES IDX 24 1 23 2 1 3 2 4 3 6 4 7 5 8 6 9 10 10 7 11 9 12 8 13 11 14
REMARK SMILES IDX 12 15 22 16 13 17 15 20 21 21 14 22 16 23 19 24 17 25 20 26
REMARK SMILES IDX 18 28 25 30 26 31 27 32 28 33 29 35 30 36 31 37 89 38 32 39
REMARK SMILES IDX 88 40 33 41 34 42 35 43 82 44 36 45 87 46 81 47 83 48 37 49
REMARK SMILES IDX 86 50 80 51 79 52 38 54 68 55 49 56 67 57 50 58 53 59 66 60
REMARK SMILES IDX 84 61 51 62 52 63 65 65 85 66 54 67 39 68 40 69 48 70 41 71
REMARK SMILES IDX 47 72 42 73 43 74 44 75 45 76 46 77 69 78 70 79 78 80 71 81
REMARK SMILES IDX 77 82 72 83 73 84 74 85 75 86 76 87 55 88 56 89 64 90 57 91
REMARK SMILES IDX 63 92 58 93 59 94 60 95 61 96 62 97
REMARK H PARENT 23 5 12 18 12 19 20 27 18 29 27 34 83 53 53 64
REMARK Flexibility Score: inf
ROOT
ATOM      1  C   UNL     1       2.586   1.625  -1.861  1.00  0.00     0.117 C 
ENDROOT
BRANCH   1   2
ATOM      2  N   UNL     1       3.499   0.783  -1.114  1.00  0.00    -0.353 N 
ATOM      3  O   UNL     1       2.979   1.592   0.971  1.00  0.00    -0.271 OA
ATOM      4  C   UNL     1       3.488   0.723   0.268  1.00  0.00     0.257 C 
ATOM      5  H   UNL     1       4.150   0.234  -1.607  1.00  0.00     0.163 HD
BRANCH   4   6
ATOM      6  C   UNL     1       4.135  -0.546   0.843  1.00  0.00     0.329 C 
BRANCH   6   7
ATOM      7  O   UNL     1       4.369  -1.621  -0.047  1.00  0.00    -0.483 OA
BRANCH   7   8
ATOM      8  C   UNL     1       3.457  -2.555  -0.461  1.00  0.00     0.129 A 
ATOM      9  C   UNL     1       4.144  -3.730  -0.831  1.00  0.00     0.047 A 
ATOM     10  C   UNL     1       2.065  -2.464  -0.711  1.00  0.00     0.056 A 
ATOM     11  C   UNL     1       3.525  -4.758  -1.534  1.00  0.00     0.004 A 
ATOM     12  C   UNL     1       1.486  -3.487  -1.504  1.00  0.00     0.014 A 
ATOM     13  C   UNL     1       2.204  -4.611  -1.916  1.00  0.00     0.001 A 
BRANCH  10  14
ATOM     14  C   UNL     1       1.166  -1.327  -0.242  1.00  0.00     0.249 C 
ATOM     15  N   UNL     1       1.317  -1.050   1.193  1.00  0.00    -0.336 N 
ATOM     16  C   UNL     1      -0.338  -1.318  -0.534  1.00  0.00     0.021 A 
ATOM     17  C   UNL     1       0.676  -2.047   2.057  1.00  0.00     0.266 C 
ATOM     18  H   UNL     1       0.903  -0.139   1.390  1.00  0.00     0.347 HD
ATOM     19  H   UNL     1       2.316  -1.076   1.398  1.00  0.00     0.347 HD
ATOM     20  C   UNL     1      -1.182  -1.980   0.387  1.00  0.00    -0.029 A 
ATOM     21  C   UNL     1      -0.896  -0.486  -1.520  1.00  0.00     0.060 A 
ATOM     22  C   UNL     1      -0.511  -2.810   1.448  1.00  0.00     0.097 C 
ATOM     23  C   UNL     1      -2.562  -1.780   0.353  1.00  0.00     0.054 A 
ATOM     24  C   UNL     1      -2.269  -0.265  -1.516  1.00  0.00     0.157 A 
ATOM     25  C   UNL     1      -3.086  -0.896  -0.579  1.00  0.00     0.157 A 
BRANCH  24  26
ATOM     26  O   UNL     1      -2.864   0.615  -2.379  1.00  0.00    -0.504 OA
ATOM     27  H   UNL     1      -3.792   0.742  -2.353  1.00  0.00     0.293 HD
ENDBRANCH  24  26
BRANCH  25  28
ATOM     28  O   UNL     1      -4.419  -0.600  -0.533  1.00  0.00    -0.504 OA
ATOM     29  H   UNL     1      -4.972  -1.022   0.095  1.00  0.00     0.293 HD
ENDBRANCH  25  28
ENDBRANCH  10  14
ENDBRANCH   7   8
ENDBRANCH   6   7
ENDBRANCH   4   6
ENDBRANCH   1   2
BRANCH   1  30
ATOM     30  C   UNL     1       2.825   3.114  -1.753  1.00  0.00     0.042 C 
BRANCH  30  31
ATOM     31  C   UNL     1       4.254   3.515  -2.036  1.00  0.00     0.118 C 
BRANCH  31  32
ATOM     32  N   UNL     1       4.718   3.092  -3.351  1.00  0.00    -0.352 N 
ATOM     33  C   UNL     1       5.390   3.816  -4.302  1.00  0.00     0.251 C 
ATOM     34  H   UNL     1       4.522   2.157  -3.589  1.00  0.00     0.163 HD
ATOM     35  O   UNL     1       5.597   3.332  -5.412  1.00  0.00    -0.269 OA
BRANCH  33  36
ATOM     36  C   UNL     1       5.827   5.191  -3.985  1.00  0.00     0.039 A 
ATOM     37  C   UNL     1       5.638   6.199  -4.931  1.00  0.00     0.014 A 
ATOM     38  C   UNL     1       6.385   5.488  -2.738  1.00  0.00     0.014 A 
ATOM     39  C   UNL     1       5.959   7.516  -4.602  1.00  0.00     0.010 A 
ATOM     40  C   UNL     1       6.593   6.810  -2.373  1.00  0.00     0.010 A 
ATOM     41  C   UNL     1       6.411   7.835  -3.310  1.00  0.00    -0.014 A 
BRANCH  41  42
ATOM     42  C   UNL     1       6.758   9.226  -2.933  1.00  0.00     0.031 A 
ATOM     43  C   UNL     1       8.172   9.553  -2.531  1.00  0.00     0.074 A 
ATOM     44  C   UNL     1       5.801  10.174  -2.901  1.00  0.00     0.049 A 
ATOM     45  N   UNL     1       8.672  10.692  -2.126  1.00  0.00    -0.248 NA
ATOM     46  C   UNL     1       9.146   8.448  -2.553  1.00  0.00     0.031 C 
ATOM     47  C   UNL     1       4.385   9.966  -3.216  1.00  0.00     0.029 A 
ATOM     48  N   UNL     1       5.877  11.507  -2.586  1.00  0.00    -0.354 N 
ATOM     49  C   UNL     1      10.004  10.432  -1.826  1.00  0.00     0.074 A 
ATOM     50  C   UNL     1      10.220   9.019  -2.030  1.00  0.00     0.031 C 
ATOM     51  C   UNL     1       3.735  11.137  -3.116  1.00  0.00     0.029 A 
ATOM     52  C   UNL     1       4.677  12.169  -2.695  1.00  0.00     0.049 A 
ATOM     53  H   UNL     1       6.712  11.948  -2.308  1.00  0.00     0.167 HD
ATOM     54  C   UNL     1      10.972  11.297  -1.443  1.00  0.00     0.031 A 
ATOM     55  C   UNL     1       4.373  13.464  -2.482  1.00  0.00     0.031 A 
ATOM     56  C   UNL     1      10.758  12.708  -1.269  1.00  0.00     0.049 A 
ATOM     57  C   UNL     1       5.469  14.412  -2.077  1.00  0.00     0.074 A 
ATOM     58  C   UNL     1      11.682  13.684  -0.943  1.00  0.00     0.029 A 
ATOM     59  N   UNL     1       9.534  13.343  -1.415  1.00  0.00    -0.354 N 
ATOM     60  N   UNL     1       6.739  14.161  -1.863  1.00  0.00    -0.248 NA
ATOM     61  C   UNL     1       5.094  15.822  -1.902  1.00  0.00     0.031 C 
ATOM     62  C   UNL     1      11.007  14.905  -0.848  1.00  0.00     0.029 A 
ATOM     63  C   UNL     1       9.675  14.697  -1.171  1.00  0.00     0.049 A 
ATOM     64  H   UNL     1       8.691  12.896  -1.656  1.00  0.00     0.167 HD
ATOM     65  C   UNL     1       7.321  15.386  -1.560  1.00  0.00     0.074 A 
ATOM     66  C   UNL     1       6.267  16.378  -1.630  1.00  0.00     0.031 C 
ATOM     67  C   UNL     1       8.612  15.667  -1.253  1.00  0.00     0.031 A 
BRANCH  54  68
ATOM     68  C   UNL     1      12.347  10.735  -1.195  1.00  0.00    -0.014 A 
ATOM     69  C   UNL     1      13.132  10.241  -2.254  1.00  0.00     0.010 A 
ATOM     70  C   UNL     1      12.871  10.716   0.109  1.00  0.00     0.010 A 
ATOM     71  C   UNL     1      14.393   9.695  -2.007  1.00  0.00     0.020 A 
ATOM     72  C   UNL     1      14.146  10.200   0.357  1.00  0.00     0.020 A 
ATOM     73  C   UNL     1      14.891   9.675  -0.701  1.00  0.00     0.054 A 
BRANCH  73  74
ATOM     74  S   UNL     1      16.540   8.978  -0.411  1.00  0.00     0.124 S 
ATOM     75  O   UNL     1      16.293   7.547  -0.564  1.00  0.00    -0.237 OA
ATOM     76  O   UNL     1      17.339   9.593  -1.469  1.00  0.00    -0.237 OA
ATOM     77  O   UNL     1      16.868   9.413   0.944  1.00  0.00    -0.744 OA
ENDBRANCH  73  74
ENDBRANCH  54  68
BRANCH  55  78
ATOM     78  C   UNL     1       2.979  13.945  -2.686  1.00  0.00    -0.014 A 
ATOM     79  C   UNL     1       2.662  14.772  -3.779  1.00  0.00     0.010 A 
ATOM     80  C   UNL     1       1.957  13.569  -1.796  1.00  0.00     0.010 A 
ATOM     81  C   UNL     1       1.355  15.231  -3.965  1.00  0.00     0.020 A 
ATOM     82  C   UNL     1       0.643  14.004  -1.994  1.00  0.00     0.020 A 
ATOM     83  C   UNL     1       0.353  14.843  -3.072  1.00  0.00     0.054 A 
BRANCH  83  84
ATOM     84  S   UNL     1      -1.346  15.413  -3.361  1.00  0.00     0.124 S 
ATOM     85  O   UNL     1      -1.265  16.817  -2.972  1.00  0.00    -0.237 OA
ATOM     86  O   UNL     1      -1.525  15.160  -4.789  1.00  0.00    -0.237 OA
ATOM     87  O   UNL     1      -2.145  14.563  -2.481  1.00  0.00    -0.744 OA
ENDBRANCH  83  84
ENDBRANCH  55  78
BRANCH  67  88
ATOM     88  C   UNL     1       8.968  17.110  -1.015  1.00  0.00    -0.014 A 
ATOM     89  C   UNL     1       8.564  17.780   0.152  1.00  0.00     0.010 A 
ATOM     90  C   UNL     1       9.771  17.785  -1.954  1.00  0.00     0.010 A 
ATOM     91  C   UNL     1       8.928  19.113   0.360  1.00  0.00     0.020 A 
ATOM     92  C   UNL     1      10.160  19.108  -1.736  1.00  0.00     0.020 A 
ATOM     93  C   UNL     1       9.722  19.769  -0.586  1.00  0.00     0.054 A 
BRANCH  93  94
ATOM     94  S   UNL     1      10.214  21.486  -0.275  1.00  0.00     0.124 S 
ATOM     95  O   UNL     1       8.974  22.210  -0.541  1.00  0.00    -0.237 OA
ATOM     96  O   UNL     1      10.634  21.451   1.124  1.00  0.00    -0.237 OA
ATOM     97  O   UNL     1      11.290  21.718  -1.236  1.00  0.00    -0.744 OA
ENDBRANCH  93  94
ENDBRANCH  67  88
ENDBRANCH  41  42
ENDBRANCH  33  36
ENDBRANCH  31  32
ENDBRANCH  30  31
ENDBRANCH   1  30
TORSDOF 18
