REMARK SMILES C[N@H+](CC(=O)NCCCNC(=O)c1ccc(-c2c3nc(c(-c4ccc(S(=O)(=O)[O-])cc4)c4ccc([nH]4)c(-c4ccc(S(=O)(=O)[O-])cc4)c4nc(c(-c5ccc(S(=O)(=O)[O-])cc5)c5ccc2[nH]5)C=C4)C=C3)cc1)Cc1cccc2c1OCCO2
REMARK SMILES IDX 8 1 7 2 6 3 4 4 5 5 3 7 2 8 1 9 73 11 74 12 75 13 79 14
REMARK SMILES IDX 76 15 78 16 80 17 77 18 83 19 81 20 82 21 9 22 10 23 11 24
REMARK SMILES IDX 12 26 13 27 14 28 72 29 15 30 71 31 16 32 17 33 18 34 65 35
REMARK SMILES IDX 19 36 70 37 64 38 66 39 20 40 69 41 63 42 62 43 21 45 51 46
REMARK SMILES IDX 32 47 50 48 33 49 36 50 49 51 67 52 34 53 35 54 48 56 68 57
REMARK SMILES IDX 37 58 22 59 23 60 31 61 24 62 30 63 25 64 26 65 27 66 28 67
REMARK SMILES IDX 29 68 52 69 53 70 61 71 54 72 60 73 55 74 56 75 57 76 58 77
REMARK SMILES IDX 59 78 38 79 39 80 47 81 40 82 46 83 41 84 42 85 43 86 44 87
REMARK SMILES IDX 45 88
REMARK H PARENT 6 6 2 10 10 25 66 44 36 55
REMARK Flexibility Score: inf
ROOT
ATOM      1  C   UNL     1       0.323  -1.997  -1.534  1.00  0.00     0.042 C 
ENDROOT
BRANCH   1   2
ATOM      2  C   UNL     1      -0.902  -1.087  -1.497  1.00  0.00     0.118 C 
BRANCH   2   3
ATOM      3  N   UNL     1      -1.698  -1.217  -0.290  1.00  0.00    -0.351 N 
ATOM      4  C   UNL     1      -1.810  -0.366   0.775  1.00  0.00     0.275 C 
ATOM      5  O   UNL     1      -2.708  -0.579   1.597  1.00  0.00    -0.269 OA
ATOM      6  H   UNL     1      -2.238  -2.039  -0.229  1.00  0.00     0.163 HD
BRANCH   4   7
ATOM      7  C   UNL     1      -0.880   0.846   0.914  1.00  0.00     0.363 C 
BRANCH   7   8
ATOM      8  N   UNL     1       0.494   0.432   1.157  1.00  0.00    -0.326 N 
ATOM      9  C   UNL     1       1.540   0.930   0.299  1.00  0.00     0.333 C 
ATOM     10  H   UNL     1       0.357  -0.484   0.729  1.00  0.00     0.348 HD
BRANCH   8  11
ATOM     11  C   UNL     1       0.884  -0.007   2.490  1.00  0.00     0.303 C 
BRANCH  11  12
ATOM     12  C   UNL     1       0.608  -1.477   2.705  1.00  0.00     0.052 A 
ATOM     13  C   UNL     1      -0.563  -1.867   3.379  1.00  0.00     0.014 A 
ATOM     14  C   UNL     1       1.450  -2.472   2.183  1.00  0.00     0.170 A 
ATOM     15  C   UNL     1      -0.923  -3.211   3.472  1.00  0.00     0.005 A 
ATOM     16  C   UNL     1       1.089  -3.821   2.294  1.00  0.00     0.161 A 
ATOM     17  O   UNL     1       2.621  -2.069   1.587  1.00  0.00    -0.486 OA
ATOM     18  C   UNL     1      -0.105  -4.188   2.912  1.00  0.00     0.050 A 
ATOM     19  O   UNL     1       1.857  -4.846   1.802  1.00  0.00    -0.486 OA
ATOM     20  C   UNL     1       3.301  -3.127   0.903  1.00  0.00     0.271 C 
ATOM     21  C   UNL     1       3.220  -4.431   1.674  1.00  0.00     0.271 C 
ENDBRANCH  11  12
ENDBRANCH   8  11
ENDBRANCH   7   8
ENDBRANCH   4   7
ENDBRANCH   2   3
ENDBRANCH   1   2
BRANCH   1  22
ATOM     22  C   UNL     1       0.021  -3.491  -1.494  1.00  0.00     0.118 C 
BRANCH  22  23
ATOM     23  N   UNL     1      -0.456  -4.006  -2.770  1.00  0.00    -0.352 N 
ATOM     24  C   UNL     1       0.148  -4.818  -3.700  1.00  0.00     0.251 C 
ATOM     25  H   UNL     1      -1.369  -3.724  -3.007  1.00  0.00     0.163 HD
ATOM     26  O   UNL     1      -0.403  -4.971  -4.790  1.00  0.00    -0.269 OA
BRANCH  24  27
ATOM     27  C   UNL     1       1.447  -5.493  -3.443  1.00  0.00     0.039 A 
ATOM     28  C   UNL     1       2.351  -5.615  -4.507  1.00  0.00     0.014 A 
ATOM     29  C   UNL     1       1.762  -6.080  -2.215  1.00  0.00     0.014 A 
ATOM     30  C   UNL     1       3.575  -6.272  -4.327  1.00  0.00     0.010 A 
ATOM     31  C   UNL     1       3.013  -6.674  -2.015  1.00  0.00     0.010 A 
ATOM     32  C   UNL     1       3.931  -6.787  -3.071  1.00  0.00    -0.014 A 
BRANCH  32  33
ATOM     33  C   UNL     1       5.243  -7.461  -2.861  1.00  0.00     0.031 A 
ATOM     34  C   UNL     1       5.306  -8.926  -2.509  1.00  0.00     0.074 A 
ATOM     35  C   UNL     1       6.386  -6.752  -2.950  1.00  0.00     0.049 A 
ATOM     36  N   UNL     1       6.355  -9.669  -2.258  1.00  0.00    -0.248 NA
ATOM     37  C   UNL     1       4.026  -9.644  -2.405  1.00  0.00     0.031 C 
ATOM     38  C   UNL     1       6.476  -5.322  -3.253  1.00  0.00     0.029 A 
ATOM     39  N   UNL     1       7.695  -7.139  -2.789  1.00  0.00    -0.354 N 
ATOM     40  C   UNL     1       5.862 -10.932  -1.948  1.00  0.00     0.074 A 
ATOM     41  C   UNL     1       4.419 -10.844  -2.004  1.00  0.00     0.031 C 
ATOM     42  C   UNL     1       7.769  -4.958  -3.278  1.00  0.00     0.029 A 
ATOM     43  C   UNL     1       8.599  -6.117  -2.961  1.00  0.00     0.049 A 
ATOM     44  H   UNL     1       7.961  -8.062  -2.572  1.00  0.00     0.167 HD
ATOM     45  C   UNL     1       6.544 -12.068  -1.659  1.00  0.00     0.031 A 
ATOM     46  C   UNL     1       9.944  -6.105  -2.871  1.00  0.00     0.031 A 
ATOM     47  C   UNL     1       7.979 -12.170  -1.622  1.00  0.00     0.049 A 
ATOM     48  C   UNL     1      10.680  -7.378  -2.555  1.00  0.00     0.074 A 
ATOM     49  C   UNL     1       8.755 -13.295  -1.397  1.00  0.00     0.029 A 
ATOM     50  N   UNL     1       8.855 -11.114  -1.813  1.00  0.00    -0.354 N 
ATOM     51  N   UNL     1      10.194  -8.573  -2.324  1.00  0.00    -0.248 NA
ATOM     52  C   UNL     1      12.147  -7.301  -2.499  1.00  0.00     0.031 C 
ATOM     53  C   UNL     1      10.100 -12.909  -1.411  1.00  0.00     0.029 A 
ATOM     54  C   UNL     1      10.162 -11.554  -1.691  1.00  0.00     0.049 A 
ATOM     55  H   UNL     1       8.587 -10.186  -2.008  1.00  0.00     0.167 HD
ATOM     56  C   UNL     1      11.297  -9.396  -2.117  1.00  0.00     0.074 A 
ATOM     57  C   UNL     1      12.474  -8.565  -2.263  1.00  0.00     0.031 C 
ATOM     58  C   UNL     1      11.328 -10.721  -1.833  1.00  0.00     0.031 A 
BRANCH  45  59
ATOM     59  C   UNL     1       5.737 -13.301  -1.349  1.00  0.00    -0.014 A 
ATOM     60  C   UNL     1       5.038 -13.985  -2.360  1.00  0.00     0.010 A 
ATOM     61  C   UNL     1       5.708 -13.805  -0.035  1.00  0.00     0.010 A 
ATOM     62  C   UNL     1       4.287 -15.123  -2.055  1.00  0.00     0.020 A 
ATOM     63  C   UNL     1       4.979 -14.959   0.268  1.00  0.00     0.020 A 
ATOM     64  C   UNL     1       4.257 -15.599  -0.741  1.00  0.00     0.054 A 
BRANCH  64  65
ATOM     65  S   UNL     1       3.284 -17.086  -0.374  1.00  0.00     0.124 S 
ATOM     66  O   UNL     1       1.921 -16.564  -0.390  1.00  0.00    -0.237 OA
ATOM     67  O   UNL     1       3.628 -17.977  -1.479  1.00  0.00    -0.237 OA
ATOM     68  O   UNL     1       3.776 -17.506   0.937  1.00  0.00    -0.744 OA
ENDBRANCH  64  65
ENDBRANCH  45  59
BRANCH  46  69
ATOM     69  C   UNL     1      10.687  -4.836  -3.098  1.00  0.00    -0.014 A 
ATOM     70  C   UNL     1      11.426  -4.643  -4.279  1.00  0.00     0.010 A 
ATOM     71  C   UNL     1      10.643  -3.807  -2.140  1.00  0.00     0.010 A 
ATOM     72  C   UNL     1      12.116  -3.447  -4.493  1.00  0.00     0.020 A 
ATOM     73  C   UNL     1      11.312  -2.601  -2.362  1.00  0.00     0.020 A 
ATOM     74  C   UNL     1      12.053  -2.432  -3.534  1.00  0.00     0.054 A 
BRANCH  74  75
ATOM     75  S   UNL     1      12.900  -0.861  -3.860  1.00  0.00     0.124 S 
ATOM     76  O   UNL     1      14.291  -1.204  -3.586  1.00  0.00    -0.237 OA
ATOM     77  O   UNL     1      12.573  -0.608  -5.261  1.00  0.00    -0.237 OA
ATOM     78  O   UNL     1      12.282   0.061  -2.909  1.00  0.00    -0.744 OA
ENDBRANCH  74  75
ENDBRANCH  46  69
BRANCH  58  79
ATOM     79  C   UNL     1      12.679 -11.367  -1.683  1.00  0.00    -0.014 A 
ATOM     80  C   UNL     1      13.466 -11.150  -0.538  1.00  0.00     0.010 A 
ATOM     81  C   UNL     1      13.145 -12.245  -2.679  1.00  0.00     0.010 A 
ATOM     82  C   UNL     1      14.707 -11.779  -0.404  1.00  0.00     0.020 A 
ATOM     83  C   UNL     1      14.374 -12.894  -2.538  1.00  0.00     0.020 A 
ATOM     84  C   UNL     1      15.155 -12.646  -1.407  1.00  0.00     0.054 A 
BRANCH  84  85
ATOM     85  S   UNL     1      16.749 -13.485  -1.192  1.00  0.00     0.124 S 
ATOM     86  O   UNL     1      17.697 -12.417  -1.493  1.00  0.00    -0.237 OA
ATOM     87  O   UNL     1      16.704 -13.910   0.206  1.00  0.00    -0.237 OA
ATOM     88  O   UNL     1      16.701 -14.572  -2.167  1.00  0.00    -0.744 OA
ENDBRANCH  84  85
ENDBRANCH  58  79
ENDBRANCH  32  33
ENDBRANCH  24  27
ENDBRANCH  22  23
ENDBRANCH   1  22
TORSDOF 16
