REMARK SMILES Cc1n[nH]c(C[N@H+]2CCC[C@H](c3cccc(C(=O)NCCCNC(=O)c4ccc(-c5c6nc(c(-c7ccc(S(=O)(=O)[O-])cc7)c7ccc([nH]7)c(-c7ccc(S(=O)(=O)[O-])cc7)c7nc(c(-c8ccc(S(=O)(=O)[O-])cc8)c8ccc5[nH]8)C=C7)C=C6)cc4)c3)C2)n1
REMARK SMILES IDX 21 1 20 2 19 3 17 4 18 5 16 7 12 8 13 9 86 10 14 11 15 12
REMARK SMILES IDX 11 13 7 14 8 15 87 16 9 18 10 19 6 20 5 21 1 22 2 23 3 24
REMARK SMILES IDX 88 25 4 26 22 28 23 29 24 30 25 32 26 33 27 34 85 35 28 36
REMARK SMILES IDX 84 37 29 38 30 39 31 40 78 41 32 42 83 43 77 44 79 45 33 46
REMARK SMILES IDX 82 47 76 48 75 49 34 51 64 52 45 53 63 54 46 55 49 56 62 57
REMARK SMILES IDX 80 58 47 59 48 60 61 62 81 63 50 64 35 65 36 66 44 67 37 68
REMARK SMILES IDX 43 69 38 70 39 71 40 72 41 73 42 74 65 75 66 76 74 77 67 78
REMARK SMILES IDX 73 79 68 80 69 81 70 82 71 83 72 84 51 85 52 86 60 87 53 88
REMARK SMILES IDX 59 89 54 90 55 91 56 92 57 93 58 94
REMARK H PARENT 19 6 7 17 4 27 23 31 79 50 49 61
REMARK Flexibility Score: inf
ROOT
ATOM      1  C   UNL     1       8.996   5.035  -0.052  1.00  0.00     0.042 C 
ENDROOT
BRANCH   1   2
ATOM      2  C   UNL     1       8.828   6.184   0.955  1.00  0.00     0.118 C 
BRANCH   2   3
ATOM      3  N   UNL     1       8.788   7.491   0.317  1.00  0.00    -0.352 N 
ATOM      4  C   UNL     1       7.774   8.268  -0.192  1.00  0.00     0.251 C 
ATOM      5  O   UNL     1       8.073   9.412  -0.537  1.00  0.00    -0.269 OA
ATOM      6  H   UNL     1       9.675   7.908   0.232  1.00  0.00     0.163 HD
BRANCH   4   7
ATOM      7  C   UNL     1       6.353   7.828  -0.329  1.00  0.00     0.040 A 
ATOM      8  C   UNL     1       4.560   6.152  -0.183  1.00  0.00    -0.039 A 
ATOM      9  C   UNL     1       3.634   7.124  -0.566  1.00  0.00     0.004 A 
ATOM     10  C   UNL     1       5.913   6.523  -0.128  1.00  0.00     0.018 A 
ATOM     11  C   UNL     1       4.051   8.427  -0.841  1.00  0.00     0.001 A 
ATOM     12  C   UNL     1       5.397   8.780  -0.705  1.00  0.00     0.014 A 
BRANCH   8  13
ATOM     13  C   UNL     1       4.222   4.704   0.149  1.00  0.00     0.074 C 
ATOM     14  N   UNL     1       1.893   4.873   1.091  1.00  0.00    -0.328 N 
ATOM     15  C   UNL     1       2.360   4.482   2.425  1.00  0.00     0.262 C 
ATOM     16  C   UNL     1       2.742   4.302   0.024  1.00  0.00     0.270 C 
ATOM     17  H   UNL     1       1.978   5.889   1.048  1.00  0.00     0.348 HD
ATOM     18  C   UNL     1       3.826   4.856   2.651  1.00  0.00     0.062 C 
ATOM     19  C   UNL     1       4.715   4.280   1.553  1.00  0.00     0.020 C 
BRANCH  14  20
ATOM     20  C   UNL     1       0.466   4.564   0.866  1.00  0.00     0.340 C 
BRANCH  20  21
ATOM     21  C   UNL     1       0.154   3.104   0.848  1.00  0.00     0.179 A 
ATOM     22  C   UNL     1       0.721  -0.262   0.015  1.00  0.00     0.092 C 
ATOM     23  C   UNL     1       0.236   1.019   0.563  1.00  0.00     0.147 A 
ATOM     24  N   UNL     1      -0.435   1.130   1.716  1.00  0.00    -0.159 NA
ATOM     25  N   UNL     1       0.547   2.207  -0.033  1.00  0.00    -0.211 NA
ATOM     26  N   UNL     1      -0.496   2.465   1.863  1.00  0.00    -0.258 N 
ATOM     27  H   UNL     1      -0.952   2.922   2.606  1.00  0.00     0.192 HD
ENDBRANCH  20  21
ENDBRANCH  14  20
ENDBRANCH   8  13
ENDBRANCH   4   7
ENDBRANCH   2   3
ENDBRANCH   1   2
BRANCH   1  28
ATOM     28  C   UNL     1      10.456   4.750  -0.355  1.00  0.00     0.118 C 
BRANCH  28  29
ATOM     29  N   UNL     1      11.148   4.195   0.806  1.00  0.00    -0.352 N 
ATOM     30  C   UNL     1      12.492   3.931   0.976  1.00  0.00     0.251 C 
ATOM     31  H   UNL     1      10.573   3.978   1.576  1.00  0.00     0.163 HD
ATOM     32  O   UNL     1      12.865   3.209   1.883  1.00  0.00    -0.269 OA
BRANCH  30  33
ATOM     33  C   UNL     1      13.453   4.503   0.015  1.00  0.00     0.039 A 
ATOM     34  C   UNL     1      14.469   3.703  -0.508  1.00  0.00     0.014 A 
ATOM     35  C   UNL     1      13.294   5.820  -0.408  1.00  0.00     0.014 A 
ATOM     36  C   UNL     1      15.253   4.206  -1.542  1.00  0.00     0.010 A 
ATOM     37  C   UNL     1      13.979   6.267  -1.517  1.00  0.00     0.010 A 
ATOM     38  C   UNL     1      14.977   5.476  -2.078  1.00  0.00    -0.014 A 
BRANCH  38  39
ATOM     39  C   UNL     1      15.662   5.904  -3.297  1.00  0.00     0.031 A 
ATOM     40  C   UNL     1      15.674   4.908  -4.408  1.00  0.00     0.074 A 
ATOM     41  C   UNL     1      16.120   7.152  -3.530  1.00  0.00     0.049 A 
ATOM     42  N   UNL     1      16.684   4.233  -4.845  1.00  0.00    -0.248 NA
ATOM     43  C   UNL     1      14.394   4.531  -5.027  1.00  0.00     0.031 C 
ATOM     44  C   UNL     1      15.943   8.367  -2.729  1.00  0.00     0.029 A 
ATOM     45  N   UNL     1      16.772   7.612  -4.632  1.00  0.00    -0.354 N 
ATOM     46  C   UNL     1      16.223   3.489  -5.927  1.00  0.00     0.074 A 
ATOM     47  C   UNL     1      14.785   3.593  -5.895  1.00  0.00     0.031 C 
ATOM     48  C   UNL     1      16.247   9.448  -3.481  1.00  0.00     0.029 A 
ATOM     49  C   UNL     1      16.813   8.994  -4.737  1.00  0.00     0.049 A 
ATOM     50  H   UNL     1      17.180   7.014  -5.298  1.00  0.00     0.167 HD
ATOM     51  C   UNL     1      17.071   3.012  -6.884  1.00  0.00     0.031 A 
ATOM     52  C   UNL     1      17.254   9.714  -5.798  1.00  0.00     0.031 A 
ATOM     53  C   UNL     1      18.448   3.101  -6.468  1.00  0.00     0.049 A 
ATOM     54  C   UNL     1      18.163   8.832  -6.571  1.00  0.00     0.074 A 
ATOM     55  C   UNL     1      19.173   2.615  -5.397  1.00  0.00     0.029 A 
ATOM     56  N   UNL     1      19.204   4.123  -6.997  1.00  0.00    -0.354 N 
ATOM     57  N   UNL     1      19.307   8.402  -6.111  1.00  0.00    -0.248 NA
ATOM     58  C   UNL     1      17.607   8.061  -7.672  1.00  0.00     0.031 C 
ATOM     59  C   UNL     1      20.040   3.687  -5.031  1.00  0.00     0.029 A 
ATOM     60  C   UNL     1      19.847   4.725  -5.946  1.00  0.00     0.049 A 
ATOM     61  H   UNL     1      19.271   4.374  -7.947  1.00  0.00     0.167 HD
ATOM     62  C   UNL     1      19.399   7.090  -6.553  1.00  0.00     0.074 A 
ATOM     63  C   UNL     1      18.372   6.969  -7.588  1.00  0.00     0.031 C 
ATOM     64  C   UNL     1      20.107   6.147  -5.860  1.00  0.00     0.031 A 
BRANCH  51  65
ATOM     65  C   UNL     1      16.697   2.817  -8.335  1.00  0.00    -0.014 A 
ATOM     66  C   UNL     1      17.668   2.302  -9.222  1.00  0.00     0.010 A 
ATOM     67  C   UNL     1      15.542   3.379  -8.912  1.00  0.00     0.010 A 
ATOM     68  C   UNL     1      17.531   2.433 -10.610  1.00  0.00     0.020 A 
ATOM     69  C   UNL     1      15.374   3.473 -10.296  1.00  0.00     0.020 A 
ATOM     70  C   UNL     1      16.390   3.037 -11.136  1.00  0.00     0.054 A 
BRANCH  70  71
ATOM     71  S   UNL     1      16.279   3.316 -12.921  1.00  0.00     0.124 S 
ATOM     72  O   UNL     1      17.324   4.312 -13.133  1.00  0.00    -0.237 OA
ATOM     73  O   UNL     1      16.550   1.986 -13.460  1.00  0.00    -0.237 OA
ATOM     74  O   UNL     1      14.909   3.791 -13.107  1.00  0.00    -0.744 OA
ENDBRANCH  70  71
ENDBRANCH  51  65
BRANCH  52  75
ATOM     75  C   UNL     1      16.686  10.978  -6.331  1.00  0.00    -0.014 A 
ATOM     76  C   UNL     1      17.348  11.696  -7.343  1.00  0.00     0.010 A 
ATOM     77  C   UNL     1      15.352  11.334  -6.041  1.00  0.00     0.010 A 
ATOM     78  C   UNL     1      16.676  12.681  -8.088  1.00  0.00     0.020 A 
ATOM     79  C   UNL     1      14.680  12.321  -6.771  1.00  0.00     0.020 A 
ATOM     80  C   UNL     1      15.337  12.970  -7.812  1.00  0.00     0.054 A 
BRANCH  80  81
ATOM     81  S   UNL     1      14.420  14.095  -8.906  1.00  0.00     0.124 S 
ATOM     82  O   UNL     1      15.000  15.393  -8.574  1.00  0.00    -0.237 OA
ATOM     83  O   UNL     1      14.740  13.580 -10.233  1.00  0.00    -0.237 OA
ATOM     84  O   UNL     1      13.028  13.915  -8.496  1.00  0.00    -0.744 OA
ENDBRANCH  80  81
ENDBRANCH  52  75
BRANCH  64  85
ATOM     85  C   UNL     1      21.038   6.585  -4.751  1.00  0.00    -0.014 A 
ATOM     86  C   UNL     1      20.628   7.319  -3.622  1.00  0.00     0.010 A 
ATOM     87  C   UNL     1      22.350   6.074  -4.774  1.00  0.00     0.010 A 
ATOM     88  C   UNL     1      21.514   7.551  -2.556  1.00  0.00     0.020 A 
ATOM     89  C   UNL     1      23.229   6.284  -3.709  1.00  0.00     0.020 A 
ATOM     90  C   UNL     1      22.810   7.029  -2.607  1.00  0.00     0.054 A 
BRANCH  90  91
ATOM     91  S   UNL     1      23.933   7.280  -1.204  1.00  0.00     0.124 S 
ATOM     92  O   UNL     1      24.206   8.713  -1.268  1.00  0.00    -0.237 OA
ATOM     93  O   UNL     1      23.133   6.842  -0.062  1.00  0.00    -0.237 OA
ATOM     94  O   UNL     1      25.076   6.420  -1.512  1.00  0.00    -0.744 OA
ENDBRANCH  90  91
ENDBRANCH  64  85
ENDBRANCH  38  39
ENDBRANCH  30  33
ENDBRANCH  28  29
ENDBRANCH   1  28
TORSDOF 16
