REMARK SMILES C[C@@H](CC(=O)NCCCNC(=O)c1ccc(-c2c3nc(c(-c4ccc(S(=O)(=O)[O-])cc4)c4ccc([nH]4)c(-c4ccc(S(=O)(=O)[O-])cc4)c4nc(c(-c5ccc(S(=O)(=O)[O-])cc5)c5ccc2[nH]5)C=C4)C=C3)cc1)NC(=O)CN(C)c1ncccn1
REMARK SMILES IDX 7 1 6 2 4 3 5 4 3 6 2 7 1 8 73 9 74 10 75 12 76 13 77 14
REMARK SMILES IDX 78 15 79 16 80 17 84 18 81 19 83 20 82 21 8 22 9 23 10 24
REMARK SMILES IDX 11 25 12 27 13 28 14 29 72 30 15 31 71 32 16 33 17 34 18 35
REMARK SMILES IDX 65 36 19 37 70 38 64 39 66 40 20 41 69 42 63 43 62 44 21 46
REMARK SMILES IDX 51 47 32 48 50 49 33 50 36 51 49 52 67 53 34 54 35 55 48 57
REMARK SMILES IDX 68 58 37 59 22 60 23 61 31 62 24 63 30 64 25 65 26 66 27 67
REMARK SMILES IDX 28 68 29 69 52 70 53 71 61 72 54 73 60 74 55 75 56 76 57 77
REMARK SMILES IDX 58 78 59 79 38 80 39 81 47 82 40 83 46 84 41 85 42 86 43 87
REMARK SMILES IDX 44 88 45 89
REMARK H PARENT 6 5 73 11 10 26 66 45 36 56
REMARK Flexibility Score: inf
ROOT
ATOM      1  C   UNL     1       1.924   0.770  -2.436  1.00  0.00     0.117 C 
ENDROOT
BRANCH   1   2
ATOM      2  N   UNL     1       0.833   1.726  -2.329  1.00  0.00    -0.356 N 
ATOM      3  C   UNL     1       0.351   2.425  -1.267  1.00  0.00     0.222 C 
ATOM      4  O   UNL     1      -0.655   3.116  -1.444  1.00  0.00    -0.275 OA
ATOM      5  H   UNL     1       0.359   1.897  -3.175  1.00  0.00     0.163 HD
BRANCH   3   6
ATOM      6  C   UNL     1       1.022   2.382   0.090  1.00  0.00     0.124 C 
BRANCH   6   7
ATOM      7  C   UNL     1       0.423   1.365   1.076  1.00  0.00     0.088 C 
ATOM      8  C   UNL     1       0.721  -0.065   0.649  1.00  0.00     0.031 C 
BRANCH   7   9
ATOM      9  N   UNL     1      -1.011   1.554   1.260  1.00  0.00    -0.352 N 
ATOM     10  C   UNL     1      -1.805   1.252   2.334  1.00  0.00     0.239 C 
ATOM     11  H   UNL     1      -1.480   1.960   0.496  1.00  0.00     0.163 HD
ATOM     12  O   UNL     1      -3.019   1.450   2.216  1.00  0.00    -0.273 OA
BRANCH  10  13
ATOM     13  C   UNL     1      -1.193   0.869   3.688  1.00  0.00     0.219 C 
BRANCH  13  14
ATOM     14  N   UNL     1      -0.327  -0.306   3.698  1.00  0.00    -0.335 N 
ATOM     15  C   UNL     1       0.962  -0.257   4.352  1.00  0.00     0.147 C 
BRANCH  14  16
ATOM     16  C   UNL     1      -0.890  -1.551   3.492  1.00  0.00     0.225 A 
ATOM     17  N   UNL     1      -0.254  -2.634   3.977  1.00  0.00    -0.221 NA
ATOM     18  N   UNL     1      -2.010  -1.643   2.763  1.00  0.00    -0.221 NA
ATOM     19  C   UNL     1      -0.787  -3.845   3.717  1.00  0.00     0.117 A 
ATOM     20  C   UNL     1      -2.490  -2.875   2.498  1.00  0.00     0.117 A 
ATOM     21  C   UNL     1      -1.914  -4.028   2.961  1.00  0.00     0.040 A 
ENDBRANCH  14  16
ENDBRANCH  13  14
ENDBRANCH  10  13
ENDBRANCH   7   9
ENDBRANCH   6   7
ENDBRANCH   3   6
ENDBRANCH   1   2
BRANCH   1  22
ATOM     22  C   UNL     1       1.416  -0.653  -2.665  1.00  0.00     0.042 C 
BRANCH  22  23
ATOM     23  C   UNL     1       0.764  -0.872  -4.023  1.00  0.00     0.118 C 
BRANCH  23  24
ATOM     24  N   UNL     1       1.749  -1.093  -5.065  1.00  0.00    -0.352 N 
ATOM     25  C   UNL     1       2.023  -2.233  -5.781  1.00  0.00     0.251 C 
ATOM     26  H   UNL     1       2.302  -0.311  -5.293  1.00  0.00     0.163 HD
ATOM     27  O   UNL     1       3.062  -2.286  -6.441  1.00  0.00    -0.269 OA
BRANCH  25  28
ATOM     28  C   UNL     1       1.103  -3.397  -5.756  1.00  0.00     0.039 A 
ATOM     29  C   UNL     1       1.647  -4.685  -5.755  1.00  0.00     0.014 A 
ATOM     30  C   UNL     1      -0.285  -3.237  -5.790  1.00  0.00     0.014 A 
ATOM     31  C   UNL     1       0.805  -5.802  -5.745  1.00  0.00     0.010 A 
ATOM     32  C   UNL     1      -1.123  -4.348  -5.697  1.00  0.00     0.010 A 
ATOM     33  C   UNL     1      -0.589  -5.645  -5.693  1.00  0.00    -0.014 A 
BRANCH  33  34
ATOM     34  C   UNL     1      -1.500  -6.822  -5.675  1.00  0.00     0.031 A 
ATOM     35  C   UNL     1      -2.460  -7.052  -6.816  1.00  0.00     0.074 A 
ATOM     36  C   UNL     1      -1.496  -7.663  -4.622  1.00  0.00     0.049 A 
ATOM     37  N   UNL     1      -3.369  -7.984  -6.954  1.00  0.00    -0.248 NA
ATOM     38  C   UNL     1      -2.408  -6.097  -7.936  1.00  0.00     0.031 C 
ATOM     39  C   UNL     1      -0.642  -7.538  -3.438  1.00  0.00     0.029 A 
ATOM     40  N   UNL     1      -2.239  -8.791  -4.374  1.00  0.00    -0.354 N 
ATOM     41  C   UNL     1      -4.005  -7.718  -8.162  1.00  0.00     0.074 A 
ATOM     42  C   UNL     1      -3.412  -6.511  -8.695  1.00  0.00     0.031 C 
ATOM     43  C   UNL     1      -0.891  -8.562  -2.605  1.00  0.00     0.029 A 
ATOM     44  C   UNL     1      -1.947  -9.395  -3.174  1.00  0.00     0.049 A 
ATOM     45  H   UNL     1      -2.918  -9.135  -4.998  1.00  0.00     0.167 HD
ATOM     46  C   UNL     1      -4.978  -8.425  -8.786  1.00  0.00     0.031 A 
ATOM     47  C   UNL     1      -2.472 -10.490  -2.591  1.00  0.00     0.031 A 
ATOM     48  C   UNL     1      -5.551  -9.639  -8.272  1.00  0.00     0.049 A 
ATOM     49  C   UNL     1      -3.554 -11.256  -3.303  1.00  0.00     0.074 A 
ATOM     50  C   UNL     1      -6.509 -10.452  -8.854  1.00  0.00     0.029 A 
ATOM     51  N   UNL     1      -5.216 -10.221  -7.060  1.00  0.00    -0.354 N 
ATOM     52  N   UNL     1      -4.106 -11.012  -4.467  1.00  0.00    -0.248 NA
ATOM     53  C   UNL     1      -4.076 -12.453  -2.626  1.00  0.00     0.031 C 
ATOM     54  C   UNL     1      -6.781 -11.505  -7.975  1.00  0.00     0.029 A 
ATOM     55  C   UNL     1      -5.957 -11.375  -6.869  1.00  0.00     0.049 A 
ATOM     56  H   UNL     1      -4.550  -9.867  -6.428  1.00  0.00     0.167 HD
ATOM     57  C   UNL     1      -5.021 -12.039  -4.673  1.00  0.00     0.074 A 
ATOM     58  C   UNL     1      -4.937 -12.914  -3.523  1.00  0.00     0.031 C 
ATOM     59  C   UNL     1      -5.857 -12.239  -5.722  1.00  0.00     0.031 A 
BRANCH  46  60
ATOM     60  C   UNL     1      -5.479  -7.906 -10.108  1.00  0.00    -0.014 A 
ATOM     61  C   UNL     1      -4.681  -7.981 -11.263  1.00  0.00     0.010 A 
ATOM     62  C   UNL     1      -6.784  -7.388 -10.210  1.00  0.00     0.010 A 
ATOM     63  C   UNL     1      -5.165  -7.519 -12.490  1.00  0.00     0.020 A 
ATOM     64  C   UNL     1      -7.281  -6.948 -11.440  1.00  0.00     0.020 A 
ATOM     65  C   UNL     1      -6.462  -7.004 -12.570  1.00  0.00     0.054 A 
BRANCH  65  66
ATOM     66  S   UNL     1      -7.077  -6.446 -14.183  1.00  0.00     0.124 S 
ATOM     67  O   UNL     1      -6.349  -5.192 -14.364  1.00  0.00    -0.237 OA
ATOM     68  O   UNL     1      -6.680  -7.535 -15.072  1.00  0.00    -0.237 OA
ATOM     69  O   UNL     1      -8.516  -6.307 -13.977  1.00  0.00    -0.744 OA
ENDBRANCH  65  66
ENDBRANCH  46  60
BRANCH  47  70
ATOM     70  C   UNL     1      -1.982 -10.937  -1.258  1.00  0.00    -0.014 A 
ATOM     71  C   UNL     1      -1.222 -12.113  -1.133  1.00  0.00     0.010 A 
ATOM     72  C   UNL     1      -2.285 -10.193  -0.104  1.00  0.00     0.010 A 
ATOM     73  C   UNL     1      -0.797 -12.552   0.125  1.00  0.00     0.020 A 
ATOM     74  C   UNL     1      -1.840 -10.614   1.151  1.00  0.00     0.020 A 
ATOM     75  C   UNL     1      -1.112 -11.800   1.260  1.00  0.00     0.054 A 
BRANCH  75  76
ATOM     76  S   UNL     1      -0.523 -12.364   2.881  1.00  0.00     0.124 S 
ATOM     77  O   UNL     1      -1.453 -13.448   3.180  1.00  0.00    -0.237 OA
ATOM     78  O   UNL     1       0.852 -12.767   2.598  1.00  0.00    -0.237 OA
ATOM     79  O   UNL     1      -0.654 -11.174   3.720  1.00  0.00    -0.744 OA
ENDBRANCH  75  76
ENDBRANCH  47  70
BRANCH  59  80
ATOM     80  C   UNL     1      -6.721 -13.470  -5.694  1.00  0.00    -0.014 A 
ATOM     81  C   UNL     1      -7.832 -13.560  -4.839  1.00  0.00     0.010 A 
ATOM     82  C   UNL     1      -6.445 -14.530  -6.577  1.00  0.00     0.010 A 
ATOM     83  C   UNL     1      -8.636 -14.703  -4.845  1.00  0.00     0.020 A 
ATOM     84  C   UNL     1      -7.261 -15.664  -6.604  1.00  0.00     0.020 A 
ATOM     85  C   UNL     1      -8.344 -15.749  -5.726  1.00  0.00     0.054 A 
BRANCH  85  86
ATOM     86  S   UNL     1      -9.426 -17.204  -5.746  1.00  0.00     0.124 S 
ATOM     87  O   UNL     1      -9.021 -17.900  -4.529  1.00  0.00    -0.237 OA
ATOM     88  O   UNL     1     -10.762 -16.613  -5.717  1.00  0.00    -0.237 OA
ATOM     89  O   UNL     1      -9.078 -17.878  -6.995  1.00  0.00    -0.744 OA
ENDBRANCH  85  86
ENDBRANCH  59  80
ENDBRANCH  33  34
ENDBRANCH  25  28
ENDBRANCH  23  24
ENDBRANCH  22  23
ENDBRANCH   1  22
TORSDOF 18
