REMARK SMILES C=CC[C@@]1(C(=O)NCCCNC(=O)c2ccc(-c3c4nc(c(-c5ccc(S(=O)(=O)[O-])cc5)c5ccc([nH]5)c(-c5ccc(S(=O)(=O)[O-])cc5)c5nc(c(-c6ccc(S(=O)(=O)[O-])cc6)c6ccc3[nH]6)C=C5)C=C4)cc2)CCCN(c2nccc(N3CCC(O)CC3)n2)C1
REMARK SMILES IDX 9 1 8 2 7 3 5 4 6 5 4 7 74 8 91 9 75 10 77 11 76 12 3 13
REMARK SMILES IDX 2 14 1 15 78 16 79 17 90 18 80 19 82 20 81 21 83 22 84 23
REMARK SMILES IDX 89 24 85 25 88 26 86 27 87 28 10 30 11 31 12 32 13 34 14 35
REMARK SMILES IDX 15 36 73 37 16 38 72 39 17 40 18 41 19 42 66 43 20 44 71 45
REMARK SMILES IDX 65 46 67 47 21 48 70 49 64 50 63 51 22 53 52 54 33 55 51 56
REMARK SMILES IDX 34 57 37 58 50 59 68 60 35 61 36 62 49 64 69 65 38 66 23 67
REMARK SMILES IDX 24 68 32 69 25 70 31 71 26 72 27 73 28 74 29 75 30 76 53 77
REMARK SMILES IDX 54 78 62 79 55 80 61 81 56 82 57 83 58 84 59 85 60 86 39 87
REMARK SMILES IDX 40 88 48 89 41 90 47 91 42 92 43 93 44 94 45 95 46 96
REMARK H PARENT 7 6 87 29 11 33 67 52 37 63
REMARK Flexibility Score: inf
ROOT
ATOM      1  C   UNL     1       2.232   1.168   1.240  1.00  0.00     0.042 C 
ENDROOT
BRANCH   1   2
ATOM      2  C   UNL     1       1.048   2.121   1.369  1.00  0.00     0.117 C 
BRANCH   2   3
ATOM      3  N   UNL     1      -0.087   1.691   0.583  1.00  0.00    -0.355 N 
ATOM      4  C   UNL     1      -1.279   1.113   0.838  1.00  0.00     0.228 C 
ATOM      5  O   UNL     1      -1.985   0.987  -0.178  1.00  0.00    -0.274 OA
ATOM      6  H   UNL     1       0.041   1.864  -0.377  1.00  0.00     0.163 HD
BRANCH   4   7
ATOM      7  C   UNL     1      -1.859   0.688   2.210  1.00  0.00     0.070 C 
ATOM      8  C   UNL     1      -1.066   0.789   3.538  1.00  0.00     0.021 C 
ATOM      9  C   UNL     1      -2.296  -0.790   2.021  1.00  0.00     0.137 C 
ATOM     10  C   UNL     1      -0.009  -0.295   3.783  1.00  0.00     0.023 C 
ATOM     11  N   UNL     1      -1.163  -1.682   2.204  1.00  0.00    -0.340 N 
ATOM     12  C   UNL     1      -0.514  -1.709   3.491  1.00  0.00     0.120 C 
BRANCH   7  13
ATOM     13  C   UNL     1      -3.173   1.529   2.367  1.00  0.00     0.045 C 
BRANCH  13  14
ATOM     14  C   UNL     1      -2.969   3.012   2.557  1.00  0.00    -0.034 C 
ATOM     15  C   UNL     1      -3.415   3.935   1.696  1.00  0.00     0.004 C 
ENDBRANCH  13  14
ENDBRANCH   7  13
BRANCH  11  16
ATOM     16  C   UNL     1      -1.014  -2.721   1.321  1.00  0.00     0.227 A 
ATOM     17  N   UNL     1      -1.009  -2.413   0.017  1.00  0.00    -0.221 NA
ATOM     18  N   UNL     1      -0.858  -3.971   1.784  1.00  0.00    -0.196 NA
ATOM     19  C   UNL     1      -0.777  -3.408  -0.847  1.00  0.00     0.119 A 
ATOM     20  C   UNL     1      -0.661  -4.963   0.894  1.00  0.00     0.134 A 
ATOM     21  C   UNL     1      -0.581  -4.706  -0.459  1.00  0.00     0.067 A 
BRANCH  20  22
ATOM     22  N   UNL     1      -0.599  -6.263   1.352  1.00  0.00    -0.356 N 
ATOM     23  C   UNL     1      -1.554  -6.701   2.358  1.00  0.00     0.121 C 
ATOM     24  C   UNL     1       0.505  -7.141   0.994  1.00  0.00     0.121 C 
ATOM     25  C   UNL     1      -0.830  -7.132   3.623  1.00  0.00     0.053 C 
ATOM     26  C   UNL     1       1.242  -7.574   2.259  1.00  0.00     0.053 C 
ATOM     27  C   UNL     1       0.265  -8.141   3.289  1.00  0.00     0.118 C 
BRANCH  27  28
ATOM     28  O   UNL     1       0.960  -8.501   4.480  1.00  0.00    -0.393 OA
ATOM     29  H   UNL     1       1.373  -7.712   4.865  1.00  0.00     0.210 HD
ENDBRANCH  27  28
ENDBRANCH  20  22
ENDBRANCH  11  16
ENDBRANCH   4   7
ENDBRANCH   2   3
ENDBRANCH   1   2
BRANCH   1  30
ATOM     30  C   UNL     1       2.925   1.198  -0.116  1.00  0.00     0.118 C 
BRANCH  30  31
ATOM     31  N   UNL     1       3.630   2.448  -0.358  1.00  0.00    -0.352 N 
ATOM     32  C   UNL     1       4.968   2.727  -0.445  1.00  0.00     0.251 C 
ATOM     33  H   UNL     1       3.043   3.229  -0.480  1.00  0.00     0.163 HD
ATOM     34  O   UNL     1       5.320   3.912  -0.445  1.00  0.00    -0.269 OA
BRANCH  32  35
ATOM     35  C   UNL     1       5.997   1.663  -0.536  1.00  0.00     0.039 A 
ATOM     36  C   UNL     1       7.258   1.902   0.024  1.00  0.00     0.014 A 
ATOM     37  C   UNL     1       5.781   0.475  -1.239  1.00  0.00     0.014 A 
ATOM     38  C   UNL     1       8.280   0.955  -0.104  1.00  0.00     0.010 A 
ATOM     39  C   UNL     1       6.767  -0.511  -1.282  1.00  0.00     0.010 A 
ATOM     40  C   UNL     1       8.041  -0.267  -0.751  1.00  0.00    -0.014 A 
BRANCH  40  41
ATOM     41  C   UNL     1       9.133  -1.256  -0.953  1.00  0.00     0.031 A 
ATOM     42  C   UNL     1       9.586  -1.603  -2.351  1.00  0.00     0.074 A 
ATOM     43  C   UNL     1       9.705  -1.861   0.107  1.00  0.00     0.049 A 
ATOM     44  N   UNL     1      10.505  -2.452  -2.737  1.00  0.00    -0.248 NA
ATOM     45  C   UNL     1       8.896  -0.928  -3.463  1.00  0.00     0.031 C 
ATOM     46  C   UNL     1       9.334  -1.649   1.508  1.00  0.00     0.029 A 
ATOM     47  N   UNL     1      10.728  -2.774   0.170  1.00  0.00    -0.354 N 
ATOM     48  C   UNL     1      10.484  -2.429  -4.128  1.00  0.00     0.074 A 
ATOM     49  C   UNL     1       9.424  -1.527  -4.519  1.00  0.00     0.031 C 
ATOM     50  C   UNL     1      10.143  -2.380   2.293  1.00  0.00     0.029 A 
ATOM     51  C   UNL     1      11.069  -3.134   1.453  1.00  0.00     0.049 A 
ATOM     52  H   UNL     1      11.175  -3.138  -0.628  1.00  0.00     0.167 HD
ATOM     53  C   UNL     1      11.290  -3.075  -5.005  1.00  0.00     0.031 A 
ATOM     54  C   UNL     1      12.026  -3.968   1.902  1.00  0.00     0.031 A 
ATOM     55  C   UNL     1      12.367  -3.946  -4.619  1.00  0.00     0.049 A 
ATOM     56  C   UNL     1      12.931  -4.649   0.911  1.00  0.00     0.074 A 
ATOM     57  C   UNL     1      13.274  -4.609  -5.428  1.00  0.00     0.029 A 
ATOM     58  N   UNL     1      12.693  -4.263  -3.309  1.00  0.00    -0.354 N 
ATOM     59  N   UNL     1      12.923  -4.576  -0.399  1.00  0.00    -0.248 NA
ATOM     60  C   UNL     1      13.988  -5.508   1.463  1.00  0.00     0.031 C 
ATOM     61  C   UNL     1      14.129  -5.353  -4.606  1.00  0.00     0.029 A 
ATOM     62  C   UNL     1      13.782  -5.117  -3.286  1.00  0.00     0.049 A 
ATOM     63  H   UNL     1      12.219  -3.930  -2.513  1.00  0.00     0.167 HD
ATOM     64  C   UNL     1      13.989  -5.361  -0.826  1.00  0.00     0.074 A 
ATOM     65  C   UNL     1      14.630  -5.881   0.365  1.00  0.00     0.031 C 
ATOM     66  C   UNL     1      14.402  -5.627  -2.090  1.00  0.00     0.031 A 
BRANCH  53  67
ATOM     67  C   UNL     1      11.033  -2.853  -6.473  1.00  0.00    -0.014 A 
ATOM     68  C   UNL     1      11.312  -1.613  -7.079  1.00  0.00     0.010 A 
ATOM     69  C   UNL     1      10.520  -3.898  -7.263  1.00  0.00     0.010 A 
ATOM     70  C   UNL     1      11.036  -1.407  -8.432  1.00  0.00     0.020 A 
ATOM     71  C   UNL     1      10.269  -3.704  -8.625  1.00  0.00     0.020 A 
ATOM     72  C   UNL     1      10.509  -2.452  -9.196  1.00  0.00     0.054 A 
BRANCH  72  73
ATOM     73  S   UNL     1      10.166  -2.161 -10.954  1.00  0.00     0.124 S 
ATOM     74  O   UNL     1       8.944  -1.364 -10.893  1.00  0.00    -0.237 OA
ATOM     75  O   UNL     1      11.360  -1.446 -11.400  1.00  0.00    -0.237 OA
ATOM     76  O   UNL     1      10.008  -3.505 -11.503  1.00  0.00    -0.744 OA
ENDBRANCH  72  73
ENDBRANCH  53  67
BRANCH  54  77
ATOM     77  C   UNL     1      12.207  -4.176   3.365  1.00  0.00    -0.014 A 
ATOM     78  C   UNL     1      13.320  -3.629   4.028  1.00  0.00     0.010 A 
ATOM     79  C   UNL     1      11.268  -4.918   4.102  1.00  0.00     0.010 A 
ATOM     80  C   UNL     1      13.502  -3.838   5.398  1.00  0.00     0.020 A 
ATOM     81  C   UNL     1      11.434  -5.109   5.478  1.00  0.00     0.020 A 
ATOM     82  C   UNL     1      12.557  -4.578   6.114  1.00  0.00     0.054 A 
BRANCH  82  83
ATOM     83  S   UNL     1      12.787  -4.798   7.901  1.00  0.00     0.124 S 
ATOM     84  O   UNL     1      13.832  -5.815   7.949  1.00  0.00    -0.237 OA
ATOM     85  O   UNL     1      13.184  -3.461   8.337  1.00  0.00    -0.237 OA
ATOM     86  O   UNL     1      11.469  -5.229   8.363  1.00  0.00    -0.744 OA
ENDBRANCH  82  83
ENDBRANCH  54  77
BRANCH  66  87
ATOM     87  C   UNL     1      15.621  -6.495  -2.243  1.00  0.00    -0.014 A 
ATOM     88  C   UNL     1      15.569  -7.876  -1.980  1.00  0.00     0.010 A 
ATOM     89  C   UNL     1      16.831  -5.923  -2.674  1.00  0.00     0.010 A 
ATOM     90  C   UNL     1      16.719  -8.660  -2.098  1.00  0.00     0.020 A 
ATOM     91  C   UNL     1      17.977  -6.708  -2.819  1.00  0.00     0.020 A 
ATOM     92  C   UNL     1      17.918  -8.069  -2.509  1.00  0.00     0.054 A 
BRANCH  92  93
ATOM     93  S   UNL     1      19.398  -9.106  -2.667  1.00  0.00     0.124 S 
ATOM     94  O   UNL     1      19.809  -9.259  -1.274  1.00  0.00    -0.237 OA
ATOM     95  O   UNL     1      18.880 -10.314  -3.305  1.00  0.00    -0.237 OA
ATOM     96  O   UNL     1      20.294  -8.305  -3.498  1.00  0.00    -0.744 OA
ENDBRANCH  92  93
ENDBRANCH  66  87
ENDBRANCH  40  41
ENDBRANCH  32  35
ENDBRANCH  30  31
ENDBRANCH   1  30
TORSDOF 18
