REMARK SMILES O=C(NCCCNC(=O)c1cc(Br)ccc1OCc1ccccc1F)c1ccc(-c2c3nc(c(-c4ccc(S(=O)(=O)[O-])cc4)c4ccc([nH]4)c(-c4ccc(S(=O)(=O)[O-])cc4)c4nc(c(-c5ccc(S(=O)(=O)[O-])cc5)c5ccc2[nH]5)C=C4)C=C3)cc1
REMARK SMILES IDX 5 1 4 2 3 3 1 4 2 5 26 7 27 8 85 9 28 10 84 11 29 12 30 13
REMARK SMILES IDX 31 14 78 15 32 16 83 17 77 18 79 19 33 20 82 21 76 22 75 23
REMARK SMILES IDX 34 25 64 26 45 27 63 28 46 29 49 30 62 31 80 32 47 33 48 34
REMARK SMILES IDX 61 36 81 37 50 38 35 39 36 40 44 41 37 42 43 43 38 44 39 45
REMARK SMILES IDX 40 46 41 47 42 48 65 49 66 50 74 51 67 52 73 53 68 54 69 55
REMARK SMILES IDX 70 56 71 57 72 58 51 59 52 60 60 61 53 62 59 63 54 64 55 65
REMARK SMILES IDX 56 66 57 67 58 68 6 69 7 70 8 71 9 73 10 74 11 75 16 76
REMARK SMILES IDX 12 77 15 78 13 79 14 80 17 81 18 82 19 83 20 84 24 85 21 86
REMARK SMILES IDX 23 87 25 88 22 89
REMARK H PARENT 3 6 79 24 49 35 7 72
REMARK Flexibility Score: inf
ROOT
ATOM      1  C   UNL     1       5.033  -2.409  -0.421  1.00  0.00     0.042 C 
ENDROOT
BRANCH   1   2
ATOM      2  C   UNL     1       4.617  -1.085  -1.058  1.00  0.00     0.118 C 
BRANCH   2   3
ATOM      3  N   UNL     1       3.208  -0.760  -0.889  1.00  0.00    -0.352 N 
ATOM      4  O   UNL     1       1.299   0.042  -0.054  1.00  0.00    -0.269 OA
ATOM      5  C   UNL     1       2.531   0.072  -0.034  1.00  0.00     0.251 C 
ATOM      6  H   UNL     1       2.619  -1.236  -1.519  1.00  0.00     0.163 HD
BRANCH   5   7
ATOM      7  C   UNL     1       3.215   0.965   0.931  1.00  0.00     0.039 A 
ATOM      8  C   UNL     1       4.380   1.663   0.616  1.00  0.00     0.014 A 
ATOM      9  C   UNL     1       2.618   1.167   2.184  1.00  0.00     0.014 A 
ATOM     10  C   UNL     1       5.030   2.417   1.595  1.00  0.00     0.010 A 
ATOM     11  C   UNL     1       3.229   1.987   3.140  1.00  0.00     0.010 A 
ATOM     12  C   UNL     1       4.471   2.576   2.874  1.00  0.00    -0.014 A 
BRANCH  12  13
ATOM     13  C   UNL     1       5.216   3.340   3.910  1.00  0.00     0.031 A 
ATOM     14  C   UNL     1       5.767   2.647   5.129  1.00  0.00     0.074 A 
ATOM     15  C   UNL     1       5.463   4.652   3.725  1.00  0.00     0.049 A 
ATOM     16  N   UNL     1       6.534   3.131   6.074  1.00  0.00    -0.248 NA
ATOM     17  C   UNL     1       5.405   1.233   5.319  1.00  0.00     0.031 C 
ATOM     18  C   UNL     1       4.969   5.458   2.607  1.00  0.00     0.029 A 
ATOM     19  N   UNL     1       6.231   5.527   4.453  1.00  0.00    -0.354 N 
ATOM     20  C   UNL     1       6.715   2.097   6.985  1.00  0.00     0.074 A 
ATOM     21  C   UNL     1       5.974   0.959   6.484  1.00  0.00     0.031 C 
ATOM     22  C   UNL     1       5.508   6.685   2.680  1.00  0.00     0.029 A 
ATOM     23  C   UNL     1       6.364   6.760   3.861  1.00  0.00     0.049 A 
ATOM     24  H   UNL     1       6.645   5.295   5.316  1.00  0.00     0.167 HD
ATOM     25  C   UNL     1       7.434   2.087   8.134  1.00  0.00     0.031 A 
ATOM     26  C   UNL     1       7.114   7.824   4.207  1.00  0.00     0.031 A 
ATOM     27  C   UNL     1       8.208   3.193   8.625  1.00  0.00     0.049 A 
ATOM     28  C   UNL     1       7.979   7.760   5.430  1.00  0.00     0.074 A 
ATOM     29  C   UNL     1       8.977   3.267   9.774  1.00  0.00     0.029 A 
ATOM     30  N   UNL     1       8.326   4.416   7.985  1.00  0.00    -0.354 N 
ATOM     31  N   UNL     1       8.139   6.769   6.271  1.00  0.00    -0.248 NA
ATOM     32  C   UNL     1       8.768   8.960   5.746  1.00  0.00     0.031 C 
ATOM     33  C   UNL     1       9.560   4.540   9.829  1.00  0.00     0.029 A 
ATOM     34  C   UNL     1       9.162   5.249   8.709  1.00  0.00     0.049 A 
ATOM     35  H   UNL     1       7.882   4.656   7.140  1.00  0.00     0.167 HD
ATOM     36  C   UNL     1       9.045   7.225   7.221  1.00  0.00     0.074 A 
ATOM     37  C   UNL     1       9.414   8.574   6.839  1.00  0.00     0.031 C 
ATOM     38  C   UNL     1       9.519   6.586   8.317  1.00  0.00     0.031 A 
BRANCH  25  39
ATOM     39  C   UNL     1       7.394   0.824   8.945  1.00  0.00    -0.014 A 
ATOM     40  C   UNL     1       8.209  -0.272   8.613  1.00  0.00     0.010 A 
ATOM     41  C   UNL     1       6.527   0.733  10.049  1.00  0.00     0.010 A 
ATOM     42  C   UNL     1       8.127  -1.458   9.348  1.00  0.00     0.020 A 
ATOM     43  C   UNL     1       6.452  -0.448  10.792  1.00  0.00     0.020 A 
ATOM     44  C   UNL     1       7.237  -1.543  10.423  1.00  0.00     0.054 A 
BRANCH  44  45
ATOM     45  S   UNL     1       7.127  -3.090  11.365  1.00  0.00     0.124 S 
ATOM     46  O   UNL     1       6.142  -3.840  10.591  1.00  0.00    -0.237 OA
ATOM     47  O   UNL     1       8.492  -3.608  11.312  1.00  0.00    -0.237 OA
ATOM     48  O   UNL     1       6.683  -2.652  12.686  1.00  0.00    -0.744 OA
ENDBRANCH  44  45
ENDBRANCH  25  39
BRANCH  26  49
ATOM     49  C   UNL     1       7.117   9.024   3.335  1.00  0.00    -0.014 A 
ATOM     50  C   UNL     1       8.158   9.217   2.410  1.00  0.00     0.010 A 
ATOM     51  C   UNL     1       6.058   9.946   3.387  1.00  0.00     0.010 A 
ATOM     52  C   UNL     1       8.139  10.312   1.544  1.00  0.00     0.020 A 
ATOM     53  C   UNL     1       6.030  11.036   2.513  1.00  0.00     0.020 A 
ATOM     54  C   UNL     1       7.073  11.214   1.600  1.00  0.00     0.054 A 
BRANCH  54  55
ATOM     55  S   UNL     1       6.998  12.584   0.410  1.00  0.00     0.124 S 
ATOM     56  O   UNL     1       7.690  13.647   1.129  1.00  0.00    -0.237 OA
ATOM     57  O   UNL     1       7.698  12.047  -0.754  1.00  0.00    -0.237 OA
ATOM     58  O   UNL     1       5.561  12.779   0.224  1.00  0.00    -0.744 OA
ENDBRANCH  54  55
ENDBRANCH  26  49
BRANCH  38  59
ATOM     59  C   UNL     1      10.486   7.342   9.179  1.00  0.00    -0.014 A 
ATOM     60  C   UNL     1      10.019   8.269  10.128  1.00  0.00     0.010 A 
ATOM     61  C   UNL     1      11.867   7.110   9.059  1.00  0.00     0.010 A 
ATOM     62  C   UNL     1      10.922   8.975  10.926  1.00  0.00     0.020 A 
ATOM     63  C   UNL     1      12.772   7.809   9.862  1.00  0.00     0.020 A 
ATOM     64  C   UNL     1      12.294   8.748  10.781  1.00  0.00     0.054 A 
BRANCH  64  65
ATOM     65  S   UNL     1      13.462   9.648  11.838  1.00  0.00     0.124 S 
ATOM     66  O   UNL     1      13.689  10.867  11.068  1.00  0.00    -0.237 OA
ATOM     67  O   UNL     1      12.717   9.821  13.083  1.00  0.00    -0.237 OA
ATOM     68  O   UNL     1      14.604   8.741  11.928  1.00  0.00    -0.744 OA
ENDBRANCH  64  65
ENDBRANCH  38  59
ENDBRANCH  12  13
ENDBRANCH   5   7
ENDBRANCH   2   3
ENDBRANCH   1   2
BRANCH   1  69
ATOM     69  C   UNL     1       4.228  -3.630  -0.855  1.00  0.00     0.118 C 
BRANCH  69  70
ATOM     70  N   UNL     1       4.091  -3.761  -2.297  1.00  0.00    -0.352 N 
ATOM     71  C   UNL     1       4.560  -4.728  -3.147  1.00  0.00     0.255 C 
ATOM     72  H   UNL     1       3.580  -3.041  -2.731  1.00  0.00     0.163 HD
ATOM     73  O   UNL     1       4.172  -4.763  -4.309  1.00  0.00    -0.269 OA
BRANCH  71  74
ATOM     74  C   UNL     1       5.460  -5.778  -2.649  1.00  0.00     0.082 A 
ATOM     75  C   UNL     1       4.808  -6.802  -1.934  1.00  0.00     0.033 A 
ATOM     76  C   UNL     1       6.831  -5.872  -2.930  1.00  0.00     0.132 A 
ATOM     77  C   UNL     1       5.523  -7.897  -1.463  1.00  0.00     0.019 A 
ATOM     78  C   UNL     1       7.526  -6.992  -2.437  1.00  0.00     0.048 A 
ATOM     79  Br  UNL     1       4.634  -9.261  -0.507  1.00  0.00    -0.051 Br
ATOM     80  C   UNL     1       6.886  -7.995  -1.705  1.00  0.00     0.019 A 
BRANCH  76  81
ATOM     81  O   UNL     1       7.664  -5.065  -3.649  1.00  0.00    -0.488 OA
BRANCH  81  82
ATOM     82  C   UNL     1       7.265  -3.795  -4.158  1.00  0.00     0.268 C 
BRANCH  82  83
ATOM     83  C   UNL     1       6.709  -3.842  -5.558  1.00  0.00     0.025 A 
ATOM     84  C   UNL     1       6.739  -4.991  -6.361  1.00  0.00     0.010 A 
ATOM     85  C   UNL     1       6.123  -2.685  -6.082  1.00  0.00     0.129 A 
ATOM     86  C   UNL     1       6.157  -4.984  -7.633  1.00  0.00     0.001 A 
ATOM     87  C   UNL     1       5.550  -2.668  -7.350  1.00  0.00     0.039 A 
ATOM     88  F   UNL     1       6.099  -1.563  -5.346  1.00  0.00    -0.207 F 
ATOM     89  C   UNL     1       5.558  -3.825  -8.126  1.00  0.00     0.003 A 
ENDBRANCH  82  83
ENDBRANCH  81  82
ENDBRANCH  76  81
ENDBRANCH  71  74
ENDBRANCH  69  70
ENDBRANCH   1  69
TORSDOF 16
