REMARK SMILES CC(C)CCc1cc2c(cc1Cl)C=C(C(=O)NCCCNC(=O)c1ccc(-c3c4nc(c(-c5ccc(S(=O)(=O)[O-])cc5)c5ccc([nH]5)c(-c5ccc(S(=O)(=O)[O-])cc5)c5nc(c(-c6ccc(S(=O)(=O)[O-])cc6)c6ccc3[nH]6)C=C5)C=C4)cc1)[C@@H](C(F)(F)F)O2
REMARK SMILES IDX 19 1 18 2 17 3 15 4 16 5 14 7 6 8 7 9 11 10 8 11 10 12 12 13
REMARK SMILES IDX 9 14 89 15 13 16 84 17 5 18 4 19 2 20 1 21 3 22 85 23 86 24
REMARK SMILES IDX 87 25 88 26 20 27 21 28 22 29 23 31 24 32 25 33 83 34 26 35
REMARK SMILES IDX 82 36 27 37 28 38 29 39 76 40 30 41 81 42 75 43 77 44 31 45
REMARK SMILES IDX 80 46 74 47 73 48 32 50 62 51 43 52 61 53 44 54 47 55 60 56
REMARK SMILES IDX 78 57 45 58 46 59 59 61 79 62 48 63 33 64 34 65 42 66 35 67
REMARK SMILES IDX 41 68 36 69 37 70 38 71 39 72 40 73 63 74 64 75 72 76 65 77
REMARK SMILES IDX 71 78 66 79 67 80 68 81 69 82 70 83 49 84 50 85 58 86 51 87
REMARK SMILES IDX 57 88 52 89 53 90 54 91 55 92 56 93
REMARK H PARENT 17 6 21 30 77 49 47 60
REMARK Flexibility Score: inf
ROOT
ATOM      1  C   UNL     1       4.777  -7.921   3.789  1.00  0.00     0.042 C 
ENDROOT
BRANCH   1   2
ATOM      2  C   UNL     1       4.499  -8.019   2.298  1.00  0.00     0.118 C 
BRANCH   2   3
ATOM      3  N   UNL     1       3.237  -8.691   2.012  1.00  0.00    -0.352 N 
ATOM      4  C   UNL     1       1.994  -8.345   1.599  1.00  0.00     0.251 C 
ATOM      5  O   UNL     1       1.197  -9.279   1.468  1.00  0.00    -0.270 OA
ATOM      6  H   UNL     1       3.307  -9.662   2.160  1.00  0.00     0.163 HD
BRANCH   4   7
ATOM      7  C   UNL     1       1.551  -6.953   1.299  1.00  0.00     0.067 C 
ATOM      8  C   UNL     1      -1.113  -2.757   0.347  1.00  0.00    -0.026 A 
ATOM      9  C   UNL     1       0.222  -3.078   0.597  1.00  0.00     0.052 A 
ATOM     10  C   UNL     1      -2.012  -3.834   0.240  1.00  0.00     0.045 A 
ATOM     11  C   UNL     1       0.627  -4.373   0.875  1.00  0.00     0.128 A 
ATOM     12  C   UNL     1      -1.586  -5.162   0.454  1.00  0.00     0.032 A 
ATOM     13  Cl  UNL     1      -3.674  -3.604  -0.177  1.00  0.00    -0.084 Cl
ATOM     14  C   UNL     1      -0.260  -5.434   0.797  1.00  0.00     0.019 A 
ATOM     15  O   UNL     1       1.917  -4.486   1.285  1.00  0.00    -0.475 OA
ATOM     16  C   UNL     1       0.230  -6.775   1.096  1.00  0.00     0.025 C 
ATOM     17  C   UNL     1       2.509  -5.799   1.207  1.00  0.00     0.314 C 
BRANCH   8  18
ATOM     18  C   UNL     1      -1.483  -1.298   0.173  1.00  0.00     0.037 C 
BRANCH  18  19
ATOM     19  C   UNL     1      -1.066  -0.340   1.319  1.00  0.00     0.008 C 
BRANCH  19  20
ATOM     20  C   UNL     1       0.431   0.020   1.483  1.00  0.00    -0.017 C 
ATOM     21  C   UNL     1       1.093   0.468   0.179  1.00  0.00     0.007 C 
ATOM     22  C   UNL     1       0.618   1.100   2.552  1.00  0.00     0.007 C 
ENDBRANCH  19  20
ENDBRANCH  18  19
ENDBRANCH   8  18
BRANCH  17  23
ATOM     23  C   UNL     1       3.393  -5.830  -0.052  1.00  0.00     0.429 C 
ATOM     24  F   UNL     1       4.458  -5.003   0.100  1.00  0.00    -0.167 F 
ATOM     25  F   UNL     1       3.895  -7.057  -0.319  1.00  0.00    -0.167 F 
ATOM     26  F   UNL     1       2.728  -5.431  -1.161  1.00  0.00    -0.167 F 
ENDBRANCH  17  23
ENDBRANCH   4   7
ENDBRANCH   2   3
ENDBRANCH   1   2
BRANCH   1  27
ATOM     27  C   UNL     1       5.328  -9.222   4.355  1.00  0.00     0.118 C 
BRANCH  27  28
ATOM     28  N   UNL     1       6.654  -9.536   3.824  1.00  0.00    -0.352 N 
ATOM     29  C   UNL     1       7.881  -9.575   4.446  1.00  0.00     0.251 C 
ATOM     30  H   UNL     1       6.672  -9.755   2.865  1.00  0.00     0.163 HD
ATOM     31  O   UNL     1       8.901  -9.642   3.773  1.00  0.00    -0.269 OA
BRANCH  29  32
ATOM     32  C   UNL     1       7.960  -9.516   5.921  1.00  0.00     0.039 A 
ATOM     33  C   UNL     1       7.036 -10.210   6.700  1.00  0.00     0.014 A 
ATOM     34  C   UNL     1       8.960  -8.754   6.532  1.00  0.00     0.014 A 
ATOM     35  C   UNL     1       6.976  -9.973   8.064  1.00  0.00     0.010 A 
ATOM     36  C   UNL     1       8.971  -8.614   7.923  1.00  0.00     0.010 A 
ATOM     37  C   UNL     1       7.945  -9.177   8.697  1.00  0.00    -0.014 A 
BRANCH  37  38
ATOM     38  C   UNL     1       7.849  -8.968  10.165  1.00  0.00     0.031 A 
ATOM     39  C   UNL     1       7.625  -7.593  10.737  1.00  0.00     0.074 A 
ATOM     40  C   UNL     1       7.864 -10.046  10.975  1.00  0.00     0.049 A 
ATOM     41  N   UNL     1       7.444  -7.248  11.986  1.00  0.00    -0.248 NA
ATOM     42  C   UNL     1       7.603  -6.459   9.797  1.00  0.00     0.031 C 
ATOM     43  C   UNL     1       8.052 -11.429  10.527  1.00  0.00     0.029 A 
ATOM     44  N   UNL     1       7.665 -10.162  12.328  1.00  0.00    -0.354 N 
ATOM     45  C   UNL     1       7.307  -5.865  11.986  1.00  0.00     0.074 A 
ATOM     46  C   UNL     1       7.454  -5.426  10.616  1.00  0.00     0.031 C 
ATOM     47  C   UNL     1       7.862 -12.256  11.563  1.00  0.00     0.029 A 
ATOM     48  C   UNL     1       7.627 -11.466  12.766  1.00  0.00     0.049 A 
ATOM     49  H   UNL     1       7.560  -9.388  12.926  1.00  0.00     0.167 HD
ATOM     50  C   UNL     1       7.068  -5.039  13.032  1.00  0.00     0.031 A 
ATOM     51  C   UNL     1       7.427 -11.977  13.996  1.00  0.00     0.031 A 
ATOM     52  C   UNL     1       6.902  -5.489  14.389  1.00  0.00     0.049 A 
ATOM     53  C   UNL     1       7.196 -11.039  15.143  1.00  0.00     0.074 A 
ATOM     54  C   UNL     1       6.652  -4.727  15.518  1.00  0.00     0.029 A 
ATOM     55  N   UNL     1       6.955  -6.811  14.803  1.00  0.00    -0.354 N 
ATOM     56  N   UNL     1       7.090  -9.732  15.121  1.00  0.00    -0.248 NA
ATOM     57  C   UNL     1       7.067 -11.637  16.478  1.00  0.00     0.031 C 
ATOM     58  C   UNL     1       6.609  -5.582  16.621  1.00  0.00     0.029 A 
ATOM     59  C   UNL     1       6.765  -6.885  16.173  1.00  0.00     0.049 A 
ATOM     60  H   UNL     1       7.104  -7.583  14.211  1.00  0.00     0.167 HD
ATOM     61  C   UNL     1       6.885  -9.348  16.440  1.00  0.00     0.074 A 
ATOM     62  C   UNL     1       6.852 -10.563  17.229  1.00  0.00     0.031 C 
ATOM     63  C   UNL     1       6.747  -8.100  16.948  1.00  0.00     0.031 A 
BRANCH  50  64
ATOM     64  C   UNL     1       6.973  -3.558  12.769  1.00  0.00    -0.014 A 
ATOM     65  C   UNL     1       7.969  -2.697  13.267  1.00  0.00     0.010 A 
ATOM     66  C   UNL     1       5.847  -3.005  12.134  1.00  0.00     0.010 A 
ATOM     67  C   UNL     1       7.828  -1.311  13.162  1.00  0.00     0.020 A 
ATOM     68  C   UNL     1       5.715  -1.619  12.004  1.00  0.00     0.020 A 
ATOM     69  C   UNL     1       6.696  -0.780  12.540  1.00  0.00     0.054 A 
BRANCH  69  70
ATOM     70  S   UNL     1       6.518   1.022  12.430  1.00  0.00     0.124 S 
ATOM     71  O   UNL     1       6.106   1.375  13.785  1.00  0.00    -0.237 OA
ATOM     72  O   UNL     1       7.859   1.454  12.044  1.00  0.00    -0.237 OA
ATOM     73  O   UNL     1       5.498   1.201  11.398  1.00  0.00    -0.744 OA
ENDBRANCH  69  70
ENDBRANCH  50  64
BRANCH  51  74
ATOM     74  C   UNL     1       7.428 -13.456  14.173  1.00  0.00    -0.014 A 
ATOM     75  C   UNL     1       8.609 -14.194  13.963  1.00  0.00     0.010 A 
ATOM     76  C   UNL     1       6.232 -14.142  14.444  1.00  0.00     0.010 A 
ATOM     77  C   UNL     1       8.580 -15.590  13.949  1.00  0.00     0.020 A 
ATOM     78  C   UNL     1       6.207 -15.541  14.464  1.00  0.00     0.020 A 
ATOM     79  C   UNL     1       7.375 -16.255  14.182  1.00  0.00     0.054 A 
BRANCH  79  80
ATOM     80  S   UNL     1       7.346 -18.066  14.095  1.00  0.00     0.124 S 
ATOM     81  O   UNL     1       7.329 -18.294  12.653  1.00  0.00    -0.237 OA
ATOM     82  O   UNL     1       8.582 -18.440  14.777  1.00  0.00    -0.237 OA
ATOM     83  O   UNL     1       6.117 -18.422  14.800  1.00  0.00    -0.744 OA
ENDBRANCH  79  80
ENDBRANCH  51  74
BRANCH  63  84
ATOM     84  C   UNL     1       6.559  -7.963  18.435  1.00  0.00    -0.014 A 
ATOM     85  C   UNL     1       5.325  -7.518  18.945  1.00  0.00     0.010 A 
ATOM     86  C   UNL     1       7.639  -8.155  19.314  1.00  0.00     0.010 A 
ATOM     87  C   UNL     1       5.183  -7.236  20.305  1.00  0.00     0.020 A 
ATOM     88  C   UNL     1       7.492  -7.899  20.680  1.00  0.00     0.020 A 
ATOM     89  C   UNL     1       6.272  -7.418  21.162  1.00  0.00     0.054 A 
BRANCH  89  90
ATOM     90  S   UNL     1       6.078  -7.021  22.921  1.00  0.00     0.124 S 
ATOM     91  O   UNL     1       6.182  -5.564  22.920  1.00  0.00    -0.237 OA
ATOM     92  O   UNL     1       4.755  -7.558  23.229  1.00  0.00    -0.237 OA
ATOM     93  O   UNL     1       7.190  -7.726  23.555  1.00  0.00    -0.744 OA
ENDBRANCH  89  90
ENDBRANCH  63  84
ENDBRANCH  37  38
ENDBRANCH  29  32
ENDBRANCH  27  28
ENDBRANCH   1  27
TORSDOF 17
