REMARK SMILES COc1ccc(-c2ccc(S(=O)(=O)NC(C)(C)C)cc2)c(C(=O)NCCCNC(=O)c2ccc(-c3c4nc(c(-c5ccc(S(=O)(=O)[O-])cc5)c5ccc([nH]5)c(-c5ccc(S(=O)(=O)[O-])cc5)c5nc(c(-c6ccc(S(=O)(=O)[O-])cc6)c6ccc3[nH]6)C=C5)C=C4)cc2)c1
REMARK SMILES IDX 25 1 24 2 22 3 23 4 21 6 3 7 4 8 91 9 5 10 6 11 2 12 1 13
REMARK SMILES IDX 7 14 8 15 20 16 9 17 19 18 10 19 11 20 12 21 13 22 14 23
REMARK SMILES IDX 15 25 16 26 17 27 18 28 26 29 27 30 28 31 29 32 30 34 31 35
REMARK SMILES IDX 32 36 90 37 33 38 89 39 34 40 35 41 36 42 83 43 37 44 88 45
REMARK SMILES IDX 82 46 84 47 38 48 87 49 81 50 80 51 39 53 69 54 50 55 68 56
REMARK SMILES IDX 51 57 54 58 67 59 85 60 52 61 53 62 66 64 86 65 55 66 40 67
REMARK SMILES IDX 41 68 49 69 42 70 48 71 43 72 44 73 45 74 46 75 47 76 70 77
REMARK SMILES IDX 71 78 79 79 72 80 78 81 73 82 74 83 75 84 76 85 77 86 56 87
REMARK SMILES IDX 57 88 65 89 58 90 64 91 59 92 60 93 61 94 62 95 63 96
REMARK H PARENT 24 5 14 24 28 33 84 52 54 63
REMARK Flexibility Score: inf
ROOT
ATOM      1  C   UNL     1       4.400   1.363   0.512  1.00  0.00     0.118 C 
ENDROOT
BRANCH   1   2
ATOM      2  N   UNL     1       4.514   2.545   1.361  1.00  0.00    -0.352 N 
ATOM      3  C   UNL     1       3.587   3.476   1.791  1.00  0.00     0.252 C 
ATOM      4  O   UNL     1       3.937   4.270   2.660  1.00  0.00    -0.269 OA
ATOM      5  H   UNL     1       5.426   2.711   1.691  1.00  0.00     0.163 HD
BRANCH   3   6
ATOM      6  C   UNL     1       2.214   3.541   1.213  1.00  0.00     0.051 A 
ATOM      7  C   UNL     1       0.288   2.288   0.389  1.00  0.00     0.119 A 
ATOM      8  C   UNL     1      -0.291   3.471  -0.044  1.00  0.00     0.047 A 
ATOM      9  C   UNL     1       1.506   2.333   1.062  1.00  0.00     0.060 A 
ATOM     10  C   UNL     1       0.342   4.689   0.207  1.00  0.00     0.013 A 
ATOM     11  C   UNL     1       1.591   4.764   0.867  1.00  0.00    -0.005 A 
BRANCH   7  12
ATOM     12  O   UNL     1      -0.420   1.150   0.122  1.00  0.00    -0.497 OA
ATOM     13  C   UNL     1       0.351  -0.045   0.025  1.00  0.00     0.278 C 
ENDBRANCH   7  12
BRANCH  11  14
ATOM     14  C   UNL     1       2.091   6.118   1.206  1.00  0.00    -0.018 A 
ATOM     15  C   UNL     1       1.246   7.003   1.912  1.00  0.00     0.010 A 
ATOM     16  C   UNL     1       3.360   6.589   0.836  1.00  0.00     0.010 A 
ATOM     17  C   UNL     1       1.627   8.315   2.194  1.00  0.00     0.022 A 
ATOM     18  C   UNL     1       3.771   7.891   1.159  1.00  0.00     0.022 A 
ATOM     19  C   UNL     1       2.889   8.758   1.806  1.00  0.00     0.082 A 
BRANCH  19  20
ATOM     20  S   UNL     1       3.304  10.454   2.106  1.00  0.00     0.241 S 
ATOM     21  O   UNL     1       2.110  11.247   1.925  1.00  0.00    -0.207 OA
ATOM     22  O   UNL     1       4.037  10.484   3.354  1.00  0.00    -0.207 OA
BRANCH  20  23
ATOM     23  N   UNL     1       4.418  10.877   0.932  1.00  0.00    -0.206 NA
ATOM     24  H   UNL     1       5.044  10.075   0.864  1.00  0.00     0.141 HD
BRANCH  23  25
ATOM     25  C   UNL     1       4.142  11.264  -0.468  1.00  0.00     0.025 C 
ATOM     26  C   UNL     1       3.154  12.428  -0.568  1.00  0.00     0.028 C 
ATOM     27  C   UNL     1       5.492  11.725  -1.053  1.00  0.00     0.028 C 
ATOM     28  C   UNL     1       3.642  10.074  -1.288  1.00  0.00     0.028 C 
ENDBRANCH  23  25
ENDBRANCH  20  23
ENDBRANCH  19  20
ENDBRANCH  11  14
ENDBRANCH   3   6
ENDBRANCH   1   2
BRANCH   1  29
ATOM     29  C   UNL     1       5.450   1.243  -0.585  1.00  0.00     0.042 C 
BRANCH  29  30
ATOM     30  C   UNL     1       6.901   1.306  -0.134  1.00  0.00     0.118 C 
BRANCH  30  31
ATOM     31  N   UNL     1       7.275   0.247   0.793  1.00  0.00    -0.352 N 
ATOM     32  C   UNL     1       7.966  -0.929   0.623  1.00  0.00     0.251 C 
ATOM     33  H   UNL     1       6.976   0.404   1.718  1.00  0.00     0.163 HD
ATOM     34  O   UNL     1       8.024  -1.714   1.568  1.00  0.00    -0.269 OA
BRANCH  32  35
ATOM     35  C   UNL     1       8.603  -1.294  -0.665  1.00  0.00     0.039 A 
ATOM     36  C   UNL     1       8.567  -2.635  -1.071  1.00  0.00     0.014 A 
ATOM     37  C   UNL     1       9.278  -0.364  -1.455  1.00  0.00     0.014 A 
ATOM     38  C   UNL     1       9.124  -3.017  -2.297  1.00  0.00     0.010 A 
ATOM     39  C   UNL     1       9.753  -0.726  -2.716  1.00  0.00     0.010 A 
ATOM     40  C   UNL     1       9.679  -2.056  -3.155  1.00  0.00    -0.014 A 
BRANCH  40  41
ATOM     41  C   UNL     1      10.177  -2.408  -4.513  1.00  0.00     0.031 A 
ATOM     42  C   UNL     1      11.620  -2.176  -4.878  1.00  0.00     0.074 A 
ATOM     43  C   UNL     1       9.313  -2.847  -5.450  1.00  0.00     0.049 A 
ATOM     44  N   UNL     1      12.204  -2.283  -6.045  1.00  0.00    -0.248 NA
ATOM     45  C   UNL     1      12.517  -1.736  -3.797  1.00  0.00     0.031 C 
ATOM     46  C   UNL     1       7.881  -3.080  -5.244  1.00  0.00     0.029 A 
ATOM     47  N   UNL     1       9.510  -3.160  -6.773  1.00  0.00    -0.354 N 
ATOM     48  C   UNL     1      13.523  -1.889  -5.847  1.00  0.00     0.074 A 
ATOM     49  C   UNL     1      13.645  -1.510  -4.456  1.00  0.00     0.031 C 
ATOM     50  C   UNL     1       7.335  -3.515  -6.391  1.00  0.00     0.029 A 
ATOM     51  C   UNL     1       8.364  -3.549  -7.426  1.00  0.00     0.049 A 
ATOM     52  H   UNL     1      10.389  -3.110  -7.213  1.00  0.00     0.167 HD
ATOM     53  C   UNL     1      14.544  -1.858  -6.737  1.00  0.00     0.031 A 
ATOM     54  C   UNL     1       8.155  -3.882  -8.714  1.00  0.00     0.031 A 
ATOM     55  C   UNL     1      14.434  -2.267  -8.112  1.00  0.00     0.049 A 
ATOM     56  C   UNL     1       9.306  -3.859  -9.679  1.00  0.00     0.074 A 
ATOM     57  C   UNL     1      15.429  -2.333  -9.072  1.00  0.00     0.029 A 
ATOM     58  N   UNL     1      13.262  -2.688  -8.720  1.00  0.00    -0.354 N 
ATOM     59  N   UNL     1      10.555  -3.524  -9.460  1.00  0.00    -0.248 NA
ATOM     60  C   UNL     1       9.021  -4.262 -11.064  1.00  0.00     0.031 C 
ATOM     61  C   UNL     1      14.850  -2.761 -10.272  1.00  0.00     0.029 A 
ATOM     62  C   UNL     1      13.504  -3.001 -10.047  1.00  0.00     0.049 A 
ATOM     63  H   UNL     1      12.386  -2.754  -8.275  1.00  0.00     0.167 HD
ATOM     64  C   UNL     1      11.210  -3.697 -10.674  1.00  0.00     0.074 A 
ATOM     65  C   UNL     1      10.223  -4.176 -11.620  1.00  0.00     0.031 C 
ATOM     66  C   UNL     1      12.512  -3.478 -10.976  1.00  0.00     0.031 A 
BRANCH  53  67
ATOM     67  C   UNL     1      15.876  -1.354  -6.246  1.00  0.00    -0.014 A 
ATOM     68  C   UNL     1      16.664  -2.121  -5.369  1.00  0.00     0.010 A 
ATOM     69  C   UNL     1      16.358  -0.109  -6.689  1.00  0.00     0.010 A 
ATOM     70  C   UNL     1      17.887  -1.631  -4.905  1.00  0.00     0.020 A 
ATOM     71  C   UNL     1      17.593   0.374  -6.247  1.00  0.00     0.020 A 
ATOM     72  C   UNL     1      18.340  -0.382  -5.340  1.00  0.00     0.054 A 
BRANCH  72  73
ATOM     73  S   UNL     1      19.933   0.231  -4.727  1.00  0.00     0.124 S 
ATOM     74  O   UNL     1      19.586   0.667  -3.377  1.00  0.00    -0.237 OA
ATOM     75  O   UNL     1      20.786  -0.952  -4.804  1.00  0.00    -0.237 OA
ATOM     76  O   UNL     1      20.274   1.302  -5.660  1.00  0.00    -0.744 OA
ENDBRANCH  72  73
ENDBRANCH  53  67
BRANCH  54  77
ATOM     77  C   UNL     1       6.793  -4.277  -9.163  1.00  0.00    -0.014 A 
ATOM     78  C   UNL     1       6.500  -5.625  -9.434  1.00  0.00     0.010 A 
ATOM     79  C   UNL     1       5.776  -3.314  -9.294  1.00  0.00     0.010 A 
ATOM     80  C   UNL     1       5.216  -6.003  -9.838  1.00  0.00     0.020 A 
ATOM     81  C   UNL     1       4.485  -3.692  -9.676  1.00  0.00     0.020 A 
ATOM     82  C   UNL     1       4.216  -5.034  -9.954  1.00  0.00     0.054 A 
BRANCH  82  83
ATOM     83  S   UNL     1       2.539  -5.553 -10.412  1.00  0.00     0.124 S 
ATOM     84  O   UNL     1       2.667  -5.758 -11.851  1.00  0.00    -0.237 OA
ATOM     85  O   UNL     1       2.352  -6.763  -9.614  1.00  0.00    -0.237 OA
ATOM     86  O   UNL     1       1.711  -4.418 -10.009  1.00  0.00    -0.744 OA
ENDBRANCH  82  83
ENDBRANCH  54  77
BRANCH  66  87
ATOM     87  C   UNL     1      12.957  -3.779 -12.381  1.00  0.00    -0.014 A 
ATOM     88  C   UNL     1      12.642  -2.913 -13.442  1.00  0.00     0.010 A 
ATOM     89  C   UNL     1      13.753  -4.912 -12.629  1.00  0.00     0.010 A 
ATOM     90  C   UNL     1      13.098  -3.186 -14.734  1.00  0.00     0.020 A 
ATOM     91  C   UNL     1      14.228  -5.177 -13.916  1.00  0.00     0.020 A 
ATOM     92  C   UNL     1      13.888  -4.317 -14.963  1.00  0.00     0.054 A 
BRANCH  92  93
ATOM     93  S   UNL     1      14.516  -4.622 -16.637  1.00  0.00     0.124 S 
ATOM     94  O   UNL     1      13.335  -5.151 -17.312  1.00  0.00    -0.237 OA
ATOM     95  O   UNL     1      14.945  -3.294 -17.068  1.00  0.00    -0.237 OA
ATOM     96  O   UNL     1      15.599  -5.582 -16.430  1.00  0.00    -0.744 OA
ENDBRANCH  92  93
ENDBRANCH  66  87
ENDBRANCH  40  41
ENDBRANCH  32  35
ENDBRANCH  30  31
ENDBRANCH  29  30
ENDBRANCH   1  29
TORSDOF 18
