REMARK SMILES O=C(NCCCNC(=O)c1ccc(-n2cc(CSc3nc4ccccc4c(=O)n3-c3ccc(Br)cc3)nn2)cc1)c1ccc(-c2c3nc(c(-c4ccc(S(=O)(=O)[O-])cc4)c4ccc([nH]4)c(-c4ccc(S(=O)(=O)[O-])cc4)c4nc(c(-c5ccc(S(=O)(=O)[O-])cc5)c5ccc2[nH]5)C=C4)C=C3)cc1
REMARK SMILES IDX 6 1 5 2 4 3 3 4 1 5 2 6 41 8 42 9 100 10 43 11 99 12 44 13
REMARK SMILES IDX 45 14 46 15 93 16 47 17 98 18 92 19 94 20 48 21 97 22 91 23
REMARK SMILES IDX 90 24 49 26 79 27 60 28 78 29 61 30 64 31 77 32 95 33 62 34
REMARK SMILES IDX 63 35 76 37 96 38 65 39 50 40 51 41 59 42 52 43 58 44 53 45
REMARK SMILES IDX 54 46 55 47 56 48 57 49 80 50 81 51 89 52 82 53 88 54 83 55
REMARK SMILES IDX 84 56 85 57 86 58 87 59 66 60 67 61 75 62 68 63 74 64 69 65
REMARK SMILES IDX 70 66 71 67 72 68 73 69 7 70 8 71 9 73 10 74 11 75 40 76
REMARK SMILES IDX 12 77 39 78 13 79 14 80 15 81 38 82 16 83 37 84 17 85 18 86
REMARK SMILES IDX 19 87 20 88 29 89 21 90 27 91 22 92 26 93 28 94 23 95 25 96
REMARK SMILES IDX 24 97 30 98 31 99 36 100 32 101 35 102 33 103 34 104
REMARK H PARENT 3 7 94 25 64 36 7 72
REMARK Flexibility Score: inf
ROOT
ATOM      1  C   UNL     1       4.377  -3.394  -0.807  1.00  0.00     0.118 C 
ENDROOT
BRANCH   1   2
ATOM      2  C   UNL     1       4.936  -2.188  -0.059  1.00  0.00     0.042 C 
BRANCH   2   3
ATOM      3  C   UNL     1       4.624  -0.826  -0.679  1.00  0.00     0.118 C 
BRANCH   3   4
ATOM      4  N   UNL     1       3.227  -0.565  -0.960  1.00  0.00    -0.352 N 
ATOM      5  O   UNL     1       1.176   0.237  -0.900  1.00  0.00    -0.269 OA
ATOM      6  C   UNL     1       2.172  -0.074  -0.241  1.00  0.00     0.251 C 
ATOM      7  H   UNL     1       2.978  -0.795  -1.884  1.00  0.00     0.163 HD
BRANCH   6   8
ATOM      8  C   UNL     1       2.113   0.037   1.243  1.00  0.00     0.039 A 
ATOM      9  C   UNL     1       3.183  -0.142   2.120  1.00  0.00     0.014 A 
ATOM     10  C   UNL     1       0.840   0.299   1.784  1.00  0.00     0.014 A 
ATOM     11  C   UNL     1       2.971  -0.160   3.499  1.00  0.00     0.010 A 
ATOM     12  C   UNL     1       0.625   0.301   3.158  1.00  0.00     0.010 A 
ATOM     13  C   UNL     1       1.688   0.034   4.016  1.00  0.00    -0.014 A 
BRANCH  13  14
ATOM     14  C   UNL     1       1.520   0.098   5.466  1.00  0.00     0.031 A 
ATOM     15  C   UNL     1       2.124   1.293   6.119  1.00  0.00     0.074 A 
ATOM     16  C   UNL     1       0.726  -0.736   6.167  1.00  0.00     0.049 A 
ATOM     17  N   UNL     1       3.066   1.339   7.004  1.00  0.00    -0.248 NA
ATOM     18  C   UNL     1       1.683   2.615   5.646  1.00  0.00     0.031 C 
ATOM     19  C   UNL     1      -0.184  -1.752   5.634  1.00  0.00     0.029 A 
ATOM     20  N   UNL     1       0.469  -0.762   7.509  1.00  0.00    -0.354 N 
ATOM     21  C   UNL     1       3.190   2.682   7.359  1.00  0.00     0.074 A 
ATOM     22  C   UNL     1       2.442   3.428   6.379  1.00  0.00     0.031 C 
ATOM     23  C   UNL     1      -1.052  -2.121   6.602  1.00  0.00     0.029 A 
ATOM     24  C   UNL     1      -0.681  -1.467   7.846  1.00  0.00     0.049 A 
ATOM     25  H   UNL     1       1.044  -0.321   8.175  1.00  0.00     0.167 HD
ATOM     26  C   UNL     1       3.688   3.070   8.567  1.00  0.00     0.031 A 
ATOM     27  C   UNL     1      -1.330  -1.454   9.039  1.00  0.00     0.031 A 
ATOM     28  C   UNL     1       4.397   2.007   9.229  1.00  0.00     0.049 A 
ATOM     29  C   UNL     1      -0.381  -0.963  10.066  1.00  0.00     0.074 A 
ATOM     30  C   UNL     1       5.481   1.208   8.927  1.00  0.00     0.029 A 
ATOM     31  N   UNL     1       3.767   1.402  10.291  1.00  0.00    -0.354 N 
ATOM     32  N   UNL     1       0.671  -1.626  10.454  1.00  0.00    -0.248 NA
ATOM     33  C   UNL     1      -0.382   0.453  10.395  1.00  0.00     0.031 C 
ATOM     34  C   UNL     1       5.181  -0.060   9.507  1.00  0.00     0.029 A 
ATOM     35  C   UNL     1       3.956   0.053  10.166  1.00  0.00     0.049 A 
ATOM     36  H   UNL     1       3.271   1.857  11.010  1.00  0.00     0.167 HD
ATOM     37  C   UNL     1       1.635  -0.657  10.688  1.00  0.00     0.074 A 
ATOM     38  C   UNL     1       0.897   0.602  10.748  1.00  0.00     0.031 C 
ATOM     39  C   UNL     1       2.963  -0.934  10.534  1.00  0.00     0.031 A 
BRANCH  26  40
ATOM     40  C   UNL     1       3.156   4.262   9.341  1.00  0.00    -0.014 A 
ATOM     41  C   UNL     1       3.716   4.550  10.606  1.00  0.00     0.010 A 
ATOM     42  C   UNL     1       1.934   4.893   9.031  1.00  0.00     0.010 A 
ATOM     43  C   UNL     1       3.021   5.314  11.553  1.00  0.00     0.020 A 
ATOM     44  C   UNL     1       1.258   5.699   9.949  1.00  0.00     0.020 A 
ATOM     45  C   UNL     1       1.781   5.859  11.224  1.00  0.00     0.054 A 
BRANCH  45  46
ATOM     46  S   UNL     1       0.809   6.694  12.501  1.00  0.00     0.124 S 
ATOM     47  O   UNL     1       0.453   5.580  13.374  1.00  0.00    -0.237 OA
ATOM     48  O   UNL     1       1.770   7.648  13.047  1.00  0.00    -0.237 OA
ATOM     49  O   UNL     1      -0.296   7.287  11.753  1.00  0.00    -0.744 OA
ENDBRANCH  45  46
ENDBRANCH  26  40
BRANCH  27  50
ATOM     50  C   UNL     1      -2.791  -1.556   9.287  1.00  0.00    -0.014 A 
ATOM     51  C   UNL     1      -3.299  -1.756  10.585  1.00  0.00     0.010 A 
ATOM     52  C   UNL     1      -3.705  -1.183   8.280  1.00  0.00     0.010 A 
ATOM     53  C   UNL     1      -4.657  -1.532  10.875  1.00  0.00     0.020 A 
ATOM     54  C   UNL     1      -5.060  -0.969   8.558  1.00  0.00     0.020 A 
ATOM     55  C   UNL     1      -5.526  -1.121   9.861  1.00  0.00     0.054 A 
BRANCH  55  56
ATOM     56  S   UNL     1      -7.235  -0.660  10.271  1.00  0.00     0.124 S 
ATOM     57  O   UNL     1      -7.842  -1.953  10.571  1.00  0.00    -0.237 OA
ATOM     58  O   UNL     1      -7.060   0.236  11.411  1.00  0.00    -0.237 OA
ATOM     59  O   UNL     1      -7.720  -0.016   9.051  1.00  0.00    -0.744 OA
ENDBRANCH  55  56
ENDBRANCH  27  50
BRANCH  39  60
ATOM     60  C   UNL     1       3.402  -2.376  10.475  1.00  0.00    -0.014 A 
ATOM     61  C   UNL     1       2.964  -3.287   9.496  1.00  0.00     0.010 A 
ATOM     62  C   UNL     1       4.413  -2.780  11.366  1.00  0.00     0.010 A 
ATOM     63  C   UNL     1       3.508  -4.577   9.427  1.00  0.00     0.020 A 
ATOM     64  C   UNL     1       4.972  -4.056  11.290  1.00  0.00     0.020 A 
ATOM     65  C   UNL     1       4.511  -4.953  10.325  1.00  0.00     0.054 A 
BRANCH  65  66
ATOM     66  S   UNL     1       5.252  -6.603  10.192  1.00  0.00     0.124 S 
ATOM     67  O   UNL     1       4.165  -7.476  10.625  1.00  0.00    -0.237 OA
ATOM     68  O   UNL     1       5.601  -6.689   8.775  1.00  0.00    -0.237 OA
ATOM     69  O   UNL     1       6.398  -6.546  11.099  1.00  0.00    -0.744 OA
ENDBRANCH  65  66
ENDBRANCH  39  60
ENDBRANCH  13  14
ENDBRANCH   6   8
ENDBRANCH   3   4
ENDBRANCH   2   3
ENDBRANCH   1   2
BRANCH   1  70
ATOM     70  N   UNL     1       4.867  -3.498  -2.171  1.00  0.00    -0.352 N 
ATOM     71  C   UNL     1       5.748  -4.381  -2.745  1.00  0.00     0.251 C 
ATOM     72  H   UNL     1       4.508  -2.819  -2.787  1.00  0.00     0.163 HD
ATOM     73  O   UNL     1       6.118  -4.202  -3.896  1.00  0.00    -0.269 OA
BRANCH  71  74
ATOM     74  C   UNL     1       6.265  -5.544  -1.989  1.00  0.00     0.039 A 
ATOM     75  C   UNL     1       7.642  -5.791  -2.018  1.00  0.00     0.016 A 
ATOM     76  C   UNL     1       5.408  -6.446  -1.353  1.00  0.00     0.016 A 
ATOM     77  C   UNL     1       8.170  -6.918  -1.382  1.00  0.00     0.029 A 
ATOM     78  C   UNL     1       5.930  -7.580  -0.723  1.00  0.00     0.029 A 
ATOM     79  C   UNL     1       7.313  -7.830  -0.752  1.00  0.00     0.066 A 
BRANCH  79  80
ATOM     80  N   UNL     1       7.845  -9.034  -0.226  1.00  0.00    -0.220 N 
ATOM     81  C   UNL     1       7.157 -10.159   0.155  1.00  0.00     0.141 A 
ATOM     82  N   UNL     1       9.174  -9.265  -0.093  1.00  0.00    -0.062 NA
ATOM     83  C   UNL     1       8.120 -11.107   0.421  1.00  0.00     0.093 A 
ATOM     84  N   UNL     1       9.349 -10.520   0.312  1.00  0.00    -0.134 NA
BRANCH  83  85
ATOM     85  C   UNL     1       7.938 -12.485   0.922  1.00  0.00     0.138 C 
BRANCH  85  86
ATOM     86  S   UNL     1       8.128 -13.911  -0.158  1.00  0.00    -0.081 SA
BRANCH  86  87
ATOM     87  C   UNL     1       8.097 -13.459  -1.844  1.00  0.00     0.176 A 
ATOM     88  N   UNL     1       8.962 -14.138  -2.543  1.00  0.00    -0.223 NA
ATOM     89  N   UNL     1       7.252 -12.525  -2.432  1.00  0.00    -0.255 N 
ATOM     90  C   UNL     1       9.102 -13.848  -3.903  1.00  0.00     0.079 A 
ATOM     91  C   UNL     1       7.828 -11.829  -3.505  1.00  0.00     0.266 A 
ATOM     92  C   UNL     1       9.742 -14.736  -4.768  1.00  0.00     0.029 A 
ATOM     93  C   UNL     1       8.671 -12.630  -4.403  1.00  0.00     0.066 A 
ATOM     94  O   UNL     1       7.693 -10.634  -3.760  1.00  0.00    -0.268 OA
ATOM     95  C   UNL     1       9.985 -14.376  -6.100  1.00  0.00     0.002 A 
ATOM     96  C   UNL     1       8.947 -12.232  -5.715  1.00  0.00     0.016 A 
ATOM     97  C   UNL     1       9.614 -13.113  -6.565  1.00  0.00     0.001 A 
BRANCH  89  98
ATOM     98  C   UNL     1       5.889 -12.193  -2.051  1.00  0.00     0.051 A 
ATOM     99  C   UNL     1       5.130 -11.300  -2.838  1.00  0.00     0.028 A 
ATOM    100  C   UNL     1       5.217 -12.737  -0.949  1.00  0.00     0.028 A 
ATOM    101  C   UNL     1       3.885 -10.808  -2.433  1.00  0.00     0.018 A 
ATOM    102  C   UNL     1       3.992 -12.214  -0.500  1.00  0.00     0.018 A 
ATOM    103  C   UNL     1       3.352 -11.221  -1.226  1.00  0.00     0.018 A 
ATOM    104  Br  UNL     1       1.773 -10.425  -0.571  1.00  0.00    -0.051 Br
ENDBRANCH  89  98
ENDBRANCH  86  87
ENDBRANCH  85  86
ENDBRANCH  83  85
ENDBRANCH  79  80
ENDBRANCH  71  74
ENDBRANCH   1  70
TORSDOF 18
