REMARK SMILES O=C(NCCCNC(=O)c1ccc(-c2c3nc(c(-c4ccc(S(=O)(=O)[O-])cc4)c4ccc([nH]4)c(-c4ccc(S(=O)(=O)[O-])cc4)c4nc(c(-c5ccc(S(=O)(=O)[O-])cc5)c5ccc2[nH]5)C=C4)C=C3)cc1)C1=Cc2c(ccc(Cl)c2Sc2ccccc2)O[C@H]1C(F)(F)F
REMARK SMILES IDX 5 1 4 2 3 3 1 4 2 5 70 7 71 8 87 9 72 10 86 11 73 12 78 13
REMARK SMILES IDX 74 14 76 15 75 16 77 17 88 18 89 19 90 20 91 21 79 22 80 23
REMARK SMILES IDX 81 24 85 25 82 26 84 27 83 28 6 29 7 30 8 31 9 33 10 34
REMARK SMILES IDX 11 35 69 36 12 37 68 38 13 39 14 40 15 41 62 42 16 43 67 44
REMARK SMILES IDX 61 45 63 46 17 47 66 48 60 49 59 50 18 52 48 53 29 54 47 55
REMARK SMILES IDX 30 56 33 57 46 58 64 59 31 60 32 61 45 63 65 64 34 65 19 66
REMARK SMILES IDX 20 67 28 68 21 69 27 70 22 71 23 72 24 73 25 74 26 75 49 76
REMARK SMILES IDX 50 77 58 78 51 79 57 80 52 81 53 82 54 83 55 84 56 85 35 86
REMARK SMILES IDX 36 87 44 88 37 89 43 90 38 91 39 92 40 93 41 94 42 95
REMARK H PARENT 3 6 7 32 63 51 33 62
REMARK Flexibility Score: inf
ROOT
ATOM      1  C   UNL     1       4.183   0.970   2.865  1.00  0.00     0.042 C 
ENDROOT
BRANCH   1   2
ATOM      2  C   UNL     1       3.419   0.291   1.744  1.00  0.00     0.118 C 
BRANCH   2   3
ATOM      3  N   UNL     1       2.578   1.215   1.001  1.00  0.00    -0.352 N 
ATOM      4  O   UNL     1       1.841   2.535  -0.649  1.00  0.00    -0.270 OA
ATOM      5  C   UNL     1       2.618   1.655  -0.285  1.00  0.00     0.251 C 
ATOM      6  H   UNL     1       1.839   1.594   1.530  1.00  0.00     0.163 HD
BRANCH   5   7
ATOM      7  C   UNL     1       3.605   1.139  -1.250  1.00  0.00     0.067 C 
ATOM      8  C   UNL     1       3.650  -0.150  -1.614  1.00  0.00     0.026 C 
ATOM      9  C   UNL     1       4.764   2.016  -1.594  1.00  0.00     0.314 C 
ATOM     10  C   UNL     1       4.844  -0.809  -1.041  1.00  0.00     0.033 A 
ATOM     11  O   UNL     1       6.035   1.328  -1.363  1.00  0.00    -0.475 OA
ATOM     12  C   UNL     1       5.979   0.032  -0.891  1.00  0.00     0.129 A 
ATOM     13  C   UNL     1       4.803  -2.114  -0.478  1.00  0.00     0.042 A 
ATOM     14  C   UNL     1       7.077  -0.395  -0.161  1.00  0.00     0.049 A 
ATOM     15  C   UNL     1       5.929  -2.494   0.295  1.00  0.00     0.055 A 
ATOM     16  C   UNL     1       7.037  -1.642   0.456  1.00  0.00     0.025 A 
ATOM     17  Cl  UNL     1       6.007  -3.990   1.173  1.00  0.00    -0.083 Cl
BRANCH   9  18
ATOM     18  C   UNL     1       4.668   2.510  -3.046  1.00  0.00     0.429 C 
ATOM     19  F   UNL     1       4.782   1.493  -3.938  1.00  0.00    -0.167 F 
ATOM     20  F   UNL     1       3.491   3.128  -3.301  1.00  0.00    -0.167 F 
ATOM     21  F   UNL     1       5.649   3.399  -3.332  1.00  0.00    -0.167 F 
ENDBRANCH   9  18
BRANCH  13  22
ATOM     22  S   UNL     1       3.405  -3.281  -0.576  1.00  0.00    -0.088 SA
BRANCH  22  23
ATOM     23  C   UNL     1       2.052  -2.460  -1.383  1.00  0.00     0.012 A 
ATOM     24  C   UNL     1       1.107  -1.745  -0.636  1.00  0.00     0.015 A 
ATOM     25  C   UNL     1       1.970  -2.451  -2.781  1.00  0.00     0.015 A 
ATOM     26  C   UNL     1       0.168  -0.936  -1.282  1.00  0.00     0.001 A 
ATOM     27  C   UNL     1       1.034  -1.636  -3.425  1.00  0.00     0.001 A 
ATOM     28  C   UNL     1       0.150  -0.862  -2.675  1.00  0.00     0.000 A 
ENDBRANCH  22  23
ENDBRANCH  13  22
ENDBRANCH   5   7
ENDBRANCH   2   3
ENDBRANCH   1   2
BRANCH   1  29
ATOM     29  C   UNL     1       4.110   0.199   4.173  1.00  0.00     0.118 C 
BRANCH  29  30
ATOM     30  N   UNL     1       4.755  -1.107   4.163  1.00  0.00    -0.352 N 
ATOM     31  C   UNL     1       5.565  -1.698   5.118  1.00  0.00     0.251 C 
ATOM     32  H   UNL     1       4.592  -1.649   3.358  1.00  0.00     0.163 HD
ATOM     33  O   UNL     1       6.034  -2.804   4.908  1.00  0.00    -0.269 OA
BRANCH  31  34
ATOM     34  C   UNL     1       5.910  -0.969   6.368  1.00  0.00     0.039 A 
ATOM     35  C   UNL     1       7.204  -1.086   6.886  1.00  0.00     0.014 A 
ATOM     36  C   UNL     1       4.987  -0.148   7.013  1.00  0.00     0.014 A 
ATOM     37  C   UNL     1       7.587  -0.312   7.987  1.00  0.00     0.010 A 
ATOM     38  C   UNL     1       5.409   0.725   8.007  1.00  0.00     0.010 A 
ATOM     39  C   UNL     1       6.706   0.638   8.528  1.00  0.00    -0.014 A 
BRANCH  39  40
ATOM     40  C   UNL     1       7.091   1.516   9.665  1.00  0.00     0.031 A 
ATOM     41  C   UNL     1       6.270   1.503  10.933  1.00  0.00     0.074 A 
ATOM     42  C   UNL     1       8.118   2.381   9.536  1.00  0.00     0.049 A 
ATOM     43  N   UNL     1       6.380   2.254  11.999  1.00  0.00    -0.248 NA
ATOM     44  C   UNL     1       5.142   0.557  10.988  1.00  0.00     0.031 C 
ATOM     45  C   UNL     1       8.944   2.553   8.337  1.00  0.00     0.029 A 
ATOM     46  N   UNL     1       8.643   3.284  10.427  1.00  0.00    -0.354 N 
ATOM     47  C   UNL     1       5.313   1.903  12.820  1.00  0.00     0.074 A 
ATOM     48  C   UNL     1       4.529   0.926  12.101  1.00  0.00     0.031 C 
ATOM     49  C   UNL     1       9.898   3.466   8.584  1.00  0.00     0.029 A 
ATOM     50  C   UNL     1       9.732   3.970   9.943  1.00  0.00     0.049 A 
ATOM     51  H   UNL     1       8.275   3.426  11.329  1.00  0.00     0.167 HD
ATOM     52  C   UNL     1       5.027   2.325  14.075  1.00  0.00     0.031 A 
ATOM     53  C   UNL     1      10.517   4.894  10.531  1.00  0.00     0.031 A 
ATOM     54  C   UNL     1       5.844   3.250  14.810  1.00  0.00     0.049 A 
ATOM     55  C   UNL     1      10.235   5.284  11.956  1.00  0.00     0.074 A 
ATOM     56  C   UNL     1       5.698   3.683  16.115  1.00  0.00     0.029 A 
ATOM     57  N   UNL     1       6.979   3.868  14.306  1.00  0.00    -0.354 N 
ATOM     58  N   UNL     1       9.257   4.892  12.740  1.00  0.00    -0.248 NA
ATOM     59  C   UNL     1      11.177   6.219  12.585  1.00  0.00     0.031 C 
ATOM     60  C   UNL     1       6.728   4.590  16.391  1.00  0.00     0.029 A 
ATOM     61  C   UNL     1       7.542   4.682  15.272  1.00  0.00     0.049 A 
ATOM     62  H   UNL     1       7.331   3.746  13.395  1.00  0.00     0.167 HD
ATOM     63  C   UNL     1       9.482   5.513  13.963  1.00  0.00     0.074 A 
ATOM     64  C   UNL     1      10.698   6.289  13.819  1.00  0.00     0.031 C 
ATOM     65  C   UNL     1       8.751   5.447  15.104  1.00  0.00     0.031 A 
BRANCH  52  66
ATOM     66  C   UNL     1       3.784   1.772  14.725  1.00  0.00    -0.014 A 
ATOM     67  C   UNL     1       3.690   0.413  15.082  1.00  0.00     0.010 A 
ATOM     68  C   UNL     1       2.692   2.620  14.983  1.00  0.00     0.010 A 
ATOM     69  C   UNL     1       2.509  -0.099  15.624  1.00  0.00     0.020 A 
ATOM     70  C   UNL     1       1.519   2.118  15.557  1.00  0.00     0.020 A 
ATOM     71  C   UNL     1       1.427   0.756  15.851  1.00  0.00     0.054 A 
BRANCH  71  72
ATOM     72  S   UNL     1      -0.094   0.066  16.557  1.00  0.00     0.124 S 
ATOM     73  O   UNL     1      -0.666  -0.634  15.410  1.00  0.00    -0.237 OA
ATOM     74  O   UNL     1       0.407  -0.790  17.629  1.00  0.00    -0.237 OA
ATOM     75  O   UNL     1      -0.835   1.244  17.001  1.00  0.00    -0.744 OA
ENDBRANCH  71  72
ENDBRANCH  52  66
BRANCH  53  76
ATOM     76  C   UNL     1      11.676   5.465   9.792  1.00  0.00    -0.014 A 
ATOM     77  C   UNL     1      12.989   5.086  10.126  1.00  0.00     0.010 A 
ATOM     78  C   UNL     1      11.476   6.368   8.732  1.00  0.00     0.010 A 
ATOM     79  C   UNL     1      14.080   5.610   9.426  1.00  0.00     0.020 A 
ATOM     80  C   UNL     1      12.563   6.874   8.012  1.00  0.00     0.020 A 
ATOM     81  C   UNL     1      13.860   6.498   8.371  1.00  0.00     0.054 A 
BRANCH  81  82
ATOM     82  S   UNL     1      15.287   7.114   7.433  1.00  0.00     0.124 S 
ATOM     83  O   UNL     1      15.862   8.086   8.357  1.00  0.00    -0.237 OA
ATOM     84  O   UNL     1      16.072   5.901   7.219  1.00  0.00    -0.237 OA
ATOM     85  O   UNL     1      14.684   7.676   6.226  1.00  0.00    -0.744 OA
ENDBRANCH  81  82
ENDBRANCH  53  76
BRANCH  65  86
ATOM     86  C   UNL     1       9.272   6.205  16.294  1.00  0.00    -0.014 A 
ATOM     87  C   UNL     1       9.220   7.609  16.345  1.00  0.00     0.010 A 
ATOM     88  C   UNL     1       9.800   5.495  17.387  1.00  0.00     0.010 A 
ATOM     89  C   UNL     1       9.736   8.293  17.448  1.00  0.00     0.020 A 
ATOM     90  C   UNL     1      10.291   6.175  18.504  1.00  0.00     0.020 A 
ATOM     91  C   UNL     1      10.276   7.571  18.517  1.00  0.00     0.054 A 
BRANCH  91  92
ATOM     92  S   UNL     1      10.935   8.478  19.942  1.00  0.00     0.124 S 
ATOM     93  O   UNL     1      12.218   8.952  19.431  1.00  0.00    -0.237 OA
ATOM     94  O   UNL     1       9.925   9.510  20.163  1.00  0.00    -0.237 OA
ATOM     95  O   UNL     1      11.017   7.462  20.989  1.00  0.00    -0.744 OA
ENDBRANCH  91  92
ENDBRANCH  65  86
ENDBRANCH  39  40
ENDBRANCH  31  34
ENDBRANCH  29  30
ENDBRANCH   1  29
TORSDOF 16
