REMARK SMILES Cc1cccc(N2C(=O)/C(=C/c3cccn3-c3cccc(C(=O)NCCCNC(=O)c4ccc(-c5c6nc(c(-c7ccc(S(=O)(=O)[O-])cc7)c7ccc([nH]7)c(-c7ccc(S(=O)(=O)[O-])cc7)c7nc(c(-c8ccc(S(=O)(=O)[O-])cc8)c8ccc5[nH]8)C=C7)C=C6)cc4)c3)C(O)=NC2=S)c1C
REMARK SMILES IDX 26 1 25 2 24 3 22 4 23 5 21 7 17 8 18 9 91 10 19 11 20 12
REMARK SMILES IDX 16 13 12 14 13 15 14 16 15 17 11 18 7 19 8 20 95 21 9 22
REMARK SMILES IDX 10 23 94 24 96 25 92 26 6 27 1 28 2 29 3 30 97 31 4 32 98 33
REMARK SMILES IDX 5 34 93 35 27 37 28 38 29 39 30 41 31 42 32 43 90 44 33 45
REMARK SMILES IDX 89 46 34 47 35 48 36 49 83 50 37 51 88 52 82 53 84 54 38 55
REMARK SMILES IDX 87 56 81 57 80 58 39 60 69 61 50 62 68 63 51 64 54 65 67 66
REMARK SMILES IDX 85 67 52 68 53 69 66 71 86 72 55 73 40 74 41 75 49 76 42 77
REMARK SMILES IDX 48 78 43 79 44 80 45 81 46 82 47 83 70 84 71 85 79 86 72 87
REMARK SMILES IDX 78 88 73 89 74 90 75 91 76 92 77 93 56 94 57 95 65 96 58 97
REMARK SMILES IDX 64 98 59 99 60 100 61 101 62 102 63 103
REMARK H PARENT 24 6 93 36 28 40 84 59 54 70
REMARK Flexibility Score: inf
ROOT
ATOM      1  C   UNL     1       2.863  -6.343  -1.671  1.00  0.00     0.042 C 
ENDROOT
BRANCH   1   2
ATOM      2  C   UNL     1       2.402  -5.052  -2.355  1.00  0.00     0.118 C 
BRANCH   2   3
ATOM      3  N   UNL     1       2.799  -4.942  -3.747  1.00  0.00    -0.352 N 
ATOM      4  C   UNL     1       2.267  -5.296  -4.960  1.00  0.00     0.251 C 
ATOM      5  O   UNL     1       2.880  -4.915  -5.959  1.00  0.00    -0.269 OA
ATOM      6  H   UNL     1       3.673  -4.500  -3.845  1.00  0.00     0.163 HD
BRANCH   4   7
ATOM      7  C   UNL     1       1.049  -6.133  -5.163  1.00  0.00     0.041 A 
ATOM      8  C   UNL     1      -0.933  -7.330  -4.396  1.00  0.00     0.046 A 
ATOM      9  C   UNL     1      -1.089  -7.906  -5.661  1.00  0.00     0.026 A 
ATOM     10  C   UNL     1       0.118  -6.433  -4.173  1.00  0.00     0.040 A 
ATOM     11  C   UNL     1      -0.209  -7.565  -6.688  1.00  0.00     0.003 A 
ATOM     12  C   UNL     1       0.855  -6.693  -6.437  1.00  0.00     0.014 A 
BRANCH   8  13
ATOM     13  N   UNL     1      -1.733  -7.761  -3.293  1.00  0.00    -0.317 N 
ATOM     14  C   UNL     1      -2.098  -7.069  -2.125  1.00  0.00     0.047 A 
ATOM     15  C   UNL     1      -2.700  -7.978  -1.267  1.00  0.00     0.028 A 
ATOM     16  C   UNL     1      -2.676  -9.245  -1.881  1.00  0.00     0.020 A 
ATOM     17  C   UNL     1      -2.127  -9.078  -3.130  1.00  0.00     0.092 A 
BRANCH  14  18
ATOM     18  C   UNL     1      -1.925  -5.660  -1.993  1.00  0.00     0.046 C 
ATOM     19  N   UNL     1      -0.708  -2.870   0.035  1.00  0.00    -0.251 N 
ATOM     20  C   UNL     1      -1.233  -3.525  -1.084  1.00  0.00     0.270 C 
ATOM     21  C   UNL     1      -0.346  -3.549   1.215  1.00  0.00     0.210 C 
ATOM     22  O   UNL     1      -1.657  -2.960  -2.093  1.00  0.00    -0.268 OA
ATOM     23  C   UNL     1      -1.268  -5.025  -0.996  1.00  0.00     0.104 C 
ATOM     24  N   UNL     1      -0.088  -4.895   1.132  1.00  0.00    -0.184 NA
ATOM     25  S   UNL     1      -0.261  -2.820   2.748  1.00  0.00    -0.038 S 
ATOM     26  C   UNL     1      -0.522  -5.575   0.139  1.00  0.00     0.226 C 
BRANCH  19  27
ATOM     27  C   UNL     1      -0.653  -1.434  -0.021  1.00  0.00     0.055 A 
ATOM     28  C   UNL     1       1.830   1.505  -0.007  1.00  0.00     0.044 C 
ATOM     29  C   UNL     1       0.566   0.683  -0.017  1.00  0.00    -0.046 A 
ATOM     30  C   UNL     1      -0.664   1.362  -0.021  1.00  0.00     0.004 A 
ATOM     31  C   UNL     1       0.583  -0.733  -0.035  1.00  0.00    -0.024 A 
ATOM     32  C   UNL     1      -1.868   0.665  -0.047  1.00  0.00     0.002 A 
ATOM     33  C   UNL     1       1.889  -1.488  -0.104  1.00  0.00     0.047 C 
ATOM     34  C   UNL     1      -1.864  -0.726  -0.054  1.00  0.00     0.027 A 
ENDBRANCH  19  27
BRANCH  26  35
ATOM     35  O   UNL     1      -0.176  -6.869   0.134  1.00  0.00    -0.493 OA
ATOM     36  H   UNL     1      -0.459  -7.426  -0.564  1.00  0.00     0.295 HD
ENDBRANCH  26  35
ENDBRANCH  14  18
ENDBRANCH   8  13
ENDBRANCH   4   7
ENDBRANCH   2   3
ENDBRANCH   1   2
BRANCH   1  37
ATOM     37  C   UNL     1       4.034  -6.074  -0.729  1.00  0.00     0.118 C 
BRANCH  37  38
ATOM     38  N   UNL     1       3.647  -5.143   0.328  1.00  0.00    -0.352 N 
ATOM     39  C   UNL     1       4.415  -4.359   1.158  1.00  0.00     0.251 C 
ATOM     40  H   UNL     1       2.676  -5.064   0.471  1.00  0.00     0.163 HD
ATOM     41  O   UNL     1       3.889  -3.771   2.087  1.00  0.00    -0.269 OA
BRANCH  39  42
ATOM     42  C   UNL     1       5.875  -4.267   0.968  1.00  0.00     0.039 A 
ATOM     43  C   UNL     1       6.683  -4.341   2.109  1.00  0.00     0.014 A 
ATOM     44  C   UNL     1       6.443  -4.088  -0.296  1.00  0.00     0.014 A 
ATOM     45  C   UNL     1       8.064  -4.320   1.970  1.00  0.00     0.010 A 
ATOM     46  C   UNL     1       7.819  -4.131  -0.447  1.00  0.00     0.010 A 
ATOM     47  C   UNL     1       8.625  -4.248   0.688  1.00  0.00    -0.014 A 
BRANCH  47  48
ATOM     48  C   UNL     1      10.088  -4.374   0.541  1.00  0.00     0.031 A 
ATOM     49  C   UNL     1      10.553  -5.832   0.749  1.00  0.00     0.074 A 
ATOM     50  C   UNL     1      10.752  -3.200   0.304  1.00  0.00     0.049 A 
ATOM     51  N   UNL     1      11.637  -6.298   1.290  1.00  0.00    -0.248 NA
ATOM     52  C   UNL     1       9.627  -6.942   0.385  1.00  0.00     0.031 C 
ATOM     53  C   UNL     1      10.100  -1.884   0.073  1.00  0.00     0.029 A 
ATOM     54  N   UNL     1      12.079  -2.853   0.204  1.00  0.00    -0.354 N 
ATOM     55  C   UNL     1      11.602  -7.713   1.199  1.00  0.00     0.074 A 
ATOM     56  C   UNL     1      10.296  -8.051   0.720  1.00  0.00     0.031 C 
ATOM     57  C   UNL     1      11.015  -0.900  -0.060  1.00  0.00     0.029 A 
ATOM     58  C   UNL     1      12.340  -1.461   0.088  1.00  0.00     0.049 A 
ATOM     59  H   UNL     1      12.800  -3.523   0.212  1.00  0.00     0.167 HD
ATOM     60  C   UNL     1      12.694  -8.510   1.418  1.00  0.00     0.031 A 
ATOM     61  C   UNL     1      13.534  -0.802   0.187  1.00  0.00     0.031 A 
ATOM     62  C   UNL     1      13.816  -7.703   1.762  1.00  0.00     0.049 A 
ATOM     63  C   UNL     1      14.532  -1.861   0.403  1.00  0.00     0.074 A 
ATOM     64  C   UNL     1      14.192  -7.052   2.906  1.00  0.00     0.029 A 
ATOM     65  N   UNL     1      14.561  -7.228   0.711  1.00  0.00    -0.354 N 
ATOM     66  N   UNL     1      14.954  -2.689  -0.500  1.00  0.00    -0.248 NA
ATOM     67  C   UNL     1      15.008  -2.102   1.772  1.00  0.00     0.031 C 
ATOM     68  C   UNL     1      14.783  -5.863   2.422  1.00  0.00     0.029 A 
ATOM     69  C   UNL     1      14.905  -5.937   1.030  1.00  0.00     0.049 A 
ATOM     70  H   UNL     1      14.801  -7.716  -0.109  1.00  0.00     0.167 HD
ATOM     71  C   UNL     1      15.430  -3.736   0.249  1.00  0.00     0.074 A 
ATOM     72  C   UNL     1      15.726  -3.201   1.561  1.00  0.00     0.031 C 
ATOM     73  C   UNL     1      15.094  -5.013  -0.064  1.00  0.00     0.031 A 
BRANCH  60  74
ATOM     74  C   UNL     1      12.984  -9.967   1.141  1.00  0.00    -0.014 A 
ATOM     75  C   UNL     1      14.142 -10.517   1.757  1.00  0.00     0.010 A 
ATOM     76  C   UNL     1      12.412 -10.697   0.091  1.00  0.00     0.010 A 
ATOM     77  C   UNL     1      14.787 -11.649   1.254  1.00  0.00     0.020 A 
ATOM     78  C   UNL     1      13.036 -11.864  -0.398  1.00  0.00     0.020 A 
ATOM     79  C   UNL     1      14.248 -12.296   0.150  1.00  0.00     0.054 A 
BRANCH  79  80
ATOM     80  S   UNL     1      15.201 -13.651  -0.594  1.00  0.00     0.124 S 
ATOM     81  O   UNL     1      16.326 -12.942  -1.197  1.00  0.00    -0.237 OA
ATOM     82  O   UNL     1      15.533 -14.479   0.564  1.00  0.00    -0.237 OA
ATOM     83  O   UNL     1      14.261 -14.257  -1.533  1.00  0.00    -0.744 OA
ENDBRANCH  79  80
ENDBRANCH  60  74
BRANCH  61  84
ATOM     84  C   UNL     1      14.024   0.623   0.320  1.00  0.00    -0.014 A 
ATOM     85  C   UNL     1      13.294   1.791   0.062  1.00  0.00     0.010 A 
ATOM     86  C   UNL     1      15.341   0.825   0.821  1.00  0.00     0.010 A 
ATOM     87  C   UNL     1      13.801   3.066   0.426  1.00  0.00     0.020 A 
ATOM     88  C   UNL     1      15.836   2.066   1.224  1.00  0.00     0.020 A 
ATOM     89  C   UNL     1      15.048   3.187   1.050  1.00  0.00     0.054 A 
BRANCH  89  90
ATOM     90  S   UNL     1      15.607   4.768   1.749  1.00  0.00     0.124 S 
ATOM     91  O   UNL     1      16.150   5.455   0.582  1.00  0.00    -0.237 OA
ATOM     92  O   UNL     1      14.376   5.330   2.300  1.00  0.00    -0.237 OA
ATOM     93  O   UNL     1      16.594   4.368   2.752  1.00  0.00    -0.744 OA
ENDBRANCH  89  90
ENDBRANCH  61  84
BRANCH  73  94
ATOM     94  C   UNL     1      14.568  -5.216  -1.484  1.00  0.00    -0.014 A 
ATOM     95  C   UNL     1      15.393  -4.934  -2.585  1.00  0.00     0.010 A 
ATOM     96  C   UNL     1      13.236  -5.592  -1.761  1.00  0.00     0.010 A 
ATOM     97  C   UNL     1      14.913  -5.017  -3.902  1.00  0.00     0.020 A 
ATOM     98  C   UNL     1      12.743  -5.680  -3.076  1.00  0.00     0.020 A 
ATOM     99  C   UNL     1      13.589  -5.391  -4.143  1.00  0.00     0.054 A 
BRANCH  99 100
ATOM    100  S   UNL     1      12.999  -5.480  -5.860  1.00  0.00     0.124 S 
ATOM    101  O   UNL     1      13.253  -4.131  -6.361  1.00  0.00    -0.237 OA
ATOM    102  O   UNL     1      13.845  -6.526  -6.429  1.00  0.00    -0.237 OA
ATOM    103  O   UNL     1      11.586  -5.831  -5.729  1.00  0.00    -0.744 OA
ENDBRANCH  99 100
ENDBRANCH  73  94
ENDBRANCH  47  48
ENDBRANCH  39  42
ENDBRANCH  37  38
ENDBRANCH   1  37
TORSDOF 17
