REMARK SMILES Cc1cnn([C@H]2CC[C@@]([NH3+])(C(=O)NCCCNC(=O)c3ccc(-c4c5nc(c(-c6ccc(S(=O)(=O)[O-])cc6)c6ccc([nH]6)c(-c6ccc(S(=O)(=O)[O-])cc6)c6nc(c(-c7ccc(S(=O)(=O)[O-])cc7)c7ccc4[nH]7)C=C6)C=C5)cc3)C2)c1
REMARK SMILES IDX 16 1 15 2 14 3 13 4 11 5 12 6 9 8 6 9 7 10 80 11 8 12 5 13
REMARK SMILES IDX 1 14 2 15 3 16 81 17 4 18 10 19 17 23 18 24 19 26 20 27
REMARK SMILES IDX 21 28 79 29 22 30 78 31 23 32 24 33 25 34 72 35 26 36 77 37
REMARK SMILES IDX 71 38 73 39 27 40 76 41 70 42 69 43 28 45 58 46 39 47 57 48
REMARK SMILES IDX 40 49 43 50 56 51 74 52 41 53 42 54 55 56 75 57 44 58 29 59
REMARK SMILES IDX 30 60 38 61 31 62 37 63 32 64 33 65 34 66 35 67 36 68 59 69
REMARK SMILES IDX 60 70 68 71 61 72 67 73 62 74 63 75 64 76 65 77 66 78 45 79
REMARK SMILES IDX 46 80 54 81 47 82 53 83 48 84 49 85 50 86 51 87 52 88
REMARK H PARENT 13 7 10 20 10 21 10 22 17 25 73 44 43 55
REMARK Flexibility Score: inf
ROOT
ATOM      1  C   UNL     1      -5.808  -4.693   7.831  1.00  0.00     0.118 C 
ENDROOT
BRANCH   1   2
ATOM      2  C   UNL     1      -5.329  -3.402   7.191  1.00  0.00     0.042 C 
BRANCH   2   3
ATOM      3  C   UNL     1      -3.918  -2.991   7.623  1.00  0.00     0.118 C 
BRANCH   3   4
ATOM      4  N   UNL     1      -2.880  -3.928   7.211  1.00  0.00    -0.351 N 
ATOM      5  C   UNL     1      -1.828  -3.764   6.351  1.00  0.00     0.281 C 
ATOM      6  O   UNL     1      -0.971  -4.651   6.331  1.00  0.00    -0.268 OA
ATOM      7  H   UNL     1      -2.945  -4.822   7.618  1.00  0.00     0.163 HD
BRANCH   5   8
ATOM      8  C   UNL     1      -1.683  -2.470   5.492  1.00  0.00     0.176 C 
ATOM      9  C   UNL     1      -0.986  -3.079   3.207  1.00  0.00     0.114 C 
ATOM     10  C   UNL     1      -2.465  -2.672   3.161  1.00  0.00     0.034 C 
ATOM     11  C   UNL     1      -0.473  -2.519   4.540  1.00  0.00     0.106 C 
ATOM     12  C   UNL     1      -2.882  -2.252   4.568  1.00  0.00     0.081 C 
BRANCH   9  13
ATOM     13  N   UNL     1      -0.761  -4.481   2.895  1.00  0.00    -0.269 N 
ATOM     14  C   UNL     1       0.953  -7.709   2.768  1.00  0.00     0.048 C 
ATOM     15  C   UNL     1       0.141  -6.478   2.636  1.00  0.00    -0.013 A 
ATOM     16  C   UNL     1      -0.812  -6.187   1.639  1.00  0.00     0.138 A 
ATOM     17  C   UNL     1       0.148  -5.349   3.430  1.00  0.00     0.112 A 
ATOM     18  N   UNL     1      -1.336  -4.968   1.772  1.00  0.00    -0.181 NA
ENDBRANCH   9  13
BRANCH   8  19
ATOM     19  N   UNL     1      -1.499  -1.335   6.430  1.00  0.00    -0.345 N 
ATOM     20  H   UNL     1      -2.293  -1.289   7.069  1.00  0.00     0.345 HD
ATOM     21  H   UNL     1      -1.437  -0.464   5.902  1.00  0.00     0.345 HD
ATOM     22  H   UNL     1      -0.640  -1.470   6.964  1.00  0.00     0.345 HD
ENDBRANCH   8  19
ENDBRANCH   5   8
ENDBRANCH   3   4
ENDBRANCH   2   3
ENDBRANCH   1   2
BRANCH   1  23
ATOM     23  N   UNL     1      -6.057  -4.571   9.265  1.00  0.00    -0.352 N 
ATOM     24  C   UNL     1      -6.554  -5.541  10.120  1.00  0.00     0.251 C 
ATOM     25  H   UNL     1      -5.848  -3.699   9.671  1.00  0.00     0.163 HD
ATOM     26  O   UNL     1      -7.056  -5.228  11.186  1.00  0.00    -0.269 OA
BRANCH  24  27
ATOM     27  C   UNL     1      -6.473  -6.958   9.706  1.00  0.00     0.039 A 
ATOM     28  C   UNL     1      -7.526  -7.841   9.950  1.00  0.00     0.014 A 
ATOM     29  C   UNL     1      -5.332  -7.389   9.031  1.00  0.00     0.014 A 
ATOM     30  C   UNL     1      -7.452  -9.130   9.425  1.00  0.00     0.010 A 
ATOM     31  C   UNL     1      -5.329  -8.601   8.382  1.00  0.00     0.010 A 
ATOM     32  C   UNL     1      -6.365  -9.496   8.608  1.00  0.00    -0.014 A 
BRANCH  32  33
ATOM     33  C   UNL     1      -6.383 -10.756   7.868  1.00  0.00     0.031 A 
ATOM     34  C   UNL     1      -7.641 -10.980   7.113  1.00  0.00     0.074 A 
ATOM     35  C   UNL     1      -5.328 -11.587   7.713  1.00  0.00     0.049 A 
ATOM     36  N   UNL     1      -8.622 -11.740   7.467  1.00  0.00    -0.248 NA
ATOM     37  C   UNL     1      -7.931 -10.134   5.944  1.00  0.00     0.031 C 
ATOM     38  C   UNL     1      -3.938 -11.390   8.140  1.00  0.00     0.029 A 
ATOM     39  N   UNL     1      -5.265 -12.774   7.047  1.00  0.00    -0.354 N 
ATOM     40  C   UNL     1      -9.535 -11.681   6.425  1.00  0.00     0.074 A 
ATOM     41  C   UNL     1      -9.172 -10.525   5.643  1.00  0.00     0.031 C 
ATOM     42  C   UNL     1      -3.140 -12.298   7.532  1.00  0.00     0.029 A 
ATOM     43  C   UNL     1      -3.975 -13.251   6.825  1.00  0.00     0.049 A 
ATOM     44  H   UNL     1      -6.069 -13.258   6.747  1.00  0.00     0.167 HD
ATOM     45  C   UNL     1     -10.317 -12.755   6.124  1.00  0.00     0.031 A 
ATOM     46  C   UNL     1      -3.619 -14.354   6.117  1.00  0.00     0.031 A 
ATOM     47  C   UNL     1     -10.297 -13.738   7.182  1.00  0.00     0.049 A 
ATOM     48  C   UNL     1      -4.800 -15.248   6.097  1.00  0.00     0.074 A 
ATOM     49  C   UNL     1     -10.578 -13.720   8.535  1.00  0.00     0.029 A 
ATOM     50  N   UNL     1      -9.519 -14.854   6.972  1.00  0.00    -0.354 N 
ATOM     51  N   UNL     1      -5.274 -15.828   7.163  1.00  0.00    -0.248 NA
ATOM     52  C   UNL     1      -5.720 -15.149   4.978  1.00  0.00     0.031 C 
ATOM     53  C   UNL     1      -9.570 -14.535   9.131  1.00  0.00     0.029 A 
ATOM     54  C   UNL     1      -8.790 -15.083   8.111  1.00  0.00     0.049 A 
ATOM     55  H   UNL     1      -9.491 -15.393   6.149  1.00  0.00     0.167 HD
ATOM     56  C   UNL     1      -6.650 -15.742   7.024  1.00  0.00     0.074 A 
ATOM     57  C   UNL     1      -6.864 -15.418   5.614  1.00  0.00     0.031 C 
ATOM     58  C   UNL     1      -7.465 -15.669   8.118  1.00  0.00     0.031 A 
BRANCH  45  59
ATOM     59  C   UNL     1     -10.718 -13.112   4.713  1.00  0.00    -0.014 A 
ATOM     60  C   UNL     1     -11.580 -14.208   4.507  1.00  0.00     0.010 A 
ATOM     61  C   UNL     1     -10.066 -12.590   3.576  1.00  0.00     0.010 A 
ATOM     62  C   UNL     1     -11.736 -14.781   3.237  1.00  0.00     0.020 A 
ATOM     63  C   UNL     1     -10.249 -13.123   2.301  1.00  0.00     0.020 A 
ATOM     64  C   UNL     1     -11.063 -14.235   2.144  1.00  0.00     0.054 A 
BRANCH  64  65
ATOM     65  S   UNL     1     -11.225 -15.015   0.521  1.00  0.00     0.124 S 
ATOM     66  O   UNL     1     -10.564 -16.298   0.738  1.00  0.00    -0.237 OA
ATOM     67  O   UNL     1     -12.675 -15.068   0.350  1.00  0.00    -0.237 OA
ATOM     68  O   UNL     1     -10.531 -14.092  -0.373  1.00  0.00    -0.744 OA
ENDBRANCH  64  65
ENDBRANCH  45  59
BRANCH  46  69
ATOM     69  C   UNL     1      -2.446 -14.576   5.234  1.00  0.00    -0.014 A 
ATOM     70  C   UNL     1      -2.150 -15.863   4.740  1.00  0.00     0.010 A 
ATOM     71  C   UNL     1      -1.813 -13.479   4.618  1.00  0.00     0.010 A 
ATOM     72  C   UNL     1      -1.323 -16.038   3.617  1.00  0.00     0.020 A 
ATOM     73  C   UNL     1      -0.982 -13.646   3.502  1.00  0.00     0.020 A 
ATOM     74  C   UNL     1      -0.765 -14.923   2.987  1.00  0.00     0.054 A 
BRANCH  74  75
ATOM     75  S   UNL     1       0.131 -15.136   1.417  1.00  0.00     0.124 S 
ATOM     76  O   UNL     1       1.359 -15.799   1.847  1.00  0.00    -0.237 OA
ATOM     77  O   UNL     1      -0.788 -15.957   0.634  1.00  0.00    -0.237 OA
ATOM     78  O   UNL     1       0.303 -13.768   0.931  1.00  0.00    -0.744 OA
ENDBRANCH  74  75
ENDBRANCH  46  69
BRANCH  58  79
ATOM     79  C   UNL     1      -6.894 -16.048   9.469  1.00  0.00    -0.014 A 
ATOM     80  C   UNL     1      -5.769 -15.445  10.068  1.00  0.00     0.010 A 
ATOM     81  C   UNL     1      -7.605 -17.009  10.211  1.00  0.00     0.010 A 
ATOM     82  C   UNL     1      -5.343 -15.833  11.350  1.00  0.00     0.020 A 
ATOM     83  C   UNL     1      -7.202 -17.383  11.493  1.00  0.00     0.020 A 
ATOM     84  C   UNL     1      -6.061 -16.807  12.051  1.00  0.00     0.054 A 
BRANCH  84  85
ATOM     85  S   UNL     1      -5.511 -17.317  13.704  1.00  0.00     0.124 S 
ATOM     86  O   UNL     1      -4.244 -17.988  13.425  1.00  0.00    -0.237 OA
ATOM     87  O   UNL     1      -5.406 -16.047  14.419  1.00  0.00    -0.237 OA
ATOM     88  O   UNL     1      -6.582 -18.195  14.174  1.00  0.00    -0.744 OA
ENDBRANCH  84  85
ENDBRANCH  58  79
ENDBRANCH  32  33
ENDBRANCH  24  27
ENDBRANCH   1  23
TORSDOF 15
