REMARK SMILES O=C(N[C@@H]1C=C[C@@H](C(=O)NCCCNC(=O)c2ccc(-c3c4nc(c(-c5ccc(S(=O)(=O)[O-])cc5)c5ccc([nH]5)c(-c5ccc(S(=O)(=O)[O-])cc5)c5nc(c(-c6ccc(S(=O)(=O)[O-])cc6)c6ccc3[nH]6)C=C5)C=C4)cc2)C1)N[C@H]1CCCc2sccc21
REMARK SMILES IDX 12 1 11 2 10 3 8 4 9 5 7 7 4 8 5 9 77 10 6 11 3 12 1 13 2 14
REMARK SMILES IDX 78 15 79 18 80 19 87 20 81 21 83 22 86 23 82 24 84 25 85 26
REMARK SMILES IDX 13 27 14 28 15 29 16 31 17 32 18 33 76 34 19 35 75 36 20 37
REMARK SMILES IDX 21 38 22 39 69 40 23 41 74 42 68 43 70 44 24 45 73 46 67 47
REMARK SMILES IDX 66 48 25 50 55 51 36 52 54 53 37 54 40 55 53 56 71 57 38 58
REMARK SMILES IDX 39 59 52 61 72 62 41 63 26 64 27 65 35 66 28 67 34 68 29 69
REMARK SMILES IDX 30 70 31 71 32 72 33 73 56 74 57 75 65 76 58 77 64 78 59 79
REMARK SMILES IDX 60 80 61 81 62 82 63 83 42 84 43 85 51 86 44 87 50 88 45 89
REMARK SMILES IDX 46 90 47 91 48 92 49 93
REMARK H PARENT 10 6 3 16 78 17 14 30 70 49 40 60
REMARK Flexibility Score: inf
ROOT
ATOM      1  C   UNL     1       2.511  -1.233   4.866  1.00  0.00     0.042 C 
ENDROOT
BRANCH   1   2
ATOM      2  C   UNL     1       3.706  -0.290   4.867  1.00  0.00     0.117 C 
BRANCH   2   3
ATOM      3  N   UNL     1       4.960  -0.983   5.100  1.00  0.00    -0.356 N 
ATOM      4  C   UNL     1       6.012  -1.239   4.277  1.00  0.00     0.227 C 
ATOM      5  O   UNL     1       6.991  -1.801   4.781  1.00  0.00    -0.274 OA
ATOM      6  H   UNL     1       5.068  -1.328   6.016  1.00  0.00     0.163 HD
BRANCH   4   7
ATOM      7  C   UNL     1       6.026  -0.862   2.792  1.00  0.00     0.103 C 
ATOM      8  C   UNL     1       4.213  -0.392   1.179  1.00  0.00     0.107 C 
ATOM      9  C   UNL     1       4.891   0.853   1.661  1.00  0.00    -0.006 C 
ATOM     10  C   UNL     1       4.928  -1.519   1.944  1.00  0.00     0.047 C 
ATOM     11  C   UNL     1       5.871   0.604   2.537  1.00  0.00    -0.016 C 
BRANCH   8  12
ATOM     12  N   UNL     1       4.449  -0.476  -0.244  1.00  0.00    -0.332 N 
ATOM     13  O   UNL     1       4.097  -0.586  -2.428  1.00  0.00    -0.249 OA
ATOM     14  C   UNL     1       3.613  -0.598  -1.299  1.00  0.00     0.315 C 
ATOM     15  N   UNL     1       2.287  -0.706  -1.054  1.00  0.00    -0.331 N 
ATOM     16  H   UNL     1       5.401  -0.436  -0.493  1.00  0.00     0.165 HD
ATOM     17  H   UNL     1       1.982  -0.801  -0.123  1.00  0.00     0.166 HD
BRANCH  15  18
ATOM     18  C   UNL     1       1.294  -0.685  -2.123  1.00  0.00     0.115 C 
ATOM     19  C   UNL     1       0.564  -2.048  -2.232  1.00  0.00     0.030 C 
ATOM     20  C   UNL     1       0.382   0.471  -1.821  1.00  0.00    -0.012 A 
ATOM     21  C   UNL     1      -0.977  -2.010  -2.178  1.00  0.00     0.008 C 
ATOM     22  C   UNL     1      -0.905   0.296  -1.356  1.00  0.00     0.010 A 
ATOM     23  C   UNL     1       0.682   1.859  -1.996  1.00  0.00     0.018 A 
ATOM     24  C   UNL     1      -1.528  -1.040  -1.127  1.00  0.00     0.047 C 
ATOM     25  S   UNL     1      -1.731   1.761  -1.120  1.00  0.00    -0.149 S 
ATOM     26  C   UNL     1      -0.384   2.667  -1.665  1.00  0.00     0.065 A 
ENDBRANCH  15  18
ENDBRANCH   8  12
ENDBRANCH   4   7
ENDBRANCH   2   3
ENDBRANCH   1   2
BRANCH   1  27
ATOM     27  C   UNL     1       2.215  -1.848   6.227  1.00  0.00     0.118 C 
BRANCH  27  28
ATOM     28  N   UNL     1       1.808  -0.851   7.209  1.00  0.00    -0.352 N 
ATOM     29  C   UNL     1       0.611  -0.689   7.860  1.00  0.00     0.251 C 
ATOM     30  H   UNL     1       2.500  -0.191   7.442  1.00  0.00     0.163 HD
ATOM     31  O   UNL     1       0.404   0.351   8.488  1.00  0.00    -0.269 OA
BRANCH  29  32
ATOM     32  C   UNL     1      -0.430  -1.736   7.798  1.00  0.00     0.039 A 
ATOM     33  C   UNL     1      -1.768  -1.357   7.665  1.00  0.00     0.014 A 
ATOM     34  C   UNL     1      -0.095  -3.089   7.893  1.00  0.00     0.014 A 
ATOM     35  C   UNL     1      -2.760  -2.336   7.562  1.00  0.00     0.010 A 
ATOM     36  C   UNL     1      -1.070  -4.062   7.697  1.00  0.00     0.010 A 
ATOM     37  C   UNL     1      -2.415  -3.697   7.539  1.00  0.00    -0.014 A 
BRANCH  37  38
ATOM     38  C   UNL     1      -3.442  -4.754   7.354  1.00  0.00     0.031 A 
ATOM     39  C   UNL     1      -3.678  -5.779   8.431  1.00  0.00     0.074 A 
ATOM     40  C   UNL     1      -4.114  -4.834   6.189  1.00  0.00     0.049 A 
ATOM     41  N   UNL     1      -4.491  -6.804   8.431  1.00  0.00    -0.248 NA
ATOM     42  C   UNL     1      -2.876  -5.651   9.659  1.00  0.00     0.031 C 
ATOM     43  C   UNL     1      -3.951  -3.924   5.053  1.00  0.00     0.029 A 
ATOM     44  N   UNL     1      -5.068  -5.725   5.766  1.00  0.00    -0.354 N 
ATOM     45  C   UNL     1      -4.284  -7.452   9.643  1.00  0.00     0.074 A 
ATOM     46  C   UNL     1      -3.229  -6.738  10.327  1.00  0.00     0.031 C 
ATOM     47  C   UNL     1      -4.804  -4.280   4.080  1.00  0.00     0.029 A 
ATOM     48  C   UNL     1      -5.538  -5.470   4.500  1.00  0.00     0.049 A 
ATOM     49  H   UNL     1      -5.386  -6.476   6.317  1.00  0.00     0.167 HD
ATOM     50  C   UNL     1      -4.925  -8.533  10.151  1.00  0.00     0.031 A 
ATOM     51  C   UNL     1      -6.454  -6.120   3.756  1.00  0.00     0.031 A 
ATOM     52  C   UNL     1      -5.974  -9.241   9.465  1.00  0.00     0.049 A 
ATOM     53  C   UNL     1      -7.136  -7.331   4.327  1.00  0.00     0.074 A 
ATOM     54  C   UNL     1      -6.726 -10.312   9.915  1.00  0.00     0.029 A 
ATOM     55  N   UNL     1      -6.413  -8.956   8.180  1.00  0.00    -0.354 N 
ATOM     56  N   UNL     1      -6.975  -7.890   5.503  1.00  0.00    -0.248 NA
ATOM     57  C   UNL     1      -8.132  -7.993   3.474  1.00  0.00     0.031 C 
ATOM     58  C   UNL     1      -7.576 -10.714   8.878  1.00  0.00     0.029 A 
ATOM     59  C   UNL     1      -7.403  -9.851   7.808  1.00  0.00     0.049 A 
ATOM     60  H   UNL     1      -6.071  -8.226   7.616  1.00  0.00     0.167 HD
ATOM     61  C   UNL     1      -7.870  -8.954   5.542  1.00  0.00     0.074 A 
ATOM     62  C   UNL     1      -8.576  -8.951   4.276  1.00  0.00     0.031 C 
ATOM     63  C   UNL     1      -8.090  -9.846   6.540  1.00  0.00     0.031 A 
BRANCH  50  64
ATOM     64  C   UNL     1      -4.484  -9.024  11.507  1.00  0.00    -0.014 A 
ATOM     65  C   UNL     1      -4.691  -8.254  12.668  1.00  0.00     0.010 A 
ATOM     66  C   UNL     1      -3.852 -10.275  11.625  1.00  0.00     0.010 A 
ATOM     67  C   UNL     1      -4.215  -8.694  13.905  1.00  0.00     0.020 A 
ATOM     68  C   UNL     1      -3.405 -10.736  12.867  1.00  0.00     0.020 A 
ATOM     69  C   UNL     1      -3.566  -9.929  13.995  1.00  0.00     0.054 A 
BRANCH  69  70
ATOM     70  S   UNL     1      -2.941 -10.468  15.610  1.00  0.00     0.124 S 
ATOM     71  O   UNL     1      -1.790  -9.587  15.795  1.00  0.00    -0.237 OA
ATOM     72  O   UNL     1      -4.075 -10.211  16.494  1.00  0.00    -0.237 OA
ATOM     73  O   UNL     1      -2.620 -11.878  15.406  1.00  0.00    -0.744 OA
ENDBRANCH  69  70
ENDBRANCH  50  64
BRANCH  51  74
ATOM     74  C   UNL     1      -6.796  -5.609   2.401  1.00  0.00    -0.014 A 
ATOM     75  C   UNL     1      -8.036  -4.988   2.170  1.00  0.00     0.010 A 
ATOM     76  C   UNL     1      -5.867  -5.696   1.348  1.00  0.00     0.010 A 
ATOM     77  C   UNL     1      -8.341  -4.462   0.911  1.00  0.00     0.020 A 
ATOM     78  C   UNL     1      -6.157  -5.147   0.096  1.00  0.00     0.020 A 
ATOM     79  C   UNL     1      -7.395  -4.536  -0.115  1.00  0.00     0.054 A 
BRANCH  79  80
ATOM     80  S   UNL     1      -7.778  -3.767  -1.713  1.00  0.00     0.124 S 
ATOM     81  O   UNL     1      -8.777  -4.680  -2.259  1.00  0.00    -0.237 OA
ATOM     82  O   UNL     1      -8.270  -2.450  -1.317  1.00  0.00    -0.237 OA
ATOM     83  O   UNL     1      -6.490  -3.760  -2.404  1.00  0.00    -0.744 OA
ENDBRANCH  79  80
ENDBRANCH  51  74
BRANCH  63  84
ATOM     84  C   UNL     1      -9.160 -10.883   6.318  1.00  0.00    -0.014 A 
ATOM     85  C   UNL     1      -8.979 -11.941   5.409  1.00  0.00     0.010 A 
ATOM     86  C   UNL     1     -10.345 -10.827   7.075  1.00  0.00     0.010 A 
ATOM     87  C   UNL     1      -9.977 -12.905   5.239  1.00  0.00     0.020 A 
ATOM     88  C   UNL     1     -11.331 -11.806   6.931  1.00  0.00     0.020 A 
ATOM     89  C   UNL     1     -11.146 -12.832   6.002  1.00  0.00     0.054 A 
BRANCH  89  90
ATOM     90  S   UNL     1     -12.405 -14.121   5.795  1.00  0.00     0.124 S 
ATOM     91  O   UNL     1     -12.965 -13.791   4.488  1.00  0.00    -0.237 OA
ATOM     92  O   UNL     1     -11.616 -15.349   5.850  1.00  0.00    -0.237 OA
ATOM     93  O   UNL     1     -13.304 -13.913   6.928  1.00  0.00    -0.744 OA
ENDBRANCH  89  90
ENDBRANCH  63  84
ENDBRANCH  37  38
ENDBRANCH  29  32
ENDBRANCH  27  28
ENDBRANCH   1  27
TORSDOF 15
