REMARK SMILES [NH3+][C@@H](Cc1ccncc1)C(=O)NCCCNC(=O)c1ccc(-c2c3nc(c(-c4ccc(S(=O)(=O)[O-])cc4)c4ccc([nH]4)c(-c4ccc(S(=O)(=O)[O-])cc4)c4nc(c(-c5ccc(S(=O)(=O)[O-])cc5)c5ccc2[nH]5)C=C4)C=C3)cc1
REMARK SMILES IDX 14 1 13 2 12 3 10 4 11 5 2 7 1 8 3 12 4 13 5 14 9 15 6 16
REMARK SMILES IDX 8 17 7 18 15 19 16 20 17 21 18 23 19 24 20 25 78 26 21 27
REMARK SMILES IDX 77 28 22 29 23 30 24 31 71 32 25 33 76 34 70 35 72 36 26 37
REMARK SMILES IDX 75 38 69 39 68 40 27 42 57 43 38 44 56 45 39 46 42 47 55 48
REMARK SMILES IDX 73 49 40 50 41 51 54 53 74 54 43 55 28 56 29 57 37 58 30 59
REMARK SMILES IDX 36 60 31 61 32 62 33 63 34 64 35 65 58 66 59 67 67 68 60 69
REMARK SMILES IDX 66 70 61 71 62 72 63 73 64 74 65 75 44 76 45 77 53 78 46 79
REMARK SMILES IDX 52 80 47 81 48 82 49 83 50 84 51 85
REMARK H PARENT 12 6 1 9 1 10 1 11 16 22 72 41 42 52
REMARK Flexibility Score: inf
ROOT
ATOM      1  C   UNL     1      -1.903  -1.433   1.468  1.00  0.00     0.042 C 
ENDROOT
BRANCH   1   2
ATOM      2  C   UNL     1      -1.615  -1.825   0.033  1.00  0.00     0.118 C 
BRANCH   2   3
ATOM      3  N   UNL     1      -1.680  -0.757  -0.925  1.00  0.00    -0.351 N 
ATOM      4  C   UNL     1      -0.677  -0.275  -1.717  1.00  0.00     0.278 C 
ATOM      5  O   UNL     1      -1.014   0.369  -2.717  1.00  0.00    -0.268 OA
ATOM      6  H   UNL     1      -2.556  -0.318  -1.024  1.00  0.00     0.163 HD
BRANCH   4   7
ATOM      7  C   UNL     1       0.829  -0.474  -1.375  1.00  0.00     0.275 C 
BRANCH   7   8
ATOM      8  N   UNL     1       1.150   0.140  -0.075  1.00  0.00    -0.347 N 
ATOM      9  H   UNL     1       2.139  -0.000   0.133  1.00  0.00     0.345 HD
ATOM     10  H   UNL     1       0.584  -0.294   0.655  1.00  0.00     0.345 HD
ATOM     11  H   UNL     1       0.948   1.139  -0.112  1.00  0.00     0.345 HD
ENDBRANCH   7   8
BRANCH   7  12
ATOM     12  C   UNL     1       1.471  -1.855  -1.698  1.00  0.00     0.111 C 
BRANCH  12  13
ATOM     13  C   UNL     1       1.367  -3.064  -0.786  1.00  0.00    -0.038 A 
ATOM     14  C   UNL     1       1.574  -3.016   0.599  1.00  0.00     0.024 A 
ATOM     15  C   UNL     1       1.051  -4.313  -1.342  1.00  0.00     0.024 A 
ATOM     16  C   UNL     1       1.339  -4.157   1.359  1.00  0.00     0.111 A 
ATOM     17  C   UNL     1       0.877  -5.407  -0.505  1.00  0.00     0.111 A 
ATOM     18  N   UNL     1       0.991  -5.348   0.835  1.00  0.00    -0.265 NA
ENDBRANCH  12  13
ENDBRANCH   7  12
ENDBRANCH   4   7
ENDBRANCH   2   3
ENDBRANCH   1   2
BRANCH   1  19
ATOM     19  C   UNL     1      -3.267  -1.892   1.954  1.00  0.00     0.118 C 
BRANCH  19  20
ATOM     20  N   UNL     1      -3.487  -3.330   1.819  1.00  0.00    -0.352 N 
ATOM     21  C   UNL     1      -3.998  -4.259   2.688  1.00  0.00     0.251 C 
ATOM     22  H   UNL     1      -3.221  -3.698   0.946  1.00  0.00     0.163 HD
ATOM     23  O   UNL     1      -4.045  -5.436   2.335  1.00  0.00    -0.269 OA
BRANCH  21  24
ATOM     24  C   UNL     1      -4.449  -3.877   4.043  1.00  0.00     0.039 A 
ATOM     25  C   UNL     1      -4.250  -4.780   5.091  1.00  0.00     0.014 A 
ATOM     26  C   UNL     1      -5.060  -2.649   4.295  1.00  0.00     0.014 A 
ATOM     27  C   UNL     1      -4.601  -4.420   6.393  1.00  0.00     0.010 A 
ATOM     28  C   UNL     1      -5.284  -2.241   5.603  1.00  0.00     0.010 A 
ATOM     29  C   UNL     1      -5.080  -3.128   6.665  1.00  0.00    -0.014 A 
BRANCH  29  30
ATOM     30  C   UNL     1      -5.400  -2.699   8.050  1.00  0.00     0.031 A 
ATOM     31  C   UNL     1      -6.797  -2.254   8.399  1.00  0.00     0.074 A 
ATOM     32  C   UNL     1      -4.421  -2.661   8.976  1.00  0.00     0.049 A 
ATOM     33  N   UNL     1      -7.261  -1.820   9.542  1.00  0.00    -0.248 NA
ATOM     34  C   UNL     1      -7.796  -2.261   7.315  1.00  0.00     0.031 C 
ATOM     35  C   UNL     1      -3.015  -3.005   8.741  1.00  0.00     0.029 A 
ATOM     36  N   UNL     1      -4.459  -2.319  10.303  1.00  0.00    -0.354 N 
ATOM     37  C   UNL     1      -8.590  -1.485   9.309  1.00  0.00     0.074 A 
ATOM     38  C   UNL     1      -8.841  -1.698   7.902  1.00  0.00     0.031 C 
ATOM     39  C   UNL     1      -2.339  -2.906   9.896  1.00  0.00     0.029 A 
ATOM     40  C   UNL     1      -3.248  -2.451  10.942  1.00  0.00     0.049 A 
ATOM     41  H   UNL     1      -5.276  -2.009  10.757  1.00  0.00     0.167 HD
ATOM     42  C   UNL     1      -9.529  -1.069  10.190  1.00  0.00     0.031 A 
ATOM     43  C   UNL     1      -2.909  -2.236  12.227  1.00  0.00     0.031 A 
ATOM     44  C   UNL     1      -9.280  -0.885  11.594  1.00  0.00     0.049 A 
ATOM     45  C   UNL     1      -3.974  -1.795  13.193  1.00  0.00     0.074 A 
ATOM     46  C   UNL     1     -10.174  -0.529  12.588  1.00  0.00     0.029 A 
ATOM     47  N   UNL     1      -8.046  -1.048  12.205  1.00  0.00    -0.354 N 
ATOM     48  N   UNL     1      -5.244  -1.554  12.966  1.00  0.00    -0.248 NA
ATOM     49  C   UNL     1      -3.564  -1.614  14.591  1.00  0.00     0.031 C 
ATOM     50  C   UNL     1      -9.469  -0.426  13.791  1.00  0.00     0.029 A 
ATOM     51  C   UNL     1      -8.149  -0.780  13.559  1.00  0.00     0.049 A 
ATOM     52  H   UNL     1      -7.218  -1.315  11.743  1.00  0.00     0.167 HD
ATOM     53  C   UNL     1      -5.791  -1.220  14.200  1.00  0.00     0.074 A 
ATOM     54  C   UNL     1      -4.718  -1.310  15.169  1.00  0.00     0.031 C 
ATOM     55  C   UNL     1      -7.066  -0.870  14.505  1.00  0.00     0.031 A 
BRANCH  42  56
ATOM     56  C   UNL     1     -10.912  -0.791   9.658  1.00  0.00    -0.014 A 
ATOM     57  C   UNL     1     -11.731  -1.832   9.181  1.00  0.00     0.010 A 
ATOM     58  C   UNL     1     -11.412   0.523   9.661  1.00  0.00     0.010 A 
ATOM     59  C   UNL     1     -13.005  -1.558   8.677  1.00  0.00     0.020 A 
ATOM     60  C   UNL     1     -12.699   0.797   9.187  1.00  0.00     0.020 A 
ATOM     61  C   UNL     1     -13.481  -0.244   8.682  1.00  0.00     0.054 A 
BRANCH  61  62
ATOM     62  S   UNL     1     -15.148   0.078   8.046  1.00  0.00     0.124 S 
ATOM     63  O   UNL     1     -14.961  -0.100   6.608  1.00  0.00    -0.237 OA
ATOM     64  O   UNL     1     -15.947  -0.951   8.707  1.00  0.00    -0.237 OA
ATOM     65  O   UNL     1     -15.425   1.448   8.472  1.00  0.00    -0.744 OA
ENDBRANCH  61  62
ENDBRANCH  42  56
BRANCH  43  66
ATOM     66  C   UNL     1      -1.509  -2.468  12.678  1.00  0.00    -0.014 A 
ATOM     67  C   UNL     1      -1.200  -3.548  13.524  1.00  0.00     0.010 A 
ATOM     68  C   UNL     1      -0.473  -1.617  12.250  1.00  0.00     0.010 A 
ATOM     69  C   UNL     1       0.114  -3.760  13.952  1.00  0.00     0.020 A 
ATOM     70  C   UNL     1       0.847  -1.844  12.652  1.00  0.00     0.020 A 
ATOM     71  C   UNL     1       1.130  -2.907  13.512  1.00  0.00     0.054 A 
BRANCH  71  72
ATOM     72  S   UNL     1       2.835  -3.228  14.043  1.00  0.00     0.124 S 
ATOM     73  O   UNL     1       2.800  -2.815  15.442  1.00  0.00    -0.237 OA
ATOM     74  O   UNL     1       2.972  -4.664  13.809  1.00  0.00    -0.237 OA
ATOM     75  O   UNL     1       3.633  -2.382  13.158  1.00  0.00    -0.744 OA
ENDBRANCH  71  72
ENDBRANCH  43  66
BRANCH  55  76
ATOM     76  C   UNL     1      -7.374  -0.593  15.952  1.00  0.00    -0.014 A 
ATOM     77  C   UNL     1      -6.884   0.557  16.597  1.00  0.00     0.010 A 
ATOM     78  C   UNL     1      -8.197  -1.483  16.666  1.00  0.00     0.010 A 
ATOM     79  C   UNL     1      -7.172   0.786  17.944  1.00  0.00     0.020 A 
ATOM     80  C   UNL     1      -8.515  -1.240  18.004  1.00  0.00     0.020 A 
ATOM     81  C   UNL     1      -7.983  -0.117  18.640  1.00  0.00     0.054 A 
BRANCH  81  82
ATOM     82  S   UNL     1      -8.359   0.213  20.383  1.00  0.00     0.124 S 
ATOM     83  O   UNL     1      -7.091  -0.110  21.032  1.00  0.00    -0.237 OA
ATOM     84  O   UNL     1      -8.717   1.629  20.372  1.00  0.00    -0.237 OA
ATOM     85  O   UNL     1      -9.461  -0.700  20.679  1.00  0.00    -0.744 OA
ENDBRANCH  81  82
ENDBRANCH  55  76
ENDBRANCH  29  30
ENDBRANCH  21  24
ENDBRANCH  19  20
ENDBRANCH   1  19
TORSDOF 16
