REMARK SMILES CC(C)(C)c1ccc(OCC(=O)NNC(=O)[C@H]2[C@@H](C(=O)NCCCNC(=O)c3ccc(-c4c5nc(c(-c6ccc(S(=O)(=O)[O-])cc6)c6ccc([nH]6)c(-c6ccc(S(=O)(=O)[O-])cc6)c6nc(c(-c7ccc(S(=O)(=O)[O-])cc7)c7ccc4[nH]7)C=C6)C=C5)cc3)[C@@H]3C=C[C@H]2C3)cc1
REMARK SMILES IDX 19 1 20 2 21 3 18 5 17 6 91 7 88 8 90 9 92 10 89 11 15 12
REMARK SMILES IDX 14 13 16 15 13 16 11 17 12 18 10 20 9 21 8 22 5 23 6 24
REMARK SMILES IDX 94 25 7 26 93 27 2 28 1 29 3 30 4 31 22 32 23 33 24 34 25 35
REMARK SMILES IDX 26 36 27 38 28 39 29 40 87 41 30 42 86 43 31 44 32 45 33 46
REMARK SMILES IDX 80 47 34 48 85 49 79 50 81 51 35 52 84 53 78 54 77 55 36 57
REMARK SMILES IDX 66 58 47 59 65 60 48 61 51 62 64 63 82 64 49 65 50 66 63 68
REMARK SMILES IDX 83 69 52 70 37 71 38 72 46 73 39 74 45 75 40 76 41 77 42 78
REMARK SMILES IDX 43 79 44 80 67 81 68 82 76 83 69 84 75 85 70 86 71 87 72 88
REMARK SMILES IDX 73 89 74 90 53 91 54 92 62 93 55 94 61 95 56 96 57 97 58 98
REMARK SMILES IDX 59 99 60 100
REMARK H PARENT 21 4 14 14 13 19 25 37 81 56 51 67
REMARK Flexibility Score: inf
ROOT
ATOM      1  C   UNL     1      -4.241  -0.837 -10.410  1.00  0.00     0.224 C 
ATOM      2  O   UNL     1      -5.370  -0.371 -10.605  1.00  0.00    -0.275 OA
ATOM      3  N   UNL     1      -4.146  -2.172 -10.610  1.00  0.00    -0.356 N 
ATOM      4  H   UNL     1      -4.902  -2.557 -11.109  1.00  0.00     0.163 HD
ENDROOT
BRANCH   1   5
ATOM      5  C   UNL     1      -3.028   0.073 -10.163  1.00  0.00     0.098 C 
ATOM      6  C   UNL     1      -2.215   0.096  -8.826  1.00  0.00     0.100 C 
ATOM      7  C   UNL     1      -2.590   1.481  -8.204  1.00  0.00     0.025 C 
ATOM      8  C   UNL     1      -3.556   1.550 -10.210  1.00  0.00     0.025 C 
ATOM      9  C   UNL     1      -1.846   2.522  -9.012  1.00  0.00    -0.027 C 
ATOM     10  C   UNL     1      -3.993   1.733  -8.750  1.00  0.00     0.017 C 
ATOM     11  C   UNL     1      -2.401   2.531 -10.232  1.00  0.00    -0.027 C 
BRANCH   6  12
ATOM     12  C   UNL     1      -2.383  -0.983  -7.778  1.00  0.00     0.242 C 
ATOM     13  N   UNL     1      -1.375  -1.919  -7.628  1.00  0.00    -0.267 N 
ATOM     14  H   UNL     1      -1.435  -2.534  -6.861  1.00  0.00     0.191 HD
ATOM     15  O   UNL     1      -3.363  -1.015  -7.036  1.00  0.00    -0.273 OA
BRANCH  13  16
ATOM     16  N   UNL     1      -0.278  -2.060  -8.482  1.00  0.00    -0.265 N 
ATOM     17  C   UNL     1       0.397  -3.233  -8.716  1.00  0.00     0.276 C 
ATOM     18  O   UNL     1       1.243  -3.256  -9.614  1.00  0.00    -0.269 OA
ATOM     19  H   UNL     1       0.036  -1.254  -8.953  1.00  0.00     0.191 HD
BRANCH  17  20
ATOM     20  C   UNL     1       0.087  -4.489  -7.889  1.00  0.00     0.331 C 
BRANCH  20  21
ATOM     21  O   UNL     1      -0.219  -4.295  -6.517  1.00  0.00    -0.484 OA
BRANCH  21  22
ATOM     22  C   UNL     1       0.770  -3.751  -5.741  1.00  0.00     0.120 A 
ATOM     23  C   UNL     1       2.577  -2.408  -4.015  1.00  0.00    -0.042 A 
ATOM     24  C   UNL     1       1.264  -2.700  -3.612  1.00  0.00     0.008 A 
ATOM     25  C   UNL     1       2.966  -2.841  -5.295  1.00  0.00     0.008 A 
ATOM     26  C   UNL     1       0.373  -3.363  -4.464  1.00  0.00     0.047 A 
ATOM     27  C   UNL     1       2.084  -3.520  -6.138  1.00  0.00     0.047 A 
BRANCH  23  28
ATOM     28  C   UNL     1       3.557  -1.612  -3.138  1.00  0.00    -0.013 C 
ATOM     29  C   UNL     1       4.954  -2.273  -3.125  1.00  0.00     0.016 C 
ATOM     30  C   UNL     1       3.107  -1.484  -1.667  1.00  0.00     0.016 C 
ATOM     31  C   UNL     1       3.678  -0.189  -3.724  1.00  0.00     0.016 C 
ENDBRANCH  23  28
ENDBRANCH  21  22
ENDBRANCH  20  21
ENDBRANCH  17  20
ENDBRANCH  13  16
ENDBRANCH   6  12
ENDBRANCH   1   5
BRANCH   3  32
ATOM     32  C   UNL     1      -3.143  -3.136 -10.229  1.00  0.00     0.117 C 
BRANCH  32  33
ATOM     33  C   UNL     1      -3.562  -3.818  -8.928  1.00  0.00     0.042 C 
BRANCH  33  34
ATOM     34  C   UNL     1      -4.708  -4.809  -9.073  1.00  0.00     0.118 C 
BRANCH  34  35
ATOM     35  N   UNL     1      -4.260  -6.095  -9.576  1.00  0.00    -0.352 N 
ATOM     36  C   UNL     1      -4.062  -7.297  -8.939  1.00  0.00     0.251 C 
ATOM     37  H   UNL     1      -4.063  -6.109 -10.540  1.00  0.00     0.163 HD
ATOM     38  O   UNL     1      -3.458  -8.180  -9.549  1.00  0.00    -0.269 OA
BRANCH  36  39
ATOM     39  C   UNL     1      -4.526  -7.554  -7.550  1.00  0.00     0.039 A 
ATOM     40  C   UNL     1      -3.779  -8.429  -6.752  1.00  0.00     0.014 A 
ATOM     41  C   UNL     1      -5.712  -7.024  -7.038  1.00  0.00     0.014 A 
ATOM     42  C   UNL     1      -4.192  -8.730  -5.448  1.00  0.00     0.010 A 
ATOM     43  C   UNL     1      -6.071  -7.244  -5.706  1.00  0.00     0.010 A 
ATOM     44  C   UNL     1      -5.329  -8.117  -4.899  1.00  0.00    -0.014 A 
BRANCH  44  45
ATOM     45  C   UNL     1      -5.768  -8.404  -3.505  1.00  0.00     0.031 A 
ATOM     46  C   UNL     1      -7.116  -9.030  -3.242  1.00  0.00     0.074 A 
ATOM     47  C   UNL     1      -4.979  -8.063  -2.466  1.00  0.00     0.049 A 
ATOM     48  N   UNL     1      -7.691  -9.305  -2.097  1.00  0.00    -0.248 NA
ATOM     49  C   UNL     1      -7.936  -9.371  -4.416  1.00  0.00     0.031 C 
ATOM     50  C   UNL     1      -3.670  -7.414  -2.571  1.00  0.00     0.029 A 
ATOM     51  N   UNL     1      -5.165  -8.213  -1.113  1.00  0.00    -0.354 N 
ATOM     52  C   UNL     1      -8.943  -9.822  -2.412  1.00  0.00     0.074 A 
ATOM     53  C   UNL     1      -9.063  -9.783  -3.853  1.00  0.00     0.031 C 
ATOM     54  C   UNL     1      -3.159  -7.251  -1.339  1.00  0.00     0.029 A 
ATOM     55  C   UNL     1      -4.117  -7.745  -0.355  1.00  0.00     0.049 A 
ATOM     56  H   UNL     1      -5.973  -8.618  -0.722  1.00  0.00     0.167 HD
ATOM     57  C   UNL     1      -9.901 -10.305  -1.584  1.00  0.00     0.031 A 
ATOM     58  C   UNL     1      -3.943  -7.712   0.981  1.00  0.00     0.031 A 
ATOM     59  C   UNL     1      -9.775 -10.374  -0.152  1.00  0.00     0.049 A 
ATOM     60  C   UNL     1      -5.012  -8.270   1.879  1.00  0.00     0.074 A 
ATOM     61  C   UNL     1     -10.667 -10.903   0.765  1.00  0.00     0.029 A 
ATOM     62  N   UNL     1      -8.689  -9.907   0.570  1.00  0.00    -0.354 N 
ATOM     63  N   UNL     1      -6.166  -8.803   1.555  1.00  0.00    -0.248 NA
ATOM     64  C   UNL     1      -4.750  -8.231   3.325  1.00  0.00     0.031 C 
ATOM     65  C   UNL     1     -10.136 -10.721   2.047  1.00  0.00     0.029 A 
ATOM     66  C   UNL     1      -8.893 -10.122   1.923  1.00  0.00     0.049 A 
ATOM     67  H   UNL     1      -7.889  -9.486   0.180  1.00  0.00     0.167 HD
ATOM     68  C   UNL     1      -6.756  -9.183   2.755  1.00  0.00     0.074 A 
ATOM     69  C   UNL     1      -5.827  -8.835   3.809  1.00  0.00     0.031 C 
ATOM     70  C   UNL     1      -7.961  -9.769   2.963  1.00  0.00     0.031 A 
BRANCH  57  71
ATOM     71  C   UNL     1     -11.177 -10.803  -2.211  1.00  0.00    -0.014 A 
ATOM     72  C   UNL     1     -11.203 -12.001  -2.949  1.00  0.00     0.010 A 
ATOM     73  C   UNL     1     -12.374 -10.087  -2.028  1.00  0.00     0.010 A 
ATOM     74  C   UNL     1     -12.392 -12.450  -3.528  1.00  0.00     0.020 A 
ATOM     75  C   UNL     1     -13.572 -10.547  -2.584  1.00  0.00     0.020 A 
ATOM     76  C   UNL     1     -13.569 -11.717  -3.346  1.00  0.00     0.054 A 
BRANCH  76  77
ATOM     77  S   UNL     1     -15.103 -12.334  -4.093  1.00  0.00     0.124 S 
ATOM     78  O   UNL     1     -14.907 -11.998  -5.501  1.00  0.00    -0.237 OA
ATOM     79  O   UNL     1     -15.066 -13.759  -3.776  1.00  0.00    -0.237 OA
ATOM     80  O   UNL     1     -16.149 -11.575  -3.412  1.00  0.00    -0.744 OA
ENDBRANCH  76  77
ENDBRANCH  57  71
BRANCH  58  81
ATOM     81  C   UNL     1      -2.692  -7.143   1.551  1.00  0.00    -0.014 A 
ATOM     82  C   UNL     1      -1.722  -7.984   2.123  1.00  0.00     0.010 A 
ATOM     83  C   UNL     1      -2.460  -5.756   1.515  1.00  0.00     0.010 A 
ATOM     84  C   UNL     1      -0.549  -7.449   2.663  1.00  0.00     0.020 A 
ATOM     85  C   UNL     1      -1.277  -5.219   2.031  1.00  0.00     0.020 A 
ATOM     86  C   UNL     1      -0.334  -6.069   2.613  1.00  0.00     0.054 A 
BRANCH  86  87
ATOM     87  S   UNL     1       1.220  -5.396   3.266  1.00  0.00     0.124 S 
ATOM     88  O   UNL     1       0.979  -5.421   4.705  1.00  0.00    -0.237 OA
ATOM     89  O   UNL     1       2.212  -6.348   2.773  1.00  0.00    -0.237 OA
ATOM     90  O   UNL     1       1.294  -4.066   2.664  1.00  0.00    -0.744 OA
ENDBRANCH  86  87
ENDBRANCH  58  81
BRANCH  70  91
ATOM     91  C   UNL     1      -8.332 -10.099   4.383  1.00  0.00    -0.014 A 
ATOM     92  C   UNL     1      -8.708  -9.091   5.289  1.00  0.00     0.010 A 
ATOM     93  C   UNL     1      -8.347 -11.441   4.804  1.00  0.00     0.010 A 
ATOM     94  C   UNL     1      -9.060  -9.418   6.601  1.00  0.00     0.020 A 
ATOM     95  C   UNL     1      -8.721 -11.774   6.108  1.00  0.00     0.020 A 
ATOM     96  C   UNL     1      -9.060 -10.758   7.004  1.00  0.00     0.054 A 
BRANCH  96  97
ATOM     97  S   UNL     1      -9.554 -11.162   8.702  1.00  0.00     0.124 S 
ATOM     98  O   UNL     1      -8.363 -10.789   9.461  1.00  0.00    -0.237 OA
ATOM     99  O   UNL     1     -10.724 -10.312   8.910  1.00  0.00    -0.237 OA
ATOM    100  O   UNL     1      -9.835 -12.595   8.648  1.00  0.00    -0.744 OA
ENDBRANCH  96  97
ENDBRANCH  70  91
ENDBRANCH  44  45
ENDBRANCH  36  39
ENDBRANCH  34  35
ENDBRANCH  33  34
ENDBRANCH  32  33
ENDBRANCH   3  32
TORSDOF 19
