REMARK SMILES C=CC[N@@H+](CC(=O)NCCCNC(=O)c1ccc(-c2c3nc(c(-c4ccc(S(=O)(=O)[O-])cc4)c4ccc([nH]4)c(-c4ccc(S(=O)(=O)[O-])cc4)c4nc(c(-c5ccc(S(=O)(=O)[O-])cc5)c5ccc2[nH]5)C=C4)C=C3)cc1)C(C)C
REMARK SMILES IDX 10 1 9 2 8 3 6 4 7 5 5 7 4 8 3 10 2 11 1 12 75 13 76 14
REMARK SMILES IDX 77 15 11 16 12 17 13 18 14 20 15 21 16 22 74 23 17 24 73 25
REMARK SMILES IDX 18 26 19 27 20 28 67 29 21 30 72 31 66 32 68 33 22 34 71 35
REMARK SMILES IDX 65 36 64 37 23 39 53 40 34 41 52 42 35 43 38 44 51 45 69 46
REMARK SMILES IDX 36 47 37 48 50 50 70 51 39 52 24 53 25 54 33 55 26 56 32 57
REMARK SMILES IDX 27 58 28 59 29 60 30 61 31 62 54 63 55 64 63 65 56 66 62 67
REMARK SMILES IDX 57 68 58 69 59 70 60 71 61 72 40 73 41 74 49 75 42 76 48 77
REMARK SMILES IDX 43 78 44 79 45 80 46 81 47 82
REMARK H PARENT 8 6 4 9 12 19 68 38 38 49
REMARK Flexibility Score: inf
ROOT
ATOM      1  C   UNL     1      -1.965  -0.102   1.745  1.00  0.00     0.042 C 
ENDROOT
BRANCH   1   2
ATOM      2  C   UNL     1      -3.119  -0.730   0.956  1.00  0.00     0.118 C 
BRANCH   2   3
ATOM      3  N   UNL     1      -3.738   0.210   0.035  1.00  0.00    -0.351 N 
ATOM      4  C   UNL     1      -3.727   0.293  -1.327  1.00  0.00     0.275 C 
ATOM      5  O   UNL     1      -4.445   1.167  -1.829  1.00  0.00    -0.269 OA
ATOM      6  H   UNL     1      -4.262   0.917   0.476  1.00  0.00     0.163 HD
BRANCH   4   7
ATOM      7  C   UNL     1      -2.926  -0.659  -2.226  1.00  0.00     0.363 C 
BRANCH   7   8
ATOM      8  N   UNL     1      -1.479  -0.367  -2.423  1.00  0.00    -0.322 N 
ATOM      9  H   UNL     1      -1.156  -0.829  -3.273  1.00  0.00     0.349 HD
BRANCH   8  10
ATOM     10  C   UNL     1      -0.669  -1.008  -1.398  1.00  0.00     0.291 C 
BRANCH  10  11
ATOM     11  C   UNL     1       0.815  -1.063  -1.570  1.00  0.00     0.025 C 
ATOM     12  C   UNL     1       1.675  -0.597  -0.652  1.00  0.00     0.010 C 
ENDBRANCH  10  11
ENDBRANCH   8  10
BRANCH   8  13
ATOM     13  C   UNL     1      -1.178   1.019  -2.839  1.00  0.00     0.178 C 
ATOM     14  C   UNL     1      -1.277   2.112  -1.765  1.00  0.00     0.075 C 
ATOM     15  C   UNL     1       0.193   1.148  -3.528  1.00  0.00     0.075 C 
ENDBRANCH   8  13
ENDBRANCH   7   8
ENDBRANCH   4   7
ENDBRANCH   2   3
ENDBRANCH   1   2
BRANCH   1  16
ATOM     16  C   UNL     1      -2.378   0.880   2.830  1.00  0.00     0.118 C 
BRANCH  16  17
ATOM     17  N   UNL     1      -2.728   0.224   4.076  1.00  0.00    -0.352 N 
ATOM     18  C   UNL     1      -2.017   0.036   5.238  1.00  0.00     0.251 C 
ATOM     19  H   UNL     1      -3.636  -0.154   4.092  1.00  0.00     0.163 HD
ATOM     20  O   UNL     1      -2.486  -0.731   6.080  1.00  0.00    -0.269 OA
BRANCH  18  21
ATOM     21  C   UNL     1      -0.710   0.696   5.505  1.00  0.00     0.039 A 
ATOM     22  C   UNL     1       0.233   0.008   6.281  1.00  0.00     0.014 A 
ATOM     23  C   UNL     1      -0.419   2.000   5.098  1.00  0.00     0.014 A 
ATOM     24  C   UNL     1       1.459   0.602   6.607  1.00  0.00     0.010 A 
ATOM     25  C   UNL     1       0.841   2.556   5.340  1.00  0.00     0.010 A 
ATOM     26  C   UNL     1       1.788   1.876   6.120  1.00  0.00    -0.014 A 
BRANCH  26  27
ATOM     27  C   UNL     1       3.084   2.529   6.459  1.00  0.00     0.031 A 
ATOM     28  C   UNL     1       3.105   3.815   7.248  1.00  0.00     0.074 A 
ATOM     29  C   UNL     1       4.246   1.993   6.034  1.00  0.00     0.049 A 
ATOM     30  N   UNL     1       4.128   4.555   7.600  1.00  0.00    -0.248 NA
ATOM     31  C   UNL     1       1.805   4.352   7.679  1.00  0.00     0.031 C 
ATOM     32  C   UNL     1       4.377   0.764   5.248  1.00  0.00     0.029 A 
ATOM     33  N   UNL     1       5.542   2.413   6.208  1.00  0.00    -0.354 N 
ATOM     34  C   UNL     1       3.594   5.650   8.271  1.00  0.00     0.074 A 
ATOM     35  C   UNL     1       2.155   5.505   8.230  1.00  0.00     0.031 C 
ATOM     36  C   UNL     1       5.679   0.509   5.045  1.00  0.00     0.029 A 
ATOM     37  C   UNL     1       6.476   1.575   5.646  1.00  0.00     0.049 A 
ATOM     38  H   UNL     1       5.780   3.238   6.691  1.00  0.00     0.167 HD
ATOM     39  C   UNL     1       4.234   6.673   8.888  1.00  0.00     0.031 A 
ATOM     40  C   UNL     1       7.821   1.649   5.618  1.00  0.00     0.031 A 
ATOM     41  C   UNL     1       5.665   6.816   8.945  1.00  0.00     0.049 A 
ATOM     42  C   UNL     1       8.513   2.804   6.289  1.00  0.00     0.074 A 
ATOM     43  C   UNL     1       6.409   7.797   9.578  1.00  0.00     0.029 A 
ATOM     44  N   UNL     1       6.570   5.951   8.350  1.00  0.00    -0.354 N 
ATOM     45  N   UNL     1       7.989   3.809   6.947  1.00  0.00    -0.248 NA
ATOM     46  C   UNL     1       9.981   2.827   6.218  1.00  0.00     0.031 C 
ATOM     47  C   UNL     1       7.764   7.546   9.331  1.00  0.00     0.029 A 
ATOM     48  C   UNL     1       7.864   6.382   8.586  1.00  0.00     0.049 A 
ATOM     49  H   UNL     1       6.327   5.147   7.834  1.00  0.00     0.167 HD
ATOM     50  C   UNL     1       9.064   4.570   7.395  1.00  0.00     0.074 A 
ATOM     51  C   UNL     1      10.267   3.904   6.938  1.00  0.00     0.031 C 
ATOM     52  C   UNL     1       9.054   5.713   8.124  1.00  0.00     0.031 A 
BRANCH  39  53
ATOM     53  C   UNL     1       3.376   7.725   9.542  1.00  0.00    -0.014 A 
ATOM     54  C   UNL     1       2.629   7.435  10.700  1.00  0.00     0.010 A 
ATOM     55  C   UNL     1       3.307   9.018   8.992  1.00  0.00     0.010 A 
ATOM     56  C   UNL     1       1.778   8.395  11.253  1.00  0.00     0.020 A 
ATOM     57  C   UNL     1       2.480   9.991   9.560  1.00  0.00     0.020 A 
ATOM     58  C   UNL     1       1.698   9.664  10.671  1.00  0.00     0.054 A 
BRANCH  58  59
ATOM     59  S   UNL     1       0.568  10.887  11.390  1.00  0.00     0.124 S 
ATOM     60  O   UNL     1      -0.729  10.413  10.908  1.00  0.00    -0.237 OA
ATOM     61  O   UNL     1       0.795  10.731  12.827  1.00  0.00    -0.237 OA
ATOM     62  O   UNL     1       1.020  12.152  10.825  1.00  0.00    -0.744 OA
ENDBRANCH  58  59
ENDBRANCH  39  53
BRANCH  40  63
ATOM     63  C   UNL     1       8.607   0.570   4.961  1.00  0.00    -0.014 A 
ATOM     64  C   UNL     1       9.327  -0.353   5.741  1.00  0.00     0.010 A 
ATOM     65  C   UNL     1       8.618   0.439   3.561  1.00  0.00     0.010 A 
ATOM     66  C   UNL     1      10.049  -1.383   5.133  1.00  0.00     0.020 A 
ATOM     67  C   UNL     1       9.320  -0.605   2.950  1.00  0.00     0.020 A 
ATOM     68  C   UNL     1      10.037  -1.505   3.740  1.00  0.00     0.054 A 
BRANCH  68  69
ATOM     69  S   UNL     1      10.923  -2.893   2.977  1.00  0.00     0.124 S 
ATOM     70  O   UNL     1      12.314  -2.472   3.103  1.00  0.00    -0.237 OA
ATOM     71  O   UNL     1      10.524  -4.022   3.815  1.00  0.00    -0.237 OA
ATOM     72  O   UNL     1      10.397  -2.925   1.614  1.00  0.00    -0.744 OA
ENDBRANCH  68  69
ENDBRANCH  40  63
BRANCH  52  73
ATOM     73  C   UNL     1      10.385   6.302   8.506  1.00  0.00    -0.014 A 
ATOM     74  C   UNL     1      11.189   6.963   7.560  1.00  0.00     0.010 A 
ATOM     75  C   UNL     1      10.814   6.236   9.844  1.00  0.00     0.010 A 
ATOM     76  C   UNL     1      12.412   7.522   7.941  1.00  0.00     0.020 A 
ATOM     77  C   UNL     1      12.024   6.815  10.233  1.00  0.00     0.020 A 
ATOM     78  C   UNL     1      12.823   7.443   9.275  1.00  0.00     0.054 A 
BRANCH  78  79
ATOM     79  S   UNL     1      14.393   8.215   9.755  1.00  0.00     0.124 S 
ATOM     80  O   UNL     1      15.370   7.263   9.235  1.00  0.00    -0.237 OA
ATOM     81  O   UNL     1      14.342   9.503   9.068  1.00  0.00    -0.237 OA
ATOM     82  O   UNL     1      14.310   8.290  11.213  1.00  0.00    -0.744 OA
ENDBRANCH  78  79
ENDBRANCH  52  73
ENDBRANCH  26  27
ENDBRANCH  18  21
ENDBRANCH  16  17
ENDBRANCH   1  16
TORSDOF 17
