REMARK SMILES CCOC(=O)[C@@]1(C)C/C(=N/c2cccc(C(=O)NCCCNC(=O)c3ccc(-c4c5nc(c(-c6ccc(S(=O)(=O)[O-])cc6)c6ccc([nH]6)c(-c6ccc(S(=O)(=O)[O-])cc6)c6nc(c(-c7ccc(S(=O)(=O)[O-])cc7)c7ccc4[nH]7)C=C6)C=C5)cc3)c2)C(=O)N1c1ccccc1
REMARK SMILES IDX 19 1 18 2 16 3 17 4 15 6 11 7 12 8 85 9 13 10 14 11 10 12
REMARK SMILES IDX 6 13 7 14 8 15 88 16 9 17 86 18 87 19 4 20 5 21 3 22 2 23
REMARK SMILES IDX 1 24 89 25 90 26 94 27 91 28 93 29 92 30 20 31 21 32 22 33
REMARK SMILES IDX 23 34 24 36 25 37 26 38 84 39 27 40 83 41 28 42 29 43 30 44
REMARK SMILES IDX 77 45 31 46 82 47 76 48 78 49 32 50 81 51 75 52 74 53 33 55
REMARK SMILES IDX 63 56 44 57 62 58 45 59 48 60 61 61 79 62 46 63 47 64 60 66
REMARK SMILES IDX 80 67 49 68 34 69 35 70 43 71 36 72 42 73 37 74 38 75 39 76
REMARK SMILES IDX 40 77 41 78 64 79 65 80 73 81 66 82 72 83 67 84 68 85 69 86
REMARK SMILES IDX 70 87 71 88 50 89 51 90 59 91 52 92 58 93 53 94 54 95 55 96
REMARK SMILES IDX 56 97 57 98
REMARK H PARENT 18 5 22 35 78 54 48 65
REMARK Flexibility Score: inf
ROOT
ATOM      1  C   UNL     1       2.085  -3.236  -8.547  1.00  0.00     0.118 C 
ENDROOT
BRANCH   1   2
ATOM      2  N   UNL     1       2.911  -3.686  -9.658  1.00  0.00    -0.352 N 
ATOM      3  C   UNL     1       4.266  -3.886  -9.770  1.00  0.00     0.251 C 
ATOM      4  O   UNL     1       4.687  -4.452 -10.779  1.00  0.00    -0.269 OA
ATOM      5  H   UNL     1       2.406  -3.882 -10.481  1.00  0.00     0.163 HD
BRANCH   3   6
ATOM      6  C   UNL     1       5.234  -3.484  -8.716  1.00  0.00     0.041 A 
ATOM      7  C   UNL     1       6.004  -2.013  -6.943  1.00  0.00     0.064 A 
ATOM      8  C   UNL     1       7.137  -2.808  -6.770  1.00  0.00     0.028 A 
ATOM      9  C   UNL     1       5.091  -2.323  -7.957  1.00  0.00     0.042 A 
ATOM     10  C   UNL     1       7.327  -3.937  -7.567  1.00  0.00     0.003 A 
ATOM     11  C   UNL     1       6.373  -4.279  -8.529  1.00  0.00     0.014 A 
BRANCH   7  12
ATOM     12  N   UNL     1       5.781  -0.901  -6.119  1.00  0.00    -0.248 NA
ATOM     13  C   UNL     1       2.963  -0.194  -4.101  1.00  0.00     0.148 C 
ATOM     14  C   UNL     1       2.135   0.504  -5.196  1.00  0.00     0.048 C 
ATOM     15  C   UNL     1       4.455   0.169  -4.367  1.00  0.00     0.103 C 
ATOM     16  N   UNL     1       2.909  -1.673  -4.185  1.00  0.00    -0.290 N 
ATOM     17  C   UNL     1       4.883  -0.998  -5.185  1.00  0.00     0.109 C 
ATOM     18  C   UNL     1       4.042  -2.192  -4.800  1.00  0.00     0.273 C 
ATOM     19  O   UNL     1       4.358  -3.339  -5.036  1.00  0.00    -0.267 OA
BRANCH  13  20
ATOM     20  C   UNL     1       2.667   0.260  -2.654  1.00  0.00     0.332 C 
ATOM     21  O   UNL     1       3.396   0.009  -1.700  1.00  0.00    -0.249 OA
BRANCH  20  22
ATOM     22  O   UNL     1       1.462   0.887  -2.551  1.00  0.00    -0.464 OA
BRANCH  22  23
ATOM     23  C   UNL     1       1.056   1.262  -1.224  1.00  0.00     0.229 C 
ATOM     24  C   UNL     1       0.591   0.061  -0.413  1.00  0.00     0.049 C 
ENDBRANCH  22  23
ENDBRANCH  20  22
ENDBRANCH  13  20
BRANCH  16  25
ATOM     25  C   UNL     1       1.848  -2.486  -3.681  1.00  0.00     0.045 A 
ATOM     26  C   UNL     1       2.085  -3.821  -3.312  1.00  0.00     0.026 A 
ATOM     27  C   UNL     1       0.541  -2.006  -3.529  1.00  0.00     0.026 A 
ATOM     28  C   UNL     1       1.063  -4.639  -2.817  1.00  0.00     0.002 A 
ATOM     29  C   UNL     1      -0.490  -2.828  -3.056  1.00  0.00     0.002 A 
ATOM     30  C   UNL     1      -0.229  -4.144  -2.696  1.00  0.00     0.000 A 
ENDBRANCH  16  25
ENDBRANCH   7  12
ENDBRANCH   3   6
ENDBRANCH   1   2
BRANCH   1  31
ATOM     31  C   UNL     1       1.569  -1.809  -8.747  1.00  0.00     0.042 C 
BRANCH  31  32
ATOM     32  C   UNL     1       0.522  -1.664  -9.853  1.00  0.00     0.118 C 
BRANCH  32  33
ATOM     33  N   UNL     1      -0.797  -2.100  -9.421  1.00  0.00    -0.352 N 
ATOM     34  C   UNL     1      -1.998  -1.435  -9.475  1.00  0.00     0.251 C 
ATOM     35  H   UNL     1      -0.834  -3.005  -9.035  1.00  0.00     0.163 HD
ATOM     36  O   UNL     1      -2.968  -1.895  -8.877  1.00  0.00    -0.269 OA
BRANCH  34  37
ATOM     37  C   UNL     1      -2.136  -0.161 -10.224  1.00  0.00     0.039 A 
ATOM     38  C   UNL     1      -2.848   0.889  -9.633  1.00  0.00     0.014 A 
ATOM     39  C   UNL     1      -1.627  -0.013 -11.518  1.00  0.00     0.014 A 
ATOM     40  C   UNL     1      -3.002   2.103 -10.312  1.00  0.00     0.010 A 
ATOM     41  C   UNL     1      -1.759   1.208 -12.185  1.00  0.00     0.010 A 
ATOM     42  C   UNL     1      -2.444   2.277 -11.587  1.00  0.00    -0.014 A 
BRANCH  42  43
ATOM     43  C   UNL     1      -2.558   3.572 -12.303  1.00  0.00     0.031 A 
ATOM     44  C   UNL     1      -3.480   3.717 -13.480  1.00  0.00     0.074 A 
ATOM     45  C   UNL     1      -1.784   4.609 -11.931  1.00  0.00     0.049 A 
ATOM     46  N   UNL     1      -3.628   4.736 -14.288  1.00  0.00    -0.248 NA
ATOM     47  C   UNL     1      -4.338   2.565 -13.794  1.00  0.00     0.031 C 
ATOM     48  C   UNL     1      -0.833   4.602 -10.818  1.00  0.00     0.029 A 
ATOM     49  N   UNL     1      -1.667   5.869 -12.464  1.00  0.00    -0.354 N 
ATOM     50  C   UNL     1      -4.572   4.340 -15.226  1.00  0.00     0.074 A 
ATOM     51  C   UNL     1      -4.966   2.989 -14.883  1.00  0.00     0.031 C 
ATOM     52  C   UNL     1      -0.227   5.799 -10.754  1.00  0.00     0.029 A 
ATOM     53  C   UNL     1      -0.729   6.648 -11.831  1.00  0.00     0.049 A 
ATOM     54  H   UNL     1      -2.203   6.183 -13.227  1.00  0.00     0.167 HD
ATOM     55  C   UNL     1      -5.065   5.034 -16.280  1.00  0.00     0.031 A 
ATOM     56  C   UNL     1      -0.305   7.898 -12.096  1.00  0.00     0.031 A 
ATOM     57  C   UNL     1      -4.699   6.381 -16.622  1.00  0.00     0.049 A 
ATOM     58  C   UNL     1      -0.883   8.657 -13.253  1.00  0.00     0.074 A 
ATOM     59  C   UNL     1      -5.174   7.168 -17.658  1.00  0.00     0.029 A 
ATOM     60  N   UNL     1      -3.771   7.146 -15.934  1.00  0.00    -0.354 N 
ATOM     61  N   UNL     1      -1.784   8.267 -14.121  1.00  0.00    -0.248 NA
ATOM     62  C   UNL     1      -0.384  10.023 -13.466  1.00  0.00     0.031 C 
ATOM     63  C   UNL     1      -4.523   8.408 -17.602  1.00  0.00     0.029 A 
ATOM     64  C   UNL     1      -3.653   8.393 -16.524  1.00  0.00     0.049 A 
ATOM     65  H   UNL     1      -3.269   6.846 -15.142  1.00  0.00     0.167 HD
ATOM     66  C   UNL     1      -1.960   9.340 -14.986  1.00  0.00     0.074 A 
ATOM     67  C   UNL     1      -1.082  10.399 -14.530  1.00  0.00     0.031 C 
ATOM     68  C   UNL     1      -2.775   9.435 -16.064  1.00  0.00     0.031 A 
BRANCH  55  69
ATOM     69  C   UNL     1      -6.049   4.318 -17.158  1.00  0.00    -0.014 A 
ATOM     70  C   UNL     1      -7.409   4.253 -16.809  1.00  0.00     0.010 A 
ATOM     71  C   UNL     1      -5.609   3.708 -18.346  1.00  0.00     0.010 A 
ATOM     72  C   UNL     1      -8.310   3.555 -17.617  1.00  0.00     0.020 A 
ATOM     73  C   UNL     1      -6.508   3.017 -19.160  1.00  0.00     0.020 A 
ATOM     74  C   UNL     1      -7.850   2.928 -18.780  1.00  0.00     0.054 A 
BRANCH  74  75
ATOM     75  S   UNL     1      -9.022   2.015 -19.823  1.00  0.00     0.124 S 
ATOM     76  O   UNL     1      -8.994   0.689 -19.212  1.00  0.00    -0.237 OA
ATOM     77  O   UNL     1     -10.268   2.758 -19.652  1.00  0.00    -0.237 OA
ATOM     78  O   UNL     1      -8.428   2.103 -21.155  1.00  0.00    -0.744 OA
ENDBRANCH  74  75
ENDBRANCH  55  69
BRANCH  56  79
ATOM     79  C   UNL     1       0.744   8.504 -11.241  1.00  0.00    -0.014 A 
ATOM     80  C   UNL     1       0.388   9.350 -10.178  1.00  0.00     0.010 A 
ATOM     81  C   UNL     1       2.098   8.196 -11.460  1.00  0.00     0.010 A 
ATOM     82  C   UNL     1       1.371   9.876  -9.337  1.00  0.00     0.020 A 
ATOM     83  C   UNL     1       3.083   8.713 -10.615  1.00  0.00     0.020 A 
ATOM     84  C   UNL     1       2.713   9.552  -9.559  1.00  0.00     0.054 A 
BRANCH  84  85
ATOM     85  S   UNL     1       3.981  10.152  -8.408  1.00  0.00     0.124 S 
ATOM     86  O   UNL     1       4.396  11.401  -9.039  1.00  0.00    -0.237 OA
ATOM     87  O   UNL     1       3.247  10.291  -7.152  1.00  0.00    -0.237 OA
ATOM     88  O   UNL     1       4.971   9.077  -8.421  1.00  0.00    -0.744 OA
ENDBRANCH  84  85
ENDBRANCH  56  79
BRANCH  68  89
ATOM     89  C   UNL     1      -2.757  10.732 -16.819  1.00  0.00    -0.014 A 
ATOM     90  C   UNL     1      -1.782  10.970 -17.803  1.00  0.00     0.010 A 
ATOM     91  C   UNL     1      -3.736  11.707 -16.565  1.00  0.00     0.010 A 
ATOM     92  C   UNL     1      -1.773  12.176 -18.509  1.00  0.00     0.020 A 
ATOM     93  C   UNL     1      -3.734  12.911 -17.273  1.00  0.00     0.020 A 
ATOM     94  C   UNL     1      -2.744  13.143 -18.232  1.00  0.00     0.054 A 
BRANCH  94  95
ATOM     95  S   UNL     1      -2.751  14.696 -19.173  1.00  0.00     0.124 S 
ATOM     96  O   UNL     1      -1.869  15.539 -18.371  1.00  0.00    -0.237 OA
ATOM     97  O   UNL     1      -2.224  14.298 -20.477  1.00  0.00    -0.237 OA
ATOM     98  O   UNL     1      -4.159  15.084 -19.172  1.00  0.00    -0.744 OA
ENDBRANCH  94  95
ENDBRANCH  68  89
ENDBRANCH  42  43
ENDBRANCH  34  37
ENDBRANCH  32  33
ENDBRANCH  31  32
ENDBRANCH   1  31
TORSDOF 18
