REMARK SMILES CC(C)C[C@H](NC(N)=O)C(=O)N[C@@H](C(=O)NCCCNC(=O)c1ccc(-c2c3nc(c(-c4ccc(S(=O)(=O)[O-])cc4)c4ccc([nH]4)c(-c4ccc(S(=O)(=O)[O-])cc4)c4nc(c(-c5ccc(S(=O)(=O)[O-])cc5)c5ccc2[nH]5)C=C4)C=C3)cc1)C(C)C
REMARK SMILES IDX 17 1 16 2 14 3 15 4 13 6 12 7 10 8 11 9 5 11 4 12 2 13 1 14
REMARK SMILES IDX 3 15 6 16 7 17 8 19 9 20 83 23 84 24 85 25 18 26 19 27 20 28
REMARK SMILES IDX 21 29 22 31 23 32 24 33 82 34 25 35 81 36 26 37 27 38 28 39
REMARK SMILES IDX 75 40 29 41 80 42 74 43 76 44 30 45 79 46 73 47 72 48 31 50
REMARK SMILES IDX 61 51 42 52 60 53 43 54 46 55 59 56 77 57 44 58 45 59 58 61
REMARK SMILES IDX 78 62 47 63 32 64 33 65 41 66 34 67 40 68 35 69 36 70 37 71
REMARK SMILES IDX 38 72 39 73 62 74 63 75 71 76 64 77 70 78 65 79 66 80 67 81
REMARK SMILES IDX 68 82 69 83 48 84 49 85 57 86 50 87 56 88 51 89 52 90 53 91
REMARK SMILES IDX 54 92 55 93
REMARK H PARENT 16 5 12 10 6 18 8 21 8 22 20 30 76 49 46 60
REMARK Flexibility Score: inf
ROOT
ATOM      1  C   UNL     1      -2.605   1.131   2.829  1.00  0.00     0.117 C 
ENDROOT
BRANCH   1   2
ATOM      2  N   UNL     1      -3.376   0.561   3.897  1.00  0.00    -0.354 N 
ATOM      3  C   UNL     1      -3.568  -0.742   4.229  1.00  0.00     0.242 C 
ATOM      4  O   UNL     1      -4.160  -0.913   5.301  1.00  0.00    -0.273 OA
ATOM      5  H   UNL     1      -3.835   1.213   4.475  1.00  0.00     0.163 HD
BRANCH   3   6
ATOM      6  C   UNL     1      -2.998  -1.942   3.372  1.00  0.00     0.173 C 
BRANCH   6   7
ATOM      7  N   UNL     1      -3.452  -1.798   1.981  1.00  0.00    -0.342 N 
ATOM      8  C   UNL     1      -2.795  -1.541   0.816  1.00  0.00     0.243 C 
ATOM      9  O   UNL     1      -3.492  -1.054  -0.086  1.00  0.00    -0.273 OA
ATOM     10  H   UNL     1      -4.424  -1.910   1.869  1.00  0.00     0.164 HD
BRANCH   8  11
ATOM     11  C   UNL     1      -1.267  -1.729   0.559  1.00  0.00     0.173 C 
BRANCH  11  12
ATOM     12  C   UNL     1      -0.697  -3.131   0.785  1.00  0.00     0.038 C 
BRANCH  12  13
ATOM     13  C   UNL     1      -1.600  -4.308   0.393  1.00  0.00    -0.015 C 
ATOM     14  C   UNL     1      -2.056  -4.342  -1.059  1.00  0.00     0.007 C 
ATOM     15  C   UNL     1      -0.908  -5.617   0.779  1.00  0.00     0.007 C 
ENDBRANCH  12  13
ENDBRANCH  11  12
BRANCH  11  16
ATOM     16  N   UNL     1      -0.441  -0.616   1.061  1.00  0.00    -0.327 N 
ATOM     17  C   UNL     1       0.397  -0.627   2.135  1.00  0.00     0.312 C 
ATOM     18  H   UNL     1      -0.502   0.231   0.564  1.00  0.00     0.166 HD
ATOM     19  N   UNL     1       0.830   0.612   2.479  1.00  0.00    -0.352 N 
ATOM     20  O   UNL     1       0.737  -1.592   2.789  1.00  0.00    -0.249 OA
ATOM     21  H   UNL     1       0.554   1.395   1.949  1.00  0.00     0.161 HD
ATOM     22  H   UNL     1       1.419   0.729   3.259  1.00  0.00     0.161 HD
ENDBRANCH  11  16
ENDBRANCH   8  11
ENDBRANCH   6   7
BRANCH   6  23
ATOM     23  C   UNL     1      -3.523  -3.249   4.059  1.00  0.00     0.015 C 
ATOM     24  C   UNL     1      -3.659  -4.498   3.196  1.00  0.00     0.010 C 
ATOM     25  C   UNL     1      -2.635  -3.593   5.264  1.00  0.00     0.010 C 
ENDBRANCH   6  23
ENDBRANCH   3   6
ENDBRANCH   1   2
BRANCH   1  26
ATOM     26  C   UNL     1      -3.435   1.972   1.878  1.00  0.00     0.042 C 
BRANCH  26  27
ATOM     27  C   UNL     1      -3.841   3.306   2.484  1.00  0.00     0.118 C 
BRANCH  27  28
ATOM     28  N   UNL     1      -2.686   4.141   2.807  1.00  0.00    -0.352 N 
ATOM     29  C   UNL     1      -2.365   5.402   2.370  1.00  0.00     0.251 C 
ATOM     30  H   UNL     1      -2.041   3.738   3.431  1.00  0.00     0.163 HD
ATOM     31  O   UNL     1      -1.240   5.847   2.573  1.00  0.00    -0.269 OA
BRANCH  29  32
ATOM     32  C   UNL     1      -3.374   6.201   1.645  1.00  0.00     0.039 A 
ATOM     33  C   UNL     1      -2.989   6.938   0.524  1.00  0.00     0.014 A 
ATOM     34  C   UNL     1      -4.707   6.197   2.063  1.00  0.00     0.014 A 
ATOM     35  C   UNL     1      -3.960   7.602  -0.227  1.00  0.00     0.010 A 
ATOM     36  C   UNL     1      -5.681   6.769   1.259  1.00  0.00     0.010 A 
ATOM     37  C   UNL     1      -5.319   7.480   0.107  1.00  0.00    -0.014 A 
BRANCH  37  38
ATOM     38  C   UNL     1      -6.386   8.068  -0.739  1.00  0.00     0.031 A 
ATOM     39  C   UNL     1      -7.313   9.107  -0.172  1.00  0.00     0.074 A 
ATOM     40  C   UNL     1      -6.575   7.598  -1.988  1.00  0.00     0.049 A 
ATOM     41  N   UNL     1      -8.343   9.687  -0.732  1.00  0.00    -0.248 NA
ATOM     42  C   UNL     1      -7.070   9.525   1.218  1.00  0.00     0.031 C 
ATOM     43  C   UNL     1      -5.769   6.559  -2.634  1.00  0.00     0.029 A 
ATOM     44  N   UNL     1      -7.507   7.931  -2.937  1.00  0.00    -0.354 N 
ATOM     45  C   UNL     1      -8.883  10.518   0.242  1.00  0.00     0.074 A 
ATOM     46  C   UNL     1      -8.103  10.321   1.444  1.00  0.00     0.031 C 
ATOM     47  C   UNL     1      -6.212   6.374  -3.887  1.00  0.00     0.029 A 
ATOM     48  C   UNL     1      -7.363   7.241  -4.117  1.00  0.00     0.049 A 
ATOM     49  H   UNL     1      -8.213   8.601  -2.787  1.00  0.00     0.167 HD
ATOM     50  C   UNL     1      -9.921  11.382   0.141  1.00  0.00     0.031 A 
ATOM     51  C   UNL     1      -8.078   7.298  -5.257  1.00  0.00     0.031 A 
ATOM     52  C   UNL     1     -10.692  11.570  -1.059  1.00  0.00     0.049 A 
ATOM     53  C   UNL     1      -9.244   8.242  -5.340  1.00  0.00     0.074 A 
ATOM     54  C   UNL     1     -11.722  12.464  -1.290  1.00  0.00     0.029 A 
ATOM     55  N   UNL     1     -10.524  10.840  -2.228  1.00  0.00    -0.354 N 
ATOM     56  N   UNL     1      -9.693   9.078  -4.434  1.00  0.00    -0.248 NA
ATOM     57  C   UNL     1      -9.996   8.253  -6.601  1.00  0.00     0.031 C 
ATOM     58  C   UNL     1     -12.218  12.232  -2.578  1.00  0.00     0.029 A 
ATOM     59  C   UNL     1     -11.456  11.238  -3.172  1.00  0.00     0.049 A 
ATOM     60  H   UNL     1      -9.844  10.143  -2.365  1.00  0.00     0.167 HD
ATOM     61  C   UNL     1     -10.768   9.733  -5.024  1.00  0.00     0.074 A 
ATOM     62  C   UNL     1     -10.892   9.204  -6.368  1.00  0.00     0.031 C 
ATOM     63  C   UNL     1     -11.576  10.689  -4.501  1.00  0.00     0.031 A 
BRANCH  50  64
ATOM     64  C   UNL     1     -10.287  12.164   1.377  1.00  0.00    -0.014 A 
ATOM     65  C   UNL     1      -9.417  13.130   1.916  1.00  0.00     0.010 A 
ATOM     66  C   UNL     1     -11.513  11.917   2.021  1.00  0.00     0.010 A 
ATOM     67  C   UNL     1      -9.730  13.778   3.114  1.00  0.00     0.020 A 
ATOM     68  C   UNL     1     -11.846  12.589   3.201  1.00  0.00     0.020 A 
ATOM     69  C   UNL     1     -10.938  13.493   3.756  1.00  0.00     0.054 A 
BRANCH  69  70
ATOM     70  S   UNL     1     -11.305  14.322   5.326  1.00  0.00     0.124 S 
ATOM     71  O   UNL     1     -10.406  13.630   6.247  1.00  0.00    -0.237 OA
ATOM     72  O   UNL     1     -10.963  15.713   5.043  1.00  0.00    -0.237 OA
ATOM     73  O   UNL     1     -12.728  14.062   5.532  1.00  0.00    -0.744 OA
ENDBRANCH  69  70
ENDBRANCH  50  64
BRANCH  51  74
ATOM     74  C   UNL     1      -7.673   6.464  -6.420  1.00  0.00    -0.014 A 
ATOM     75  C   UNL     1      -7.069   7.065  -7.538  1.00  0.00     0.010 A 
ATOM     76  C   UNL     1      -7.830   5.066  -6.396  1.00  0.00     0.010 A 
ATOM     77  C   UNL     1      -6.627   6.284  -8.610  1.00  0.00     0.020 A 
ATOM     78  C   UNL     1      -7.366   4.279  -7.455  1.00  0.00     0.020 A 
ATOM     79  C   UNL     1      -6.769   4.895  -8.557  1.00  0.00     0.054 A 
BRANCH  79  80
ATOM     80  S   UNL     1      -6.104   3.900  -9.921  1.00  0.00     0.124 S 
ATOM     81  O   UNL     1      -7.035   4.205 -11.002  1.00  0.00    -0.237 OA
ATOM     82  O   UNL     1      -4.755   4.441 -10.075  1.00  0.00    -0.237 OA
ATOM     83  O   UNL     1      -6.163   2.533  -9.409  1.00  0.00    -0.744 OA
ENDBRANCH  79  80
ENDBRANCH  51  74
BRANCH  63  84
ATOM     84  C   UNL     1     -12.659  11.241  -5.390  1.00  0.00    -0.014 A 
ATOM     85  C   UNL     1     -13.792  10.477  -5.717  1.00  0.00     0.010 A 
ATOM     86  C   UNL     1     -12.567  12.566  -5.853  1.00  0.00     0.010 A 
ATOM     87  C   UNL     1     -14.804  11.021  -6.513  1.00  0.00     0.020 A 
ATOM     88  C   UNL     1     -13.591  13.123  -6.624  1.00  0.00     0.020 A 
ATOM     89  C   UNL     1     -14.698  12.342  -6.958  1.00  0.00     0.054 A 
BRANCH  89  90
ATOM     90  S   UNL     1     -16.052  13.041  -7.942  1.00  0.00     0.124 S 
ATOM     91  O   UNL     1     -15.881  12.360  -9.222  1.00  0.00    -0.237 OA
ATOM     92  O   UNL     1     -17.235  12.656  -7.177  1.00  0.00    -0.237 OA
ATOM     93  O   UNL     1     -15.766  14.474  -7.956  1.00  0.00    -0.744 OA
ENDBRANCH  89  90
ENDBRANCH  63  84
ENDBRANCH  37  38
ENDBRANCH  29  32
ENDBRANCH  27  28
ENDBRANCH  26  27
ENDBRANCH   1  26
TORSDOF 19
