REMARK SMILES O=C(NCCCNC(=O)c1cccn1CC(=O)N1CCC[C@H]2CCCC[C@H]21)c1ccc(-c2c3nc(c(-c4ccc(S(=O)(=O)[O-])cc4)c4ccc([nH]4)c(-c4ccc(S(=O)(=O)[O-])cc4)c4nc(c(-c5ccc(S(=O)(=O)[O-])cc5)c5ccc2[nH]5)C=C4)C=C3)cc1
REMARK SMILES IDX 5 1 4 2 3 3 1 4 2 5 28 7 29 8 87 9 30 10 86 11 31 12 32 13
REMARK SMILES IDX 33 14 80 15 34 16 85 17 79 18 81 19 35 20 84 21 78 22 77 23
REMARK SMILES IDX 36 25 66 26 47 27 65 28 48 29 51 30 64 31 82 32 49 33 50 34
REMARK SMILES IDX 63 36 83 37 52 38 37 39 38 40 46 41 39 42 45 43 40 44 41 45
REMARK SMILES IDX 42 46 43 47 44 48 67 49 68 50 76 51 69 52 75 53 70 54 71 55
REMARK SMILES IDX 72 56 73 57 74 58 53 59 54 60 62 61 55 62 61 63 56 64 57 65
REMARK SMILES IDX 58 66 59 67 60 68 6 69 7 70 8 71 9 73 10 74 11 75 14 76
REMARK SMILES IDX 12 77 13 78 15 79 16 80 17 81 18 82 19 83 27 84 20 85 22 86
REMARK SMILES IDX 26 87 21 88 23 89 25 90 24 91
REMARK H PARENT 3 6 81 24 51 35 7 72
REMARK Flexibility Score: inf
ROOT
ATOM      1  C   UNL     1       4.995  -1.774   1.346  1.00  0.00     0.042 C 
ENDROOT
BRANCH   1   2
ATOM      2  C   UNL     1       4.696  -1.184  -0.033  1.00  0.00     0.118 C 
BRANCH   2   3
ATOM      3  N   UNL     1       3.320  -0.797  -0.295  1.00  0.00    -0.352 N 
ATOM      4  O   UNL     1       1.383   0.307  -0.267  1.00  0.00    -0.269 OA
ATOM      5  C   UNL     1       2.485   0.142   0.254  1.00  0.00     0.251 C 
ATOM      6  H   UNL     1       2.900  -1.318  -1.016  1.00  0.00     0.163 HD
BRANCH   5   7
ATOM      7  C   UNL     1       2.829   0.899   1.479  1.00  0.00     0.039 A 
ATOM      8  C   UNL     1       4.115   1.371   1.747  1.00  0.00     0.014 A 
ATOM      9  C   UNL     1       1.786   1.183   2.378  1.00  0.00     0.014 A 
ATOM     10  C   UNL     1       4.378   2.040   2.938  1.00  0.00     0.010 A 
ATOM     11  C   UNL     1       2.036   1.886   3.558  1.00  0.00     0.010 A 
ATOM     12  C   UNL     1       3.336   2.324   3.831  1.00  0.00    -0.014 A 
BRANCH  12  13
ATOM     13  C   UNL     1       3.603   3.369   4.850  1.00  0.00     0.031 A 
ATOM     14  C   UNL     1       3.560   4.773   4.204  1.00  0.00     0.074 A 
ATOM     15  C   UNL     1       3.940   2.968   6.115  1.00  0.00     0.049 A 
ATOM     16  N   UNL     1       4.216   5.849   4.511  1.00  0.00    -0.248 NA
ATOM     17  C   UNL     1       2.744   4.987   2.971  1.00  0.00     0.031 C 
ATOM     18  C   UNL     1       3.897   1.569   6.599  1.00  0.00     0.029 A 
ATOM     19  N   UNL     1       4.390   3.627   7.245  1.00  0.00    -0.354 N 
ATOM     20  C   UNL     1       3.766   6.885   3.658  1.00  0.00     0.074 A 
ATOM     21  C   UNL     1       2.947   6.269   2.663  1.00  0.00     0.031 C 
ATOM     22  C   UNL     1       4.373   1.475   7.864  1.00  0.00     0.029 A 
ATOM     23  C   UNL     1       4.755   2.792   8.339  1.00  0.00     0.049 A 
ATOM     24  H   UNL     1       4.454   4.608   7.290  1.00  0.00     0.167 HD
ATOM     25  C   UNL     1       3.985   8.210   3.905  1.00  0.00     0.031 A 
ATOM     26  C   UNL     1       5.361   3.129   9.524  1.00  0.00     0.031 A 
ATOM     27  C   UNL     1       4.806   8.357   5.055  1.00  0.00     0.049 A 
ATOM     28  C   UNL     1       5.417   4.598   9.536  1.00  0.00     0.074 A 
ATOM     29  C   UNL     1       6.130   8.107   5.298  1.00  0.00     0.029 A 
ATOM     30  N   UNL     1       4.139   8.489   6.248  1.00  0.00    -0.354 N 
ATOM     31  N   UNL     1       4.403   5.382   9.734  1.00  0.00    -0.248 NA
ATOM     32  C   UNL     1       6.703   5.259   9.265  1.00  0.00     0.031 C 
ATOM     33  C   UNL     1       6.122   7.601   6.614  1.00  0.00     0.029 A 
ATOM     34  C   UNL     1       4.847   7.763   7.169  1.00  0.00     0.049 A 
ATOM     35  H   UNL     1       3.314   9.002   6.410  1.00  0.00     0.167 HD
ATOM     36  C   UNL     1       4.857   6.572   9.228  1.00  0.00     0.074 A 
ATOM     37  C   UNL     1       6.301   6.527   9.295  1.00  0.00     0.031 C 
ATOM     38  C   UNL     1       4.120   7.219   8.290  1.00  0.00     0.031 A 
BRANCH  25  39
ATOM     39  C   UNL     1       3.304   9.454   3.393  1.00  0.00    -0.014 A 
ATOM     40  C   UNL     1       3.885  10.695   3.766  1.00  0.00     0.010 A 
ATOM     41  C   UNL     1       1.986   9.476   2.917  1.00  0.00     0.010 A 
ATOM     42  C   UNL     1       3.135  11.869   3.831  1.00  0.00     0.020 A 
ATOM     43  C   UNL     1       1.238  10.666   2.934  1.00  0.00     0.020 A 
ATOM     44  C   UNL     1       1.799  11.837   3.450  1.00  0.00     0.054 A 
BRANCH  44  45
ATOM     45  S   UNL     1       0.798  13.324   3.720  1.00  0.00     0.124 S 
ATOM     46  O   UNL     1       0.648  13.334   5.172  1.00  0.00    -0.237 OA
ATOM     47  O   UNL     1       1.648  14.381   3.173  1.00  0.00    -0.237 OA
ATOM     48  O   UNL     1      -0.420  13.059   2.958  1.00  0.00    -0.744 OA
ENDBRANCH  44  45
ENDBRANCH  25  39
BRANCH  26  49
ATOM     49  C   UNL     1       6.042   2.457  10.704  1.00  0.00    -0.014 A 
ATOM     50  C   UNL     1       6.090   1.086  10.982  1.00  0.00     0.010 A 
ATOM     51  C   UNL     1       6.816   3.278  11.581  1.00  0.00     0.010 A 
ATOM     52  C   UNL     1       6.982   0.569  11.960  1.00  0.00     0.020 A 
ATOM     53  C   UNL     1       7.737   2.783  12.505  1.00  0.00     0.020 A 
ATOM     54  C   UNL     1       7.842   1.417  12.670  1.00  0.00     0.054 A 
BRANCH  54  55
ATOM     55  S   UNL     1       9.199   0.762  13.687  1.00  0.00     0.124 S 
ATOM     56  O   UNL     1       8.549   0.530  14.972  1.00  0.00    -0.237 OA
ATOM     57  O   UNL     1       9.602  -0.437  12.954  1.00  0.00    -0.237 OA
ATOM     58  O   UNL     1      10.186   1.842  13.671  1.00  0.00    -0.744 OA
ENDBRANCH  54  55
ENDBRANCH  26  49
BRANCH  38  59
ATOM     59  C   UNL     1       2.625   6.937   8.318  1.00  0.00    -0.014 A 
ATOM     60  C   UNL     1       1.878   7.298   9.454  1.00  0.00     0.010 A 
ATOM     61  C   UNL     1       1.945   6.255   7.288  1.00  0.00     0.010 A 
ATOM     62  C   UNL     1       0.513   6.992   9.562  1.00  0.00     0.020 A 
ATOM     63  C   UNL     1       0.576   5.940   7.387  1.00  0.00     0.020 A 
ATOM     64  C   UNL     1      -0.134   6.314   8.528  1.00  0.00     0.054 A 
BRANCH  64  65
ATOM     65  S   UNL     1      -1.900   5.923   8.713  1.00  0.00     0.124 S 
ATOM     66  O   UNL     1      -1.930   5.137   9.945  1.00  0.00    -0.237 OA
ATOM     67  O   UNL     1      -2.510   7.247   8.805  1.00  0.00    -0.237 OA
ATOM     68  O   UNL     1      -2.225   5.173   7.500  1.00  0.00    -0.744 OA
ENDBRANCH  64  65
ENDBRANCH  38  59
ENDBRANCH  12  13
ENDBRANCH   5   7
ENDBRANCH   2   3
ENDBRANCH   1   2
BRANCH   1  69
ATOM     69  C   UNL     1       4.204  -3.029   1.688  1.00  0.00     0.118 C 
BRANCH  69  70
ATOM     70  N   UNL     1       4.524  -4.136   0.808  1.00  0.00    -0.351 N 
ATOM     71  C   UNL     1       5.308  -5.239   1.017  1.00  0.00     0.267 C 
ATOM     72  H   UNL     1       4.110  -4.087  -0.085  1.00  0.00     0.163 HD
ATOM     73  O   UNL     1       5.519  -5.972   0.052  1.00  0.00    -0.268 OA
BRANCH  71  74
ATOM     74  C   UNL     1       5.867  -5.482   2.331  1.00  0.00     0.107 A 
ATOM     75  C   UNL     1       5.196  -5.587   3.542  1.00  0.00     0.033 A 
ATOM     76  N   UNL     1       7.199  -5.783   2.594  1.00  0.00    -0.334 N 
ATOM     77  C   UNL     1       6.131  -5.922   4.546  1.00  0.00     0.020 A 
ATOM     78  C   UNL     1       7.357  -6.045   3.935  1.00  0.00     0.087 A 
BRANCH  76  79
ATOM     79  C   UNL     1       8.218  -6.015   1.581  1.00  0.00     0.222 C 
BRANCH  79  80
ATOM     80  C   UNL     1       9.525  -5.246   1.498  1.00  0.00     0.242 C 
ATOM     81  O   UNL     1      10.324  -5.709   0.666  1.00  0.00    -0.273 OA
BRANCH  80  82
ATOM     82  N   UNL     1       9.859  -4.102   2.224  1.00  0.00    -0.338 N 
ATOM     83  C   UNL     1       8.830  -3.110   2.560  1.00  0.00     0.120 C 
ATOM     84  C   UNL     1      11.240  -3.546   2.062  1.00  0.00     0.088 C 
ATOM     85  C   UNL     1       9.214  -2.143   3.672  1.00  0.00     0.022 C 
ATOM     86  C   UNL     1      11.632  -2.543   3.170  1.00  0.00     0.012 C 
ATOM     87  C   UNL     1      12.413  -4.545   1.995  1.00  0.00     0.025 C 
ATOM     88  C   UNL     1      10.552  -1.486   3.385  1.00  0.00     0.007 C 
ATOM     89  C   UNL     1      12.082  -3.192   4.498  1.00  0.00     0.006 C 
ATOM     90  C   UNL     1      12.453  -5.446   3.212  1.00  0.00     0.002 C 
ATOM     91  C   UNL     1      12.319  -4.705   4.535  1.00  0.00     0.000 C 
ENDBRANCH  80  82
ENDBRANCH  79  80
ENDBRANCH  76  79
ENDBRANCH  71  74
ENDBRANCH  69  70
ENDBRANCH   1  69
TORSDOF 16
