REMARK SMILES CC(C)OC(=O)N[C@H]1C=C[C@@H](C(=O)NCCCNC(=O)c2ccc(-c3c4nc(c(-c5ccc(S(=O)(=O)[O-])cc5)c5ccc([nH]5)c(-c5ccc(S(=O)(=O)[O-])cc5)c5nc(c(-c6ccc(S(=O)(=O)[O-])cc6)c6ccc3[nH]6)C=C5)C=C4)cc2)C1
REMARK SMILES IDX 16 1 15 2 14 3 12 4 13 5 11 7 8 8 9 9 81 10 10 11 7 12 5 13
REMARK SMILES IDX 6 14 4 16 2 17 1 18 3 19 17 20 18 21 19 22 20 24 21 25 22 26
REMARK SMILES IDX 80 27 23 28 79 29 24 30 25 31 26 32 73 33 27 34 78 35 72 36
REMARK SMILES IDX 74 37 28 38 77 39 71 40 70 41 29 43 59 44 40 45 58 46 41 47
REMARK SMILES IDX 44 48 57 49 75 50 42 51 43 52 56 54 76 55 45 56 30 57 31 58
REMARK SMILES IDX 39 59 32 60 38 61 33 62 34 63 35 64 36 65 37 66 60 67 61 68
REMARK SMILES IDX 69 69 62 70 68 71 63 72 64 73 65 74 66 75 67 76 46 77 47 78
REMARK SMILES IDX 55 79 48 80 54 81 49 82 50 83 51 84 52 85 53 86
REMARK H PARENT 14 6 7 15 18 23 74 42 44 53
REMARK Flexibility Score: inf
ROOT
ATOM      1  C   UNL     1      -0.188   3.616  -1.608  1.00  0.00     0.042 C 
ENDROOT
BRANCH   1   2
ATOM      2  C   UNL     1      -1.060   3.729  -0.366  1.00  0.00     0.117 C 
BRANCH   2   3
ATOM      3  N   UNL     1      -2.072   4.741  -0.571  1.00  0.00    -0.356 N 
ATOM      4  C   UNL     1      -3.372   4.598  -0.940  1.00  0.00     0.227 C 
ATOM      5  O   UNL     1      -3.996   5.629  -1.210  1.00  0.00    -0.274 OA
ATOM      6  H   UNL     1      -1.777   5.668  -0.420  1.00  0.00     0.163 HD
BRANCH   4   7
ATOM      7  C   UNL     1      -4.079   3.239  -0.965  1.00  0.00     0.103 C 
ATOM      8  C   UNL     1      -3.880   0.844  -1.198  1.00  0.00     0.109 C 
ATOM      9  C   UNL     1      -3.910   1.226   0.243  1.00  0.00    -0.006 C 
ATOM     10  C   UNL     1      -3.549   2.155  -1.920  1.00  0.00     0.047 C 
ATOM     11  C   UNL     1      -4.059   2.551   0.376  1.00  0.00    -0.016 C 
BRANCH   8  12
ATOM     12  N   UNL     1      -3.079  -0.326  -1.454  1.00  0.00    -0.315 N 
ATOM     13  C   UNL     1      -1.755  -0.615  -1.355  1.00  0.00     0.407 C 
ATOM     14  O   UNL     1      -1.371  -1.747  -1.629  1.00  0.00    -0.225 OA
ATOM     15  H   UNL     1      -3.611  -1.089  -1.775  1.00  0.00     0.167 HD
BRANCH  13  16
ATOM     16  O   UNL     1      -0.959   0.403  -0.961  1.00  0.00    -0.447 OA
BRANCH  16  17
ATOM     17  C   UNL     1       0.480   0.191  -0.958  1.00  0.00     0.172 C 
ATOM     18  C   UNL     1       0.949  -0.811   0.089  1.00  0.00     0.053 C 
ATOM     19  C   UNL     1       1.031  -0.093  -2.356  1.00  0.00     0.053 C 
ENDBRANCH  16  17
ENDBRANCH  13  16
ENDBRANCH   8  12
ENDBRANCH   4   7
ENDBRANCH   2   3
ENDBRANCH   1   2
BRANCH   1  20
ATOM     20  C   UNL     1       1.208   4.210  -1.490  1.00  0.00     0.118 C 
BRANCH  20  21
ATOM     21  N   UNL     1       1.928   3.870  -0.269  1.00  0.00    -0.352 N 
ATOM     22  C   UNL     1       3.162   3.314  -0.043  1.00  0.00     0.251 C 
ATOM     23  H   UNL     1       1.432   4.081   0.555  1.00  0.00     0.163 HD
ATOM     24  O   UNL     1       3.495   3.088   1.119  1.00  0.00    -0.269 OA
BRANCH  22  25
ATOM     25  C   UNL     1       4.071   2.943  -1.151  1.00  0.00     0.039 A 
ATOM     26  C   UNL     1       4.888   1.817  -0.993  1.00  0.00     0.014 A 
ATOM     27  C   UNL     1       4.150   3.684  -2.329  1.00  0.00     0.014 A 
ATOM     28  C   UNL     1       5.700   1.388  -2.045  1.00  0.00     0.010 A 
ATOM     29  C   UNL     1       4.869   3.194  -3.414  1.00  0.00     0.010 A 
ATOM     30  C   UNL     1       5.652   2.039  -3.287  1.00  0.00    -0.014 A 
BRANCH  30  31
ATOM     31  C   UNL     1       6.391   1.528  -4.470  1.00  0.00     0.031 A 
ATOM     32  C   UNL     1       7.415   2.392  -5.156  1.00  0.00     0.074 A 
ATOM     33  C   UNL     1       6.073   0.321  -4.980  1.00  0.00     0.049 A 
ATOM     34  N   UNL     1       8.076   2.165  -6.262  1.00  0.00    -0.248 NA
ATOM     35  C   UNL     1       7.717   3.693  -4.535  1.00  0.00     0.031 C 
ATOM     36  C   UNL     1       5.073  -0.598  -4.428  1.00  0.00     0.029 A 
ATOM     37  N   UNL     1       6.547  -0.337  -6.088  1.00  0.00    -0.354 N 
ATOM     38  C   UNL     1       8.854   3.298  -6.479  1.00  0.00     0.074 A 
ATOM     39  C   UNL     1       8.542   4.232  -5.420  1.00  0.00     0.031 C 
ATOM     40  C   UNL     1       5.030  -1.708  -5.181  1.00  0.00     0.029 A 
ATOM     41  C   UNL     1       5.953  -1.559  -6.301  1.00  0.00     0.049 A 
ATOM     42  H   UNL     1       7.247   0.031  -6.674  1.00  0.00     0.167 HD
ATOM     43  C   UNL     1       9.758   3.531  -7.459  1.00  0.00     0.031 A 
ATOM     44  C   UNL     1       6.116  -2.454  -7.295  1.00  0.00     0.031 A 
ATOM     45  C   UNL     1      10.068   2.595  -8.507  1.00  0.00     0.049 A 
ATOM     46  C   UNL     1       7.098  -2.155  -8.393  1.00  0.00     0.074 A 
ATOM     47  C   UNL     1      11.008   2.715  -9.515  1.00  0.00     0.029 A 
ATOM     48  N   UNL     1       9.444   1.369  -8.686  1.00  0.00    -0.354 N 
ATOM     49  N   UNL     1       7.872  -1.106  -8.544  1.00  0.00    -0.248 NA
ATOM     50  C   UNL     1       7.234  -3.162  -9.455  1.00  0.00     0.031 C 
ATOM     51  C   UNL     1      10.906   1.592 -10.342  1.00  0.00     0.029 A 
ATOM     52  C   UNL     1       9.953   0.739  -9.809  1.00  0.00     0.049 A 
ATOM     53  H   UNL     1       8.742   1.002  -8.101  1.00  0.00     0.167 HD
ATOM     54  C   UNL     1       8.606  -1.341  -9.701  1.00  0.00     0.074 A 
ATOM     55  C   UNL     1       8.197  -2.637 -10.201  1.00  0.00     0.031 C 
ATOM     56  C   UNL     1       9.536  -0.553 -10.295  1.00  0.00     0.031 A 
BRANCH  43  57
ATOM     57  C   UNL     1      10.473   4.858  -7.451  1.00  0.00    -0.014 A 
ATOM     58  C   UNL     1      11.403   5.179  -6.445  1.00  0.00     0.010 A 
ATOM     59  C   UNL     1      10.249   5.780  -8.490  1.00  0.00     0.010 A 
ATOM     60  C   UNL     1      12.062   6.411  -6.455  1.00  0.00     0.020 A 
ATOM     61  C   UNL     1      10.931   7.000  -8.523  1.00  0.00     0.020 A 
ATOM     62  C   UNL     1      11.821   7.314  -7.494  1.00  0.00     0.054 A 
BRANCH  62  63
ATOM     63  S   UNL     1      12.711   8.895  -7.493  1.00  0.00     0.124 S 
ATOM     64  O   UNL     1      12.081   9.593  -6.374  1.00  0.00    -0.237 OA
ATOM     65  O   UNL     1      14.095   8.482  -7.276  1.00  0.00    -0.237 OA
ATOM     66  O   UNL     1      12.429   9.454  -8.812  1.00  0.00    -0.744 OA
ENDBRANCH  62  63
ENDBRANCH  43  57
BRANCH  44  67
ATOM     67  C   UNL     1       5.329  -3.719  -7.293  1.00  0.00    -0.014 A 
ATOM     68  C   UNL     1       5.966  -4.955  -7.080  1.00  0.00     0.010 A 
ATOM     69  C   UNL     1       3.936  -3.696  -7.494  1.00  0.00     0.010 A 
ATOM     70  C   UNL     1       5.230  -6.143  -7.088  1.00  0.00     0.020 A 
ATOM     71  C   UNL     1       3.192  -4.878  -7.470  1.00  0.00     0.020 A 
ATOM     72  C   UNL     1       3.846  -6.096  -7.280  1.00  0.00     0.054 A 
BRANCH  72  73
ATOM     73  S   UNL     1       2.908  -7.649  -7.243  1.00  0.00     0.124 S 
ATOM     74  O   UNL     1       3.323  -8.284  -8.490  1.00  0.00    -0.237 OA
ATOM     75  O   UNL     1       3.394  -8.280  -6.019  1.00  0.00    -0.237 OA
ATOM     76  O   UNL     1       1.516  -7.208  -7.199  1.00  0.00    -0.744 OA
ENDBRANCH  72  73
ENDBRANCH  44  67
BRANCH  56  77
ATOM     77  C   UNL     1      10.204  -1.078 -11.539  1.00  0.00    -0.014 A 
ATOM     78  C   UNL     1       9.509  -1.167 -12.758  1.00  0.00     0.010 A 
ATOM     79  C   UNL     1      11.569  -1.417 -11.502  1.00  0.00     0.010 A 
ATOM     80  C   UNL     1      10.163  -1.606 -13.913  1.00  0.00     0.020 A 
ATOM     81  C   UNL     1      12.234  -1.825 -12.661  1.00  0.00     0.020 A 
ATOM     82  C   UNL     1      11.523  -1.926 -13.858  1.00  0.00     0.054 A 
BRANCH  82  83
ATOM     83  S   UNL     1      12.361  -2.429 -15.386  1.00  0.00     0.124 S 
ATOM     84  O   UNL     1      11.796  -3.754 -15.622  1.00  0.00    -0.237 OA
ATOM     85  O   UNL     1      11.951  -1.392 -16.330  1.00  0.00    -0.237 OA
ATOM     86  O   UNL     1      13.778  -2.411 -15.027  1.00  0.00    -0.744 OA
ENDBRANCH  82  83
ENDBRANCH  56  77
ENDBRANCH  30  31
ENDBRANCH  22  25
ENDBRANCH  20  21
ENDBRANCH   1  20
TORSDOF 16
