REMARK SMILES Cc1nc(C(=O)NCCCNC(=O)c2ccc(-c3c4nc(c(-c5ccc(S(=O)(=O)[O-])cc5)c5ccc([nH]5)c(-c5ccc(S(=O)(=O)[O-])cc5)c5nc(c(-c6ccc(S(=O)(=O)[O-])cc6)c6ccc3[nH]6)C=C5)C=C4)cc2)c(-c2ccccc2F)s1
REMARK SMILES IDX 10 1 9 2 8 3 7 4 5 5 6 6 4 8 1 9 2 10 3 11 82 12 74 13 75 14
REMARK SMILES IDX 76 15 80 16 77 17 79 18 81 19 78 20 11 21 12 22 13 24 14 25
REMARK SMILES IDX 15 26 73 27 16 28 72 29 17 30 18 31 19 32 66 33 20 34 71 35
REMARK SMILES IDX 65 36 67 37 21 38 70 39 64 40 63 41 22 43 52 44 33 45 51 46
REMARK SMILES IDX 34 47 37 48 50 49 68 50 35 51 36 52 49 54 69 55 38 56 23 57
REMARK SMILES IDX 24 58 32 59 25 60 31 61 26 62 27 63 28 64 29 65 30 66 53 67
REMARK SMILES IDX 54 68 62 69 55 70 61 71 56 72 57 73 58 74 59 75 60 76 39 77
REMARK SMILES IDX 40 78 48 79 41 80 47 81 42 82 43 83 44 84 45 85 46 86
REMARK H PARENT 7 7 11 23 67 42 37 53
REMARK Flexibility Score: inf
ROOT
ATOM      1  C   UNL     1       0.268  -6.069  -1.230  1.00  0.00     0.118 C 
ENDROOT
BRANCH   1   2
ATOM      2  C   UNL     1      -0.438  -4.739  -0.977  1.00  0.00     0.042 C 
BRANCH   2   3
ATOM      3  C   UNL     1      -0.031  -4.077   0.334  1.00  0.00     0.118 C 
BRANCH   3   4
ATOM      4  N   UNL     1       1.355  -3.644   0.323  1.00  0.00    -0.351 N 
ATOM      5  C   UNL     1       1.929  -2.399   0.220  1.00  0.00     0.271 C 
ATOM      6  O   UNL     1       3.161  -2.367   0.303  1.00  0.00    -0.267 OA
ATOM      7  H   UNL     1       2.005  -4.379   0.404  1.00  0.00     0.163 HD
BRANCH   5   8
ATOM      8  C   UNL     1       1.113  -1.181   0.060  1.00  0.00     0.147 A 
ATOM      9  C   UNL     1      -2.244   0.292  -0.074  1.00  0.00     0.079 C 
ATOM     10  C   UNL     1      -0.786  -0.002  -0.058  1.00  0.00     0.091 A 
ATOM     11  N   UNL     1      -0.284  -1.210   0.030  1.00  0.00    -0.236 NA
ATOM     12  S   UNL     1       0.361   1.261  -0.135  1.00  0.00    -0.118 S 
ATOM     13  C   UNL     1       1.637   0.107  -0.041  1.00  0.00     0.070 A 
BRANCH  13  14
ATOM     14  C   UNL     1       3.020   0.580  -0.085  1.00  0.00     0.030 A 
ATOM     15  C   UNL     1       3.549   1.359   0.955  1.00  0.00     0.013 A 
ATOM     16  C   UNL     1       3.853   0.248  -1.160  1.00  0.00     0.131 A 
ATOM     17  C   UNL     1       4.881   1.784   0.916  1.00  0.00     0.001 A 
ATOM     18  C   UNL     1       5.182   0.664  -1.201  1.00  0.00     0.040 A 
ATOM     19  F   UNL     1       3.379  -0.480  -2.184  1.00  0.00    -0.206 F 
ATOM     20  C   UNL     1       5.698   1.434  -0.159  1.00  0.00     0.003 A 
ENDBRANCH  13  14
ENDBRANCH   5   8
ENDBRANCH   3   4
ENDBRANCH   2   3
ENDBRANCH   1   2
BRANCH   1  21
ATOM     21  N   UNL     1      -0.027  -7.066  -0.203  1.00  0.00    -0.352 N 
ATOM     22  C   UNL     1      -0.655  -8.283  -0.306  1.00  0.00     0.251 C 
ATOM     23  H   UNL     1       0.270  -6.828   0.705  1.00  0.00     0.163 HD
ATOM     24  O   UNL     1      -0.994  -8.883   0.711  1.00  0.00    -0.269 OA
BRANCH  22  25
ATOM     25  C   UNL     1      -0.934  -8.859  -1.636  1.00  0.00     0.039 A 
ATOM     26  C   UNL     1      -2.188  -9.422  -1.888  1.00  0.00     0.014 A 
ATOM     27  C   UNL     1       0.044  -8.842  -2.632  1.00  0.00     0.014 A 
ATOM     28  C   UNL     1      -2.488  -9.892  -3.169  1.00  0.00     0.010 A 
ATOM     29  C   UNL     1      -0.283  -9.238  -3.924  1.00  0.00     0.010 A 
ATOM     30  C   UNL     1      -1.553  -9.761  -4.208  1.00  0.00    -0.014 A 
BRANCH  30  31
ATOM     31  C   UNL     1      -1.875 -10.144  -5.606  1.00  0.00     0.031 A 
ATOM     32  C   UNL     1      -1.083 -11.225  -6.290  1.00  0.00     0.074 A 
ATOM     33  C   UNL     1      -2.808  -9.451  -6.290  1.00  0.00     0.049 A 
ATOM     34  N   UNL     1      -1.119 -11.607  -7.540  1.00  0.00    -0.248 NA
ATOM     35  C   UNL     1      -0.102 -11.951  -5.466  1.00  0.00     0.031 C 
ATOM     36  C   UNL     1      -3.622  -8.359  -5.747  1.00  0.00     0.029 A 
ATOM     37  N   UNL     1      -3.217  -9.549  -7.597  1.00  0.00    -0.354 N 
ATOM     38  C   UNL     1      -0.151 -12.598  -7.659  1.00  0.00     0.074 A 
ATOM     39  C   UNL     1       0.484 -12.727  -6.366  1.00  0.00     0.031 C 
ATOM     40  C   UNL     1      -4.440  -7.901  -6.708  1.00  0.00     0.029 A 
ATOM     41  C   UNL     1      -4.176  -8.626  -7.946  1.00  0.00     0.049 A 
ATOM     42  H   UNL     1      -2.857 -10.216  -8.225  1.00  0.00     0.167 HD
ATOM     43  C   UNL     1       0.169 -13.343  -8.743  1.00  0.00     0.031 A 
ATOM     44  C   UNL     1      -4.762  -8.376  -9.133  1.00  0.00     0.031 A 
ATOM     45  C   UNL     1      -0.474 -13.216 -10.024  1.00  0.00     0.049 A 
ATOM     46  C   UNL     1      -4.372  -9.200 -10.331  1.00  0.00     0.074 A 
ATOM     47  C   UNL     1      -0.261 -13.962 -11.170  1.00  0.00     0.029 A 
ATOM     48  N   UNL     1      -1.452 -12.281 -10.331  1.00  0.00    -0.354 N 
ATOM     49  N   UNL     1      -3.498 -10.175 -10.409  1.00  0.00    -0.248 NA
ATOM     50  C   UNL     1      -5.052  -8.897 -11.597  1.00  0.00     0.031 C 
ATOM     51  C   UNL     1      -1.068 -13.440 -12.185  1.00  0.00     0.029 A 
ATOM     52  C   UNL     1      -1.833 -12.414 -11.655  1.00  0.00     0.049 A 
ATOM     53  H   UNL     1      -1.820 -11.621  -9.700  1.00  0.00     0.167 HD
ATOM     54  C   UNL     1      -3.546 -10.622 -11.725  1.00  0.00     0.074 A 
ATOM     55  C   UNL     1      -4.542  -9.818 -12.403  1.00  0.00     0.031 C 
ATOM     56  C   UNL     1      -2.833 -11.612 -12.315  1.00  0.00     0.031 A 
BRANCH  43  57
ATOM     57  C   UNL     1       1.274 -14.357  -8.594  1.00  0.00    -0.014 A 
ATOM     58  C   UNL     1       1.105 -15.507  -7.802  1.00  0.00     0.010 A 
ATOM     59  C   UNL     1       2.483 -14.179  -9.291  1.00  0.00     0.010 A 
ATOM     60  C   UNL     1       2.139 -16.438  -7.676  1.00  0.00     0.020 A 
ATOM     61  C   UNL     1       3.509 -15.124  -9.193  1.00  0.00     0.020 A 
ATOM     62  C   UNL     1       3.336 -16.239  -8.371  1.00  0.00     0.054 A 
BRANCH  62  63
ATOM     63  S   UNL     1       4.651 -17.477  -8.207  1.00  0.00     0.124 S 
ATOM     64  O   UNL     1       5.117 -17.242  -6.842  1.00  0.00    -0.237 OA
ATOM     65  O   UNL     1       3.936 -18.733  -8.418  1.00  0.00    -0.237 OA
ATOM     66  O   UNL     1       5.600 -17.119  -9.258  1.00  0.00    -0.744 OA
ENDBRANCH  62  63
ENDBRANCH  43  57
BRANCH  44  67
ATOM     67  C   UNL     1      -5.782  -7.296  -9.246  1.00  0.00    -0.014 A 
ATOM     68  C   UNL     1      -7.135  -7.613  -9.462  1.00  0.00     0.010 A 
ATOM     69  C   UNL     1      -5.409  -5.945  -9.124  1.00  0.00     0.010 A 
ATOM     70  C   UNL     1      -8.092  -6.600  -9.571  1.00  0.00     0.020 A 
ATOM     71  C   UNL     1      -6.367  -4.930  -9.203  1.00  0.00     0.020 A 
ATOM     72  C   UNL     1      -7.702  -5.264  -9.438  1.00  0.00     0.054 A 
BRANCH  72  73
ATOM     73  S   UNL     1      -8.970  -3.970  -9.533  1.00  0.00     0.124 S 
ATOM     74  O   UNL     1      -9.300  -3.971 -10.954  1.00  0.00    -0.237 OA
ATOM     75  O   UNL     1     -10.008  -4.480  -8.641  1.00  0.00    -0.237 OA
ATOM     76  O   UNL     1      -8.278  -2.776  -9.051  1.00  0.00    -0.744 OA
ENDBRANCH  72  73
ENDBRANCH  44  67
BRANCH  56  77
ATOM     77  C   UNL     1      -3.128 -11.924 -13.758  1.00  0.00    -0.014 A 
ATOM     78  C   UNL     1      -2.718 -11.064 -14.791  1.00  0.00     0.010 A 
ATOM     79  C   UNL     1      -3.749 -13.144 -14.086  1.00  0.00     0.010 A 
ATOM     80  C   UNL     1      -2.938 -11.412 -16.127  1.00  0.00     0.020 A 
ATOM     81  C   UNL     1      -3.945 -13.508 -15.420  1.00  0.00     0.020 A 
ATOM     82  C   UNL     1      -3.544 -12.635 -16.433  1.00  0.00     0.054 A 
BRANCH  82  83
ATOM     83  S   UNL     1      -3.749 -13.095 -18.175  1.00  0.00     0.124 S 
ATOM     84  O   UNL     1      -4.816 -12.195 -18.605  1.00  0.00    -0.237 OA
ATOM     85  O   UNL     1      -2.429 -12.818 -18.737  1.00  0.00    -0.237 OA
ATOM     86  O   UNL     1      -4.112 -14.509 -18.121  1.00  0.00    -0.744 OA
ENDBRANCH  82  83
ENDBRANCH  56  77
ENDBRANCH  30  31
ENDBRANCH  22  25
ENDBRANCH   1  21
TORSDOF 14
