REMARK SMILES O=C(NCCCNC(=O)c1ccc(-c2c3nc(c(-c4ccc(S(=O)(=O)[O-])cc4)c4ccc([nH]4)c(-c4ccc(S(=O)(=O)[O-])cc4)c4nc(c(-c5ccc(S(=O)(=O)[O-])cc5)c5ccc2[nH]5)C=C4)C=C3)cc1)c1ccc(CNC(=O)c2ccccc2I)cc1
REMARK SMILES IDX 5 1 4 2 3 3 1 4 2 5 70 7 71 8 86 9 72 10 85 11 73 12 74 13
REMARK SMILES IDX 75 14 76 15 77 17 78 18 79 19 83 20 80 21 82 22 84 23 81 24
REMARK SMILES IDX 6 25 7 26 8 27 9 29 10 30 11 31 69 32 12 33 68 34 13 35
REMARK SMILES IDX 14 36 15 37 62 38 16 39 67 40 61 41 63 42 17 43 66 44 60 45
REMARK SMILES IDX 59 46 18 48 48 49 29 50 47 51 30 52 33 53 46 54 64 55 31 56
REMARK SMILES IDX 32 57 45 59 65 60 34 61 19 62 20 63 28 64 21 65 27 66 22 67
REMARK SMILES IDX 23 68 24 69 25 70 26 71 49 72 50 73 58 74 51 75 57 76 52 77
REMARK SMILES IDX 53 78 54 79 55 80 56 81 35 82 36 83 44 84 37 85 43 86 38 87
REMARK SMILES IDX 39 88 40 89 41 90 42 91
REMARK H PARENT 3 6 75 16 7 28 63 47 33 58
REMARK Flexibility Score: inf
ROOT
ATOM      1  C   UNL     1       4.916  -1.391  -1.943  1.00  0.00     0.042 C 
ENDROOT
BRANCH   1   2
ATOM      2  C   UNL     1       4.534  -0.004  -1.444  1.00  0.00     0.118 C 
BRANCH   2   3
ATOM      3  N   UNL     1       3.097   0.151  -1.263  1.00  0.00    -0.352 N 
ATOM      4  O   UNL     1       1.142   0.199  -0.134  1.00  0.00    -0.269 OA
ATOM      5  C   UNL     1       2.369   0.234  -0.103  1.00  0.00     0.251 C 
ATOM      6  H   UNL     1       2.572   0.203  -2.094  1.00  0.00     0.163 HD
BRANCH   5   7
ATOM      7  C   UNL     1       3.064   0.353   1.192  1.00  0.00     0.039 A 
ATOM      8  C   UNL     1       4.005   1.364   1.407  1.00  0.00     0.014 A 
ATOM      9  C   UNL     1       2.746  -0.546   2.212  1.00  0.00     0.014 A 
ATOM     10  C   UNL     1       4.690   1.425   2.619  1.00  0.00     0.006 A 
ATOM     11  C   UNL     1       3.421  -0.471   3.431  1.00  0.00     0.006 A 
ATOM     12  C   UNL     1       4.406   0.506   3.640  1.00  0.00    -0.029 A 
BRANCH  12  13
ATOM     13  C   UNL     1       5.125   0.605   4.958  1.00  0.00     0.152 C 
BRANCH  13  14
ATOM     14  N   UNL     1       6.522   0.240   4.845  1.00  0.00    -0.348 N 
ATOM     15  C   UNL     1       7.639   0.960   5.180  1.00  0.00     0.252 C 
ATOM     16  H   UNL     1       6.695  -0.655   4.473  1.00  0.00     0.164 HD
ATOM     17  O   UNL     1       8.761   0.490   5.020  1.00  0.00    -0.269 OA
BRANCH  15  18
ATOM     18  C   UNL     1       7.513   2.357   5.636  1.00  0.00     0.053 A 
ATOM     19  C   UNL     1       8.021   3.330   4.760  1.00  0.00     0.015 A 
ATOM     20  C   UNL     1       6.972   2.745   6.868  1.00  0.00     0.026 A 
ATOM     21  C   UNL     1       7.934   4.684   5.081  1.00  0.00     0.001 A 
ATOM     22  C   UNL     1       6.859   4.109   7.170  1.00  0.00     0.015 A 
ATOM     23  I   UNL     1       6.392   1.392   8.362  1.00  0.00    -0.043 I 
ATOM     24  C   UNL     1       7.333   5.073   6.276  1.00  0.00     0.001 A 
ENDBRANCH  15  18
ENDBRANCH  13  14
ENDBRANCH  12  13
ENDBRANCH   5   7
ENDBRANCH   2   3
ENDBRANCH   1   2
BRANCH   1  25
ATOM     25  C   UNL     1       4.358  -1.742  -3.317  1.00  0.00     0.118 C 
BRANCH  25  26
ATOM     26  N   UNL     1       4.789  -0.819  -4.359  1.00  0.00    -0.352 N 
ATOM     27  C   UNL     1       5.578  -1.018  -5.465  1.00  0.00     0.251 C 
ATOM     28  H   UNL     1       4.460   0.102  -4.251  1.00  0.00     0.163 HD
ATOM     29  O   UNL     1       5.958  -0.044  -6.112  1.00  0.00    -0.269 OA
BRANCH  27  30
ATOM     30  C   UNL     1       5.993  -2.380  -5.870  1.00  0.00     0.039 A 
ATOM     31  C   UNL     1       7.303  -2.579  -6.317  1.00  0.00     0.014 A 
ATOM     32  C   UNL     1       5.101  -3.453  -5.835  1.00  0.00     0.014 A 
ATOM     33  C   UNL     1       7.738  -3.865  -6.647  1.00  0.00     0.010 A 
ATOM     34  C   UNL     1       5.557  -4.745  -6.086  1.00  0.00     0.010 A 
ATOM     35  C   UNL     1       6.882  -4.966  -6.489  1.00  0.00    -0.014 A 
BRANCH  35  36
ATOM     36  C   UNL     1       7.357  -6.356  -6.712  1.00  0.00     0.031 A 
ATOM     37  C   UNL     1       6.748  -7.208  -7.793  1.00  0.00     0.074 A 
ATOM     38  C   UNL     1       8.285  -6.880  -5.885  1.00  0.00     0.049 A 
ATOM     39  N   UNL     1       6.973  -8.465  -8.076  1.00  0.00    -0.248 NA
ATOM     40  C   UNL     1       5.735  -6.571  -8.650  1.00  0.00     0.031 C 
ATOM     41  C   UNL     1       8.922  -6.174  -4.769  1.00  0.00     0.029 A 
ATOM     42  N   UNL     1       8.845  -8.132  -5.847  1.00  0.00    -0.354 N 
ATOM     43  C   UNL     1       6.118  -8.777  -9.126  1.00  0.00     0.074 A 
ATOM     44  C   UNL     1       5.341  -7.588  -9.404  1.00  0.00     0.031 C 
ATOM     45  C   UNL     1       9.800  -6.996  -4.173  1.00  0.00     0.029 A 
ATOM     46  C   UNL     1       9.760  -8.296  -4.834  1.00  0.00     0.049 A 
ATOM     47  H   UNL     1       8.614  -8.845  -6.484  1.00  0.00     0.167 HD
ATOM     48  C   UNL     1       6.000  -9.941  -9.809  1.00  0.00     0.031 A 
ATOM     49  C   UNL     1      10.481  -9.374  -4.468  1.00  0.00     0.031 A 
ATOM     50  C   UNL     1       6.785 -11.118  -9.544  1.00  0.00     0.049 A 
ATOM     51  C   UNL     1      10.336 -10.653  -5.243  1.00  0.00     0.074 A 
ATOM     52  C   UNL     1       6.781 -12.325 -10.221  1.00  0.00     0.029 A 
ATOM     53  N   UNL     1       7.715 -11.236  -8.521  1.00  0.00    -0.354 N 
ATOM     54  N   UNL     1       9.563 -10.909  -6.271  1.00  0.00    -0.248 NA
ATOM     55  C   UNL     1      11.166 -11.787  -4.813  1.00  0.00     0.031 C 
ATOM     56  C   UNL     1       7.679 -13.188  -9.582  1.00  0.00     0.029 A 
ATOM     57  C   UNL     1       8.276 -12.502  -8.536  1.00  0.00     0.049 A 
ATOM     58  H   UNL     1       7.942 -10.525  -7.880  1.00  0.00     0.167 HD
ATOM     59  C   UNL     1       9.829 -12.226  -6.624  1.00  0.00     0.074 A 
ATOM     60  C   UNL     1      10.844 -12.709  -5.710  1.00  0.00     0.031 C 
ATOM     61  C   UNL     1       9.282 -12.969  -7.617  1.00  0.00     0.031 A 
BRANCH  48  62
ATOM     62  C   UNL     1       4.977  -9.999 -10.912  1.00  0.00    -0.014 A 
ATOM     63  C   UNL     1       5.174  -9.306 -12.119  1.00  0.00     0.010 A 
ATOM     64  C   UNL     1       3.821 -10.785 -10.754  1.00  0.00     0.010 A 
ATOM     65  C   UNL     1       4.214  -9.363 -13.133  1.00  0.00     0.020 A 
ATOM     66  C   UNL     1       2.870 -10.866 -11.776  1.00  0.00     0.020 A 
ATOM     67  C   UNL     1       3.065 -10.139 -12.952  1.00  0.00     0.054 A 
BRANCH  67  68
ATOM     68  S   UNL     1       1.843 -10.211 -14.291  1.00  0.00     0.124 S 
ATOM     69  O   UNL     1       1.192  -8.908 -14.173  1.00  0.00    -0.237 OA
ATOM     70  O   UNL     1       2.675 -10.391 -15.478  1.00  0.00    -0.237 OA
ATOM     71  O   UNL     1       1.010 -11.358 -13.938  1.00  0.00    -0.744 OA
ENDBRANCH  67  68
ENDBRANCH  48  62
BRANCH  49  72
ATOM     72  C   UNL     1      11.417  -9.282  -3.316  1.00  0.00    -0.014 A 
ATOM     73  C   UNL     1      12.806  -9.253  -3.530  1.00  0.00     0.010 A 
ATOM     74  C   UNL     1      10.924  -9.202  -2.001  1.00  0.00     0.010 A 
ATOM     75  C   UNL     1      13.687  -9.162  -2.449  1.00  0.00     0.020 A 
ATOM     76  C   UNL     1      11.801  -9.086  -0.919  1.00  0.00     0.020 A 
ATOM     77  C   UNL     1      13.179  -9.078  -1.150  1.00  0.00     0.054 A 
BRANCH  77  78
ATOM     78  S   UNL     1      14.338  -8.904   0.235  1.00  0.00     0.124 S 
ATOM     79  O   UNL     1      14.851 -10.263   0.374  1.00  0.00    -0.237 OA
ATOM     80  O   UNL     1      15.289  -7.916  -0.269  1.00  0.00    -0.237 OA
ATOM     81  O   UNL     1      13.490  -8.438   1.331  1.00  0.00    -0.744 OA
ENDBRANCH  77  78
ENDBRANCH  49  72
BRANCH  61  82
ATOM     82  C   UNL     1       9.787 -14.376  -7.784  1.00  0.00    -0.014 A 
ATOM     83  C   UNL     1       9.420 -15.390  -6.882  1.00  0.00     0.010 A 
ATOM     84  C   UNL     1      10.601 -14.696  -8.885  1.00  0.00     0.010 A 
ATOM     85  C   UNL     1       9.884 -16.696  -7.064  1.00  0.00     0.020 A 
ATOM     86  C   UNL     1      11.047 -16.005  -9.083  1.00  0.00     0.020 A 
ATOM     87  C   UNL     1      10.697 -16.994  -8.162  1.00  0.00     0.054 A 
BRANCH  87  88
ATOM     88  S   UNL     1      11.252 -18.705  -8.401  1.00  0.00     0.124 S 
ATOM     89  O   UNL     1      12.311 -18.822  -7.402  1.00  0.00    -0.237 OA
ATOM     90  O   UNL     1      10.043 -19.478  -8.128  1.00  0.00    -0.237 OA
ATOM     91  O   UNL     1      11.700 -18.732  -9.791  1.00  0.00    -0.744 OA
ENDBRANCH  87  88
ENDBRANCH  61  82
ENDBRANCH  35  36
ENDBRANCH  27  30
ENDBRANCH  25  26
ENDBRANCH   1  25
TORSDOF 16
