REMARK SMILES CCN(C(=O)N1C[C@@H](C)[C@H](C(=O)OC)C1)C(C)(C)C(=O)NCCCNC(=O)c1ccc(-c2c3nc(c(-c4ccc(S(=O)(=O)[O-])cc4)c4ccc([nH]4)c(-c4ccc(S(=O)(=O)[O-])cc4)c4nc(c(-c5ccc(S(=O)(=O)[O-])cc5)c5ccc2[nH]5)C=C4)C=C3)cc1
REMARK SMILES IDX 22 1 21 2 19 3 20 4 16 6 17 7 18 8 3 9 2 10 1 11 4 12 5 13
REMARK SMILES IDX 6 14 7 15 15 16 8 17 10 18 9 19 11 20 12 21 13 22 14 23
REMARK SMILES IDX 23 24 24 25 25 26 26 27 27 29 28 30 29 31 87 32 30 33 86 34
REMARK SMILES IDX 31 35 32 36 33 37 80 38 34 39 85 40 79 41 81 42 35 43 84 44
REMARK SMILES IDX 78 45 77 46 36 48 66 49 47 50 65 51 48 52 51 53 64 54 82 55
REMARK SMILES IDX 49 56 50 57 63 59 83 60 52 61 37 62 38 63 46 64 39 65 45 66
REMARK SMILES IDX 40 67 41 68 42 69 43 70 44 71 67 72 68 73 76 74 69 75 75 76
REMARK SMILES IDX 70 77 71 78 72 79 73 80 74 81 53 82 54 83 62 84 55 85 61 86
REMARK SMILES IDX 56 87 57 88 58 89 59 90 60 91
REMARK H PARENT 21 5 25 28 81 47 51 58
REMARK Flexibility Score: inf
ROOT
ATOM      1  C   UNL     1       5.269  -1.241   3.572  1.00  0.00     0.117 C 
ENDROOT
BRANCH   1   2
ATOM      2  N   UNL     1       4.018  -1.381   4.316  1.00  0.00    -0.354 N 
ATOM      3  C   UNL     1       2.720  -1.578   3.883  1.00  0.00     0.245 C 
ATOM      4  O   UNL     1       1.950  -2.092   4.702  1.00  0.00    -0.272 OA
ATOM      5  H   UNL     1       4.117  -1.326   5.294  1.00  0.00     0.163 HD
BRANCH   3   6
ATOM      6  C   UNL     1       2.308  -1.297   2.380  1.00  0.00     0.117 C 
ATOM      7  C   UNL     1       2.904  -2.519   1.631  1.00  0.00     0.045 C 
ATOM      8  C   UNL     1       2.892   0.066   1.938  1.00  0.00     0.045 C 
BRANCH   6   9
ATOM      9  N   UNL     1       0.811  -1.287   2.101  1.00  0.00    -0.311 N 
BRANCH   9  10
ATOM     10  C   UNL     1       0.367  -1.458   0.699  1.00  0.00     0.119 C 
ATOM     11  C   UNL     1       0.972  -0.519  -0.342  1.00  0.00     0.027 C 
ENDBRANCH   9  10
BRANCH   9  12
ATOM     12  C   UNL     1      -0.006  -0.630   3.020  1.00  0.00     0.320 C 
ATOM     13  O   UNL     1       0.464   0.205   3.796  1.00  0.00    -0.248 OA
BRANCH  12  14
ATOM     14  N   UNL     1      -1.359  -0.903   3.027  1.00  0.00    -0.323 N 
ATOM     15  C   UNL     1      -2.176  -1.894   2.345  1.00  0.00     0.125 C 
ATOM     16  C   UNL     1      -2.274   0.059   3.611  1.00  0.00     0.137 C 
ATOM     17  C   UNL     1      -3.214  -1.014   1.619  1.00  0.00     0.021 C 
ATOM     18  C   UNL     1      -3.281   0.278   2.479  1.00  0.00     0.123 C 
ATOM     19  C   UNL     1      -4.567  -1.692   1.465  1.00  0.00     0.010 C 
BRANCH  18  20
ATOM     20  C   UNL     1      -2.880   1.521   1.702  1.00  0.00     0.310 C 
ATOM     21  O   UNL     1      -3.648   2.447   1.470  1.00  0.00    -0.252 OA
BRANCH  20  22
ATOM     22  O   UNL     1      -1.576   1.480   1.319  1.00  0.00    -0.469 OA
ATOM     23  C   UNL     1      -1.031   2.716   0.860  1.00  0.00     0.282 C 
ENDBRANCH  20  22
ENDBRANCH  18  20
ENDBRANCH  12  14
ENDBRANCH   9  12
ENDBRANCH   6   9
ENDBRANCH   3   6
ENDBRANCH   1   2
BRANCH   1  24
ATOM     24  C   UNL     1       6.051   0.040   3.839  1.00  0.00     0.042 C 
BRANCH  24  25
ATOM     25  C   UNL     1       6.476   0.249   5.282  1.00  0.00     0.118 C 
BRANCH  25  26
ATOM     26  N   UNL     1       7.404  -0.769   5.749  1.00  0.00    -0.352 N 
ATOM     27  C   UNL     1       8.730  -0.676   6.095  1.00  0.00     0.251 C 
ATOM     28  H   UNL     1       7.020  -1.672   5.830  1.00  0.00     0.163 HD
ATOM     29  O   UNL     1       9.376  -1.708   6.279  1.00  0.00    -0.269 OA
BRANCH  27  30
ATOM     30  C   UNL     1       9.394   0.642   6.224  1.00  0.00     0.039 A 
ATOM     31  C   UNL     1      10.703   0.789   5.754  1.00  0.00     0.014 A 
ATOM     32  C   UNL     1       8.749   1.724   6.826  1.00  0.00     0.014 A 
ATOM     33  C   UNL     1      11.332   2.036   5.823  1.00  0.00     0.010 A 
ATOM     34  C   UNL     1       9.340   2.986   6.809  1.00  0.00     0.010 A 
ATOM     35  C   UNL     1      10.641   3.155   6.314  1.00  0.00    -0.014 A 
BRANCH  35  36
ATOM     36  C   UNL     1      11.260   4.507   6.323  1.00  0.00     0.031 A 
ATOM     37  C   UNL     1      11.480   5.231   7.626  1.00  0.00     0.074 A 
ATOM     38  C   UNL     1      11.563   5.112   5.157  1.00  0.00     0.049 A 
ATOM     39  N   UNL     1      11.946   6.437   7.830  1.00  0.00    -0.248 NA
ATOM     40  C   UNL     1      11.104   4.518   8.858  1.00  0.00     0.031 C 
ATOM     41  C   UNL     1      11.359   4.536   3.825  1.00  0.00     0.029 A 
ATOM     42  N   UNL     1      12.102   6.348   4.902  1.00  0.00    -0.354 N 
ATOM     43  C   UNL     1      11.900   6.633   9.206  1.00  0.00     0.074 A 
ATOM     44  C   UNL     1      11.313   5.444   9.783  1.00  0.00     0.031 C 
ATOM     45  C   UNL     1      11.794   5.404   2.898  1.00  0.00     0.029 A 
ATOM     46  C   UNL     1      12.266   6.615   3.562  1.00  0.00     0.049 A 
ATOM     47  H   UNL     1      12.349   6.985   5.611  1.00  0.00     0.167 HD
ATOM     48  C   UNL     1      12.328   7.697   9.929  1.00  0.00     0.031 A 
ATOM     49  C   UNL     1      12.734   7.712   2.936  1.00  0.00     0.031 A 
ATOM     50  C   UNL     1      12.923   8.874   9.353  1.00  0.00     0.049 A 
ATOM     51  C   UNL     1      13.192   8.886   3.758  1.00  0.00     0.074 A 
ATOM     52  C   UNL     1      13.441   9.980  10.003  1.00  0.00     0.029 A 
ATOM     53  N   UNL     1      13.078   9.099   7.994  1.00  0.00    -0.354 N 
ATOM     54  N   UNL     1      13.204   9.023   5.063  1.00  0.00    -0.248 NA
ATOM     55  C   UNL     1      13.711  10.048   3.024  1.00  0.00     0.031 C 
ATOM     56  C   UNL     1      13.858  10.899   9.035  1.00  0.00     0.029 A 
ATOM     57  C   UNL     1      13.659  10.338   7.784  1.00  0.00     0.049 A 
ATOM     58  H   UNL     1      12.813   8.471   7.283  1.00  0.00     0.167 HD
ATOM     59  C   UNL     1      13.755  10.276   5.306  1.00  0.00     0.074 A 
ATOM     60  C   UNL     1      14.079  10.848   4.015  1.00  0.00     0.031 C 
ATOM     61  C   UNL     1      13.974  10.896   6.492  1.00  0.00     0.031 A 
BRANCH  48  62
ATOM     62  C   UNL     1      12.160   7.636  11.425  1.00  0.00    -0.014 A 
ATOM     63  C   UNL     1      12.919   6.746  12.207  1.00  0.00     0.010 A 
ATOM     64  C   UNL     1      11.261   8.509  12.065  1.00  0.00     0.010 A 
ATOM     65  C   UNL     1      12.750   6.699  13.593  1.00  0.00     0.020 A 
ATOM     66  C   UNL     1      11.111   8.486  13.455  1.00  0.00     0.020 A 
ATOM     67  C   UNL     1      11.845   7.568  14.209  1.00  0.00     0.054 A 
BRANCH  67  68
ATOM     68  S   UNL     1      11.664   7.499  16.012  1.00  0.00     0.124 S 
ATOM     69  O   UNL     1      10.945   6.240  16.194  1.00  0.00    -0.237 OA
ATOM     70  O   UNL     1      13.050   7.502  16.473  1.00  0.00    -0.237 OA
ATOM     71  O   UNL     1      10.901   8.703  16.331  1.00  0.00    -0.744 OA
ENDBRANCH  67  68
ENDBRANCH  48  62
BRANCH  49  72
ATOM     72  C   UNL     1      12.805   7.747   1.448  1.00  0.00    -0.014 A 
ATOM     73  C   UNL     1      14.047   7.718   0.791  1.00  0.00     0.010 A 
ATOM     74  C   UNL     1      11.627   7.794   0.680  1.00  0.00     0.010 A 
ATOM     75  C   UNL     1      14.113   7.754  -0.605  1.00  0.00     0.020 A 
ATOM     76  C   UNL     1      11.687   7.801  -0.717  1.00  0.00     0.020 A 
ATOM     77  C   UNL     1      12.931   7.793  -1.351  1.00  0.00     0.054 A 
BRANCH  77  78
ATOM     78  S   UNL     1      13.038   7.785  -3.162  1.00  0.00     0.124 S 
ATOM     79  O   UNL     1      13.511   9.136  -3.444  1.00  0.00    -0.237 OA
ATOM     80  O   UNL     1      13.996   6.711  -3.416  1.00  0.00    -0.237 OA
ATOM     81  O   UNL     1      11.668   7.499  -3.584  1.00  0.00    -0.744 OA
ENDBRANCH  77  78
ENDBRANCH  49  72
BRANCH  61  82
ATOM     82  C   UNL     1      14.624  12.254   6.455  1.00  0.00    -0.014 A 
ATOM     83  C   UNL     1      13.925  13.386   5.999  1.00  0.00     0.010 A 
ATOM     84  C   UNL     1      15.937  12.407   6.938  1.00  0.00     0.010 A 
ATOM     85  C   UNL     1      14.540  14.641   5.996  1.00  0.00     0.020 A 
ATOM     86  C   UNL     1      16.544  13.665   6.965  1.00  0.00     0.020 A 
ATOM     87  C   UNL     1      15.846  14.772   6.480  1.00  0.00     0.054 A 
BRANCH  87  88
ATOM     88  S   UNL     1      16.605  16.419   6.507  1.00  0.00     0.124 S 
ATOM     89  O   UNL     1      16.877  16.652   5.091  1.00  0.00    -0.237 OA
ATOM     90  O   UNL     1      15.552  17.248   7.089  1.00  0.00    -0.237 OA
ATOM     91  O   UNL     1      17.787  16.243   7.348  1.00  0.00    -0.744 OA
ENDBRANCH  87  88
ENDBRANCH  61  82
ENDBRANCH  35  36
ENDBRANCH  27  30
ENDBRANCH  25  26
ENDBRANCH  24  25
ENDBRANCH   1  24
TORSDOF 19
