REMARK SMILES O=C(NCCCNC(=O)[C@H]1O[C@@H](Oc2c(-c3cc(O)c(O)c(O)c3)oc3cc(O)cc(O)c3c2=O)[C@H](O)[C@@H](O)[C@@H]1O)c1ccc(-c2c3nc(c(-c4ccc(S(=O)(=O)[O-])cc4)c4ccc([nH]4)c(-c4ccc(S(=O)(=O)[O-])cc4)c4nc(c(-c5ccc(S(=O)(=O)[O-])cc5)c5ccc2[nH]5)C=C4)C=C3)cc1
REMARK SMILES IDX 5 1 4 2 3 3 1 4 2 5 42 7 43 8 101 9 44 10 100 11 45 12 46 13
REMARK SMILES IDX 47 14 94 15 48 16 99 17 93 18 95 19 49 20 98 21 92 22 91 23
REMARK SMILES IDX 50 25 80 26 61 27 79 28 62 29 65 30 78 31 96 32 63 33 64 34
REMARK SMILES IDX 77 36 97 37 66 38 51 39 52 40 60 41 53 42 59 43 54 44 55 45
REMARK SMILES IDX 56 46 57 47 58 48 81 49 82 50 90 51 83 52 89 53 84 54 85 55
REMARK SMILES IDX 86 56 87 57 88 58 67 59 68 60 76 61 69 62 75 63 70 64 71 65
REMARK SMILES IDX 72 66 73 67 74 68 6 69 7 70 8 71 9 73 10 74 11 75 40 76
REMARK SMILES IDX 12 77 38 78 36 79 41 80 13 82 14 83 15 84 34 85 25 86 33 87
REMARK SMILES IDX 35 88 26 89 31 90 27 91 30 92 28 93 16 94 17 95 24 96 18 97
REMARK SMILES IDX 22 98 20 99 19 100 23 102 21 104 32 106 29 108 39 110 37 112
REMARK H PARENT 3 6 95 24 65 35 7 72 41 81 19 101 23 103 21 105 32 107 29 109
REMARK H PARENT 39 111 37 113
REMARK Flexibility Score: inf
ROOT
ATOM      1  C   UNL     1       9.580  -4.521  -2.645  1.00  0.00     0.042 C 
ENDROOT
BRANCH   1   2
ATOM      2  C   UNL     1       9.398  -5.449  -1.450  1.00  0.00     0.118 C 
BRANCH   2   3
ATOM      3  N   UNL     1       9.764  -6.832  -1.732  1.00  0.00    -0.352 N 
ATOM      4  O   UNL     1      11.041  -8.698  -1.635  1.00  0.00    -0.269 OA
ATOM      5  C   UNL     1      10.784  -7.583  -1.190  1.00  0.00     0.251 C 
ATOM      6  H   UNL     1       9.206  -7.291  -2.401  1.00  0.00     0.163 HD
BRANCH   5   7
ATOM      7  C   UNL     1      11.592  -7.009  -0.093  1.00  0.00     0.039 A 
ATOM      8  C   UNL     1      10.960  -6.390   0.986  1.00  0.00     0.014 A 
ATOM      9  C   UNL     1      12.986  -7.021  -0.180  1.00  0.00     0.014 A 
ATOM     10  C   UNL     1      11.705  -5.603   1.852  1.00  0.00     0.010 A 
ATOM     11  C   UNL     1      13.743  -6.327   0.770  1.00  0.00     0.010 A 
ATOM     12  C   UNL     1      13.108  -5.569   1.765  1.00  0.00    -0.014 A 
BRANCH  12  13
ATOM     13  C   UNL     1      13.871  -4.763   2.756  1.00  0.00     0.031 A 
ATOM     14  C   UNL     1      14.748  -3.614   2.332  1.00  0.00     0.074 A 
ATOM     15  C   UNL     1      13.716  -5.045   4.066  1.00  0.00     0.049 A 
ATOM     16  N   UNL     1      15.449  -2.797   3.079  1.00  0.00    -0.248 NA
ATOM     17  C   UNL     1      14.866  -3.349   0.889  1.00  0.00     0.031 C 
ATOM     18  C   UNL     1      12.890  -6.132   4.602  1.00  0.00     0.029 A 
ATOM     19  N   UNL     1      14.207  -4.423   5.185  1.00  0.00    -0.354 N 
ATOM     20  C   UNL     1      16.118  -1.949   2.201  1.00  0.00     0.074 A 
ATOM     21  C   UNL     1      15.748  -2.359   0.863  1.00  0.00     0.031 C 
ATOM     22  C   UNL     1      12.862  -6.047   5.938  1.00  0.00     0.029 A 
ATOM     23  C   UNL     1      13.735  -4.960   6.359  1.00  0.00     0.049 A 
ATOM     24  H   UNL     1      14.835  -3.666   5.150  1.00  0.00     0.167 HD
ATOM     25  C   UNL     1      16.961  -0.926   2.485  1.00  0.00     0.031 A 
ATOM     26  C   UNL     1      13.985  -4.629   7.639  1.00  0.00     0.031 A 
ATOM     27  C   UNL     1      17.312  -0.514   3.821  1.00  0.00     0.049 A 
ATOM     28  C   UNL     1      14.931  -3.502   7.925  1.00  0.00     0.074 A 
ATOM     29  C   UNL     1      18.138   0.526   4.213  1.00  0.00     0.029 A 
ATOM     30  N   UNL     1      16.855  -1.118   4.983  1.00  0.00    -0.354 N 
ATOM     31  N   UNL     1      15.550  -2.716   7.078  1.00  0.00    -0.248 NA
ATOM     32  C   UNL     1      15.219  -3.226   9.337  1.00  0.00     0.031 C 
ATOM     33  C   UNL     1      18.215   0.522   5.611  1.00  0.00     0.029 A 
ATOM     34  C   UNL     1      17.397  -0.488   6.091  1.00  0.00     0.049 A 
ATOM     35  H   UNL     1      16.236  -1.883   5.015  1.00  0.00     0.167 HD
ATOM     36  C   UNL     1      16.298  -1.842   7.857  1.00  0.00     0.074 A 
ATOM     37  C   UNL     1      16.032  -2.183   9.241  1.00  0.00     0.031 C 
ATOM     38  C   UNL     1      17.132  -0.849   7.461  1.00  0.00     0.031 A 
BRANCH  25  39
ATOM     39  C   UNL     1      17.597  -0.201   1.325  1.00  0.00    -0.014 A 
ATOM     40  C   UNL     1      16.854   0.669   0.508  1.00  0.00     0.010 A 
ATOM     41  C   UNL     1      18.971  -0.370   1.069  1.00  0.00     0.010 A 
ATOM     42  C   UNL     1      17.462   1.320  -0.571  1.00  0.00     0.020 A 
ATOM     43  C   UNL     1      19.588   0.297   0.006  1.00  0.00     0.020 A 
ATOM     44  C   UNL     1      18.824   1.122  -0.821  1.00  0.00     0.054 A 
BRANCH  44  45
ATOM     45  S   UNL     1      19.585   1.974  -2.231  1.00  0.00     0.124 S 
ATOM     46  O   UNL     1      19.067   1.207  -3.362  1.00  0.00    -0.237 OA
ATOM     47  O   UNL     1      19.064   3.333  -2.107  1.00  0.00    -0.237 OA
ATOM     48  O   UNL     1      21.019   1.835  -1.989  1.00  0.00    -0.744 OA
ENDBRANCH  44  45
ENDBRANCH  25  39
BRANCH  26  49
ATOM     49  C   UNL     1      13.332  -5.392   8.736  1.00  0.00    -0.014 A 
ATOM     50  C   UNL     1      12.330  -4.798   9.521  1.00  0.00     0.010 A 
ATOM     51  C   UNL     1      13.679  -6.737   8.967  1.00  0.00     0.010 A 
ATOM     52  C   UNL     1      11.689  -5.534  10.522  1.00  0.00     0.020 A 
ATOM     53  C   UNL     1      13.019  -7.483   9.946  1.00  0.00     0.020 A 
ATOM     54  C   UNL     1      12.034  -6.873  10.724  1.00  0.00     0.054 A 
BRANCH  54  55
ATOM     55  S   UNL     1      11.141  -7.832  11.979  1.00  0.00     0.124 S 
ATOM     56  O   UNL     1      11.752  -7.355  13.215  1.00  0.00    -0.237 OA
ATOM     57  O   UNL     1       9.754  -7.427  11.760  1.00  0.00    -0.237 OA
ATOM     58  O   UNL     1      11.440  -9.217  11.624  1.00  0.00    -0.744 OA
ENDBRANCH  54  55
ENDBRANCH  26  49
BRANCH  38  59
ATOM     59  C   UNL     1      17.797  -0.050   8.547  1.00  0.00    -0.014 A 
ATOM     60  C   UNL     1      18.845  -0.595   9.310  1.00  0.00     0.010 A 
ATOM     61  C   UNL     1      17.378   1.269   8.795  1.00  0.00     0.010 A 
ATOM     62  C   UNL     1      19.436   0.154  10.331  1.00  0.00     0.020 A 
ATOM     63  C   UNL     1      17.983   2.029   9.797  1.00  0.00     0.020 A 
ATOM     64  C   UNL     1      18.997   1.460  10.571  1.00  0.00     0.054 A 
BRANCH  64  65
ATOM     65  S   UNL     1      19.794   2.423  11.885  1.00  0.00     0.124 S 
ATOM     66  O   UNL     1      19.193   1.851  13.087  1.00  0.00    -0.237 OA
ATOM     67  O   UNL     1      21.211   2.126  11.689  1.00  0.00    -0.237 OA
ATOM     68  O   UNL     1      19.406   3.800  11.587  1.00  0.00    -0.744 OA
ENDBRANCH  64  65
ENDBRANCH  38  59
ENDBRANCH  12  13
ENDBRANCH   5   7
ENDBRANCH   2   3
ENDBRANCH   1   2
BRANCH   1  69
ATOM     69  C   UNL     1       8.409  -4.572  -3.608  1.00  0.00     0.117 C 
BRANCH  69  70
ATOM     70  N   UNL     1       7.205  -4.045  -3.000  1.00  0.00    -0.354 N 
ATOM     71  C   UNL     1       6.038  -3.719  -3.601  1.00  0.00     0.252 C 
ATOM     72  H   UNL     1       7.240  -3.908  -2.025  1.00  0.00     0.163 HD
ATOM     73  O   UNL     1       5.073  -3.438  -2.883  1.00  0.00    -0.272 OA
BRANCH  71  74
ATOM     74  C   UNL     1       5.870  -3.786  -5.120  1.00  0.00     0.242 C 
ATOM     75  O   UNL     1       6.747  -3.005  -5.939  1.00  0.00    -0.324 OA
ATOM     76  C   UNL     1       5.917  -5.220  -5.652  1.00  0.00     0.184 C 
ATOM     77  C   UNL     1       6.134  -2.769  -7.216  1.00  0.00     0.340 C 
ATOM     78  C   UNL     1       5.169  -5.210  -6.983  1.00  0.00     0.181 C 
ATOM     79  C   UNL     1       5.651  -4.083  -7.898  1.00  0.00     0.214 C 
BRANCH  76  80
ATOM     80  O   UNL     1       5.324  -6.227  -4.828  1.00  0.00    -0.387 OA
ATOM     81  H   UNL     1       4.376  -6.049  -4.731  1.00  0.00     0.211 HD
ENDBRANCH  76  80
BRANCH  77  82
ATOM     82  O   UNL     1       6.910  -2.019  -8.183  1.00  0.00    -0.454 OA
BRANCH  82  83
ATOM     83  C   UNL     1       8.289  -1.953  -8.112  1.00  0.00     0.214 A 
ATOM     84  C   UNL     1       9.126  -2.805  -8.746  1.00  0.00     0.181 A 
ATOM     85  C   UNL     1       8.893  -0.694  -7.559  1.00  0.00     0.239 A 
ATOM     86  O   UNL     1      10.495  -2.670  -8.816  1.00  0.00    -0.452 OA
ATOM     87  C   UNL     1      10.331  -0.443  -7.866  1.00  0.00     0.111 A 
ATOM     88  O   UNL     1       8.201   0.088  -6.917  1.00  0.00    -0.285 OA
ATOM     89  C   UNL     1      11.047  -1.465  -8.487  1.00  0.00     0.146 A 
ATOM     90  C   UNL     1      11.003   0.757  -7.583  1.00  0.00     0.134 A 
ATOM     91  C   UNL     1      12.395  -1.313  -8.819  1.00  0.00     0.094 A 
ATOM     92  C   UNL     1      12.360   0.917  -7.906  1.00  0.00     0.093 A 
ATOM     93  C   UNL     1      13.043  -0.125  -8.523  1.00  0.00     0.123 A 
BRANCH  84  94
ATOM     94  C   UNL     1       8.683  -4.040  -9.405  1.00  0.00     0.029 A 
ATOM     95  C   UNL     1       9.041  -5.268  -8.816  1.00  0.00     0.062 A 
ATOM     96  C   UNL     1       7.830  -4.017 -10.523  1.00  0.00     0.062 A 
ATOM     97  C   UNL     1       8.449  -6.439  -9.264  1.00  0.00     0.162 A 
ATOM     98  C   UNL     1       7.241  -5.202 -10.949  1.00  0.00     0.162 A 
ATOM     99  C   UNL     1       7.516  -6.397 -10.293  1.00  0.00     0.200 A 
BRANCH  97 100
ATOM    100  O   UNL     1       8.739  -7.611  -8.631  1.00  0.00    -0.504 OA
ATOM    101  H   UNL     1       9.371  -7.625  -7.939  1.00  0.00     0.293 HD
ENDBRANCH  97 100
BRANCH  98 102
ATOM    102  O   UNL     1       6.293  -5.165 -11.931  1.00  0.00    -0.504 OA
ATOM    103  H   UNL     1       5.891  -5.959 -12.224  1.00  0.00     0.293 HD
ENDBRANCH  98 102
BRANCH  99 104
ATOM    104  O   UNL     1       6.741  -7.494 -10.558  1.00  0.00    -0.502 OA
ATOM    105  H   UNL     1       6.914  -8.306 -10.124  1.00  0.00     0.293 HD
ENDBRANCH  99 104
ENDBRANCH  84  94
BRANCH  90 106
ATOM    106  O   UNL     1      10.346   1.810  -7.010  1.00  0.00    -0.507 OA
ATOM    107  H   UNL     1      10.806   2.605  -6.827  1.00  0.00     0.293 HD
ENDBRANCH  90 106
BRANCH  93 108
ATOM    108  O   UNL     1      14.357  -0.021  -8.868  1.00  0.00    -0.508 OA
ATOM    109  H   UNL     1      14.790  -0.741  -9.283  1.00  0.00     0.293 HD
ENDBRANCH  93 108
ENDBRANCH  82  83
ENDBRANCH  77  82
BRANCH  78 110
ATOM    110  O   UNL     1       5.355  -6.484  -7.652  1.00  0.00    -0.387 OA
ATOM    111  H   UNL     1       6.298  -6.618  -7.835  1.00  0.00     0.211 HD
ENDBRANCH  78 110
BRANCH  79 112
ATOM    112  O   UNL     1       4.636  -3.814  -8.877  1.00  0.00    -0.384 OA
ATOM    113  H   UNL     1       3.840  -3.481  -8.435  1.00  0.00     0.211 HD
ENDBRANCH  79 112
ENDBRANCH  71  74
ENDBRANCH  69  70
ENDBRANCH   1  69
TORSDOF 24
