REMARK SMILES O=C(NCCCNC(=O)c1ccc(-c2c3nc(c(-c4ccc(S(=O)(=O)[O-])cc4)c4ccc([nH]4)c(-c4ccc(S(=O)(=O)[O-])cc4)c4nc(c(-c5ccc(S(=O)(=O)[O-])cc5)c5ccc2[nH]5)C=C4)C=C3)cc1)C1=Cc2cc(S(F)(F)(F)(F)F)cc(Br)c2O[C@@H]1C(F)(F)F
REMARK SMILES IDX 6 1 5 2 4 3 3 4 1 5 2 6 70 8 71 9 86 10 72 11 85 12 73 13
REMARK SMILES IDX 84 14 74 15 82 16 81 17 83 18 87 19 88 20 89 21 90 22 75 23
REMARK SMILES IDX 76 24 77 25 78 26 79 27 80 28 7 29 8 30 9 32 10 33 11 34
REMARK SMILES IDX 69 35 12 36 68 37 13 38 14 39 15 40 62 41 16 42 67 43 61 44
REMARK SMILES IDX 63 45 17 46 66 47 60 48 59 49 18 51 48 52 29 53 47 54 30 55
REMARK SMILES IDX 33 56 46 57 64 58 31 59 32 60 45 62 65 63 34 64 19 65 20 66
REMARK SMILES IDX 28 67 21 68 27 69 22 70 23 71 24 72 25 73 26 74 49 75 50 76
REMARK SMILES IDX 58 77 51 78 57 79 52 80 53 81 54 82 55 83 56 84 35 85 36 86
REMARK SMILES IDX 44 87 37 88 43 89 38 90 39 91 40 92 41 93 42 94
REMARK H PARENT 3 7 7 31 63 50 33 61
REMARK Flexibility Score: inf
ROOT
ATOM      1  C   UNL     1       4.468  -0.403   3.589  1.00  0.00     0.118 C 
ENDROOT
BRANCH   1   2
ATOM      2  C   UNL     1       4.974   0.266   2.322  1.00  0.00     0.042 C 
BRANCH   2   3
ATOM      3  C   UNL     1       4.468  -0.496   1.109  1.00  0.00     0.118 C 
BRANCH   3   4
ATOM      4  N   UNL     1       2.998  -0.496   1.109  1.00  0.00    -0.352 N 
ATOM      5  O   UNL     1       0.992   0.098  -0.017  1.00  0.00    -0.270 OA
ATOM      6  C   UNL     1       2.263   0.098  -0.017  1.00  0.00     0.251 C 
ATOM      7  H   UNL     1       2.505  -0.895   1.862  1.00  0.00     0.163 HD
BRANCH   6   8
ATOM      8  C   UNL     1       3.022   0.713  -1.181  1.00  0.00     0.067 C 
ATOM      9  C   UNL     1       4.383   0.713  -1.181  1.00  0.00     0.025 C 
ATOM     10  C   UNL     1       2.263   1.328  -2.345  1.00  0.00     0.314 C 
ATOM     11  C   UNL     1       5.143   0.098  -0.017  1.00  0.00     0.020 A 
ATOM     12  O   UNL     1       3.528  -1.640   0.115  1.00  0.00    -0.474 OA
ATOM     13  C   UNL     1       6.281   0.748   0.432  1.00  0.00     0.036 A 
ATOM     14  C   UNL     1       4.780  -1.079   0.479  1.00  0.00     0.142 A 
ATOM     15  C   UNL     1       7.136  -0.067   1.211  1.00  0.00     0.109 A 
ATOM     16  C   UNL     1       5.606  -1.758   1.343  1.00  0.00     0.062 A 
ATOM     17  C   UNL     1       6.775  -1.202   1.782  1.00  0.00     0.044 A 
ATOM     18  Br  UNL     1       5.100  -3.551   1.953  1.00  0.00    -0.047 Br
BRANCH  10  19
ATOM     19  C   UNL     1       2.630   0.603  -3.630  1.00  0.00     0.429 C 
ATOM     20  F   UNL     1       2.308  -0.683  -3.520  1.00  0.00    -0.167 F 
ATOM     21  F   UNL     1       1.965   1.141  -4.648  1.00  0.00    -0.167 F 
ATOM     22  F   UNL     1       3.937   0.716  -3.844  1.00  0.00    -0.167 F 
ENDBRANCH  10  19
BRANCH  15  23
ATOM     23  S   UNL     1       8.845   0.483   1.439  1.00  0.00     0.310 S 
ATOM     24  F   UNL     1       8.699   0.483   3.019  1.00  0.00    -0.094 F 
ATOM     25  F   UNL     1       8.330   1.972   1.461  1.00  0.00    -0.094 F 
ATOM     26  F   UNL     1      10.312   0.959   1.637  1.00  0.00    -0.094 F 
ATOM     27  F   UNL     1       9.325  -1.017   1.556  1.00  0.00    -0.094 F 
ATOM     28  F   UNL     1       7.348  -0.017   1.352  1.00  0.00    -0.094 F 
ENDBRANCH  15  23
ENDBRANCH   6   8
ENDBRANCH   3   4
ENDBRANCH   2   3
ENDBRANCH   1   2
BRANCH   1  29
ATOM     29  N   UNL     1       4.957  -1.788   3.641  1.00  0.00    -0.352 N 
ATOM     30  C   UNL     1       5.803  -2.227   4.761  1.00  0.00     0.251 C 
ATOM     31  H   UNL     1       4.720  -2.422   2.926  1.00  0.00     0.163 HD
ATOM     32  O   UNL     1       6.226  -3.424   4.806  1.00  0.00    -0.269 OA
BRANCH  30  33
ATOM     33  C   UNL     1       6.170  -1.249   5.865  1.00  0.00     0.039 A 
ATOM     34  C   UNL     1       7.431  -1.308   6.435  1.00  0.00     0.014 A 
ATOM     35  C   UNL     1       5.221  -0.470   6.370  1.00  0.00     0.014 A 
ATOM     36  C   UNL     1       7.506  -0.721   7.721  1.00  0.00     0.010 A 
ATOM     37  C   UNL     1       5.414   0.183   7.564  1.00  0.00     0.010 A 
ATOM     38  C   UNL     1       6.616   0.120   8.213  1.00  0.00    -0.014 A 
BRANCH  38  39
ATOM     39  C   UNL     1       6.910   0.973   9.437  1.00  0.00     0.031 A 
ATOM     40  C   UNL     1       6.075   0.791  10.540  1.00  0.00     0.074 A 
ATOM     41  C   UNL     1       8.052   1.756   9.451  1.00  0.00     0.049 A 
ATOM     42  N   UNL     1       6.230   1.286  11.769  1.00  0.00    -0.248 NA
ATOM     43  C   UNL     1       4.843  -0.013  10.517  1.00  0.00     0.031 C 
ATOM     44  C   UNL     1       8.905   1.938   8.345  1.00  0.00     0.029 A 
ATOM     45  N   UNL     1       8.564   2.485  10.502  1.00  0.00    -0.354 N 
ATOM     46  C   UNL     1       5.236   0.877  12.560  1.00  0.00     0.074 A 
ATOM     47  C   UNL     1       4.327   0.041  11.765  1.00  0.00     0.031 C 
ATOM     48  C   UNL     1       9.909   2.773   8.719  1.00  0.00     0.029 A 
ATOM     49  C   UNL     1       9.702   3.127  10.066  1.00  0.00     0.049 A 
ATOM     50  H   UNL     1       8.182   2.538  11.408  1.00  0.00     0.167 HD
ATOM     51  C   UNL     1       5.054   1.166  13.913  1.00  0.00     0.031 A 
ATOM     52  C   UNL     1      10.524   3.978  10.787  1.00  0.00     0.031 A 
ATOM     53  C   UNL     1       5.901   1.983  14.645  1.00  0.00     0.049 A 
ATOM     54  C   UNL     1      10.309   4.315  12.125  1.00  0.00     0.074 A 
ATOM     55  C   UNL     1       5.736   2.279  16.012  1.00  0.00     0.029 A 
ATOM     56  N   UNL     1       7.025   2.645  14.203  1.00  0.00    -0.354 N 
ATOM     57  N   UNL     1       9.338   3.874  12.926  1.00  0.00    -0.248 NA
ATOM     58  C   UNL     1      11.156   5.241  12.889  1.00  0.00     0.031 C 
ATOM     59  C   UNL     1       6.741   3.115  16.387  1.00  0.00     0.029 A 
ATOM     60  C   UNL     1       7.550   3.356  15.260  1.00  0.00     0.049 A 
ATOM     61  H   UNL     1       7.391   2.615  13.289  1.00  0.00     0.167 HD
ATOM     62  C   UNL     1       9.471   4.403  14.144  1.00  0.00     0.074 A 
ATOM     63  C   UNL     1      10.638   5.296  14.136  1.00  0.00     0.031 C 
ATOM     64  C   UNL     1       8.668   4.175  15.263  1.00  0.00     0.031 A 
BRANCH  51  65
ATOM     65  C   UNL     1       3.859   0.551  14.623  1.00  0.00    -0.014 A 
ATOM     66  C   UNL     1       3.700  -0.824  14.667  1.00  0.00     0.010 A 
ATOM     67  C   UNL     1       2.962   1.367  15.166  1.00  0.00     0.010 A 
ATOM     68  C   UNL     1       2.404  -1.239  15.057  1.00  0.00     0.020 A 
ATOM     69  C   UNL     1       1.774   0.876  15.651  1.00  0.00     0.020 A 
ATOM     70  C   UNL     1       1.524  -0.469  15.671  1.00  0.00     0.054 A 
BRANCH  70  71
ATOM     71  S   UNL     1       0.067  -1.156  16.495  1.00  0.00     0.124 S 
ATOM     72  O   UNL     1      -0.789  -1.909  15.474  1.00  0.00    -0.237 OA
ATOM     73  O   UNL     1       0.511  -2.119  17.598  1.00  0.00    -0.237 OA
ATOM     74  O   UNL     1      -0.851   0.113  17.181  1.00  0.00    -0.744 OA
ENDBRANCH  70  71
ENDBRANCH  51  65
BRANCH  52  75
ATOM     75  C   UNL     1      11.728   4.580  10.080  1.00  0.00    -0.014 A 
ATOM     76  C   UNL     1      13.011   4.315  10.530  1.00  0.00     0.010 A 
ATOM     77  C   UNL     1      11.516   5.335   9.009  1.00  0.00     0.010 A 
ATOM     78  C   UNL     1      14.005   5.136   9.945  1.00  0.00     0.020 A 
ATOM     79  C   UNL     1      12.556   6.001   8.406  1.00  0.00     0.020 A 
ATOM     80  C   UNL     1      13.843   5.832   8.835  1.00  0.00     0.054 A 
BRANCH  80  81
ATOM     81  S   UNL     1      15.249   6.526   7.931  1.00  0.00     0.124 S 
ATOM     82  O   UNL     1      16.010   7.496   8.838  1.00  0.00    -0.237 OA
ATOM     83  O   UNL     1      16.183   5.395   7.495  1.00  0.00    -0.237 OA
ATOM     84  O   UNL     1      14.682   7.362   6.551  1.00  0.00    -0.744 OA
ENDBRANCH  80  81
ENDBRANCH  52  75
BRANCH  64  85
ATOM     85  C   UNL     1       9.043   4.865  16.564  1.00  0.00    -0.014 A 
ATOM     86  C   UNL     1       9.236   6.237  16.581  1.00  0.00     0.010 A 
ATOM     87  C   UNL     1       9.321   4.118  17.625  1.00  0.00     0.010 A 
ATOM     88  C   UNL     1      10.005   6.694  17.677  1.00  0.00     0.020 A 
ATOM     89  C   UNL     1       9.953   4.661  18.718  1.00  0.00     0.020 A 
ATOM     90  C   UNL     1      10.228   5.999  18.777  1.00  0.00     0.054 A 
BRANCH  90  91
ATOM     91  S   UNL     1      10.862   6.776  20.284  1.00  0.00     0.124 S 
ATOM     92  O   UNL     1      12.225   7.410  19.996  1.00  0.00    -0.237 OA
ATOM     93  O   UNL     1       9.885   7.857  20.751  1.00  0.00    -0.237 OA
ATOM     94  O   UNL     1      11.031   5.593  21.508  1.00  0.00    -0.744 OA
ENDBRANCH  90  91
ENDBRANCH  64  85
ENDBRANCH  38  39
ENDBRANCH  30  33
ENDBRANCH   1  29
TORSDOF 15
