REMARK SMILES O=C(Cc1ccc(=O)n(C(F)F)c1)NCCCNC(=O)c1ccc(-c2c3nc(c(-c4ccc(S(=O)(=O)[O-])cc4)c4ccc([nH]4)c(-c4ccc(S(=O)(=O)[O-])cc4)c4nc(c(-c5ccc(S(=O)(=O)[O-])cc5)c5ccc2[nH]5)C=C4)C=C3)cc1
REMARK SMILES IDX 16 1 15 2 14 3 1 4 2 5 3 7 4 8 5 9 13 10 6 11 9 12 7 13 8 14
REMARK SMILES IDX 10 15 11 16 12 17 17 18 18 19 19 20 20 22 21 23 22 24 80 25
REMARK SMILES IDX 23 26 79 27 24 28 25 29 26 30 73 31 27 32 78 33 72 34 74 35
REMARK SMILES IDX 28 36 77 37 71 38 70 39 29 41 59 42 40 43 58 44 41 45 44 46
REMARK SMILES IDX 57 47 75 48 42 49 43 50 56 52 76 53 45 54 30 55 31 56 39 57
REMARK SMILES IDX 32 58 38 59 33 60 34 61 35 62 36 63 37 64 60 65 61 66 69 67
REMARK SMILES IDX 62 68 68 69 63 70 64 71 65 72 66 73 67 74 46 75 47 76 55 77
REMARK SMILES IDX 48 78 54 79 49 80 50 81 51 82 52 83 53 84
REMARK H PARENT 14 6 18 21 74 40 44 51
REMARK Flexibility Score: inf
ROOT
ATOM      1  C   UNL     1       2.312   0.976  -3.279  1.00  0.00     0.042 C 
ENDROOT
BRANCH   1   2
ATOM      2  C   UNL     1       2.089  -0.233  -2.381  1.00  0.00     0.117 C 
BRANCH   2   3
ATOM      3  N   UNL     1       2.761  -0.097  -1.104  1.00  0.00    -0.356 N 
ATOM      4  O   UNL     1       0.868  -0.036   0.207  1.00  0.00    -0.275 OA
ATOM      5  C   UNL     1       2.090  -0.023   0.098  1.00  0.00     0.224 C 
ATOM      6  H   UNL     1       3.744  -0.055  -1.094  1.00  0.00     0.163 HD
BRANCH   5   7
ATOM      7  C   UNL     1       3.010   0.041   1.313  1.00  0.00     0.137 C 
BRANCH   7   8
ATOM      8  C   UNL     1       3.826  -1.224   1.414  1.00  0.00    -0.022 A 
ATOM      9  C   UNL     1       5.271  -1.113   1.415  1.00  0.00     0.011 A 
ATOM     10  C   UNL     1       3.270  -2.447   1.447  1.00  0.00     0.099 A 
ATOM     11  C   UNL     1       6.041  -2.208   1.414  1.00  0.00     0.072 A 
ATOM     12  N   UNL     1       4.043  -3.595   1.452  1.00  0.00    -0.258 N 
ATOM     13  C   UNL     1       5.428  -3.565   1.423  1.00  0.00     0.254 A 
ATOM     14  O   UNL     1       6.168  -4.543   1.406  1.00  0.00    -0.269 OA
BRANCH  12  15
ATOM     15  C   UNL     1       3.417  -4.892   1.433  1.00  0.00     0.451 C 
ATOM     16  F   UNL     1       3.723  -5.561   0.294  1.00  0.00    -0.185 F 
ATOM     17  F   UNL     1       3.821  -5.647   2.484  1.00  0.00    -0.185 F 
ENDBRANCH  12  15
ENDBRANCH   7   8
ENDBRANCH   5   7
ENDBRANCH   2   3
ENDBRANCH   1   2
BRANCH   1  18
ATOM     18  C   UNL     1       3.775   1.267  -3.598  1.00  0.00     0.118 C 
BRANCH  18  19
ATOM     19  N   UNL     1       4.419   0.231  -4.394  1.00  0.00    -0.352 N 
ATOM     20  C   UNL     1       5.096   0.340  -5.589  1.00  0.00     0.251 C 
ATOM     21  H   UNL     1       4.362  -0.680  -4.025  1.00  0.00     0.163 HD
ATOM     22  O   UNL     1       5.481  -0.671  -6.168  1.00  0.00    -0.269 OA
BRANCH  20  23
ATOM     23  C   UNL     1       5.315   1.673  -6.192  1.00  0.00     0.039 A 
ATOM     24  C   UNL     1       5.795   2.735  -5.423  1.00  0.00     0.014 A 
ATOM     25  C   UNL     1       4.990   1.869  -7.537  1.00  0.00     0.014 A 
ATOM     26  C   UNL     1       5.774   4.025  -5.945  1.00  0.00     0.010 A 
ATOM     27  C   UNL     1       5.044   3.155  -8.082  1.00  0.00     0.010 A 
ATOM     28  C   UNL     1       5.379   4.252  -7.274  1.00  0.00    -0.014 A 
BRANCH  28  29
ATOM     29  C   UNL     1       5.289   5.643  -7.789  1.00  0.00     0.031 A 
ATOM     30  C   UNL     1       3.954   6.236  -8.160  1.00  0.00     0.074 A 
ATOM     31  C   UNL     1       6.402   6.398  -7.863  1.00  0.00     0.049 A 
ATOM     32  N   UNL     1       3.686   7.435  -8.612  1.00  0.00    -0.248 NA
ATOM     33  C   UNL     1       2.766   5.380  -8.002  1.00  0.00     0.031 C 
ATOM     34  C   UNL     1       7.747   5.950  -7.496  1.00  0.00     0.029 A 
ATOM     35  N   UNL     1       6.579   7.706  -8.241  1.00  0.00    -0.354 N 
ATOM     36  C   UNL     1       2.310   7.472  -8.804  1.00  0.00     0.074 A 
ATOM     37  C   UNL     1       1.797   6.169  -8.447  1.00  0.00     0.031 C 
ATOM     38  C   UNL     1       8.598   6.979  -7.612  1.00  0.00     0.029 A 
ATOM     39  C   UNL     1       7.877   8.142  -8.124  1.00  0.00     0.049 A 
ATOM     40  H   UNL     1       5.845   8.277  -8.565  1.00  0.00     0.167 HD
ATOM     41  C   UNL     1       1.542   8.504  -9.228  1.00  0.00     0.031 A 
ATOM     42  C   UNL     1       8.436   9.337  -8.403  1.00  0.00     0.031 A 
ATOM     43  C   UNL     1       2.053   9.806  -9.569  1.00  0.00     0.049 A 
ATOM     44  C   UNL     1       7.574  10.448  -8.928  1.00  0.00     0.074 A 
ATOM     45  C   UNL     1       1.346  10.914 -10.003  1.00  0.00     0.029 A 
ATOM     46  N   UNL     1       3.386  10.179  -9.507  1.00  0.00    -0.354 N 
ATOM     47  N   UNL     1       6.277  10.455  -9.120  1.00  0.00    -0.248 NA
ATOM     48  C   UNL     1       8.244  11.707  -9.280  1.00  0.00     0.031 C 
ATOM     49  C   UNL     1       2.257  11.941 -10.254  1.00  0.00     0.029 A 
ATOM     50  C   UNL     1       3.525  11.494  -9.917  1.00  0.00     0.049 A 
ATOM     51  H   UNL     1       4.124   9.597  -9.215  1.00  0.00     0.167 HD
ATOM     52  C   UNL     1       5.974  11.720  -9.610  1.00  0.00     0.074 A 
ATOM     53  C   UNL     1       7.220  12.457  -9.670  1.00  0.00     0.031 C 
ATOM     54  C   UNL     1       4.770  12.219  -9.978  1.00  0.00     0.031 A 
BRANCH  41  55
ATOM     55  C   UNL     1       0.058   8.284  -9.357  1.00  0.00    -0.014 A 
ATOM     56  C   UNL     1      -0.534   8.250 -10.633  1.00  0.00     0.010 A 
ATOM     57  C   UNL     1      -0.765   8.231  -8.218  1.00  0.00     0.010 A 
ATOM     58  C   UNL     1      -1.924   8.192 -10.770  1.00  0.00     0.020 A 
ATOM     59  C   UNL     1      -2.155   8.149  -8.351  1.00  0.00     0.020 A 
ATOM     60  C   UNL     1      -2.726   8.152  -9.627  1.00  0.00     0.054 A 
BRANCH  60  61
ATOM     61  S   UNL     1      -4.529   8.089  -9.820  1.00  0.00     0.124 S 
ATOM     62  O   UNL     1      -4.855   9.479 -10.122  1.00  0.00    -0.237 OA
ATOM     63  O   UNL     1      -4.702   7.145 -10.922  1.00  0.00    -0.237 OA
ATOM     64  O   UNL     1      -4.992   7.605  -8.521  1.00  0.00    -0.744 OA
ENDBRANCH  60  61
ENDBRANCH  41  55
BRANCH  42  65
ATOM     65  C   UNL     1       9.893   9.521  -8.168  1.00  0.00    -0.014 A 
ATOM     66  C   UNL     1      10.832   8.841  -8.966  1.00  0.00     0.010 A 
ATOM     67  C   UNL     1      10.345  10.289  -7.082  1.00  0.00     0.010 A 
ATOM     68  C   UNL     1      12.190   8.870  -8.643  1.00  0.00     0.020 A 
ATOM     69  C   UNL     1      11.708  10.342  -6.771  1.00  0.00     0.020 A 
ATOM     70  C   UNL     1      12.617   9.605  -7.534  1.00  0.00     0.054 A 
BRANCH  70  71
ATOM     71  S   UNL     1      14.374   9.573  -7.087  1.00  0.00     0.124 S 
ATOM     72  O   UNL     1      14.481   8.292  -6.393  1.00  0.00    -0.237 OA
ATOM     73  O   UNL     1      15.039   9.643  -8.385  1.00  0.00    -0.237 OA
ATOM     74  O   UNL     1      14.532  10.756  -6.245  1.00  0.00    -0.744 OA
ENDBRANCH  70  71
ENDBRANCH  42  65
BRANCH  54  75
ATOM     75  C   UNL     1       4.708  13.633 -10.487  1.00  0.00    -0.014 A 
ATOM     76  C   UNL     1       4.091  14.628  -9.707  1.00  0.00     0.010 A 
ATOM     77  C   UNL     1       5.120  13.941 -11.795  1.00  0.00     0.010 A 
ATOM     78  C   UNL     1       3.848  15.896 -10.239  1.00  0.00     0.020 A 
ATOM     79  C   UNL     1       4.898  15.216 -12.324  1.00  0.00     0.020 A 
ATOM     80  C   UNL     1       4.239  16.176 -11.551  1.00  0.00     0.054 A 
BRANCH  80  81
ATOM     81  S   UNL     1       3.869  17.810 -12.246  1.00  0.00     0.124 S 
ATOM     82  O   UNL     1       2.451  17.690 -12.575  1.00  0.00    -0.237 OA
ATOM     83  O   UNL     1       4.184  18.711 -11.139  1.00  0.00    -0.237 OA
ATOM     84  O   UNL     1       4.771  17.907 -13.392  1.00  0.00    -0.744 OA
ENDBRANCH  80  81
ENDBRANCH  54  75
ENDBRANCH  28  29
ENDBRANCH  20  23
ENDBRANCH  18  19
ENDBRANCH   1  18
TORSDOF 15
