REMARK SMILES COc1ccc(-c2ccc(/C=C3\SC(=S)N([C@H](Cc4ccccc4)C(=O)NCCCNC(=O)c4ccc(-c5c6nc(c(-c7ccc(S(=O)(=O)[O-])cc7)c7ccc([nH]7)c(-c7ccc(S(=O)(=O)[O-])cc7)c7nc(c(-c8ccc(S(=O)(=O)[O-])cc8)c8ccc5[nH]8)C=C7)C=C6)cc4)C3=O)o2)cc1
REMARK SMILES IDX 28 1 27 2 25 3 26 4 17 6 16 7 11 8 12 9 13 10 94 11 14 12
REMARK SMILES IDX 95 13 15 14 10 15 7 16 8 17 96 18 9 19 6 20 3 21 4 22 98 23
REMARK SMILES IDX 5 24 97 25 2 26 1 27 18 28 19 29 20 30 24 31 21 32 23 33
REMARK SMILES IDX 22 34 29 35 30 36 31 37 32 38 33 40 34 41 35 42 93 43 36 44
REMARK SMILES IDX 92 45 37 46 38 47 39 48 86 49 40 50 91 51 85 52 87 53 41 54
REMARK SMILES IDX 90 55 84 56 83 57 42 59 72 60 53 61 71 62 54 63 57 64 70 65
REMARK SMILES IDX 88 66 55 67 56 68 69 70 89 71 58 72 43 73 44 74 52 75 45 76
REMARK SMILES IDX 51 77 46 78 47 79 48 80 49 81 50 82 73 83 74 84 82 85 75 86
REMARK SMILES IDX 81 87 76 88 77 89 78 90 79 91 80 92 59 93 60 94 68 95 61 96
REMARK SMILES IDX 67 97 62 98 63 99 64 100 65 101 66 102
REMARK H PARENT 27 5 31 39 87 58 57 69
REMARK Flexibility Score: inf
ROOT
ATOM      1  C   UNL     1       1.265  -0.324 -13.220  1.00  0.00     0.117 C 
ENDROOT
BRANCH   1   2
ATOM      2  N   UNL     1       1.485  -1.232 -14.316  1.00  0.00    -0.354 N 
ATOM      3  C   UNL     1       0.834  -2.380 -14.637  1.00  0.00     0.243 C 
ATOM      4  O   UNL     1       1.072  -2.835 -15.761  1.00  0.00    -0.273 OA
ATOM      5  H   UNL     1       2.218  -0.983 -14.924  1.00  0.00     0.163 HD
BRANCH   3   6
ATOM      6  C   UNL     1      -0.199  -3.072 -13.710  1.00  0.00     0.185 C 
BRANCH   6   7
ATOM      7  N   UNL     1      -1.565  -2.486 -13.829  1.00  0.00    -0.280 N 
ATOM      8  C   UNL     1      -4.815  -3.031 -15.241  1.00  0.00     0.068 C 
ATOM      9  C   UNL     1      -3.722  -2.402 -14.792  1.00  0.00     0.084 C 
ATOM     10  S   UNL     1      -3.634  -0.951 -13.895  1.00  0.00    -0.054 SA
ATOM     11  C   UNL     1      -2.378  -3.034 -14.828  1.00  0.00     0.267 C 
ATOM     12  C   UNL     1      -2.180  -1.504 -13.073  1.00  0.00     0.149 C 
ATOM     13  O   UNL     1      -2.109  -3.948 -15.583  1.00  0.00    -0.268 OA
ATOM     14  S   UNL     1      -1.869  -0.887 -11.557  1.00  0.00    -0.052 S 
BRANCH   8  15
ATOM     15  C   UNL     1      -6.124  -2.510 -15.058  1.00  0.00     0.128 A 
ATOM     16  C   UNL     1      -8.243  -2.446 -14.403  1.00  0.00     0.134 A 
ATOM     17  C   UNL     1      -7.983  -1.217 -14.961  1.00  0.00     0.051 A 
ATOM     18  O   UNL     1      -7.136  -3.234 -14.465  1.00  0.00    -0.457 OA
ATOM     19  C   UNL     1      -6.639  -1.260 -15.387  1.00  0.00     0.051 A 
BRANCH  16  20
ATOM     20  C   UNL     1      -9.437  -3.042 -13.839  1.00  0.00     0.017 A 
ATOM     21  C   UNL     1     -11.807  -4.108 -12.778  1.00  0.00     0.118 A 
ATOM     22  C   UNL     1     -10.660  -4.017 -11.988  1.00  0.00     0.047 A 
ATOM     23  C   UNL     1     -11.779  -3.643 -14.092  1.00  0.00     0.047 A 
ATOM     24  C   UNL     1      -9.472  -3.502 -12.520  1.00  0.00     0.016 A 
ATOM     25  C   UNL     1     -10.599  -3.111 -14.617  1.00  0.00     0.016 A 
BRANCH  21  26
ATOM     26  O   UNL     1     -12.920  -4.614 -12.164  1.00  0.00    -0.497 OA
ATOM     27  C   UNL     1     -13.758  -5.396 -13.011  1.00  0.00     0.278 C 
ENDBRANCH  21  26
ENDBRANCH  16  20
ENDBRANCH   8  15
ENDBRANCH   6   7
BRANCH   6  28
ATOM     28  C   UNL     1       0.346  -3.451 -12.318  1.00  0.00     0.071 C 
BRANCH  28  29
ATOM     29  C   UNL     1      -0.149  -4.806 -11.841  1.00  0.00    -0.045 A 
ATOM     30  C   UNL     1       0.772  -5.762 -11.389  1.00  0.00     0.004 A 
ATOM     31  C   UNL     1      -1.511  -5.143 -11.852  1.00  0.00     0.004 A 
ATOM     32  C   UNL     1       0.347  -7.038 -11.016  1.00  0.00     0.000 A 
ATOM     33  C   UNL     1      -1.932  -6.424 -11.495  1.00  0.00     0.000 A 
ATOM     34  C   UNL     1      -1.003  -7.374 -11.084  1.00  0.00     0.000 A 
ENDBRANCH  28  29
ENDBRANCH   6  28
ENDBRANCH   3   6
ENDBRANCH   1   2
BRANCH   1  35
ATOM     35  C   UNL     1       2.465  -0.134 -12.314  1.00  0.00     0.042 C 
BRANCH  35  36
ATOM     36  C   UNL     1       3.624   0.601 -12.965  1.00  0.00     0.118 C 
BRANCH  36  37
ATOM     37  N   UNL     1       3.269   1.944 -13.407  1.00  0.00    -0.352 N 
ATOM     38  C   UNL     1       3.676   3.177 -12.958  1.00  0.00     0.251 C 
ATOM     39  H   UNL     1       2.628   1.972 -14.154  1.00  0.00     0.163 HD
ATOM     40  O   UNL     1       3.095   4.181 -13.364  1.00  0.00    -0.269 OA
BRANCH  38  41
ATOM     41  C   UNL     1       4.783   3.305 -11.984  1.00  0.00     0.039 A 
ATOM     42  C   UNL     1       4.695   4.278 -10.984  1.00  0.00     0.014 A 
ATOM     43  C   UNL     1       5.914   2.491 -12.061  1.00  0.00     0.014 A 
ATOM     44  C   UNL     1       5.703   4.377 -10.022  1.00  0.00     0.010 A 
ATOM     45  C   UNL     1       6.862   2.517 -11.043  1.00  0.00     0.010 A 
ATOM     46  C   UNL     1       6.773   3.466 -10.016  1.00  0.00    -0.014 A 
BRANCH  46  47
ATOM     47  C   UNL     1       7.799   3.489  -8.942  1.00  0.00     0.031 A 
ATOM     48  C   UNL     1       9.247   3.738  -9.274  1.00  0.00     0.074 A 
ATOM     49  C   UNL     1       7.434   3.219  -7.673  1.00  0.00     0.049 A 
ATOM     50  N   UNL     1      10.282   3.770  -8.473  1.00  0.00    -0.248 NA
ATOM     51  C   UNL     1       9.583   3.946 -10.692  1.00  0.00     0.031 C 
ATOM     52  C   UNL     1       6.074   2.892  -7.233  1.00  0.00     0.029 A 
ATOM     53  N   UNL     1       8.173   3.175  -6.518  1.00  0.00    -0.354 N 
ATOM     54  C   UNL     1      11.388   3.978  -9.289  1.00  0.00     0.074 A 
ATOM     55  C   UNL     1      10.906   4.009 -10.652  1.00  0.00     0.031 C 
ATOM     56  C   UNL     1       6.071   2.722  -5.902  1.00  0.00     0.029 A 
ATOM     57  C   UNL     1       7.429   2.890  -5.397  1.00  0.00     0.049 A 
ATOM     58  H   UNL     1       9.144   3.333  -6.494  1.00  0.00     0.167 HD
ATOM     59  C   UNL     1      12.684   4.151  -8.937  1.00  0.00     0.031 A 
ATOM     60  C   UNL     1       7.796   2.781  -4.106  1.00  0.00     0.031 A 
ATOM     61  C   UNL     1      13.156   4.139  -7.578  1.00  0.00     0.049 A 
ATOM     62  C   UNL     1       9.233   3.013  -3.734  1.00  0.00     0.074 A 
ATOM     63  C   UNL     1      14.437   4.375  -7.108  1.00  0.00     0.029 A 
ATOM     64  N   UNL     1      12.366   3.876  -6.469  1.00  0.00    -0.354 N 
ATOM     65  N   UNL     1      10.251   3.288  -4.514  1.00  0.00    -0.248 NA
ATOM     66  C   UNL     1       9.566   2.938  -2.306  1.00  0.00     0.031 C 
ATOM     67  C   UNL     1      14.430   4.208  -5.719  1.00  0.00     0.029 A 
ATOM     68  C   UNL     1      13.134   3.924  -5.317  1.00  0.00     0.049 A 
ATOM     69  H   UNL     1      11.401   3.684  -6.496  1.00  0.00     0.167 HD
ATOM     70  C   UNL     1      11.344   3.440  -3.669  1.00  0.00     0.074 A 
ATOM     71  C   UNL     1      10.856   3.248  -2.318  1.00  0.00     0.031 C 
ATOM     72  C   UNL     1      12.635   3.716  -3.982  1.00  0.00     0.031 A 
BRANCH  59  73
ATOM     73  C   UNL     1      13.682   4.367 -10.046  1.00  0.00    -0.014 A 
ATOM     74  C   UNL     1      13.681   5.552 -10.806  1.00  0.00     0.010 A 
ATOM     75  C   UNL     1      14.650   3.384 -10.317  1.00  0.00     0.010 A 
ATOM     76  C   UNL     1      14.595   5.726 -11.848  1.00  0.00     0.020 A 
ATOM     77  C   UNL     1      15.586   3.567 -11.340  1.00  0.00     0.020 A 
ATOM     78  C   UNL     1      15.539   4.730 -12.112  1.00  0.00     0.054 A 
BRANCH  78  79
ATOM     79  S   UNL     1      16.721   4.987 -13.463  1.00  0.00     0.124 S 
ATOM     80  O   UNL     1      15.881   4.784 -14.640  1.00  0.00    -0.237 OA
ATOM     81  O   UNL     1      17.168   6.360 -13.242  1.00  0.00    -0.237 OA
ATOM     82  O   UNL     1      17.736   3.961 -13.237  1.00  0.00    -0.744 OA
ENDBRANCH  78  79
ENDBRANCH  59  73
BRANCH  60  83
ATOM     83  C   UNL     1       6.772   2.471  -3.071  1.00  0.00    -0.014 A 
ATOM     84  C   UNL     1       6.346   3.463  -2.171  1.00  0.00     0.010 A 
ATOM     85  C   UNL     1       6.194   1.191  -3.003  1.00  0.00     0.010 A 
ATOM     86  C   UNL     1       5.368   3.178  -1.214  1.00  0.00     0.020 A 
ATOM     87  C   UNL     1       5.197   0.909  -2.064  1.00  0.00     0.020 A 
ATOM     88  C   UNL     1       4.797   1.903  -1.169  1.00  0.00     0.054 A 
BRANCH  88  89
ATOM     89  S   UNL     1       3.483   1.574   0.038  1.00  0.00     0.124 S 
ATOM     90  O   UNL     1       4.234   1.475   1.286  1.00  0.00    -0.237 OA
ATOM     91  O   UNL     1       2.629   2.752  -0.095  1.00  0.00    -0.237 OA
ATOM     92  O   UNL     1       2.888   0.327  -0.437  1.00  0.00    -0.744 OA
ENDBRANCH  88  89
ENDBRANCH  60  83
BRANCH  72  93
ATOM     93  C   UNL     1      13.603   3.847  -2.837  1.00  0.00    -0.014 A 
ATOM     94  C   UNL     1      14.015   2.723  -2.099  1.00  0.00     0.010 A 
ATOM     95  C   UNL     1      14.127   5.111  -2.514  1.00  0.00     0.010 A 
ATOM     96  C   UNL     1      14.898   2.870  -1.025  1.00  0.00     0.020 A 
ATOM     97  C   UNL     1      15.032   5.258  -1.460  1.00  0.00     0.020 A 
ATOM     98  C   UNL     1      15.395   4.138  -0.709  1.00  0.00     0.054 A 
BRANCH  98  99
ATOM     99  S   UNL     1      16.550   4.302   0.680  1.00  0.00     0.124 S 
ATOM    100  O   UNL     1      15.659   4.184   1.830  1.00  0.00    -0.237 OA
ATOM    101  O   UNL     1      17.463   3.180   0.474  1.00  0.00    -0.237 OA
ATOM    102  O   UNL     1      17.142   5.623   0.482  1.00  0.00    -0.744 OA
ENDBRANCH  98  99
ENDBRANCH  72  93
ENDBRANCH  46  47
ENDBRANCH  38  41
ENDBRANCH  36  37
ENDBRANCH  35  36
ENDBRANCH   1  35
TORSDOF 19
