REMARK SMILES Cc1cc(C)c(S(=O)(=O)Nc2ccc(N3CC[NH+](C)CC3)c(C(=O)NCCCNC(=O)c3ccc(-c4c5nc(c(-c6ccc(S(=O)(=O)[O-])cc6)c6ccc([nH]6)c(-c6ccc(S(=O)(=O)[O-])cc6)c6nc(c(-c7ccc(S(=O)(=O)[O-])cc7)c7ccc4[nH]7)C=C6)C=C5)cc3)c2)c(C)c1
REMARK SMILES IDX 27 1 26 2 25 3 23 4 24 5 22 7 11 8 12 9 92 10 13 11 14 12
REMARK SMILES IDX 10 13 7 15 8 16 9 17 6 18 1 19 2 20 3 21 95 22 4 23 93 24
REMARK SMILES IDX 5 25 94 26 15 27 16 28 21 29 17 30 20 31 18 32 19 33 28 35
REMARK SMILES IDX 29 36 30 37 31 39 32 40 33 41 91 42 34 43 90 44 35 45 36 46
REMARK SMILES IDX 37 47 84 48 38 49 89 50 83 51 85 52 39 53 88 54 82 55 81 56
REMARK SMILES IDX 40 58 70 59 51 60 69 61 52 62 55 63 68 64 86 65 53 66 54 67
REMARK SMILES IDX 67 69 87 70 56 71 41 72 42 73 50 74 43 75 49 76 44 77 45 78
REMARK SMILES IDX 46 79 47 80 48 81 71 82 72 83 80 84 73 85 79 86 74 87 75 88
REMARK SMILES IDX 76 89 77 90 78 91 57 92 58 93 66 94 59 95 65 96 60 97 61 98
REMARK SMILES IDX 62 99 63 100 64 101
REMARK H PARENT 25 6 10 14 18 34 29 38 85 57 55 68
REMARK Flexibility Score: inf
ROOT
ATOM      1  C   UNL     1      -0.076  -1.202   3.651  1.00  0.00     0.042 C 
ENDROOT
BRANCH   1   2
ATOM      2  C   UNL     1       1.025  -1.077   2.599  1.00  0.00     0.118 C 
BRANCH   2   3
ATOM      3  N   UNL     1       2.136  -1.954   2.901  1.00  0.00    -0.352 N 
ATOM      4  C   UNL     1       2.486  -3.216   2.488  1.00  0.00     0.253 C 
ATOM      5  O   UNL     1       3.432  -3.710   3.102  1.00  0.00    -0.269 OA
ATOM      6  H   UNL     1       2.778  -1.563   3.536  1.00  0.00     0.163 HD
BRANCH   4   7
ATOM      7  C   UNL     1       1.788  -3.966   1.387  1.00  0.00     0.065 A 
ATOM      8  C   UNL     1      -0.224  -4.345   0.071  1.00  0.00     0.050 A 
ATOM      9  C   UNL     1       0.432  -5.318  -0.671  1.00  0.00     0.029 A 
ATOM     10  C   UNL     1       0.402  -3.808   1.191  1.00  0.00     0.042 A 
ATOM     11  C   UNL     1       1.786  -5.542  -0.458  1.00  0.00     0.029 A 
ATOM     12  C   UNL     1       2.514  -4.791   0.483  1.00  0.00     0.050 A 
BRANCH   8  13
ATOM     13  N   UNL     1      -1.448  -3.870  -0.466  1.00  0.00    -0.280 N 
ATOM     14  H   UNL     1      -1.924  -4.480  -1.075  1.00  0.00     0.180 HD
BRANCH  13  15
ATOM     15  S   UNL     1      -2.175  -2.393  -0.182  1.00  0.00     0.262 S 
ATOM     16  O   UNL     1      -2.451  -2.347   1.246  1.00  0.00    -0.201 OA
ATOM     17  O   UNL     1      -3.237  -2.309  -1.154  1.00  0.00    -0.201 OA
BRANCH  15  18
ATOM     18  C   UNL     1      -1.073  -1.004  -0.529  1.00  0.00     0.093 A 
ATOM     19  C   UNL     1       1.849   2.177  -0.176  1.00  0.00     0.044 C 
ATOM     20  C   UNL     1       0.818   1.101  -0.350  1.00  0.00    -0.051 A 
ATOM     21  C   UNL     1      -0.477   1.278   0.129  1.00  0.00     0.008 A 
ATOM     22  C   UNL     1       1.107  -0.066  -1.057  1.00  0.00     0.008 A 
ATOM     23  C   UNL     1      -1.433   0.246   0.046  1.00  0.00    -0.030 A 
ATOM     24  C   UNL     1       0.162  -1.110  -1.201  1.00  0.00    -0.030 A 
ATOM     25  C   UNL     1      -2.823   0.609   0.510  1.00  0.00     0.046 C 
ATOM     26  C   UNL     1       0.578  -2.223  -2.113  1.00  0.00     0.046 C 
ENDBRANCH  15  18
ENDBRANCH  13  15
ENDBRANCH   8  13
BRANCH  12  27
ATOM     27  N   UNL     1       3.893  -4.770   0.356  1.00  0.00    -0.360 N 
ATOM     28  C   UNL     1       4.773  -5.462   1.306  1.00  0.00     0.178 C 
ATOM     29  C   UNL     1       4.497  -4.564  -0.967  1.00  0.00     0.178 C 
ATOM     30  C   UNL     1       6.090  -4.656   1.439  1.00  0.00     0.283 C 
ATOM     31  C   UNL     1       5.835  -3.809  -0.819  1.00  0.00     0.283 C 
ATOM     32  N   UNL     1       6.772  -4.455   0.128  1.00  0.00    -0.334 N 
ATOM     33  C   UNL     1       7.962  -3.623   0.297  1.00  0.00     0.332 C 
ATOM     34  H   UNL     1       7.060  -5.362  -0.241  1.00  0.00     0.347 HD
ENDBRANCH  12  27
ENDBRANCH   4   7
ENDBRANCH   2   3
ENDBRANCH   1   2
BRANCH   1  35
ATOM     35  C   UNL     1       0.314  -0.599   4.995  1.00  0.00     0.118 C 
BRANCH  35  36
ATOM     36  N   UNL     1       0.360   0.854   4.944  1.00  0.00    -0.352 N 
ATOM     37  C   UNL     1      -0.202   1.767   5.800  1.00  0.00     0.251 C 
ATOM     38  H   UNL     1       0.866   1.236   4.191  1.00  0.00     0.163 HD
ATOM     39  O   UNL     1      -0.231   2.953   5.482  1.00  0.00    -0.269 OA
BRANCH  37  40
ATOM     40  C   UNL     1      -0.782   1.325   7.089  1.00  0.00     0.039 A 
ATOM     41  C   UNL     1      -1.982   1.900   7.516  1.00  0.00     0.014 A 
ATOM     42  C   UNL     1      -0.131   0.384   7.893  1.00  0.00     0.014 A 
ATOM     43  C   UNL     1      -2.544   1.511   8.734  1.00  0.00     0.010 A 
ATOM     44  C   UNL     1      -0.726  -0.051   9.075  1.00  0.00     0.010 A 
ATOM     45  C   UNL     1      -1.926   0.523   9.518  1.00  0.00    -0.014 A 
BRANCH  45  46
ATOM     46  C   UNL     1      -2.498   0.116  10.825  1.00  0.00     0.031 A 
ATOM     47  C   UNL     1      -1.750   0.414  12.097  1.00  0.00     0.074 A 
ATOM     48  C   UNL     1      -3.660  -0.563  10.867  1.00  0.00     0.049 A 
ATOM     49  N   UNL     1      -2.062   0.105  13.330  1.00  0.00    -0.248 NA
ATOM     50  C   UNL     1      -0.470   1.129  11.963  1.00  0.00     0.031 C 
ATOM     51  C   UNL     1      -4.454  -0.959   9.701  1.00  0.00     0.029 A 
ATOM     52  N   UNL     1      -4.374  -1.044  11.935  1.00  0.00    -0.354 N 
ATOM     53  C   UNL     1      -1.005   0.556  14.111  1.00  0.00     0.074 A 
ATOM     54  C   UNL     1      -0.027   1.128  13.212  1.00  0.00     0.031 C 
ATOM     55  C   UNL     1      -5.557  -1.601  10.120  1.00  0.00     0.029 A 
ATOM     56  C   UNL     1      -5.538  -1.682  11.577  1.00  0.00     0.049 A 
ATOM     57  H   UNL     1      -4.081  -0.942  12.869  1.00  0.00     0.167 HD
ATOM     58  C   UNL     1      -0.865   0.514  15.458  1.00  0.00     0.031 A 
ATOM     59  C   UNL     1      -6.486  -2.261  12.338  1.00  0.00     0.031 A 
ATOM     60  C   UNL     1      -1.853  -0.021  16.355  1.00  0.00     0.049 A 
ATOM     61  C   UNL     1      -6.342  -2.238  13.834  1.00  0.00     0.074 A 
ATOM     62  C   UNL     1      -1.837  -0.053  17.738  1.00  0.00     0.029 A 
ATOM     63  N   UNL     1      -3.043  -0.610  15.954  1.00  0.00    -0.354 N 
ATOM     64  N   UNL     1      -5.362  -1.754  14.559  1.00  0.00    -0.248 NA
ATOM     65  C   UNL     1      -7.442  -2.822  14.614  1.00  0.00     0.031 C 
ATOM     66  C   UNL     1      -3.009  -0.683  18.174  1.00  0.00     0.029 A 
ATOM     67  C   UNL     1      -3.768  -1.012  17.062  1.00  0.00     0.049 A 
ATOM     68  H   UNL     1      -3.330  -0.725  15.019  1.00  0.00     0.167 HD
ATOM     69  C   UNL     1      -5.735  -1.958  15.882  1.00  0.00     0.074 A 
ATOM     70  C   UNL     1      -7.036  -2.596  15.857  1.00  0.00     0.031 C 
ATOM     71  C   UNL     1      -5.062  -1.643  17.016  1.00  0.00     0.031 A 
BRANCH  58  72
ATOM     72  C   UNL     1       0.411   1.064  16.034  1.00  0.00    -0.014 A 
ATOM     73  C   UNL     1       0.660   2.449  16.054  1.00  0.00     0.010 A 
ATOM     74  C   UNL     1       1.375   0.187  16.563  1.00  0.00     0.010 A 
ATOM     75  C   UNL     1       1.872   2.943  16.544  1.00  0.00     0.020 A 
ATOM     76  C   UNL     1       2.579   0.680  17.076  1.00  0.00     0.020 A 
ATOM     77  C   UNL     1       2.829   2.054  17.041  1.00  0.00     0.054 A 
BRANCH  77  78
ATOM     78  S   UNL     1       4.397   2.715  17.669  1.00  0.00     0.124 S 
ATOM     79  O   UNL     1       5.136   2.956  16.432  1.00  0.00    -0.237 OA
ATOM     80  O   UNL     1       3.979   3.913  18.393  1.00  0.00    -0.237 OA
ATOM     81  O   UNL     1       4.916   1.636  18.506  1.00  0.00    -0.744 OA
ENDBRANCH  77  78
ENDBRANCH  58  72
BRANCH  59  82
ATOM     82  C   UNL     1      -7.676  -2.874  11.692  1.00  0.00    -0.014 A 
ATOM     83  C   UNL     1      -8.913  -2.208  11.712  1.00  0.00     0.010 A 
ATOM     84  C   UNL     1      -7.570  -4.107  11.026  1.00  0.00     0.010 A 
ATOM     85  C   UNL     1     -10.029  -2.770  11.085  1.00  0.00     0.020 A 
ATOM     86  C   UNL     1      -8.679  -4.663  10.381  1.00  0.00     0.020 A 
ATOM     87  C   UNL     1      -9.904  -3.994  10.423  1.00  0.00     0.054 A 
BRANCH  87  88
ATOM     88  S   UNL     1     -11.347  -4.676   9.558  1.00  0.00     0.124 S 
ATOM     89  O   UNL     1     -12.114  -5.254  10.657  1.00  0.00    -0.237 OA
ATOM     90  O   UNL     1     -11.933  -3.493   8.931  1.00  0.00    -0.237 OA
ATOM     91  O   UNL     1     -10.761  -5.637   8.626  1.00  0.00    -0.744 OA
ENDBRANCH  87  88
ENDBRANCH  59  82
BRANCH  71  92
ATOM     92  C   UNL     1      -5.733  -1.960  18.322  1.00  0.00    -0.014 A 
ATOM     93  C   UNL     1      -5.784  -3.278  18.809  1.00  0.00     0.010 A 
ATOM     94  C   UNL     1      -6.281  -0.919  19.091  1.00  0.00     0.010 A 
ATOM     95  C   UNL     1      -6.399  -3.553  20.032  1.00  0.00     0.020 A 
ATOM     96  C   UNL     1      -6.880  -1.188  20.324  1.00  0.00     0.020 A 
ATOM     97  C   UNL     1      -6.949  -2.506  20.780  1.00  0.00     0.054 A 
BRANCH  97  98
ATOM     98  S   UNL     1      -7.710  -2.877  22.384  1.00  0.00     0.124 S 
ATOM     99  O   UNL     1      -9.024  -3.375  21.988  1.00  0.00    -0.237 OA
ATOM    100  O   UNL     1      -6.805  -3.874  22.951  1.00  0.00    -0.237 OA
ATOM    101  O   UNL     1      -7.711  -1.587  23.070  1.00  0.00    -0.744 OA
ENDBRANCH  97  98
ENDBRANCH  71  92
ENDBRANCH  45  46
ENDBRANCH  37  40
ENDBRANCH  35  36
ENDBRANCH   1  35
TORSDOF 17
