REMARK SMILES NC(=O)C[N@@H+]1CCCC[C@H]1C(=O)NCCCNC(=O)c1ccc(-c2c3nc(c(-c4ccc(S(=O)(=O)[O-])cc4)c4ccc([nH]4)c(-c4ccc(S(=O)(=O)[O-])cc4)c4nc(c(-c5ccc(S(=O)(=O)[O-])cc5)c5ccc2[nH]5)C=C4)C=C3)cc1
REMARK SMILES IDX 15 1 14 2 13 3 11 4 12 5 10 7 5 8 6 9 7 11 9 12 8 13 4 14
REMARK SMILES IDX 2 15 1 16 3 19 16 20 17 21 18 22 19 24 20 25 21 26 79 27
REMARK SMILES IDX 22 28 78 29 23 30 24 31 25 32 72 33 26 34 77 35 71 36 73 37
REMARK SMILES IDX 27 38 76 39 70 40 69 41 28 43 58 44 39 45 57 46 40 47 43 48
REMARK SMILES IDX 56 49 74 50 41 51 42 52 55 54 75 55 44 56 29 57 30 58 38 59
REMARK SMILES IDX 31 60 37 61 32 62 33 63 34 64 35 65 36 66 59 67 60 68 68 69
REMARK SMILES IDX 61 70 67 71 62 72 63 73 64 74 65 75 66 76 45 77 46 78 54 79
REMARK SMILES IDX 47 80 53 81 48 82 49 83 50 84 51 85 52 86
REMARK H PARENT 13 6 5 10 1 17 1 18 17 23 73 42 43 53
REMARK Flexibility Score: inf
ROOT
ATOM      1  C   UNL     1      -0.565   1.291   0.144  1.00  0.00     0.042 C 
ENDROOT
BRANCH   1   2
ATOM      2  C   UNL     1      -0.348  -0.141   0.612  1.00  0.00     0.118 C 
BRANCH   2   3
ATOM      3  N   UNL     1       0.157  -1.010  -0.432  1.00  0.00    -0.351 N 
ATOM      4  C   UNL     1       1.144  -1.952  -0.390  1.00  0.00     0.278 C 
ATOM      5  O   UNL     1       1.199  -2.716  -1.360  1.00  0.00    -0.268 OA
ATOM      6  H   UNL     1      -0.280  -0.906  -1.308  1.00  0.00     0.163 HD
BRANCH   4   7
ATOM      7  C   UNL     1       2.216  -1.978   0.741  1.00  0.00     0.274 C 
ATOM      8  N   UNL     1       1.618  -2.163   2.083  1.00  0.00    -0.317 N 
ATOM      9  C   UNL     1       1.225  -3.538   2.389  1.00  0.00     0.263 C 
ATOM     10  H   UNL     1       0.732  -1.660   2.030  1.00  0.00     0.349 HD
ATOM     11  C   UNL     1       2.267  -4.610   2.072  1.00  0.00     0.062 C 
ATOM     12  C   UNL     1       3.295  -3.041   0.427  1.00  0.00     0.076 C 
ATOM     13  C   UNL     1       2.796  -4.466   0.654  1.00  0.00     0.012 C 
BRANCH   8  14
ATOM     14  C   UNL     1       2.365  -1.495   3.168  1.00  0.00     0.363 C 
BRANCH  14  15
ATOM     15  C   UNL     1       1.792  -0.084   3.371  1.00  0.00     0.272 C 
ATOM     16  N   UNL     1       2.378   0.919   2.650  1.00  0.00    -0.365 N 
ATOM     17  H   UNL     1       2.054   1.844   2.739  1.00  0.00     0.159 HD
ATOM     18  H   UNL     1       3.125   0.716   2.041  1.00  0.00     0.159 HD
ATOM     19  O   UNL     1       0.811   0.154   4.071  1.00  0.00    -0.269 OA
ENDBRANCH  14  15
ENDBRANCH   8  14
ENDBRANCH   4   7
ENDBRANCH   2   3
ENDBRANCH   1   2
BRANCH   1  20
ATOM     20  C   UNL     1      -1.781   1.449  -0.758  1.00  0.00     0.118 C 
BRANCH  20  21
ATOM     21  N   UNL     1      -3.038   1.229  -0.045  1.00  0.00    -0.352 N 
ATOM     22  C   UNL     1      -3.958   2.120   0.450  1.00  0.00     0.251 C 
ATOM     23  H   UNL     1      -3.263   0.282   0.106  1.00  0.00     0.163 HD
ATOM     24  O   UNL     1      -4.825   1.723   1.235  1.00  0.00    -0.269 OA
BRANCH  22  25
ATOM     25  C   UNL     1      -3.920   3.544   0.059  1.00  0.00     0.039 A 
ATOM     26  C   UNL     1      -4.227   4.536   0.996  1.00  0.00     0.014 A 
ATOM     27  C   UNL     1      -3.610   3.904  -1.251  1.00  0.00     0.014 A 
ATOM     28  C   UNL     1      -4.147   5.885   0.631  1.00  0.00     0.010 A 
ATOM     29  C   UNL     1      -3.399   5.237  -1.572  1.00  0.00     0.010 A 
ATOM     30  C   UNL     1      -3.690   6.248  -0.645  1.00  0.00    -0.014 A 
BRANCH  30  31
ATOM     31  C   UNL     1      -3.537   7.665  -1.070  1.00  0.00     0.031 A 
ATOM     32  C   UNL     1      -4.259   8.153  -2.304  1.00  0.00     0.074 A 
ATOM     33  C   UNL     1      -2.675   8.475  -0.423  1.00  0.00     0.049 A 
ATOM     34  N   UNL     1      -4.138   9.290  -2.939  1.00  0.00    -0.248 NA
ATOM     35  C   UNL     1      -5.201   7.214  -2.941  1.00  0.00     0.031 C 
ATOM     36  C   UNL     1      -1.872   8.104   0.746  1.00  0.00     0.029 A 
ATOM     37  N   UNL     1      -2.318   9.778  -0.665  1.00  0.00    -0.354 N 
ATOM     38  C   UNL     1      -4.945   9.180  -4.067  1.00  0.00     0.074 A 
ATOM     39  C   UNL     1      -5.497   7.845  -4.066  1.00  0.00     0.031 C 
ATOM     40  C   UNL     1      -1.146   9.163   1.138  1.00  0.00     0.029 A 
ATOM     41  C   UNL     1      -1.390  10.272   0.223  1.00  0.00     0.049 A 
ATOM     42  H   UNL     1      -2.691  10.309  -1.405  1.00  0.00     0.167 HD
ATOM     43  C   UNL     1      -5.229  10.115  -5.004  1.00  0.00     0.031 A 
ATOM     44  C   UNL     1      -0.797  11.480   0.287  1.00  0.00     0.031 A 
ATOM     45  C   UNL     1      -4.719  11.459  -4.963  1.00  0.00     0.049 A 
ATOM     46  C   UNL     1      -1.158  12.518  -0.740  1.00  0.00     0.074 A 
ATOM     47  C   UNL     1      -5.010  12.516  -5.806  1.00  0.00     0.029 A 
ATOM     48  N   UNL     1      -3.823  11.933  -4.016  1.00  0.00    -0.354 N 
ATOM     49  N   UNL     1      -1.977  12.417  -1.760  1.00  0.00    -0.248 NA
ATOM     50  C   UNL     1      -0.525  13.836  -0.602  1.00  0.00     0.031 C 
ATOM     51  C   UNL     1      -4.249  13.617  -5.399  1.00  0.00     0.029 A 
ATOM     52  C   UNL     1      -3.533  13.262  -4.266  1.00  0.00     0.049 A 
ATOM     53  H   UNL     1      -3.449  11.402  -3.276  1.00  0.00     0.167 HD
ATOM     54  C   UNL     1      -1.978  13.666  -2.370  1.00  0.00     0.074 A 
ATOM     55  C   UNL     1      -1.093  14.510  -1.593  1.00  0.00     0.031 C 
ATOM     56  C   UNL     1      -2.650  14.080  -3.474  1.00  0.00     0.031 A 
BRANCH  43  57
ATOM     57  C   UNL     1      -6.137   9.719  -6.141  1.00  0.00    -0.014 A 
ATOM     58  C   UNL     1      -7.495   9.422  -5.921  1.00  0.00     0.010 A 
ATOM     59  C   UNL     1      -5.635   9.673  -7.455  1.00  0.00     0.010 A 
ATOM     60  C   UNL     1      -8.319   9.037  -6.982  1.00  0.00     0.020 A 
ATOM     61  C   UNL     1      -6.465   9.322  -8.525  1.00  0.00     0.020 A 
ATOM     62  C   UNL     1      -7.798   8.989  -8.278  1.00  0.00     0.054 A 
BRANCH  62  63
ATOM     63  S   UNL     1      -8.899   8.513  -9.639  1.00  0.00     0.124 S 
ATOM     64  O   UNL     1      -9.074   7.082  -9.398  1.00  0.00    -0.237 OA
ATOM     65  O   UNL     1     -10.079   9.338  -9.398  1.00  0.00    -0.237 OA
ATOM     66  O   UNL     1      -8.137   8.853 -10.838  1.00  0.00    -0.744 OA
ENDBRANCH  62  63
ENDBRANCH  43  57
BRANCH  44  67
ATOM     67  C   UNL     1       0.178  11.777   1.374  1.00  0.00    -0.014 A 
ATOM     68  C   UNL     1      -0.154  12.678   2.402  1.00  0.00     0.010 A 
ATOM     69  C   UNL     1       1.436  11.148   1.401  1.00  0.00     0.010 A 
ATOM     70  C   UNL     1       0.760  12.961   3.422  1.00  0.00     0.020 A 
ATOM     71  C   UNL     1       2.341  11.404   2.436  1.00  0.00     0.020 A 
ATOM     72  C   UNL     1       2.002  12.320   3.434  1.00  0.00     0.054 A 
BRANCH  72  73
ATOM     73  S   UNL     1       3.154  12.665   4.793  1.00  0.00     0.124 S 
ATOM     74  O   UNL     1       3.603  14.017   4.474  1.00  0.00    -0.237 OA
ATOM     75  O   UNL     1       2.297  12.543   5.970  1.00  0.00    -0.237 OA
ATOM     76  O   UNL     1       4.166  11.620   4.658  1.00  0.00    -0.744 OA
ENDBRANCH  72  73
ENDBRANCH  44  67
BRANCH  56  77
ATOM     77  C   UNL     1      -2.480  15.516  -3.888  1.00  0.00    -0.014 A 
ATOM     78  C   UNL     1      -1.280  15.973  -4.459  1.00  0.00     0.010 A 
ATOM     79  C   UNL     1      -3.565  16.404  -3.761  1.00  0.00     0.010 A 
ATOM     80  C   UNL     1      -1.158  17.302  -4.870  1.00  0.00     0.020 A 
ATOM     81  C   UNL     1      -3.456  17.725  -4.200  1.00  0.00     0.020 A 
ATOM     82  C   UNL     1      -2.247  18.169  -4.739  1.00  0.00     0.054 A 
BRANCH  82  83
ATOM     83  S   UNL     1      -2.077  19.875  -5.326  1.00  0.00     0.124 S 
ATOM     84  O   UNL     1      -1.206  20.460  -4.310  1.00  0.00    -0.237 OA
ATOM     85  O   UNL     1      -1.475  19.701  -6.646  1.00  0.00    -0.237 OA
ATOM     86  O   UNL     1      -3.449  20.378  -5.335  1.00  0.00    -0.744 OA
ENDBRANCH  82  83
ENDBRANCH  56  77
ENDBRANCH  30  31
ENDBRANCH  22  25
ENDBRANCH  20  21
ENDBRANCH   1  20
TORSDOF 15
