REMARK SMILES O=C(NCCCNC(=O)[C@H]1CC2(CCN(S(=O)(=O)N3CCOCC3)CC2)C[NH2+]1)c1ccc(-c2c3nc(c(-c4ccc(S(=O)(=O)[O-])cc4)c4ccc([nH]4)c(-c4ccc(S(=O)(=O)[O-])cc4)c4nc(c(-c5ccc(S(=O)(=O)[O-])cc5)c5ccc2[nH]5)C=C4)C=C3)cc1
REMARK SMILES IDX 4 1 3 2 1 3 2 4 29 6 30 7 88 8 31 9 87 10 32 11 33 12 34 13
REMARK SMILES IDX 81 14 35 15 86 16 80 17 82 18 36 19 85 20 79 21 78 22 37 24
REMARK SMILES IDX 67 25 48 26 66 27 49 28 52 29 65 30 83 31 50 32 51 33 64 35
REMARK SMILES IDX 84 36 53 37 38 38 39 39 47 40 40 41 46 42 41 43 42 44 43 45
REMARK SMILES IDX 44 46 45 47 68 48 69 49 77 50 70 51 76 52 71 53 72 54 73 55
REMARK SMILES IDX 74 56 75 57 54 58 55 59 63 60 56 61 62 62 57 63 58 64 59 65
REMARK SMILES IDX 60 66 61 67 5 68 6 69 7 70 8 71 9 73 10 74 11 75 28 76 12 77
REMARK SMILES IDX 27 78 13 81 26 82 14 83 25 84 15 85 16 86 17 87 18 88 19 89
REMARK SMILES IDX 20 90 24 91 21 92 23 93 22 94
REMARK H PARENT 3 5 82 23 52 34 7 72 28 79 28 80
REMARK Flexibility Score: inf
ROOT
ATOM      1  C   UNL     1       6.158  -1.332   4.170  1.00  0.00     0.118 C 
ENDROOT
BRANCH   1   2
ATOM      2  N   UNL     1       6.411  -0.067   3.491  1.00  0.00    -0.352 N 
ATOM      3  O   UNL     1       6.276   2.153   3.139  1.00  0.00    -0.269 OA
ATOM      4  C   UNL     1       6.193   1.216   3.927  1.00  0.00     0.251 C 
ATOM      5  H   UNL     1       6.794  -0.145   2.587  1.00  0.00     0.163 HD
BRANCH   4   6
ATOM      6  C   UNL     1       5.844   1.452   5.341  1.00  0.00     0.039 A 
ATOM      7  C   UNL     1       6.530   0.779   6.355  1.00  0.00     0.014 A 
ATOM      8  C   UNL     1       4.824   2.352   5.656  1.00  0.00     0.014 A 
ATOM      9  C   UNL     1       6.097   0.888   7.668  1.00  0.00     0.010 A 
ATOM     10  C   UNL     1       4.457   2.538   6.991  1.00  0.00     0.010 A 
ATOM     11  C   UNL     1       5.072   1.788   8.005  1.00  0.00    -0.014 A 
BRANCH  11  12
ATOM     12  C   UNL     1       4.723   1.980   9.434  1.00  0.00     0.031 A 
ATOM     13  C   UNL     1       3.358   1.635   9.960  1.00  0.00     0.074 A 
ATOM     14  C   UNL     1       5.673   2.456  10.265  1.00  0.00     0.049 A 
ATOM     15  N   UNL     1       2.905   1.728  11.184  1.00  0.00    -0.248 NA
ATOM     16  C   UNL     1       2.373   1.130   8.992  1.00  0.00     0.031 C 
ATOM     17  C   UNL     1       7.034   2.827   9.864  1.00  0.00     0.029 A 
ATOM     18  N   UNL     1       5.651   2.691  11.614  1.00  0.00    -0.354 N 
ATOM     19  C   UNL     1       1.580   1.310  11.134  1.00  0.00     0.074 A 
ATOM     20  C   UNL     1       1.294   0.992   9.751  1.00  0.00     0.031 C 
ATOM     21  C   UNL     1       7.729   3.192  10.949  1.00  0.00     0.029 A 
ATOM     22  C   UNL     1       6.846   3.156  12.108  1.00  0.00     0.049 A 
ATOM     23  H   UNL     1       4.856   2.540  12.176  1.00  0.00     0.167 HD
ATOM     24  C   UNL     1       0.689   1.201  12.149  1.00  0.00     0.031 A 
ATOM     25  C   UNL     1       7.194   3.538  13.351  1.00  0.00     0.031 A 
ATOM     26  C   UNL     1       0.984   1.534  13.520  1.00  0.00     0.049 A 
ATOM     27  C   UNL     1       6.171   3.454  14.446  1.00  0.00     0.074 A 
ATOM     28  C   UNL     1       0.158   1.430  14.627  1.00  0.00     0.029 A 
ATOM     29  N   UNL     1       2.191   2.047  13.973  1.00  0.00    -0.354 N 
ATOM     30  N   UNL     1       4.935   3.019  14.385  1.00  0.00    -0.248 NA
ATOM     31  C   UNL     1       6.590   3.911  15.776  1.00  0.00     0.031 C 
ATOM     32  C   UNL     1       0.843   1.942  15.734  1.00  0.00     0.029 A 
ATOM     33  C   UNL     1       2.122   2.296  15.334  1.00  0.00     0.049 A 
ATOM     34  H   UNL     1       2.982   2.209  13.409  1.00  0.00     0.167 HD
ATOM     35  C   UNL     1       4.434   3.130  15.676  1.00  0.00     0.074 A 
ATOM     36  C   UNL     1       5.508   3.652  16.497  1.00  0.00     0.031 C 
ATOM     37  C   UNL     1       3.196   2.826  16.138  1.00  0.00     0.031 A 
BRANCH  24  38
ATOM     38  C   UNL     1      -0.706   0.734  11.811  1.00  0.00    -0.014 A 
ATOM     39  C   UNL     1      -0.959  -0.590  11.408  1.00  0.00     0.010 A 
ATOM     40  C   UNL     1      -1.789   1.623  11.944  1.00  0.00     0.010 A 
ATOM     41  C   UNL     1      -2.259  -1.002  11.101  1.00  0.00     0.020 A 
ATOM     42  C   UNL     1      -3.095   1.207  11.669  1.00  0.00     0.020 A 
ATOM     43  C   UNL     1      -3.319  -0.099  11.230  1.00  0.00     0.054 A 
BRANCH  43  44
ATOM     44  S   UNL     1      -4.997  -0.665  10.835  1.00  0.00     0.124 S 
ATOM     45  O   UNL     1      -4.934  -0.799   9.382  1.00  0.00    -0.237 OA
ATOM     46  O   UNL     1      -5.093  -1.919  11.577  1.00  0.00    -0.237 OA
ATOM     47  O   UNL     1      -5.853   0.413  11.324  1.00  0.00    -0.744 OA
ENDBRANCH  43  44
ENDBRANCH  24  38
BRANCH  25  48
ATOM     48  C   UNL     1       8.567   4.048  13.607  1.00  0.00    -0.014 A 
ATOM     49  C   UNL     1       9.472   3.311  14.390  1.00  0.00     0.010 A 
ATOM     50  C   UNL     1       8.988   5.264  13.037  1.00  0.00     0.010 A 
ATOM     51  C   UNL     1      10.768   3.788  14.609  1.00  0.00     0.020 A 
ATOM     52  C   UNL     1      10.292   5.727  13.224  1.00  0.00     0.020 A 
ATOM     53  C   UNL     1      11.170   4.991  14.020  1.00  0.00     0.054 A 
BRANCH  53  54
ATOM     54  S   UNL     1      12.873   5.560  14.273  1.00  0.00     0.124 S 
ATOM     55  O   UNL     1      12.851   5.969  15.674  1.00  0.00    -0.237 OA
ATOM     56  O   UNL     1      13.653   4.361  13.976  1.00  0.00    -0.237 OA
ATOM     57  O   UNL     1      13.019   6.645  13.306  1.00  0.00    -0.744 OA
ENDBRANCH  53  54
ENDBRANCH  25  48
BRANCH  37  58
ATOM     58  C   UNL     1       2.944   3.024  17.610  1.00  0.00    -0.014 A 
ATOM     59  C   UNL     1       2.860   4.311  18.172  1.00  0.00     0.010 A 
ATOM     60  C   UNL     1       2.747   1.902  18.436  1.00  0.00     0.010 A 
ATOM     61  C   UNL     1       2.619   4.469  19.540  1.00  0.00     0.020 A 
ATOM     62  C   UNL     1       2.472   2.057  19.796  1.00  0.00     0.020 A 
ATOM     63  C   UNL     1       2.425   3.341  20.343  1.00  0.00     0.054 A 
BRANCH  63  64
ATOM     64  S   UNL     1       2.071   3.576  22.105  1.00  0.00     0.124 S 
ATOM     65  O   UNL     1       3.365   4.018  22.619  1.00  0.00    -0.237 OA
ATOM     66  O   UNL     1       1.021   4.592  22.087  1.00  0.00    -0.237 OA
ATOM     67  O   UNL     1       1.643   2.253  22.553  1.00  0.00    -0.744 OA
ENDBRANCH  63  64
ENDBRANCH  37  58
ENDBRANCH  11  12
ENDBRANCH   4   6
ENDBRANCH   1   2
BRANCH   1  68
ATOM     68  C   UNL     1       5.173  -2.216   3.412  1.00  0.00     0.042 C 
BRANCH  68  69
ATOM     69  C   UNL     1       5.645  -2.571   2.009  1.00  0.00     0.118 C 
BRANCH  69  70
ATOM     70  N   UNL     1       6.917  -3.259   2.056  1.00  0.00    -0.351 N 
ATOM     71  C   UNL     1       7.199  -4.575   1.856  1.00  0.00     0.278 C 
ATOM     72  H   UNL     1       7.694  -2.690   2.262  1.00  0.00     0.163 HD
ATOM     73  O   UNL     1       8.357  -4.944   2.063  1.00  0.00    -0.268 OA
BRANCH  71  74
ATOM     74  C   UNL     1       6.120  -5.491   1.276  1.00  0.00     0.273 C 
ATOM     75  C   UNL     1       6.681  -6.870   0.972  1.00  0.00     0.088 C 
ATOM     76  N   UNL     1       5.045  -5.821   2.231  1.00  0.00    -0.336 N 
ATOM     77  C   UNL     1       5.461  -7.811   1.011  1.00  0.00     0.028 C 
ATOM     78  C   UNL     1       4.340  -6.939   1.600  1.00  0.00     0.268 C 
ATOM     79  H   UNL     1       4.420  -5.026   2.363  1.00  0.00     0.346 HD
ATOM     80  H   UNL     1       5.402  -6.056   3.158  1.00  0.00     0.346 HD
ATOM     81  C   UNL     1       5.764  -8.996   1.944  1.00  0.00     0.030 C 
ATOM     82  C   UNL     1       5.101  -8.311  -0.406  1.00  0.00     0.030 C 
ATOM     83  C   UNL     1       6.764  -9.943   1.304  1.00  0.00     0.104 C 
ATOM     84  C   UNL     1       6.094  -9.342  -0.950  1.00  0.00     0.104 C 
ATOM     85  N   UNL     1       6.282 -10.467   0.008  1.00  0.00    -0.189 NA
BRANCH  85  86
ATOM     86  S   UNL     1       5.050 -11.631  -0.015  1.00  0.00     0.282 S 
ATOM     87  O   UNL     1       3.917 -11.132   0.720  1.00  0.00    -0.195 OA
ATOM     88  O   UNL     1       4.902 -12.053  -1.393  1.00  0.00    -0.195 OA
BRANCH  86  89
ATOM     89  N   UNL     1       5.724 -12.884   0.830  1.00  0.00    -0.184 NA
ATOM     90  C   UNL     1       6.615 -13.851   0.175  1.00  0.00     0.132 C 
ATOM     91  C   UNL     1       5.662 -13.005   2.301  1.00  0.00     0.132 C 
ATOM     92  C   UNL     1       7.988 -13.777   0.829  1.00  0.00     0.177 C 
ATOM     93  C   UNL     1       7.060 -13.204   2.927  1.00  0.00     0.177 C 
ATOM     94  O   UNL     1       7.882 -14.140   2.215  1.00  0.00    -0.379 OA
ENDBRANCH  86  89
ENDBRANCH  85  86
ENDBRANCH  71  74
ENDBRANCH  69  70
ENDBRANCH  68  69
ENDBRANCH   1  68
TORSDOF 15
