REMARK SMILES Cc1cc(C)c2c(CCCC(=O)NCCCNC(=O)c3ccc(-c4c5nc(c(-c6ccc(S(=O)(=O)[O-])cc6)c6ccc([nH]6)c(-c6ccc(S(=O)(=O)[O-])cc6)c6nc(c(-c7ccc(S(=O)(=O)[O-])cc7)c7ccc4[nH]7)C=C6)C=C5)cc3)c(-c3ccccn3)[nH]c2c1
REMARK SMILES IDX 14 1 13 2 11 3 12 4 10 6 9 7 8 8 7 9 1 10 2 11 3 12 89 13
REMARK SMILES IDX 4 14 88 15 5 16 6 17 87 18 80 19 81 21 82 22 86 23 83 24
REMARK SMILES IDX 85 25 84 26 15 27 16 28 17 29 18 30 19 32 20 33 21 34 79 35
REMARK SMILES IDX 22 36 78 37 23 38 24 39 25 40 72 41 26 42 77 43 71 44 73 45
REMARK SMILES IDX 27 46 76 47 70 48 69 49 28 51 58 52 39 53 57 54 40 55 43 56
REMARK SMILES IDX 56 57 74 58 41 59 42 60 55 62 75 63 44 64 29 65 30 66 38 67
REMARK SMILES IDX 31 68 37 69 32 70 33 71 34 72 35 73 36 74 59 75 60 76 68 77
REMARK SMILES IDX 61 78 67 79 62 80 63 81 64 82 65 83 66 84 45 85 46 86 54 87
REMARK SMILES IDX 47 88 53 89 48 90 49 91 50 92 51 93 52 94
REMARK H PARENT 13 5 87 20 17 31 73 50 43 61
REMARK Flexibility Score: inf
ROOT
ATOM      1  C   UNL     1       0.686   2.796  -7.378  1.00  0.00     0.117 C 
ENDROOT
BRANCH   1   2
ATOM      2  N   UNL     1      -0.122   3.032  -8.555  1.00  0.00    -0.356 N 
ATOM      3  C   UNL     1      -1.431   3.372  -8.688  1.00  0.00     0.220 C 
ATOM      4  O   UNL     1      -1.789   3.736  -9.813  1.00  0.00    -0.275 OA
ATOM      5  H   UNL     1       0.360   2.928  -9.407  1.00  0.00     0.163 HD
BRANCH   3   6
ATOM      6  C   UNL     1      -2.417   3.462  -7.537  1.00  0.00     0.100 C 
BRANCH   6   7
ATOM      7  C   UNL     1      -2.817   2.290  -6.670  1.00  0.00     0.015 C 
BRANCH   7   8
ATOM      8  C   UNL     1      -1.876   1.678  -5.654  1.00  0.00     0.039 C 
BRANCH   8   9
ATOM      9  C   UNL     1      -1.182   2.357  -4.484  1.00  0.00    -0.013 A 
ATOM     10  C   UNL     1       1.204   0.022   0.217  1.00  0.00     0.044 C 
ATOM     11  C   UNL     1       0.598   0.544  -1.051  1.00  0.00    -0.049 A 
ATOM     12  C   UNL     1       0.105  -0.341  -2.009  1.00  0.00     0.007 A 
ATOM     13  C   UNL     1       0.573   1.917  -1.303  1.00  0.00     0.030 A 
ATOM     14  C   UNL     1      -0.481   0.102  -3.216  1.00  0.00    -0.041 A 
ATOM     15  C   UNL     1      -0.038   2.361  -2.481  1.00  0.00     0.047 A 
ATOM     16  C   UNL     1      -0.901  -0.967  -4.197  1.00  0.00     0.045 C 
ATOM     17  C   UNL     1      -0.605   1.512  -3.426  1.00  0.00     0.006 A 
ATOM     18  N   UNL     1      -0.181   3.638  -2.948  1.00  0.00    -0.353 N 
ATOM     19  C   UNL     1      -0.772   3.673  -4.191  1.00  0.00     0.068 A 
ATOM     20  H   UNL     1       0.106   4.439  -2.453  1.00  0.00     0.167 HD
BRANCH  19  21
ATOM     21  C   UNL     1      -0.680   4.942  -4.930  1.00  0.00     0.087 A 
ATOM     22  C   UNL     1       0.558   5.385  -5.411  1.00  0.00     0.030 A 
ATOM     23  N   UNL     1      -1.829   5.600  -5.170  1.00  0.00    -0.255 NA
ATOM     24  C   UNL     1       0.596   6.441  -6.318  1.00  0.00     0.004 A 
ATOM     25  C   UNL     1      -1.761   6.626  -6.062  1.00  0.00     0.112 A 
ATOM     26  C   UNL     1      -0.595   7.052  -6.682  1.00  0.00     0.020 A 
ENDBRANCH  19  21
ENDBRANCH   8   9
ENDBRANCH   7   8
ENDBRANCH   6   7
ENDBRANCH   3   6
ENDBRANCH   1   2
BRANCH   1  27
ATOM     27  C   UNL     1       1.087   1.338  -7.157  1.00  0.00     0.042 C 
BRANCH  27  28
ATOM     28  C   UNL     1       2.394   0.976  -7.816  1.00  0.00     0.118 C 
BRANCH  28  29
ATOM     29  N   UNL     1       3.579   1.463  -7.094  1.00  0.00    -0.352 N 
ATOM     30  C   UNL     1       4.902   1.395  -7.532  1.00  0.00     0.251 C 
ATOM     31  H   UNL     1       3.423   1.877  -6.215  1.00  0.00     0.163 HD
ATOM     32  O   UNL     1       5.838   1.446  -6.765  1.00  0.00    -0.269 OA
BRANCH  30  33
ATOM     33  C   UNL     1       5.097   1.272  -8.992  1.00  0.00     0.039 A 
ATOM     34  C   UNL     1       5.905   0.295  -9.573  1.00  0.00     0.014 A 
ATOM     35  C   UNL     1       4.246   2.055  -9.757  1.00  0.00     0.014 A 
ATOM     36  C   UNL     1       5.749   0.046 -10.938  1.00  0.00     0.010 A 
ATOM     37  C   UNL     1       3.889   1.591 -10.988  1.00  0.00     0.010 A 
ATOM     38  C   UNL     1       4.699   0.673 -11.632  1.00  0.00    -0.014 A 
BRANCH  38  39
ATOM     39  C   UNL     1       4.365   0.369 -13.016  1.00  0.00     0.031 A 
ATOM     40  C   UNL     1       4.295  -1.074 -13.347  1.00  0.00     0.074 A 
ATOM     41  C   UNL     1       4.000   1.315 -13.913  1.00  0.00     0.049 A 
ATOM     42  N   UNL     1       5.232  -1.779 -13.882  1.00  0.00    -0.248 NA
ATOM     43  C   UNL     1       3.145  -1.867 -12.889  1.00  0.00     0.031 C 
ATOM     44  C   UNL     1       3.736   2.750 -13.716  1.00  0.00     0.029 A 
ATOM     45  N   UNL     1       3.714   1.153 -15.228  1.00  0.00    -0.354 N 
ATOM     46  C   UNL     1       4.708  -3.051 -14.063  1.00  0.00     0.074 A 
ATOM     47  C   UNL     1       3.510  -3.098 -13.260  1.00  0.00     0.031 C 
ATOM     48  C   UNL     1       3.118   3.262 -14.803  1.00  0.00     0.029 A 
ATOM     49  C   UNL     1       3.140   2.258 -15.846  1.00  0.00     0.049 A 
ATOM     50  H   UNL     1       3.899   0.315 -15.710  1.00  0.00     0.167 HD
ATOM     51  C   UNL     1       5.180  -3.866 -15.049  1.00  0.00     0.031 A 
ATOM     52  C   UNL     1       2.751   2.353 -17.141  1.00  0.00     0.031 A 
ATOM     53  C   UNL     1       6.367  -3.310 -15.656  1.00  0.00     0.049 A 
ATOM     54  C   UNL     1       3.536   1.335 -17.881  1.00  0.00     0.074 A 
ATOM     55  C   UNL     1       7.634  -2.991 -15.211  1.00  0.00     0.029 A 
ATOM     56  N   UNL     1       6.185  -2.604 -16.826  1.00  0.00    -0.354 N 
ATOM     57  N   UNL     1       4.834   1.396 -18.010  1.00  0.00    -0.248 NA
ATOM     58  C   UNL     1       2.954   0.014 -18.051  1.00  0.00     0.031 C 
ATOM     59  C   UNL     1       7.953  -1.764 -15.866  1.00  0.00     0.029 A 
ATOM     60  C   UNL     1       6.906  -1.442 -16.733  1.00  0.00     0.049 A 
ATOM     61  H   UNL     1       5.634  -2.885 -17.592  1.00  0.00     0.167 HD
ATOM     62  C   UNL     1       5.270   0.089 -17.841  1.00  0.00     0.074 A 
ATOM     63  C   UNL     1       4.062  -0.728 -17.962  1.00  0.00     0.031 C 
ATOM     64  C   UNL     1       6.515  -0.187 -17.348  1.00  0.00     0.031 A 
BRANCH  51  65
ATOM     65  C   UNL     1       4.374  -4.927 -15.756  1.00  0.00    -0.014 A 
ATOM     66  C   UNL     1       5.010  -5.675 -16.771  1.00  0.00     0.010 A 
ATOM     67  C   UNL     1       2.972  -5.027 -15.671  1.00  0.00     0.010 A 
ATOM     68  C   UNL     1       4.274  -6.393 -17.718  1.00  0.00     0.020 A 
ATOM     69  C   UNL     1       2.229  -5.776 -16.588  1.00  0.00     0.020 A 
ATOM     70  C   UNL     1       2.884  -6.419 -17.632  1.00  0.00     0.054 A 
BRANCH  70  71
ATOM     71  S   UNL     1       1.939  -7.234 -18.941  1.00  0.00     0.124 S 
ATOM     72  O   UNL     1       2.254  -6.402 -20.099  1.00  0.00    -0.237 OA
ATOM     73  O   UNL     1       2.517  -8.575 -18.947  1.00  0.00    -0.237 OA
ATOM     74  O   UNL     1       0.560  -7.155 -18.467  1.00  0.00    -0.744 OA
ENDBRANCH  70  71
ENDBRANCH  51  65
BRANCH  52  75
ATOM     75  C   UNL     1       1.526   2.991 -17.683  1.00  0.00    -0.014 A 
ATOM     76  C   UNL     1       1.353   3.150 -19.071  1.00  0.00     0.010 A 
ATOM     77  C   UNL     1       0.394   3.161 -16.859  1.00  0.00     0.010 A 
ATOM     78  C   UNL     1       0.081   3.385 -19.621  1.00  0.00     0.020 A 
ATOM     79  C   UNL     1      -0.877   3.398 -17.400  1.00  0.00     0.020 A 
ATOM     80  C   UNL     1      -1.032   3.480 -18.782  1.00  0.00     0.054 A 
BRANCH  80  81
ATOM     81  S   UNL     1      -2.695   3.583 -19.515  1.00  0.00     0.124 S 
ATOM     82  O   UNL     1      -2.681   4.905 -20.135  1.00  0.00    -0.237 OA
ATOM     83  O   UNL     1      -2.704   2.453 -20.439  1.00  0.00    -0.237 OA
ATOM     84  O   UNL     1      -3.588   3.447 -18.366  1.00  0.00    -0.744 OA
ENDBRANCH  80  81
ENDBRANCH  52  75
BRANCH  64  85
ATOM     85  C   UNL     1       7.516   0.945 -17.236  1.00  0.00    -0.014 A 
ATOM     86  C   UNL     1       7.353   2.061 -16.391  1.00  0.00     0.010 A 
ATOM     87  C   UNL     1       8.750   0.777 -17.888  1.00  0.00     0.010 A 
ATOM     88  C   UNL     1       8.395   2.989 -16.218  1.00  0.00     0.020 A 
ATOM     89  C   UNL     1       9.796   1.685 -17.706  1.00  0.00     0.020 A 
ATOM     90  C   UNL     1       9.613   2.791 -16.876  1.00  0.00     0.054 A 
BRANCH  90  91
ATOM     91  S   UNL     1      10.977   3.961 -16.614  1.00  0.00     0.124 S 
ATOM     92  O   UNL     1      10.469   5.186 -17.225  1.00  0.00    -0.237 OA
ATOM     93  O   UNL     1      11.104   3.990 -15.159  1.00  0.00    -0.237 OA
ATOM     94  O   UNL     1      12.105   3.345 -17.313  1.00  0.00    -0.744 OA
ENDBRANCH  90  91
ENDBRANCH  64  85
ENDBRANCH  38  39
ENDBRANCH  30  33
ENDBRANCH  28  29
ENDBRANCH  27  28
ENDBRANCH   1  27
TORSDOF 17
