REMARK SMILES CC1(C)S[C@@H](c2cccc3c2sc2ccccc23)[NH2+][C@@H]1C(=O)NCCCNC(=O)c1ccc(-c2c3nc(c(-c4ccc(S(=O)(=O)[O-])cc4)c4ccc([nH]4)c(-c4ccc(S(=O)(=O)[O-])cc4)c4nc(c(-c5ccc(S(=O)(=O)[O-])cc5)c5ccc2[nH]5)C=C4)C=C3)cc1
REMARK SMILES IDX 26 1 25 2 24 3 23 4 21 5 22 6 20 8 1 9 2 10 3 11 4 12 5 13
REMARK SMILES IDX 19 14 6 17 7 18 11 19 8 20 10 21 12 22 9 23 18 24 13 25
REMARK SMILES IDX 17 26 14 27 16 28 15 29 27 30 28 31 29 33 30 34 31 35 89 36
REMARK SMILES IDX 32 37 88 38 33 39 34 40 35 41 82 42 36 43 87 44 81 45 83 46
REMARK SMILES IDX 37 47 86 48 80 49 79 50 38 52 68 53 49 54 67 55 50 56 53 57
REMARK SMILES IDX 66 58 84 59 51 60 52 61 65 63 85 64 54 65 39 66 40 67 48 68
REMARK SMILES IDX 41 69 47 70 42 71 43 72 44 73 45 74 46 75 69 76 70 77 78 78
REMARK SMILES IDX 71 79 77 80 72 81 73 82 74 83 75 84 76 85 55 86 56 87 64 88
REMARK SMILES IDX 57 89 63 90 58 91 59 92 60 93 61 94 62 95
REMARK H PARENT 23 7 19 15 19 16 27 32 83 51 53 62
REMARK Flexibility Score: inf
ROOT
ATOM      1  C   UNL     1      -3.426   3.337  -4.034  1.00  0.00     0.118 C 
ENDROOT
BRANCH   1   2
ATOM      2  C   UNL     1      -3.174   3.348  -2.536  1.00  0.00     0.042 C 
BRANCH   2   3
ATOM      3  C   UNL     1      -2.743   2.007  -1.968  1.00  0.00     0.118 C 
BRANCH   3   4
ATOM      4  N   UNL     1      -1.492   1.541  -2.545  1.00  0.00    -0.351 N 
ATOM      5  C   UNL     1      -0.294   1.190  -2.001  1.00  0.00     0.279 C 
ATOM      6  O   UNL     1       0.597   0.951  -2.822  1.00  0.00    -0.268 OA
ATOM      7  H   UNL     1      -1.516   1.463  -3.527  1.00  0.00     0.163 HD
BRANCH   5   8
ATOM      8  C   UNL     1      -0.013   1.207  -0.471  1.00  0.00     0.289 C 
ATOM      9  C   UNL     1       1.596   0.602   1.415  1.00  0.00     0.030 C 
ATOM     10  C   UNL     1       1.015   0.161   0.056  1.00  0.00     0.077 C 
ATOM     11  C   UNL     1       2.183  -0.199  -0.862  1.00  0.00     0.030 C 
ATOM     12  S   UNL     1      -0.013  -1.330   0.370  1.00  0.00    -0.081 SA
ATOM     13  C   UNL     1      -1.578  -0.417   0.276  1.00  0.00     0.276 C 
ATOM     14  N   UNL     1      -1.243   1.008   0.336  1.00  0.00    -0.320 N 
ATOM     15  H   UNL     1      -1.075   1.286   1.303  1.00  0.00     0.348 HD
ATOM     16  H   UNL     1      -2.010   1.575  -0.028  1.00  0.00     0.348 HD
BRANCH  13  17
ATOM     17  C   UNL     1      -2.583  -0.786   1.353  1.00  0.00     0.038 A 
ATOM     18  C   UNL     1      -2.223  -0.691   2.718  1.00  0.00     0.012 A 
ATOM     19  C   UNL     1      -3.926  -1.180   1.073  1.00  0.00     0.046 A 
ATOM     20  C   UNL     1      -3.112  -0.980   3.739  1.00  0.00     0.001 A 
ATOM     21  C   UNL     1      -4.838  -1.496   2.087  1.00  0.00     0.001 A 
ATOM     22  S   UNL     1      -4.682  -1.332  -0.472  1.00  0.00    -0.135 S 
ATOM     23  C   UNL     1      -4.406  -1.388   3.433  1.00  0.00     0.010 A 
ATOM     24  C   UNL     1      -6.133  -1.903   1.568  1.00  0.00     0.000 A 
ATOM     25  C   UNL     1      -6.182  -1.835   0.178  1.00  0.00     0.036 A 
ATOM     26  C   UNL     1      -7.303  -2.331   2.250  1.00  0.00     0.010 A 
ATOM     27  C   UNL     1      -7.353  -2.157  -0.539  1.00  0.00     0.019 A 
ATOM     28  C   UNL     1      -8.463  -2.666   1.546  1.00  0.00     0.001 A 
ATOM     29  C   UNL     1      -8.487  -2.573   0.163  1.00  0.00     0.002 A 
ENDBRANCH  13  17
ENDBRANCH   5   8
ENDBRANCH   3   4
ENDBRANCH   2   3
ENDBRANCH   1   2
BRANCH   1  30
ATOM     30  N   UNL     1      -4.515   2.449  -4.421  1.00  0.00    -0.352 N 
ATOM     31  C   UNL     1      -5.730   2.741  -4.990  1.00  0.00     0.251 C 
ATOM     32  H   UNL     1      -4.354   1.493  -4.248  1.00  0.00     0.163 HD
ATOM     33  O   UNL     1      -6.589   1.866  -5.074  1.00  0.00    -0.269 OA
BRANCH  31  34
ATOM     34  C   UNL     1      -6.013   4.109  -5.475  1.00  0.00     0.039 A 
ATOM     35  C   UNL     1      -7.263   4.676  -5.217  1.00  0.00     0.014 A 
ATOM     36  C   UNL     1      -5.047   4.836  -6.175  1.00  0.00     0.014 A 
ATOM     37  C   UNL     1      -7.512   5.998  -5.592  1.00  0.00     0.010 A 
ATOM     38  C   UNL     1      -5.258   6.182  -6.450  1.00  0.00     0.010 A 
ATOM     39  C   UNL     1      -6.496   6.777  -6.171  1.00  0.00    -0.014 A 
BRANCH  39  40
ATOM     40  C   UNL     1      -6.708   8.211  -6.495  1.00  0.00     0.031 A 
ATOM     41  C   UNL     1      -6.590   8.690  -7.918  1.00  0.00     0.074 A 
ATOM     42  C   UNL     1      -6.946   9.092  -5.503  1.00  0.00     0.049 A 
ATOM     43  N   UNL     1      -6.689   9.907  -8.389  1.00  0.00    -0.248 NA
ATOM     44  C   UNL     1      -6.296   7.674  -8.944  1.00  0.00     0.031 C 
ATOM     45  C   UNL     1      -7.041   8.761  -4.078  1.00  0.00     0.029 A 
ATOM     46  N   UNL     1      -7.151  10.449  -5.539  1.00  0.00    -0.354 N 
ATOM     47  C   UNL     1      -6.457   9.804  -9.756  1.00  0.00     0.074 A 
ATOM     48  C   UNL     1      -6.151   8.418 -10.030  1.00  0.00     0.031 C 
ATOM     49  C   UNL     1      -7.324   9.875  -3.384  1.00  0.00     0.029 A 
ATOM     50  C   UNL     1      -7.382  11.007  -4.303  1.00  0.00     0.049 A 
ATOM     51  H   UNL     1      -7.135  10.974  -6.372  1.00  0.00     0.167 HD
ATOM     52  C   UNL     1      -6.517  10.770 -10.703  1.00  0.00     0.031 A 
ATOM     53  C   UNL     1      -7.610  12.286  -3.947  1.00  0.00     0.031 A 
ATOM     54  C   UNL     1      -6.830  12.147 -10.428  1.00  0.00     0.049 A 
ATOM     55  C   UNL     1      -7.649  13.346  -5.014  1.00  0.00     0.074 A 
ATOM     56  C   UNL     1      -6.964  13.194 -11.323  1.00  0.00     0.029 A 
ATOM     57  N   UNL     1      -7.054  12.671  -9.163  1.00  0.00    -0.354 N 
ATOM     58  N   UNL     1      -7.489  13.217  -6.310  1.00  0.00    -0.248 NA
ATOM     59  C   UNL     1      -7.911  14.722  -4.572  1.00  0.00     0.031 C 
ATOM     60  C   UNL     1      -7.210  14.362 -10.594  1.00  0.00     0.029 A 
ATOM     61  C   UNL     1      -7.300  14.031  -9.251  1.00  0.00     0.049 A 
ATOM     62  H   UNL     1      -7.041  12.152  -8.326  1.00  0.00     0.167 HD
ATOM     63  C   UNL     1      -7.662  14.490  -6.841  1.00  0.00     0.074 A 
ATOM     64  C   UNL     1      -7.954  15.370  -5.728  1.00  0.00     0.031 C 
ATOM     65  C   UNL     1      -7.587  14.895  -8.134  1.00  0.00     0.031 A 
BRANCH  52  66
ATOM     66  C   UNL     1      -6.237  10.368 -12.129  1.00  0.00    -0.014 A 
ATOM     67  C   UNL     1      -7.124   9.536 -12.838  1.00  0.00     0.010 A 
ATOM     68  C   UNL     1      -5.092  10.858 -12.783  1.00  0.00     0.010 A 
ATOM     69  C   UNL     1      -6.850   9.170 -14.158  1.00  0.00     0.020 A 
ATOM     70  C   UNL     1      -4.831  10.521 -14.115  1.00  0.00     0.020 A 
ATOM     71  C   UNL     1      -5.704   9.664 -14.788  1.00  0.00     0.054 A 
BRANCH  71  72
ATOM     72  S   UNL     1      -5.390   9.193 -16.511  1.00  0.00     0.124 S 
ATOM     73  O   UNL     1      -5.025   7.785 -16.376  1.00  0.00    -0.237 OA
ATOM     74  O   UNL     1      -6.678   9.448 -17.152  1.00  0.00    -0.237 OA
ATOM     75  O   UNL     1      -4.305  10.080 -16.922  1.00  0.00    -0.744 OA
ENDBRANCH  71  72
ENDBRANCH  52  66
BRANCH  53  76
ATOM     76  C   UNL     1      -7.836  12.633  -2.516  1.00  0.00    -0.014 A 
ATOM     77  C   UNL     1      -9.103  13.056  -2.075  1.00  0.00     0.010 A 
ATOM     78  C   UNL     1      -6.788  12.533  -1.583  1.00  0.00     0.010 A 
ATOM     79  C   UNL     1      -9.312  13.392  -0.734  1.00  0.00     0.020 A 
ATOM     80  C   UNL     1      -7.000  12.838  -0.235  1.00  0.00     0.020 A 
ATOM     81  C   UNL     1      -8.259  13.277   0.178  1.00  0.00     0.054 A 
BRANCH  81  82
ATOM     82  S   UNL     1      -8.567  13.673   1.922  1.00  0.00     0.124 S 
ATOM     83  O   UNL     1      -8.698  15.126   1.886  1.00  0.00    -0.237 OA
ATOM     84  O   UNL     1      -9.795  12.933   2.200  1.00  0.00    -0.237 OA
ATOM     85  O   UNL     1      -7.377  13.168   2.603  1.00  0.00    -0.744 OA
ENDBRANCH  81  82
ENDBRANCH  53  76
BRANCH  65  86
ATOM     86  C   UNL     1      -7.862  16.347  -8.423  1.00  0.00    -0.014 A 
ATOM     87  C   UNL     1      -6.957  17.354  -8.043  1.00  0.00     0.010 A 
ATOM     88  C   UNL     1      -9.023  16.703  -9.133  1.00  0.00     0.010 A 
ATOM     89  C   UNL     1      -7.227  18.694  -8.337  1.00  0.00     0.020 A 
ATOM     90  C   UNL     1      -9.280  18.037  -9.458  1.00  0.00     0.020 A 
ATOM     91  C   UNL     1      -8.387  19.026  -9.043  1.00  0.00     0.054 A 
BRANCH  91  92
ATOM     92  S   UNL     1      -8.694  20.767  -9.445  1.00  0.00     0.124 S 
ATOM     93  O   UNL     1      -9.044  21.324  -8.142  1.00  0.00    -0.237 OA
ATOM     94  O   UNL     1      -7.409  21.201  -9.989  1.00  0.00    -0.237 OA
ATOM     95  O   UNL     1      -9.787  20.713 -10.414  1.00  0.00    -0.744 OA
ENDBRANCH  91  92
ENDBRANCH  65  86
ENDBRANCH  39  40
ENDBRANCH  31  34
ENDBRANCH   1  30
TORSDOF 14
