REMARK SMILES Cc1c[nH]c(C[N@H+]2C[C@@H]3CN(S(C)(=O)=O)C[C@]3(C(=O)NCCCNC(=O)c3ccc(-c4c5nc(c(-c6ccc(S(=O)(=O)[O-])cc6)c6ccc([nH]6)c(-c6ccc(S(=O)(=O)[O-])cc6)c6nc(c(-c7ccc(S(=O)(=O)[O-])cc7)c7ccc4[nH]7)C=C6)C=C5)cc3)C2)n1
REMARK SMILES IDX 22 1 21 2 20 3 18 4 19 5 17 7 7 8 8 9 87 10 9 12 10 13 16 14
REMARK SMILES IDX 11 15 6 16 5 17 1 18 2 19 3 20 88 21 4 22 12 24 13 25 14 26
REMARK SMILES IDX 15 27 23 28 24 29 25 30 26 32 27 33 28 34 86 35 29 36 85 37
REMARK SMILES IDX 30 38 31 39 32 40 79 41 33 42 84 43 78 44 80 45 34 46 83 47
REMARK SMILES IDX 77 48 76 49 35 51 65 52 46 53 64 54 47 55 50 56 63 57 81 58
REMARK SMILES IDX 48 59 49 60 62 62 82 63 51 64 36 65 37 66 45 67 38 68 44 69
REMARK SMILES IDX 39 70 40 71 41 72 42 73 43 74 66 75 67 76 75 77 68 78 74 79
REMARK SMILES IDX 69 80 70 81 71 82 72 83 73 84 52 85 53 86 61 87 54 88 60 89
REMARK SMILES IDX 55 90 56 91 57 92 58 93 59 94
REMARK H PARENT 20 6 7 11 4 23 24 31 80 50 50 61
REMARK Flexibility Score: inf
ROOT
ATOM      1  C   UNL     1      -0.532   7.128   4.898  1.00  0.00     0.042 C 
ENDROOT
BRANCH   1   2
ATOM      2  C   UNL     1      -1.379   6.508   3.790  1.00  0.00     0.117 C 
BRANCH   2   3
ATOM      3  N   UNL     1      -0.542   6.081   2.680  1.00  0.00    -0.355 N 
ATOM      4  C   UNL     1      -0.084   4.807   2.416  1.00  0.00     0.233 C 
ATOM      5  O   UNL     1       0.949   4.699   1.755  1.00  0.00    -0.274 OA
ATOM      6  H   UNL     1      -0.272   6.781   2.043  1.00  0.00     0.163 HD
BRANCH   4   7
ATOM      7  C   UNL     1      -0.949   3.603   2.958  1.00  0.00     0.121 C 
ATOM      8  N   UNL     1      -2.381   2.355   1.286  1.00  0.00    -0.327 N 
ATOM      9  C   UNL     1      -2.225   1.516   2.448  1.00  0.00     0.268 C 
ATOM     10  C   UNL     1      -1.326   3.388   1.413  1.00  0.00     0.281 C 
ATOM     11  H   UNL     1      -3.315   2.765   1.260  1.00  0.00     0.348 HD
ATOM     12  C   UNL     1      -0.919   1.999   3.047  1.00  0.00     0.082 C 
ATOM     13  C   UNL     1      -0.846   1.508   4.492  1.00  0.00     0.113 C 
ATOM     14  C   UNL     1       0.092   3.591   4.142  1.00  0.00     0.125 C 
ATOM     15  N   UNL     1      -0.472   2.714   5.194  1.00  0.00    -0.200 NA
BRANCH   8  16
ATOM     16  C   UNL     1      -2.316   1.623   0.001  1.00  0.00     0.338 C 
BRANCH  16  17
ATOM     17  C   UNL     1      -1.160   0.670  -0.141  1.00  0.00     0.161 A 
ATOM     18  C   UNL     1       2.285  -0.206  -0.106  1.00  0.00     0.068 C 
ATOM     19  C   UNL     1       0.807  -0.209  -0.150  1.00  0.00     0.056 A 
ATOM     20  C   UNL     1      -0.075  -1.264  -0.100  1.00  0.00     0.107 A 
ATOM     21  N   UNL     1       0.119   0.976  -0.212  1.00  0.00    -0.233 NA
ATOM     22  N   UNL     1      -1.319  -0.696  -0.127  1.00  0.00    -0.344 N 
ATOM     23  H   UNL     1      -2.176  -1.179  -0.134  1.00  0.00     0.167 HD
ENDBRANCH  16  17
ENDBRANCH   8  16
BRANCH  15  24
ATOM     24  S   UNL     1      -1.505   3.314   6.382  1.00  0.00     0.211 S 
ATOM     25  C   UNL     1      -3.084   3.507   5.561  1.00  0.00     0.176 C 
ATOM     26  O   UNL     1      -1.682   2.273   7.368  1.00  0.00    -0.213 OA
ATOM     27  O   UNL     1      -1.038   4.634   6.752  1.00  0.00    -0.213 OA
ENDBRANCH  15  24
ENDBRANCH   4   7
ENDBRANCH   2   3
ENDBRANCH   1   2
BRANCH   1  28
ATOM     28  C   UNL     1      -0.127   8.555   4.585  1.00  0.00     0.118 C 
BRANCH  28  29
ATOM     29  N   UNL     1      -1.252   9.460   4.762  1.00  0.00    -0.352 N 
ATOM     30  C   UNL     1      -1.553  10.270   5.830  1.00  0.00     0.251 C 
ATOM     31  H   UNL     1      -1.887   9.498   4.011  1.00  0.00     0.163 HD
ATOM     32  O   UNL     1      -2.709  10.659   5.978  1.00  0.00    -0.269 OA
BRANCH  30  33
ATOM     33  C   UNL     1      -0.496  10.678   6.785  1.00  0.00     0.039 A 
ATOM     34  C   UNL     1      -0.827  10.907   8.123  1.00  0.00     0.014 A 
ATOM     35  C   UNL     1       0.813  10.897   6.351  1.00  0.00     0.014 A 
ATOM     36  C   UNL     1       0.160  11.325   9.020  1.00  0.00     0.010 A 
ATOM     37  C   UNL     1       1.817  11.182   7.267  1.00  0.00     0.010 A 
ATOM     38  C   UNL     1       1.496  11.445   8.604  1.00  0.00    -0.014 A 
BRANCH  38  39
ATOM     39  C   UNL     1       2.568  11.906   9.524  1.00  0.00     0.031 A 
ATOM     40  C   UNL     1       3.350  13.156   9.193  1.00  0.00     0.074 A 
ATOM     41  C   UNL     1       2.877  11.175  10.613  1.00  0.00     0.049 A 
ATOM     42  N   UNL     1       4.364  13.685   9.827  1.00  0.00    -0.248 NA
ATOM     43  C   UNL     1       2.967  13.889   7.972  1.00  0.00     0.031 C 
ATOM     44  C   UNL     1       2.225   9.923  11.011  1.00  0.00     0.029 A 
ATOM     45  N   UNL     1       3.823  11.376  11.587  1.00  0.00    -0.354 N 
ATOM     46  C   UNL     1       4.758  14.781   9.065  1.00  0.00     0.074 A 
ATOM     47  C   UNL     1       3.910  14.816   7.897  1.00  0.00     0.031 C 
ATOM     48  C   UNL     1       2.762   9.493  12.164  1.00  0.00     0.029 A 
ATOM     49  C   UNL     1       3.829  10.405  12.561  1.00  0.00     0.049 A 
ATOM     50  H   UNL     1       4.439  12.143  11.588  1.00  0.00     0.167 HD
ATOM     51  C   UNL     1       5.726  15.690   9.326  1.00  0.00     0.031 A 
ATOM     52  C   UNL     1       4.613  10.262  13.648  1.00  0.00     0.031 A 
ATOM     53  C   UNL     1       6.535  15.674  10.514  1.00  0.00     0.049 A 
ATOM     54  C   UNL     1       5.673  11.298  13.917  1.00  0.00     0.074 A 
ATOM     55  C   UNL     1       7.481  16.599  10.919  1.00  0.00     0.029 A 
ATOM     56  N   UNL     1       6.493  14.688  11.486  1.00  0.00    -0.354 N 
ATOM     57  N   UNL     1       5.968  12.377  13.229  1.00  0.00    -0.248 NA
ATOM     58  C   UNL     1       6.497  11.106  15.118  1.00  0.00     0.031 C 
ATOM     59  C   UNL     1       8.060  16.136  12.103  1.00  0.00     0.029 A 
ATOM     60  C   UNL     1       7.421  14.964  12.475  1.00  0.00     0.049 A 
ATOM     61  H   UNL     1       5.894  13.907  11.475  1.00  0.00     0.167 HD
ATOM     62  C   UNL     1       6.983  13.011  13.939  1.00  0.00     0.074 A 
ATOM     63  C   UNL     1       7.236  12.205  15.115  1.00  0.00     0.031 C 
ATOM     64  C   UNL     1       7.645  14.157  13.647  1.00  0.00     0.031 A 
BRANCH  51  65
ATOM     65  C   UNL     1       5.974  16.781   8.316  1.00  0.00    -0.014 A 
ATOM     66  C   UNL     1       5.043  17.814   8.107  1.00  0.00     0.010 A 
ATOM     67  C   UNL     1       7.201  16.819   7.627  1.00  0.00     0.010 A 
ATOM     68  C   UNL     1       5.328  18.855   7.218  1.00  0.00     0.020 A 
ATOM     69  C   UNL     1       7.502  17.872   6.760  1.00  0.00     0.020 A 
ATOM     70  C   UNL     1       6.559  18.881   6.556  1.00  0.00     0.054 A 
BRANCH  70  71
ATOM     71  S   UNL     1       6.930  20.283   5.466  1.00  0.00     0.124 S 
ATOM     72  O   UNL     1       6.026  20.041   4.345  1.00  0.00    -0.237 OA
ATOM     73  O   UNL     1       6.597  21.433   6.303  1.00  0.00    -0.237 OA
ATOM     74  O   UNL     1       8.350  20.125   5.165  1.00  0.00    -0.744 OA
ENDBRANCH  70  71
ENDBRANCH  51  65
BRANCH  52  75
ATOM     75  C   UNL     1       4.430   9.106  14.571  1.00  0.00    -0.014 A 
ATOM     76  C   UNL     1       4.000   9.309  15.895  1.00  0.00     0.010 A 
ATOM     77  C   UNL     1       4.723   7.798  14.144  1.00  0.00     0.010 A 
ATOM     78  C   UNL     1       3.920   8.236  16.788  1.00  0.00     0.020 A 
ATOM     79  C   UNL     1       4.607   6.717  15.024  1.00  0.00     0.020 A 
ATOM     80  C   UNL     1       4.231   6.947  16.348  1.00  0.00     0.054 A 
BRANCH  80  81
ATOM     81  S   UNL     1       4.130   5.572  17.527  1.00  0.00     0.124 S 
ATOM     82  O   UNL     1       5.287   5.822  18.382  1.00  0.00    -0.237 OA
ATOM     83  O   UNL     1       2.826   5.784  18.149  1.00  0.00    -0.237 OA
ATOM     84  O   UNL     1       4.224   4.386  16.680  1.00  0.00    -0.744 OA
ENDBRANCH  80  81
ENDBRANCH  52  75
BRANCH  64  85
ATOM     85  C   UNL     1       8.662  14.645  14.644  1.00  0.00    -0.014 A 
ATOM     86  C   UNL     1       9.879  13.970  14.847  1.00  0.00     0.010 A 
ATOM     87  C   UNL     1       8.410  15.833  15.355  1.00  0.00     0.010 A 
ATOM     88  C   UNL     1      10.804  14.451  15.776  1.00  0.00     0.020 A 
ATOM     89  C   UNL     1       9.349  16.337  16.257  1.00  0.00     0.020 A 
ATOM     90  C   UNL     1      10.533  15.631  16.476  1.00  0.00     0.054 A 
BRANCH  90  91
ATOM     91  S   UNL     1      11.765  16.251  17.652  1.00  0.00     0.124 S 
ATOM     92  O   UNL     1      11.645  15.295  18.749  1.00  0.00    -0.237 OA
ATOM     93  O   UNL     1      13.006  16.176  16.885  1.00  0.00    -0.237 OA
ATOM     94  O   UNL     1      11.307  17.605  17.953  1.00  0.00    -0.744 OA
ENDBRANCH  90  91
ENDBRANCH  64  85
ENDBRANCH  38  39
ENDBRANCH  30  33
ENDBRANCH  28  29
ENDBRANCH   1  28
TORSDOF 16
