REMARK SMILES CC1(C)[C@@]2(CC[C@@H]2C(=O)NCc2ccco2)[C@]1(C)C(=O)NCCCNC(=O)c1ccc(-c2c3nc(c(-c4ccc(S(=O)(=O)[O-])cc4)c4ccc([nH]4)c(-c4ccc(S(=O)(=O)[O-])cc4)c4nc(c(-c5ccc(S(=O)(=O)[O-])cc5)c5ccc2[nH]5)C=C4)C=C3)cc1
REMARK SMILES IDX 23 1 22 2 21 3 19 4 20 5 17 7 1 8 2 9 3 10 4 11 18 12 5 13
REMARK SMILES IDX 7 14 6 15 8 16 9 17 10 18 11 20 12 21 13 22 16 23 14 24
REMARK SMILES IDX 15 25 24 26 25 27 26 28 27 30 28 31 29 32 87 33 30 34 86 35
REMARK SMILES IDX 31 36 32 37 33 38 80 39 34 40 85 41 79 42 81 43 35 44 84 45
REMARK SMILES IDX 78 46 77 47 36 49 66 50 47 51 65 52 48 53 51 54 64 55 82 56
REMARK SMILES IDX 49 57 50 58 63 60 83 61 52 62 37 63 38 64 46 65 39 66 45 67
REMARK SMILES IDX 40 68 41 69 42 70 43 71 44 72 67 73 68 74 76 75 69 76 75 77
REMARK SMILES IDX 70 78 71 79 72 80 73 81 74 82 53 83 54 84 62 85 55 86 61 87
REMARK SMILES IDX 56 88 57 89 58 90 59 91 60 92
REMARK H PARENT 21 6 10 19 25 29 81 48 51 59
REMARK Flexibility Score: inf
ROOT
ATOM      1  C   UNL     1      -1.058   2.804  -1.214  1.00  0.00     0.042 C 
ENDROOT
BRANCH   1   2
ATOM      2  C   UNL     1      -0.569   1.725  -0.260  1.00  0.00     0.117 C 
BRANCH   2   3
ATOM      3  N   UNL     1      -1.636   0.865   0.201  1.00  0.00    -0.356 N 
ATOM      4  C   UNL     1      -1.867  -0.470   0.303  1.00  0.00     0.227 C 
ATOM      5  O   UNL     1      -3.038  -0.728   0.610  1.00  0.00    -0.274 OA
ATOM      6  H   UNL     1      -2.403   1.389   0.529  1.00  0.00     0.163 HD
BRANCH   4   7
ATOM      7  C   UNL     1      -0.923  -1.655   0.116  1.00  0.00     0.059 C 
ATOM      8  C   UNL     1       1.463  -0.543   0.274  1.00  0.00     0.013 C 
ATOM      9  C   UNL     1       0.613  -1.738  -0.085  1.00  0.00    -0.013 C 
ATOM     10  C   UNL     1       1.381  -3.008   0.271  1.00  0.00     0.013 C 
ATOM     11  C   UNL     1      -0.314  -1.845  -1.289  1.00  0.00     0.003 C 
ATOM     12  C   UNL     1      -1.501  -2.883   0.856  1.00  0.00     0.023 C 
ATOM     13  C   UNL     1      -0.701  -3.057  -2.086  1.00  0.00     0.010 C 
ATOM     14  C   UNL     1      -0.439  -0.937  -2.481  1.00  0.00     0.086 C 
ATOM     15  C   UNL     1      -1.014  -2.128  -3.251  1.00  0.00     0.015 C 
BRANCH  14  16
ATOM     16  C   UNL     1       0.773  -0.178  -3.064  1.00  0.00     0.224 C 
ATOM     17  O   UNL     1       0.727   1.049  -3.259  1.00  0.00    -0.275 OA
ATOM     18  N   UNL     1       1.960  -0.762  -3.422  1.00  0.00    -0.349 N 
ATOM     19  H   UNL     1       2.618  -0.134  -3.798  1.00  0.00     0.163 HD
BRANCH  18  20
ATOM     20  C   UNL     1       2.425  -2.125  -3.351  1.00  0.00     0.191 C 
BRANCH  20  21
ATOM     21  C   UNL     1       2.384  -2.762  -4.689  1.00  0.00     0.122 A 
ATOM     22  C   UNL     1       2.520  -2.298  -5.983  1.00  0.00     0.047 A 
ATOM     23  O   UNL     1       2.213  -4.118  -4.702  1.00  0.00    -0.467 OA
ATOM     24  C   UNL     1       2.430  -3.430  -6.829  1.00  0.00     0.042 A 
ATOM     25  C   UNL     1       2.242  -4.511  -6.002  1.00  0.00     0.195 A 
ENDBRANCH  20  21
ENDBRANCH  18  20
ENDBRANCH  14  16
ENDBRANCH   4   7
ENDBRANCH   2   3
ENDBRANCH   1   2
BRANCH   1  26
ATOM     26  C   UNL     1      -2.042   3.786  -0.599  1.00  0.00     0.118 C 
BRANCH  26  27
ATOM     27  N   UNL     1      -1.429   4.673   0.381  1.00  0.00    -0.352 N 
ATOM     28  C   UNL     1      -1.022   5.985   0.262  1.00  0.00     0.251 C 
ATOM     29  H   UNL     1      -1.282   4.273   1.268  1.00  0.00     0.163 HD
ATOM     30  O   UNL     1      -0.363   6.503   1.153  1.00  0.00    -0.269 OA
BRANCH  28  31
ATOM     31  C   UNL     1      -1.355   6.753  -0.960  1.00  0.00     0.039 A 
ATOM     32  C   UNL     1      -0.369   7.538  -1.566  1.00  0.00     0.014 A 
ATOM     33  C   UNL     1      -2.631   6.687  -1.515  1.00  0.00     0.014 A 
ATOM     34  C   UNL     1      -0.640   8.174  -2.782  1.00  0.00     0.010 A 
ATOM     35  C   UNL     1      -2.862   7.223  -2.776  1.00  0.00     0.010 A 
ATOM     36  C   UNL     1      -1.873   7.977  -3.424  1.00  0.00    -0.014 A 
BRANCH  36  37
ATOM     37  C   UNL     1      -2.178   8.547  -4.763  1.00  0.00     0.031 A 
ATOM     38  C   UNL     1      -3.369   9.452  -4.930  1.00  0.00     0.074 A 
ATOM     39  C   UNL     1      -1.479   8.147  -5.844  1.00  0.00     0.049 A 
ATOM     40  N   UNL     1      -3.930   9.889  -6.028  1.00  0.00    -0.248 NA
ATOM     41  C   UNL     1      -4.050   9.881  -3.697  1.00  0.00     0.031 C 
ATOM     42  C   UNL     1      -0.339   7.228  -5.828  1.00  0.00     0.029 A 
ATOM     43  N   UNL     1      -1.649   8.440  -7.176  1.00  0.00    -0.354 N 
ATOM     44  C   UNL     1      -5.059  10.591  -5.620  1.00  0.00     0.074 A 
ATOM     45  C   UNL     1      -5.123  10.489  -4.179  1.00  0.00     0.031 C 
ATOM     46  C   UNL     1       0.092   7.038  -7.085  1.00  0.00     0.029 A 
ATOM     47  C   UNL     1      -0.769   7.780  -8.002  1.00  0.00     0.049 A 
ATOM     48  H   UNL     1      -2.335   9.063  -7.507  1.00  0.00     0.167 HD
ATOM     49  C   UNL     1      -5.956  11.268  -6.375  1.00  0.00     0.031 A 
ATOM     50  C   UNL     1      -0.677   7.751  -9.346  1.00  0.00     0.031 A 
ATOM     51  C   UNL     1      -5.861  11.404  -7.803  1.00  0.00     0.049 A 
ATOM     52  C   UNL     1      -1.647   8.553 -10.166  1.00  0.00     0.074 A 
ATOM     53  C   UNL     1      -6.660  12.148  -8.651  1.00  0.00     0.029 A 
ATOM     54  N   UNL     1      -4.905  10.782  -8.592  1.00  0.00    -0.354 N 
ATOM     55  N   UNL     1      -2.665   9.274  -9.759  1.00  0.00    -0.248 NA
ATOM     56  C   UNL     1      -1.454   8.550 -11.623  1.00  0.00     0.031 C 
ATOM     57  C   UNL     1      -6.212  11.944  -9.960  1.00  0.00     0.029 A 
ATOM     58  C   UNL     1      -5.104  11.111  -9.921  1.00  0.00     0.049 A 
ATOM     59  H   UNL     1      -4.190  10.193  -8.257  1.00  0.00     0.167 HD
ATOM     60  C   UNL     1      -3.221   9.828 -10.907  1.00  0.00     0.074 A 
ATOM     61  C   UNL     1      -2.423   9.364 -12.024  1.00  0.00     0.031 C 
ATOM     62  C   UNL     1      -4.293  10.649 -11.021  1.00  0.00     0.031 A 
BRANCH  49  63
ATOM     63  C   UNL     1      -7.123  11.898  -5.662  1.00  0.00    -0.014 A 
ATOM     64  C   UNL     1      -6.949  12.989  -4.792  1.00  0.00     0.010 A 
ATOM     65  C   UNL     1      -8.417  11.382  -5.859  1.00  0.00     0.010 A 
ATOM     66  C   UNL     1      -8.033  13.505  -4.077  1.00  0.00     0.020 A 
ATOM     67  C   UNL     1      -9.510  11.916  -5.170  1.00  0.00     0.020 A 
ATOM     68  C   UNL     1      -9.305  12.956  -4.262  1.00  0.00     0.054 A 
BRANCH  68  69
ATOM     69  S   UNL     1     -10.692  13.628  -3.306  1.00  0.00     0.124 S 
ATOM     70  O   UNL     1     -10.465  13.033  -1.991  1.00  0.00    -0.237 OA
ATOM     71  O   UNL     1     -10.474  15.070  -3.388  1.00  0.00    -0.237 OA
ATOM     72  O   UNL     1     -11.871  13.138  -4.016  1.00  0.00    -0.744 OA
ENDBRANCH  68  69
ENDBRANCH  49  63
BRANCH  50  73
ATOM     73  C   UNL     1       0.389   6.932  -9.985  1.00  0.00    -0.014 A 
ATOM     74  C   UNL     1       1.530   7.547 -10.527  1.00  0.00     0.010 A 
ATOM     75  C   UNL     1       0.301   5.527  -9.988  1.00  0.00     0.010 A 
ATOM     76  C   UNL     1       2.569   6.772 -11.054  1.00  0.00     0.020 A 
ATOM     77  C   UNL     1       1.348   4.750 -10.493  1.00  0.00     0.020 A 
ATOM     78  C   UNL     1       2.475   5.378 -11.025  1.00  0.00     0.054 A 
BRANCH  78  79
ATOM     79  S   UNL     1       3.879   4.392 -11.620  1.00  0.00     0.124 S 
ATOM     80  O   UNL     1       3.758   4.532 -13.067  1.00  0.00    -0.237 OA
ATOM     81  O   UNL     1       5.022   5.069 -11.012  1.00  0.00    -0.237 OA
ATOM     82  O   UNL     1       3.607   3.056 -11.094  1.00  0.00    -0.744 OA
ENDBRANCH  78  79
ENDBRANCH  50  73
BRANCH  62  83
ATOM     83  C   UNL     1      -4.660  11.141 -12.394  1.00  0.00    -0.014 A 
ATOM     84  C   UNL     1      -5.331  10.311 -13.307  1.00  0.00     0.010 A 
ATOM     85  C   UNL     1      -4.430  12.489 -12.727  1.00  0.00     0.010 A 
ATOM     86  C   UNL     1      -5.768  10.822 -14.532  1.00  0.00     0.020 A 
ATOM     87  C   UNL     1      -4.884  13.008 -13.941  1.00  0.00     0.020 A 
ATOM     88  C   UNL     1      -5.548  12.169 -14.839  1.00  0.00     0.054 A 
BRANCH  88  89
ATOM     89  S   UNL     1      -6.209  12.832 -16.393  1.00  0.00     0.124 S 
ATOM     90  O   UNL     1      -5.282  12.280 -17.377  1.00  0.00    -0.237 OA
ATOM     91  O   UNL     1      -7.562  12.282 -16.428  1.00  0.00    -0.237 OA
ATOM     92  O   UNL     1      -6.136  14.280 -16.211  1.00  0.00    -0.744 OA
ENDBRANCH  88  89
ENDBRANCH  62  83
ENDBRANCH  36  37
ENDBRANCH  28  31
ENDBRANCH  26  27
ENDBRANCH   1  26
TORSDOF 16
