REMARK SMILES O=C(NCCCNC(=O)[C@H]1[C@H]2CC[C@H](CC2)[C@@H]1C(=O)Nc1sc2c(c1C(=O)N1CCCCC1)CCCC2)c1ccc(-c2c3nc(c(-c4ccc(S(=O)(=O)[O-])cc4)c4ccc([nH]4)c(-c4ccc(S(=O)(=O)[O-])cc4)c4nc(c(-c5ccc(S(=O)(=O)[O-])cc5)c5ccc2[nH]5)C=C4)C=C3)cc1
REMARK SMILES IDX 5 1 4 2 3 3 1 4 2 5 38 7 39 8 97 9 40 10 96 11 41 12 42 13
REMARK SMILES IDX 43 14 90 15 44 16 95 17 89 18 91 19 45 20 94 21 88 22 87 23
REMARK SMILES IDX 46 25 76 26 57 27 75 28 58 29 61 30 74 31 92 32 59 33 60 34
REMARK SMILES IDX 73 36 93 37 62 38 47 39 48 40 56 41 49 42 55 43 50 44 51 45
REMARK SMILES IDX 52 46 53 47 54 48 77 49 78 50 86 51 79 52 85 53 80 54 81 55
REMARK SMILES IDX 82 56 83 57 84 58 63 59 64 60 72 61 65 62 71 63 66 64 67 65
REMARK SMILES IDX 68 66 69 67 70 68 6 69 7 70 8 71 9 73 10 74 11 75 17 76
REMARK SMILES IDX 12 77 16 78 14 79 13 80 15 81 18 82 19 83 20 84 21 86 22 87
REMARK SMILES IDX 25 88 23 89 24 90 37 91 34 92 36 93 35 94 26 95 27 96 28 97
REMARK SMILES IDX 29 98 33 99 30 100 32 101 31 102
REMARK H PARENT 3 6 91 24 61 35 7 72 20 85
REMARK Flexibility Score: inf
ROOT
ATOM      1  C   UNL     1       3.707  -2.765  -0.399  1.00  0.00     0.042 C 
ENDROOT
BRANCH   1   2
ATOM      2  C   UNL     1       3.329  -1.302  -0.627  1.00  0.00     0.118 C 
BRANCH   2   3
ATOM      3  N   UNL     1       1.967  -0.931  -0.315  1.00  0.00    -0.352 N 
ATOM      4  O   UNL     1       0.297   0.274   0.591  1.00  0.00    -0.269 OA
ATOM      5  C   UNL     1       1.501   0.070   0.516  1.00  0.00     0.251 C 
ATOM      6  H   UNL     1       1.272  -1.468  -0.758  1.00  0.00     0.163 HD
BRANCH   5   7
ATOM      7  C   UNL     1       2.434   0.852   1.374  1.00  0.00     0.039 A 
ATOM      8  C   UNL     1       3.590   1.459   0.879  1.00  0.00     0.014 A 
ATOM      9  C   UNL     1       2.125   0.979   2.730  1.00  0.00     0.014 A 
ATOM     10  C   UNL     1       4.518   2.031   1.757  1.00  0.00     0.010 A 
ATOM     11  C   UNL     1       3.014   1.628   3.597  1.00  0.00     0.010 A 
ATOM     12  C   UNL     1       4.245   2.116   3.131  1.00  0.00    -0.014 A 
BRANCH  12  13
ATOM     13  C   UNL     1       5.230   2.710   4.083  1.00  0.00     0.031 A 
ATOM     14  C   UNL     1       5.805   1.885   5.212  1.00  0.00     0.074 A 
ATOM     15  C   UNL     1       5.597   4.002   3.963  1.00  0.00     0.049 A 
ATOM     16  N   UNL     1       6.591   2.258   6.192  1.00  0.00    -0.248 NA
ATOM     17  C   UNL     1       5.440   0.460   5.250  1.00  0.00     0.031 C 
ATOM     18  C   UNL     1       5.133   4.923   2.924  1.00  0.00     0.029 A 
ATOM     19  N   UNL     1       6.446   4.766   4.727  1.00  0.00    -0.354 N 
ATOM     20  C   UNL     1       6.776   1.131   6.987  1.00  0.00     0.074 A 
ATOM     21  C   UNL     1       6.013   0.061   6.378  1.00  0.00     0.031 C 
ATOM     22  C   UNL     1       5.725   6.115   3.096  1.00  0.00     0.029 A 
ATOM     23  C   UNL     1       6.560   6.065   4.292  1.00  0.00     0.049 A 
ATOM     24  H   UNL     1       6.927   4.416   5.511  1.00  0.00     0.167 HD
ATOM     25  C   UNL     1       7.510   0.993   8.119  1.00  0.00     0.031 A 
ATOM     26  C   UNL     1       7.237   7.111   4.804  1.00  0.00     0.031 A 
ATOM     27  C   UNL     1       8.295   2.042   8.717  1.00  0.00     0.049 A 
ATOM     28  C   UNL     1       8.035   6.938   6.065  1.00  0.00     0.074 A 
ATOM     29  C   UNL     1       9.104   1.978   9.840  1.00  0.00     0.029 A 
ATOM     30  N   UNL     1       8.373   3.342   8.245  1.00  0.00    -0.354 N 
ATOM     31  N   UNL     1       8.202   5.861   6.792  1.00  0.00    -0.248 NA
ATOM     32  C   UNL     1       8.737   8.126   6.572  1.00  0.00     0.031 C 
ATOM     33  C   UNL     1       9.641   3.250  10.069  1.00  0.00     0.029 A 
ATOM     34  C   UNL     1       9.204   4.093   9.061  1.00  0.00     0.049 A 
ATOM     35  H   UNL     1       7.908   3.683   7.447  1.00  0.00     0.167 HD
ATOM     36  C   UNL     1       9.047   6.235   7.831  1.00  0.00     0.074 A 
ATOM     37  C   UNL     1       9.366   7.634   7.631  1.00  0.00     0.031 C 
ATOM     38  C   UNL     1       9.518   5.484   8.857  1.00  0.00     0.031 A 
BRANCH  25  39
ATOM     39  C   UNL     1       7.476  -0.344   8.813  1.00  0.00    -0.014 A 
ATOM     40  C   UNL     1       8.151  -1.460   8.288  1.00  0.00     0.010 A 
ATOM     41  C   UNL     1       6.792  -0.471  10.037  1.00  0.00     0.010 A 
ATOM     42  C   UNL     1       8.105  -2.691   8.951  1.00  0.00     0.020 A 
ATOM     43  C   UNL     1       6.764  -1.693  10.715  1.00  0.00     0.020 A 
ATOM     44  C   UNL     1       7.404  -2.801  10.157  1.00  0.00     0.054 A 
BRANCH  44  45
ATOM     45  S   UNL     1       7.365  -4.406  11.002  1.00  0.00     0.124 S 
ATOM     46  O   UNL     1       6.397  -5.145  10.195  1.00  0.00    -0.237 OA
ATOM     47  O   UNL     1       8.748  -4.862  10.895  1.00  0.00    -0.237 OA
ATOM     48  O   UNL     1       6.924  -4.074  12.355  1.00  0.00    -0.744 OA
ENDBRANCH  44  45
ENDBRANCH  25  39
BRANCH  26  49
ATOM     49  C   UNL     1       7.189   8.428   4.114  1.00  0.00    -0.014 A 
ATOM     50  C   UNL     1       8.312   8.905   3.418  1.00  0.00     0.010 A 
ATOM     51  C   UNL     1       6.013   9.200   4.132  1.00  0.00     0.010 A 
ATOM     52  C   UNL     1       8.265  10.134   2.756  1.00  0.00     0.020 A 
ATOM     53  C   UNL     1       5.953  10.418   3.450  1.00  0.00     0.020 A 
ATOM     54  C   UNL     1       7.084  10.882   2.774  1.00  0.00     0.054 A 
BRANCH  54  55
ATOM     55  S   UNL     1       7.020  12.441   1.848  1.00  0.00     0.124 S 
ATOM     56  O   UNL     1       7.745  13.347   2.731  1.00  0.00    -0.237 OA
ATOM     57  O   UNL     1       7.696  12.096   0.599  1.00  0.00    -0.237 OA
ATOM     58  O   UNL     1       5.588  12.700   1.719  1.00  0.00    -0.744 OA
ENDBRANCH  54  55
ENDBRANCH  26  49
BRANCH  38  59
ATOM     59  C   UNL     1      10.465   6.149   9.819  1.00  0.00    -0.014 A 
ATOM     60  C   UNL     1      10.010   7.083  10.766  1.00  0.00     0.010 A 
ATOM     61  C   UNL     1      11.831   5.812   9.789  1.00  0.00     0.010 A 
ATOM     62  C   UNL     1      10.910   7.699  11.640  1.00  0.00     0.020 A 
ATOM     63  C   UNL     1      12.730   6.408  10.677  1.00  0.00     0.020 A 
ATOM     64  C   UNL     1      12.267   7.362  11.585  1.00  0.00     0.054 A 
BRANCH  64  65
ATOM     65  S   UNL     1      13.417   8.157  12.741  1.00  0.00     0.124 S 
ATOM     66  O   UNL     1      13.599   9.472  12.133  1.00  0.00    -0.237 OA
ATOM     67  O   UNL     1      12.673   8.144  13.999  1.00  0.00    -0.237 OA
ATOM     68  O   UNL     1      14.591   7.287  12.711  1.00  0.00    -0.744 OA
ENDBRANCH  64  65
ENDBRANCH  38  59
ENDBRANCH  12  13
ENDBRANCH   5   7
ENDBRANCH   2   3
ENDBRANCH   1   2
BRANCH   1  69
ATOM     69  C   UNL     1       3.506  -3.725  -1.572  1.00  0.00     0.117 C 
BRANCH  69  70
ATOM     70  N   UNL     1       4.062  -3.272  -2.839  1.00  0.00    -0.356 N 
ATOM     71  C   UNL     1       4.983  -3.791  -3.699  1.00  0.00     0.224 C 
ATOM     72  H   UNL     1       3.695  -2.408  -3.138  1.00  0.00     0.163 HD
ATOM     73  O   UNL     1       5.132  -3.165  -4.753  1.00  0.00    -0.275 OA
BRANCH  71  74
ATOM     74  C   UNL     1       5.780  -5.076  -3.392  1.00  0.00     0.094 C 
ATOM     75  C   UNL     1       4.814  -6.298  -3.332  1.00  0.00     0.002 C 
ATOM     76  C   UNL     1       6.898  -5.331  -4.474  1.00  0.00     0.094 C 
ATOM     77  C   UNL     1       4.152  -6.540  -4.697  1.00  0.00     0.005 C 
ATOM     78  C   UNL     1       5.640  -7.533  -2.947  1.00  0.00     0.005 C 
ATOM     79  C   UNL     1       6.621  -6.738  -5.128  1.00  0.00     0.002 C 
ATOM     80  C   UNL     1       5.221  -6.719  -5.774  1.00  0.00     0.005 C 
ATOM     81  C   UNL     1       6.621  -7.863  -4.070  1.00  0.00     0.005 C 
BRANCH  76  82
ATOM     82  C   UNL     1       8.421  -5.237  -4.108  1.00  0.00     0.229 C 
ATOM     83  O   UNL     1       9.125  -6.255  -4.079  1.00  0.00    -0.274 OA
ATOM     84  N   UNL     1       9.091  -4.036  -4.128  1.00  0.00    -0.317 N 
ATOM     85  H   UNL     1       9.930  -4.038  -4.642  1.00  0.00     0.170 HD
BRANCH  84  86
ATOM     86  C   UNL     1       8.773  -2.830  -3.540  1.00  0.00     0.108 A 
ATOM     87  S   UNL     1       7.803  -2.867  -2.155  1.00  0.00    -0.122 S 
ATOM     88  C   UNL     1       9.289  -1.548  -3.782  1.00  0.00     0.078 A 
ATOM     89  C   UNL     1       7.556  -1.212  -2.254  1.00  0.00     0.011 A 
ATOM     90  C   UNL     1       8.492  -0.578  -3.039  1.00  0.00    -0.019 A 
ATOM     91  C   UNL     1       6.410  -0.557  -1.590  1.00  0.00     0.047 C 
ATOM     92  C   UNL     1       8.484   0.920  -3.126  1.00  0.00     0.037 C 
ATOM     93  C   UNL     1       6.085   0.754  -2.304  1.00  0.00     0.006 C 
ATOM     94  C   UNL     1       7.340   1.611  -2.366  1.00  0.00     0.005 C 
BRANCH  88  95
ATOM     95  C   UNL     1      10.333  -1.307  -4.801  1.00  0.00     0.257 C 
ATOM     96  O   UNL     1      10.782  -2.231  -5.483  1.00  0.00    -0.269 OA
ATOM     97  N   UNL     1      10.700   0.015  -5.065  1.00  0.00    -0.339 N 
ATOM     98  C   UNL     1      10.863   0.390  -6.458  1.00  0.00     0.120 C 
ATOM     99  C   UNL     1      11.523   0.787  -4.134  1.00  0.00     0.120 C 
ATOM    100  C   UNL     1      10.461   1.847  -6.643  1.00  0.00     0.022 C 
ATOM    101  C   UNL     1      11.320   2.303  -4.299  1.00  0.00     0.022 C 
ATOM    102  C   UNL     1      11.306   2.761  -5.757  1.00  0.00     0.004 C 
ENDBRANCH  88  95
ENDBRANCH  84  86
ENDBRANCH  76  82
ENDBRANCH  71  74
ENDBRANCH  69  70
ENDBRANCH   1  69
TORSDOF 16
