REMARK SMILES CCCOc1cncc(N[C@@](C)(C(=O)NCCCNC(=O)c2ccc(-c3c4nc(c(-c5ccc(S(=O)(=O)[O-])cc5)c5ccc([nH]5)c(-c5ccc(S(=O)(=O)[O-])cc5)c5nc(c(-c6ccc(S(=O)(=O)[O-])cc6)c6ccc3[nH]6)C=C5)C=C4)cc2)C(F)(F)F)n1
REMARK SMILES IDX 16 1 15 2 13 3 14 4 11 6 12 7 10 8 9 10 5 11 6 12 86 13 7 14
REMARK SMILES IDX 8 15 4 16 3 17 2 18 1 19 82 20 83 21 84 22 85 23 17 24 18 25
REMARK SMILES IDX 19 26 20 27 21 29 22 30 23 31 81 32 24 33 80 34 25 35 26 36
REMARK SMILES IDX 27 37 74 38 28 39 79 40 73 41 75 42 29 43 78 44 72 45 71 46
REMARK SMILES IDX 30 48 60 49 41 50 59 51 42 52 45 53 58 54 76 55 43 56 44 57
REMARK SMILES IDX 57 59 77 60 46 61 31 62 32 63 40 64 33 65 39 66 34 67 35 68
REMARK SMILES IDX 36 69 37 70 38 71 61 72 62 73 70 74 63 75 69 76 64 77 65 78
REMARK SMILES IDX 66 79 67 80 68 81 47 82 48 83 56 84 49 85 55 86 50 87 51 88
REMARK SMILES IDX 52 89 53 90 54 91
REMARK H PARENT 15 5 10 9 19 28 75 47 45 58
REMARK Flexibility Score: inf
ROOT
ATOM      1  C   UNL     1       3.091   2.700   7.764  1.00  0.00     0.117 C 
ENDROOT
BRANCH   1   2
ATOM      2  N   UNL     1       3.916   3.494   6.872  1.00  0.00    -0.354 N 
ATOM      3  C   UNL     1       3.683   4.113   5.679  1.00  0.00     0.254 C 
ATOM      4  O   UNL     1       4.685   4.629   5.175  1.00  0.00    -0.272 OA
ATOM      5  H   UNL     1       4.838   3.611   7.196  1.00  0.00     0.163 HD
BRANCH   3   6
ATOM      6  C   UNL     1       2.299   4.110   4.973  1.00  0.00     0.211 C 
ATOM      7  C   UNL     1       1.179   4.613   5.902  1.00  0.00     0.055 C 
BRANCH   6   8
ATOM      8  N   UNL     1       2.026   2.704   4.535  1.00  0.00    -0.347 N 
ATOM      9  H   UNL     1       2.490   2.028   5.082  1.00  0.00     0.163 HD
BRANCH   8  10
ATOM     10  C   UNL     1       1.268   2.163   3.535  1.00  0.00     0.149 A 
ATOM     11  C   UNL     1       0.329   0.239   2.664  1.00  0.00     0.234 A 
ATOM     12  C   UNL     1      -0.388   0.976   1.739  1.00  0.00     0.179 A 
ATOM     13  N   UNL     1       1.136   0.815   3.593  1.00  0.00    -0.193 NA
ATOM     14  N   UNL     1      -0.218   2.300   1.600  1.00  0.00    -0.255 NA
ATOM     15  C   UNL     1       0.636   2.852   2.500  1.00  0.00     0.158 A 
BRANCH  11  16
ATOM     16  O   UNL     1       0.166  -1.124   2.696  1.00  0.00    -0.477 OA
BRANCH  16  17
ATOM     17  C   UNL     1       1.089  -1.799   1.821  1.00  0.00     0.231 C 
BRANCH  17  18
ATOM     18  C   UNL     1       0.715  -1.693   0.333  1.00  0.00     0.038 C 
ATOM     19  C   UNL     1       1.538  -0.647  -0.415  1.00  0.00     0.007 C 
ENDBRANCH  17  18
ENDBRANCH  16  17
ENDBRANCH  11  16
ENDBRANCH   8  10
ENDBRANCH   6   8
BRANCH   6  20
ATOM     20  C   UNL     1       2.450   5.192   3.868  1.00  0.00     0.420 C 
ATOM     21  F   UNL     1       3.189   4.786   2.814  1.00  0.00    -0.168 F 
ATOM     22  F   UNL     1       1.231   5.552   3.376  1.00  0.00    -0.168 F 
ATOM     23  F   UNL     1       2.972   6.353   4.335  1.00  0.00    -0.168 F 
ENDBRANCH   6  20
ENDBRANCH   3   6
ENDBRANCH   1   2
BRANCH   1  24
ATOM     24  C   UNL     1       3.689   1.330   8.043  1.00  0.00     0.042 C 
BRANCH  24  25
ATOM     25  C   UNL     1       5.091   1.344   8.635  1.00  0.00     0.118 C 
BRANCH  25  26
ATOM     26  N   UNL     1       5.160   1.977   9.944  1.00  0.00    -0.352 N 
ATOM     27  C   UNL     1       5.518   1.444  11.161  1.00  0.00     0.251 C 
ATOM     28  H   UNL     1       4.913   2.930   9.961  1.00  0.00     0.163 HD
ATOM     29  O   UNL     1       5.361   2.110  12.183  1.00  0.00    -0.269 OA
BRANCH  27  30
ATOM     30  C   UNL     1       6.057   0.069  11.245  1.00  0.00     0.039 A 
ATOM     31  C   UNL     1       5.598  -0.780  12.254  1.00  0.00     0.014 A 
ATOM     32  C   UNL     1       7.002  -0.390  10.324  1.00  0.00     0.014 A 
ATOM     33  C   UNL     1       6.022  -2.111  12.286  1.00  0.00     0.010 A 
ATOM     34  C   UNL     1       7.345  -1.738  10.297  1.00  0.00     0.010 A 
ATOM     35  C   UNL     1       6.862  -2.615  11.279  1.00  0.00    -0.014 A 
BRANCH  35  36
ATOM     36  C   UNL     1       7.247  -4.050  11.231  1.00  0.00     0.031 A 
ATOM     37  C   UNL     1       8.697  -4.448  11.327  1.00  0.00     0.074 A 
ATOM     38  C   UNL     1       6.301  -4.990  11.030  1.00  0.00     0.049 A 
ATOM     39  N   UNL     1       9.232  -5.638  11.236  1.00  0.00    -0.248 NA
ATOM     40  C   UNL     1       9.675  -3.365  11.523  1.00  0.00     0.031 C 
ATOM     41  C   UNL     1       4.867  -4.732  10.876  1.00  0.00     0.029 A 
ATOM     42  N   UNL     1       6.404  -6.354  10.912  1.00  0.00    -0.354 N 
ATOM     43  C   UNL     1      10.605  -5.445  11.344  1.00  0.00     0.074 A 
ATOM     44  C   UNL     1      10.824  -4.020  11.451  1.00  0.00     0.031 C 
ATOM     45  C   UNL     1       4.223  -5.899  10.717  1.00  0.00     0.029 A 
ATOM     46  C   UNL     1       5.198  -6.985  10.708  1.00  0.00     0.049 A 
ATOM     47  H   UNL     1       7.261  -6.836  10.969  1.00  0.00     0.167 HD
ATOM     48  C   UNL     1      11.593  -6.371  11.373  1.00  0.00     0.031 A 
ATOM     49  C   UNL     1       4.908  -8.288  10.525  1.00  0.00     0.031 A 
ATOM     50  C   UNL     1      11.370  -7.789  11.277  1.00  0.00     0.049 A 
ATOM     51  C   UNL     1       6.025  -9.296  10.547  1.00  0.00     0.074 A 
ATOM     52  C   UNL     1      12.300  -8.812  11.354  1.00  0.00     0.029 A 
ATOM     53  N   UNL     1      10.134  -8.386  11.082  1.00  0.00    -0.354 N 
ATOM     54  N   UNL     1       7.310  -9.098  10.718  1.00  0.00    -0.248 NA
ATOM     55  C   UNL     1       5.650 -10.706  10.365  1.00  0.00     0.031 C 
ATOM     56  C   UNL     1      11.633 -10.023  11.145  1.00  0.00     0.029 A 
ATOM     57  C   UNL     1      10.279  -9.761  11.009  1.00  0.00     0.049 A 
ATOM     58  H   UNL     1       9.279  -7.903  11.006  1.00  0.00     0.167 HD
ATOM     59  C   UNL     1       7.894 -10.361  10.697  1.00  0.00     0.074 A 
ATOM     60  C   UNL     1       6.820 -11.314  10.509  1.00  0.00     0.031 C 
ATOM     61  C   UNL     1       9.200 -10.699  10.825  1.00  0.00     0.031 A 
BRANCH  48  62
ATOM     62  C   UNL     1      13.011  -5.875  11.509  1.00  0.00    -0.014 A 
ATOM     63  C   UNL     1      13.463  -5.279  12.701  1.00  0.00     0.010 A 
ATOM     64  C   UNL     1      13.916  -6.045  10.446  1.00  0.00     0.010 A 
ATOM     65  C   UNL     1      14.779  -4.823  12.811  1.00  0.00     0.020 A 
ATOM     66  C   UNL     1      15.242  -5.620  10.563  1.00  0.00     0.020 A 
ATOM     67  C   UNL     1      15.660  -4.996  11.740  1.00  0.00     0.054 A 
BRANCH  67  68
ATOM     68  S   UNL     1      17.369  -4.416  11.921  1.00  0.00     0.124 S 
ATOM     69  O   UNL     1      17.201  -2.965  11.878  1.00  0.00    -0.237 OA
ATOM     70  O   UNL     1      17.757  -4.964  13.219  1.00  0.00    -0.237 OA
ATOM     71  O   UNL     1      18.058  -4.997  10.771  1.00  0.00    -0.744 OA
ENDBRANCH  67  68
ENDBRANCH  48  62
BRANCH  49  72
ATOM     72  C   UNL     1       3.496  -8.715  10.318  1.00  0.00    -0.014 A 
ATOM     73  C   UNL     1       2.820  -9.453  11.306  1.00  0.00     0.010 A 
ATOM     74  C   UNL     1       2.814  -8.375   9.135  1.00  0.00     0.010 A 
ATOM     75  C   UNL     1       1.498  -9.861  11.107  1.00  0.00     0.020 A 
ATOM     76  C   UNL     1       1.482  -8.753   8.945  1.00  0.00     0.020 A 
ATOM     77  C   UNL     1       0.836  -9.505   9.928  1.00  0.00     0.054 A 
BRANCH  77  78
ATOM     78  S   UNL     1      -0.896 -10.004   9.713  1.00  0.00     0.124 S 
ATOM     79  O   UNL     1      -0.772 -11.441   9.489  1.00  0.00    -0.237 OA
ATOM     80  O   UNL     1      -1.496  -9.610  10.985  1.00  0.00    -0.237 OA
ATOM     81  O   UNL     1      -1.335  -9.225   8.558  1.00  0.00    -0.744 OA
ENDBRANCH  77  78
ENDBRANCH  49  72
BRANCH  61  82
ATOM     82  C   UNL     1       9.545 -12.165  10.813  1.00  0.00    -0.014 A 
ATOM     83  C   UNL     1       9.469 -12.928   9.635  1.00  0.00     0.010 A 
ATOM     84  C   UNL     1      10.014 -12.773  11.993  1.00  0.00     0.010 A 
ATOM     85  C   UNL     1       9.827 -14.279   9.644  1.00  0.00     0.020 A 
ATOM     86  C   UNL     1      10.402 -14.114  11.999  1.00  0.00     0.020 A 
ATOM     87  C   UNL     1      10.293 -14.863  10.826  1.00  0.00     0.054 A 
BRANCH  87  88
ATOM     88  S   UNL     1      10.797 -16.605  10.799  1.00  0.00     0.124 S 
ATOM     89  O   UNL     1       9.512 -17.292  10.695  1.00  0.00    -0.237 OA
ATOM     90  O   UNL     1      11.645 -16.674   9.612  1.00  0.00    -0.237 OA
ATOM     91  O   UNL     1      11.497 -16.784  12.069  1.00  0.00    -0.744 OA
ENDBRANCH  87  88
ENDBRANCH  61  82
ENDBRANCH  35  36
ENDBRANCH  27  30
ENDBRANCH  25  26
ENDBRANCH  24  25
ENDBRANCH   1  24
TORSDOF 19
