REMARK SMILES Cn1cc(S(=O)(=O)N(CCC#N)CCC#N)cc1C(=O)NCCCNC(=O)c1ccc(-c2c3nc(c(-c4ccc(S(=O)(=O)[O-])cc4)c4ccc([nH]4)c(-c4ccc(S(=O)(=O)[O-])cc4)c4nc(c(-c5ccc(S(=O)(=O)[O-])cc5)c5ccc2[nH]5)C=C4)C=C3)cc1
REMARK SMILES IDX 22 1 21 2 19 3 20 4 18 6 1 7 2 8 3 9 4 10 17 11 5 12 6 13
REMARK SMILES IDX 7 14 8 15 9 16 10 17 11 18 12 19 13 20 14 21 15 22 16 23
REMARK SMILES IDX 23 24 24 25 25 26 26 27 27 29 28 30 29 31 87 32 30 33 86 34
REMARK SMILES IDX 31 35 32 36 33 37 80 38 34 39 85 40 79 41 81 42 35 43 84 44
REMARK SMILES IDX 78 45 77 46 36 48 66 49 47 50 65 51 48 52 51 53 64 54 82 55
REMARK SMILES IDX 49 56 50 57 63 59 83 60 52 61 37 62 38 63 46 64 39 65 45 66
REMARK SMILES IDX 40 67 41 68 42 69 43 70 44 71 67 72 68 73 76 74 69 75 75 76
REMARK SMILES IDX 70 77 71 78 72 79 73 80 74 81 53 82 54 83 62 84 55 85 61 86
REMARK SMILES IDX 56 87 57 88 58 89 59 90 60 91
REMARK H PARENT 21 5 25 28 81 47 51 58
REMARK Flexibility Score: inf
ROOT
ATOM      1  C   UNL     1       2.914  -1.754   0.598  1.00  0.00     0.118 C 
ENDROOT
BRANCH   1   2
ATOM      2  N   UNL     1       1.841  -2.630   0.212  1.00  0.00    -0.351 N 
ATOM      3  C   UNL     1       0.611  -2.296  -0.294  1.00  0.00     0.267 C 
ATOM      4  O   UNL     1      -0.140  -3.236  -0.567  1.00  0.00    -0.268 OA
ATOM      5  H   UNL     1       2.011  -3.593   0.327  1.00  0.00     0.163 HD
BRANCH   3   6
ATOM      6  C   UNL     1       0.167  -0.910  -0.391  1.00  0.00     0.108 A 
ATOM      7  C   UNL     1       2.166   0.571  -1.076  1.00  0.00     0.150 C 
ATOM      8  N   UNL     1       0.852   0.287  -0.541  1.00  0.00    -0.345 N 
ATOM      9  C   UNL     1       0.022   1.330  -0.246  1.00  0.00     0.107 A 
ATOM     10  C   UNL     1      -1.263   0.852  -0.279  1.00  0.00     0.101 A 
ATOM     11  C   UNL     1      -1.183  -0.546  -0.403  1.00  0.00     0.055 A 
BRANCH  10  12
ATOM     12  S   UNL     1      -2.602   1.902  -0.282  1.00  0.00     0.244 S 
ATOM     13  O   UNL     1      -2.449   2.686   0.923  1.00  0.00    -0.207 OA
ATOM     14  O   UNL     1      -2.538   2.491  -1.601  1.00  0.00    -0.207 OA
BRANCH  12  15
ATOM     15  N   UNL     1      -4.084   1.125  -0.167  1.00  0.00    -0.196 NA
BRANCH  15  16
ATOM     16  C   UNL     1      -4.323   0.130   0.934  1.00  0.00     0.118 C 
BRANCH  16  17
ATOM     17  C   UNL     1      -4.403   0.684   2.367  1.00  0.00     0.137 C 
BRANCH  17  18
ATOM     18  C   UNL     1      -5.658   1.541   2.344  1.00  0.00     0.064 C 
ATOM     19  N   UNL     1      -6.699   2.252   2.324  1.00  0.00    -0.198 NA
ENDBRANCH  17  18
ENDBRANCH  16  17
ENDBRANCH  15  16
BRANCH  15  20
ATOM     20  C   UNL     1      -5.245   1.959  -0.672  1.00  0.00     0.118 C 
BRANCH  20  21
ATOM     21  C   UNL     1      -5.367   3.391  -0.102  1.00  0.00     0.137 C 
BRANCH  21  22
ATOM     22  C   UNL     1      -4.612   4.447  -0.785  1.00  0.00     0.064 C 
ATOM     23  N   UNL     1      -4.034   5.346  -1.244  1.00  0.00    -0.198 NA
ENDBRANCH  21  22
ENDBRANCH  20  21
ENDBRANCH  15  20
ENDBRANCH  12  15
ENDBRANCH  10  12
ENDBRANCH   3   6
ENDBRANCH   1   2
BRANCH   1  24
ATOM     24  C   UNL     1       3.776  -2.186   1.753  1.00  0.00     0.042 C 
BRANCH  24  25
ATOM     25  C   UNL     1       4.534  -3.472   1.527  1.00  0.00     0.118 C 
BRANCH  25  26
ATOM     26  N   UNL     1       5.488  -3.409   0.424  1.00  0.00    -0.352 N 
ATOM     27  C   UNL     1       6.865  -3.374   0.427  1.00  0.00     0.251 C 
ATOM     28  H   UNL     1       5.079  -3.387  -0.471  1.00  0.00     0.163 HD
ATOM     29  O   UNL     1       7.468  -3.176  -0.624  1.00  0.00    -0.269 OA
BRANCH  27  30
ATOM     30  C   UNL     1       7.610  -3.529   1.696  1.00  0.00     0.039 A 
ATOM     31  C   UNL     1       8.732  -2.734   1.938  1.00  0.00     0.014 A 
ATOM     32  C   UNL     1       7.177  -4.428   2.668  1.00  0.00     0.014 A 
ATOM     33  C   UNL     1       9.345  -2.772   3.194  1.00  0.00     0.010 A 
ATOM     34  C   UNL     1       7.680  -4.345   3.957  1.00  0.00     0.010 A 
ATOM     35  C   UNL     1       8.786  -3.534   4.233  1.00  0.00    -0.014 A 
BRANCH  35  36
ATOM     36  C   UNL     1       9.350  -3.524   5.607  1.00  0.00     0.031 A 
ATOM     37  C   UNL     1       9.803  -4.815   6.242  1.00  0.00     0.074 A 
ATOM     38  C   UNL     1       9.390  -2.373   6.309  1.00  0.00     0.049 A 
ATOM     39  N   UNL     1      10.265  -5.021   7.448  1.00  0.00    -0.248 NA
ATOM     40  C   UNL     1       9.690  -6.040   5.430  1.00  0.00     0.031 C 
ATOM     41  C   UNL     1       8.933  -1.067   5.826  1.00  0.00     0.029 A 
ATOM     42  N   UNL     1       9.837  -2.114   7.581  1.00  0.00    -0.354 N 
ATOM     43  C   UNL     1      10.476  -6.392   7.542  1.00  0.00     0.074 A 
ATOM     44  C   UNL     1      10.026  -6.978   6.301  1.00  0.00     0.031 C 
ATOM     45  C   UNL     1       9.166  -0.141   6.769  1.00  0.00     0.029 A 
ATOM     46  C   UNL     1       9.734  -0.792   7.945  1.00  0.00     0.049 A 
ATOM     47  H   UNL     1      10.197  -2.810   8.176  1.00  0.00     0.167 HD
ATOM     48  C   UNL     1      11.021  -7.100   8.558  1.00  0.00     0.031 A 
ATOM     49  C   UNL     1      10.052  -0.172   9.099  1.00  0.00     0.031 A 
ATOM     50  C   UNL     1      11.479  -6.510   9.786  1.00  0.00     0.049 A 
ATOM     51  C   UNL     1      10.639  -0.982  10.222  1.00  0.00     0.074 A 
ATOM     52  C   UNL     1      12.104  -7.128  10.854  1.00  0.00     0.029 A 
ATOM     53  N   UNL     1      11.358  -5.168  10.114  1.00  0.00    -0.354 N 
ATOM     54  N   UNL     1      10.902  -2.267  10.261  1.00  0.00    -0.248 NA
ATOM     55  C   UNL     1      10.984  -0.257  11.452  1.00  0.00     0.031 C 
ATOM     56  C   UNL     1      12.290  -6.175  11.859  1.00  0.00     0.029 A 
ATOM     57  C   UNL     1      11.862  -4.946  11.384  1.00  0.00     0.049 A 
ATOM     58  H   UNL     1      10.971  -4.476   9.530  1.00  0.00     0.167 HD
ATOM     59  C   UNL     1      11.473  -2.498  11.508  1.00  0.00     0.074 A 
ATOM     60  C   UNL     1      11.532  -1.218  12.184  1.00  0.00     0.031 C 
ATOM     61  C   UNL     1      11.911  -3.665  12.045  1.00  0.00     0.031 A 
BRANCH  48  62
ATOM     62  C   UNL     1      11.140  -8.594   8.389  1.00  0.00    -0.014 A 
ATOM     63  C   UNL     1      12.010  -9.157   7.437  1.00  0.00     0.010 A 
ATOM     64  C   UNL     1      10.403  -9.448   9.228  1.00  0.00     0.010 A 
ATOM     65  C   UNL     1      12.110 -10.544   7.301  1.00  0.00     0.020 A 
ATOM     66  C   UNL     1      10.527 -10.836   9.121  1.00  0.00     0.020 A 
ATOM     67  C   UNL     1      11.369 -11.375   8.147  1.00  0.00     0.054 A 
BRANCH  67  68
ATOM     68  S   UNL     1      11.548 -13.171   7.971  1.00  0.00     0.124 S 
ATOM     69  O   UNL     1      10.906 -13.413   6.681  1.00  0.00    -0.237 OA
ATOM     70  O   UNL     1      12.997 -13.349   7.995  1.00  0.00    -0.237 OA
ATOM     71  O   UNL     1      10.836 -13.706   9.129  1.00  0.00    -0.744 OA
ENDBRANCH  67  68
ENDBRANCH  48  62
BRANCH  49  72
ATOM     72  C   UNL     1       9.831   1.295   9.242  1.00  0.00    -0.014 A 
ATOM     73  C   UNL     1      10.918   2.180   9.346  1.00  0.00     0.010 A 
ATOM     74  C   UNL     1       8.524   1.817   9.261  1.00  0.00     0.010 A 
ATOM     75  C   UNL     1      10.704   3.555   9.483  1.00  0.00     0.020 A 
ATOM     76  C   UNL     1       8.306   3.194   9.361  1.00  0.00     0.020 A 
ATOM     77  C   UNL     1       9.399   4.053   9.483  1.00  0.00     0.054 A 
BRANCH  77  78
ATOM     78  S   UNL     1       9.148   5.846   9.603  1.00  0.00     0.124 S 
ATOM     79  O   UNL     1       9.556   6.119  10.977  1.00  0.00    -0.237 OA
ATOM     80  O   UNL     1      10.039   6.356   8.563  1.00  0.00    -0.237 OA
ATOM     81  O   UNL     1       7.722   6.011   9.328  1.00  0.00    -0.744 OA
ENDBRANCH  77  78
ENDBRANCH  49  72
BRANCH  61  82
ATOM     82  C   UNL     1      12.533  -3.611  13.416  1.00  0.00    -0.014 A 
ATOM     83  C   UNL     1      11.766  -3.339  14.562  1.00  0.00     0.010 A 
ATOM     84  C   UNL     1      13.903  -3.900  13.562  1.00  0.00     0.010 A 
ATOM     85  C   UNL     1      12.365  -3.322  15.824  1.00  0.00     0.020 A 
ATOM     86  C   UNL     1      14.497  -3.922  14.825  1.00  0.00     0.020 A 
ATOM     87  C   UNL     1      13.726  -3.618  15.947  1.00  0.00     0.054 A 
BRANCH  87  88
ATOM     88  S   UNL     1      14.467  -3.634  17.602  1.00  0.00     0.124 S 
ATOM     89  O   UNL     1      14.456  -2.217  17.954  1.00  0.00    -0.237 OA
ATOM     90  O   UNL     1      13.542  -4.476  18.356  1.00  0.00    -0.237 OA
ATOM     91  O   UNL     1      15.792  -4.211  17.385  1.00  0.00    -0.744 OA
ENDBRANCH  87  88
ENDBRANCH  61  82
ENDBRANCH  35  36
ENDBRANCH  27  30
ENDBRANCH  25  26
ENDBRANCH  24  25
ENDBRANCH   1  24
TORSDOF 21
