REMARK SMILES O=C(NCCCNC(=O)c1sccc1S(=O)(=O)N[C@@H]1CONC1=O)c1ccc(-c2c3nc(c(-c4ccc(S(=O)(=O)[O-])cc4)c4ccc([nH]4)c(-c4ccc(S(=O)(=O)[O-])cc4)c4nc(c(-c5ccc(S(=O)(=O)[O-])cc5)c5ccc2[nH]5)C=C4)C=C3)cc1
REMARK SMILES IDX 5 1 4 2 3 3 1 4 2 5 25 7 26 8 84 9 27 10 83 11 28 12 29 13
REMARK SMILES IDX 30 14 77 15 31 16 82 17 76 18 78 19 32 20 81 21 75 22 74 23
REMARK SMILES IDX 33 25 63 26 44 27 62 28 45 29 48 30 61 31 79 32 46 33 47 34
REMARK SMILES IDX 60 36 80 37 49 38 34 39 35 40 43 41 36 42 42 43 37 44 38 45
REMARK SMILES IDX 39 46 40 47 41 48 64 49 65 50 73 51 66 52 72 53 67 54 68 55
REMARK SMILES IDX 69 56 70 57 71 58 50 59 51 60 59 61 52 62 58 63 53 64 54 65
REMARK SMILES IDX 55 66 56 67 57 68 6 69 7 70 8 71 9 73 10 74 11 75 14 76
REMARK SMILES IDX 12 77 13 78 15 79 16 80 17 81 18 82 19 84 20 85 23 86 21 87
REMARK SMILES IDX 22 88 24 89
REMARK H PARENT 3 6 78 24 48 35 7 72 18 83 22 90
REMARK Flexibility Score: inf
ROOT
ATOM      1  C   UNL     1       5.109  -1.760   1.101  1.00  0.00     0.042 C 
ENDROOT
BRANCH   1   2
ATOM      2  C   UNL     1       4.644  -0.983  -0.124  1.00  0.00     0.118 C 
BRANCH   2   3
ATOM      3  N   UNL     1       3.193  -0.936  -0.267  1.00  0.00    -0.352 N 
ATOM      4  O   UNL     1       1.121  -0.049  -0.124  1.00  0.00    -0.269 OA
ATOM      5  C   UNL     1       2.335   0.129  -0.110  1.00  0.00     0.251 C 
ATOM      6  H   UNL     1       2.766  -1.789  -0.511  1.00  0.00     0.163 HD
BRANCH   5   7
ATOM      7  C   UNL     1       2.898   1.477   0.107  1.00  0.00     0.039 A 
ATOM      8  C   UNL     1       3.943   1.926  -0.699  1.00  0.00     0.014 A 
ATOM      9  C   UNL     1       2.430   2.264   1.161  1.00  0.00     0.014 A 
ATOM     10  C   UNL     1       4.661   3.049  -0.319  1.00  0.00     0.010 A 
ATOM     11  C   UNL     1       3.077   3.467   1.461  1.00  0.00     0.010 A 
ATOM     12  C   UNL     1       4.230   3.845   0.755  1.00  0.00    -0.014 A 
BRANCH  12  13
ATOM     13  C   UNL     1       4.983   5.085   1.074  1.00  0.00     0.031 A 
ATOM     14  C   UNL     1       5.654   5.278   2.408  1.00  0.00     0.074 A 
ATOM     15  C   UNL     1       5.106   6.022   0.113  1.00  0.00     0.049 A 
ATOM     16  N   UNL     1       6.375   6.288   2.824  1.00  0.00    -0.248 NA
ATOM     17  C   UNL     1       5.491   4.210   3.406  1.00  0.00     0.031 C 
ATOM     18  C   UNL     1       4.504   5.942  -1.223  1.00  0.00     0.029 A 
ATOM     19  N   UNL     1       5.804   7.200   0.088  1.00  0.00    -0.354 N 
ATOM     20  C   UNL     1       6.719   5.999   4.140  1.00  0.00     0.074 A 
ATOM     21  C   UNL     1       6.117   4.721   4.458  1.00  0.00     0.031 C 
ATOM     22  C   UNL     1       4.928   6.976  -1.960  1.00  0.00     0.029 A 
ATOM     23  C   UNL     1       5.754   7.840  -1.127  1.00  0.00     0.049 A 
ATOM     24  H   UNL     1       6.294   7.555   0.865  1.00  0.00     0.167 HD
ATOM     25  C   UNL     1       7.464   6.732   5.003  1.00  0.00     0.031 A 
ATOM     26  C   UNL     1       6.297   9.002  -1.532  1.00  0.00     0.031 A 
ATOM     27  C   UNL     1       8.067   7.999   4.673  1.00  0.00     0.049 A 
ATOM     28  C   UNL     1       7.103   9.802  -0.555  1.00  0.00     0.074 A 
ATOM     29  C   UNL     1       8.858   8.810   5.468  1.00  0.00     0.029 A 
ATOM     30  N   UNL     1       7.945   8.640   3.448  1.00  0.00    -0.354 N 
ATOM     31  N   UNL     1       7.414   9.509   0.685  1.00  0.00    -0.248 NA
ATOM     32  C   UNL     1       7.622  11.091  -1.027  1.00  0.00     0.031 C 
ATOM     33  C   UNL     1       9.175   9.963   4.740  1.00  0.00     0.029 A 
ATOM     34  C   UNL     1       8.627   9.846   3.473  1.00  0.00     0.049 A 
ATOM     35  H   UNL     1       7.447   8.289   2.675  1.00  0.00     0.167 HD
ATOM     36  C   UNL     1       8.172  10.578   1.144  1.00  0.00     0.074 A 
ATOM     37  C   UNL     1       8.290  11.511   0.039  1.00  0.00     0.031 C 
ATOM     38  C   UNL     1       8.719  10.769   2.369  1.00  0.00     0.031 A 
BRANCH  25  39
ATOM     39  C   UNL     1       7.628   6.202   6.404  1.00  0.00    -0.014 A 
ATOM     40  C   UNL     1       8.435   5.083   6.679  1.00  0.00     0.010 A 
ATOM     41  C   UNL     1       6.973   6.849   7.470  1.00  0.00     0.010 A 
ATOM     42  C   UNL     1       8.540   4.589   7.984  1.00  0.00     0.020 A 
ATOM     43  C   UNL     1       7.096   6.373   8.779  1.00  0.00     0.020 A 
ATOM     44  C   UNL     1       7.861   5.231   9.024  1.00  0.00     0.054 A 
BRANCH  44  45
ATOM     45  S   UNL     1       8.001   4.563  10.705  1.00  0.00     0.124 S 
ATOM     46  O   UNL     1       7.131   3.392  10.635  1.00  0.00    -0.237 OA
ATOM     47  O   UNL     1       9.428   4.278  10.822  1.00  0.00    -0.237 OA
ATOM     48  O   UNL     1       7.515   5.650  11.552  1.00  0.00    -0.744 OA
ENDBRANCH  44  45
ENDBRANCH  25  39
BRANCH  26  49
ATOM     49  C   UNL     1       6.072   9.464  -2.927  1.00  0.00    -0.014 A 
ATOM     50  C   UNL     1       7.116   9.431  -3.866  1.00  0.00     0.010 A 
ATOM     51  C   UNL     1       4.787   9.864  -3.341  1.00  0.00     0.010 A 
ATOM     52  C   UNL     1       6.877   9.783  -5.198  1.00  0.00     0.020 A 
ATOM     53  C   UNL     1       4.539  10.188  -4.676  1.00  0.00     0.020 A 
ATOM     54  C   UNL     1       5.588  10.150  -5.596  1.00  0.00     0.054 A 
BRANCH  54  55
ATOM     55  S   UNL     1       5.279  10.508  -7.348  1.00  0.00     0.124 S 
ATOM     56  O   UNL     1       5.854  11.841  -7.490  1.00  0.00    -0.237 OA
ATOM     57  O   UNL     1       5.998   9.431  -8.023  1.00  0.00    -0.237 OA
ATOM     58  O   UNL     1       3.823  10.437  -7.458  1.00  0.00    -0.744 OA
ENDBRANCH  54  55
ENDBRANCH  26  49
BRANCH  38  59
ATOM     59  C   UNL     1       9.508  12.032   2.570  1.00  0.00    -0.014 A 
ATOM     60  C   UNL     1       8.866  13.276   2.698  1.00  0.00     0.010 A 
ATOM     61  C   UNL     1      10.910  11.967   2.660  1.00  0.00     0.010 A 
ATOM     62  C   UNL     1       9.616  14.440   2.880  1.00  0.00     0.020 A 
ATOM     63  C   UNL     1      11.662  13.126   2.866  1.00  0.00     0.020 A 
ATOM     64  C   UNL     1      11.010  14.358   2.960  1.00  0.00     0.054 A 
BRANCH  64  65
ATOM     65  S   UNL     1      11.962  15.878   3.229  1.00  0.00     0.124 S 
ATOM     66  O   UNL     1      11.925  16.497   1.907  1.00  0.00    -0.237 OA
ATOM     67  O   UNL     1      11.192  16.561   4.266  1.00  0.00    -0.237 OA
ATOM     68  O   UNL     1      13.273  15.393   3.655  1.00  0.00    -0.744 OA
ENDBRANCH  64  65
ENDBRANCH  38  59
ENDBRANCH  12  13
ENDBRANCH   5   7
ENDBRANCH   2   3
ENDBRANCH   1   2
BRANCH   1  69
ATOM     69  C   UNL     1       4.794  -3.245   1.041  1.00  0.00     0.118 C 
BRANCH  69  70
ATOM     70  N   UNL     1       5.360  -3.858  -0.147  1.00  0.00    -0.351 N 
ATOM     71  C   UNL     1       6.098  -4.999  -0.292  1.00  0.00     0.262 C 
ATOM     72  H   UNL     1       5.184  -3.372  -0.986  1.00  0.00     0.163 HD
ATOM     73  O   UNL     1       6.570  -5.203  -1.411  1.00  0.00    -0.268 OA
BRANCH  71  74
ATOM     74  C   UNL     1       6.275  -5.879   0.835  1.00  0.00     0.112 A 
ATOM     75  S   UNL     1       7.883  -6.202   1.343  1.00  0.00    -0.137 S 
ATOM     76  C   UNL     1       5.357  -6.606   1.571  1.00  0.00     0.106 A 
ATOM     77  C   UNL     1       7.357  -7.263   2.574  1.00  0.00     0.067 A 
ATOM     78  C   UNL     1       5.987  -7.387   2.593  1.00  0.00     0.034 A 
BRANCH  76  79
ATOM     79  S   UNL     1       3.643  -6.614   1.359  1.00  0.00     0.243 S 
ATOM     80  O   UNL     1       3.259  -7.999   1.230  1.00  0.00    -0.207 OA
ATOM     81  O   UNL     1       3.181  -5.811   2.472  1.00  0.00    -0.207 OA
BRANCH  79  82
ATOM     82  N   UNL     1       3.113  -5.801   0.008  1.00  0.00    -0.196 NA
ATOM     83  H   UNL     1       3.671  -4.950  -0.051  1.00  0.00     0.142 HD
BRANCH  82  84
ATOM     84  C   UNL     1       3.150  -6.408  -1.322  1.00  0.00     0.189 C 
ATOM     85  C   UNL     1       1.800  -6.999  -1.713  1.00  0.00     0.224 C 
ATOM     86  C   UNL     1       4.019  -7.577  -1.666  1.00  0.00     0.264 C 
ATOM     87  O   UNL     1       2.059  -7.821  -2.859  1.00  0.00    -0.271 OA
ATOM     88  N   UNL     1       3.383  -8.274  -2.665  1.00  0.00    -0.233 N 
ATOM     89  O   UNL     1       5.110  -7.858  -1.203  1.00  0.00    -0.271 OA
ATOM     90  H   UNL     1       3.800  -9.001  -3.182  1.00  0.00     0.199 HD
ENDBRANCH  82  84
ENDBRANCH  79  82
ENDBRANCH  76  79
ENDBRANCH  71  74
ENDBRANCH  69  70
ENDBRANCH   1  69
TORSDOF 16
