REMARK SMILES CCC([NH3+])(CC)C(=O)N1C[C@@H](O)C[C@H]1C(=O)NCCCNC(=O)c1ccc(-c2c3nc(c(-c4ccc(S(=O)(=O)[O-])cc4)c4ccc([nH]4)c(-c4ccc(S(=O)(=O)[O-])cc4)c4nc(c(-c5ccc(S(=O)(=O)[O-])cc5)c5ccc2[nH]5)C=C4)C=C3)cc1
REMARK SMILES IDX 19 1 18 2 17 3 15 4 16 5 14 7 9 8 10 9 11 10 13 11 7 12 8 13
REMARK SMILES IDX 3 14 2 15 1 16 4 17 5 21 6 22 12 23 20 25 21 26 22 27 23 29
REMARK SMILES IDX 24 30 25 31 83 32 26 33 82 34 27 35 28 36 29 37 76 38 30 39
REMARK SMILES IDX 81 40 75 41 77 42 31 43 80 44 74 45 73 46 32 48 62 49 43 50
REMARK SMILES IDX 61 51 44 52 47 53 60 54 78 55 45 56 46 57 59 59 79 60 48 61
REMARK SMILES IDX 33 62 34 63 42 64 35 65 41 66 36 67 37 68 38 69 39 70 40 71
REMARK SMILES IDX 63 72 64 73 72 74 65 75 71 76 66 77 67 78 68 79 69 80 70 81
REMARK SMILES IDX 49 82 50 83 58 84 51 85 57 86 52 87 53 88 54 89 55 90 56 91
REMARK H PARENT 17 6 4 18 4 19 4 20 12 24 21 28 77 47 47 58
REMARK Flexibility Score: inf
ROOT
ATOM      1  C   UNL     1       5.140  -5.097  -0.357  1.00  0.00     0.042 C 
ENDROOT
BRANCH   1   2
ATOM      2  C   UNL     1       5.822  -4.713   0.941  1.00  0.00     0.117 C 
BRANCH   2   3
ATOM      3  N   UNL     1       6.233  -3.328   0.973  1.00  0.00    -0.354 N 
ATOM      4  C   UNL     1       5.757  -2.288   1.714  1.00  0.00     0.242 C 
ATOM      5  O   UNL     1       6.448  -1.263   1.751  1.00  0.00    -0.273 OA
ATOM      6  H   UNL     1       6.973  -3.099   0.365  1.00  0.00     0.163 HD
BRANCH   4   7
ATOM      7  C   UNL     1       4.536  -2.436   2.647  1.00  0.00     0.177 C 
ATOM      8  N   UNL     1       3.291  -2.992   2.099  1.00  0.00    -0.323 N 
ATOM      9  C   UNL     1       2.813  -4.114   2.885  1.00  0.00     0.152 C 
ATOM     10  C   UNL     1       3.667  -4.143   4.151  1.00  0.00     0.136 C 
ATOM     11  C   UNL     1       4.908  -3.316   3.844  1.00  0.00     0.069 C 
BRANCH   8  12
ATOM     12  C   UNL     1       2.659  -2.287   1.086  1.00  0.00     0.284 C 
ATOM     13  O   UNL     1       3.352  -1.574   0.351  1.00  0.00    -0.268 OA
BRANCH  12  14
ATOM     14  C   UNL     1       1.086  -2.283   0.942  1.00  0.00     0.173 C 
BRANCH  14  15
ATOM     15  C   UNL     1       0.638  -1.304  -0.195  1.00  0.00     0.075 C 
ATOM     16  C   UNL     1       0.922   0.187   0.006  1.00  0.00     0.011 C 
ENDBRANCH  14  15
BRANCH  14  17
ATOM     17  N   UNL     1       0.500  -1.769   2.213  1.00  0.00    -0.345 N 
ATOM     18  H   UNL     1      -0.517  -1.759   2.139  1.00  0.00     0.345 HD
ATOM     19  H   UNL     1       0.838  -0.822   2.384  1.00  0.00     0.345 HD
ATOM     20  H   UNL     1       0.780  -2.375   2.985  1.00  0.00     0.345 HD
ENDBRANCH  14  17
BRANCH  14  21
ATOM     21  C   UNL     1       0.474  -3.677   0.653  1.00  0.00     0.075 C 
ATOM     22  C   UNL     1       0.966  -4.343  -0.625  1.00  0.00     0.011 C 
ENDBRANCH  14  21
ENDBRANCH  12  14
ENDBRANCH   8  12
BRANCH  10  23
ATOM     23  O   UNL     1       4.022  -5.465   4.534  1.00  0.00    -0.391 OA
ATOM     24  H   UNL     1       4.526  -5.884   3.819  1.00  0.00     0.211 HD
ENDBRANCH  10  23
ENDBRANCH   4   7
ENDBRANCH   2   3
ENDBRANCH   1   2
BRANCH   1  25
ATOM     25  C   UNL     1       6.070  -5.084  -1.562  1.00  0.00     0.118 C 
BRANCH  25  26
ATOM     26  N   UNL     1       7.179  -6.022  -1.421  1.00  0.00    -0.352 N 
ATOM     27  C   UNL     1       7.498  -7.136  -2.155  1.00  0.00     0.251 C 
ATOM     28  H   UNL     1       7.798  -5.823  -0.681  1.00  0.00     0.163 HD
ATOM     29  O   UNL     1       8.356  -7.910  -1.734  1.00  0.00    -0.269 OA
BRANCH  27  30
ATOM     30  C   UNL     1       6.808  -7.413  -3.432  1.00  0.00     0.039 A 
ATOM     31  C   UNL     1       6.453  -8.729  -3.742  1.00  0.00     0.014 A 
ATOM     32  C   UNL     1       6.523  -6.383  -4.330  1.00  0.00     0.014 A 
ATOM     33  C   UNL     1       5.748  -8.996  -4.917  1.00  0.00     0.010 A 
ATOM     34  C   UNL     1       5.740  -6.636  -5.450  1.00  0.00     0.010 A 
ATOM     35  C   UNL     1       5.349  -7.946  -5.760  1.00  0.00    -0.014 A 
BRANCH  35  36
ATOM     36  C   UNL     1       4.523  -8.192  -6.969  1.00  0.00     0.031 A 
ATOM     37  C   UNL     1       5.057  -7.841  -8.333  1.00  0.00     0.074 A 
ATOM     38  C   UNL     1       3.267  -8.662  -6.832  1.00  0.00     0.049 A 
ATOM     39  N   UNL     1       4.459  -7.911  -9.494  1.00  0.00    -0.248 NA
ATOM     40  C   UNL     1       6.432  -7.318  -8.398  1.00  0.00     0.031 C 
ATOM     41  C   UNL     1       2.620  -8.998  -5.561  1.00  0.00     0.029 A 
ATOM     42  N   UNL     1       2.302  -8.928  -7.772  1.00  0.00    -0.354 N 
ATOM     43  C   UNL     1       5.373  -7.424 -10.421  1.00  0.00     0.074 A 
ATOM     44  C   UNL     1       6.547  -7.016  -9.683  1.00  0.00     0.031 C 
ATOM     45  C   UNL     1       1.379  -9.448  -5.803  1.00  0.00     0.029 A 
ATOM     46  C   UNL     1       1.121  -9.388  -7.237  1.00  0.00     0.049 A 
ATOM     47  H   UNL     1       2.443  -8.802  -8.738  1.00  0.00     0.167 HD
ATOM     48  C   UNL     1       5.253  -7.342 -11.767  1.00  0.00     0.031 A 
ATOM     49  C   UNL     1      -0.044  -9.711  -7.832  1.00  0.00     0.031 A 
ATOM     50  C   UNL     1       4.086  -7.762 -12.496  1.00  0.00     0.049 A 
ATOM     51  C   UNL     1      -0.156  -9.598  -9.328  1.00  0.00     0.074 A 
ATOM     52  C   UNL     1       3.890  -7.778 -13.866  1.00  0.00     0.029 A 
ATOM     53  N   UNL     1       2.917  -8.235 -11.919  1.00  0.00    -0.354 N 
ATOM     54  N   UNL     1       0.748  -9.206 -10.194  1.00  0.00    -0.248 NA
ATOM     55  C   UNL     1      -1.441  -9.982  -9.929  1.00  0.00     0.031 C 
ATOM     56  C   UNL     1       2.581  -8.201 -14.114  1.00  0.00     0.029 A 
ATOM     57  C   UNL     1       1.986  -8.517 -12.903  1.00  0.00     0.049 A 
ATOM     58  H   UNL     1       2.772  -8.353 -10.952  1.00  0.00     0.167 HD
ATOM     59  C   UNL     1       0.150  -9.325 -11.444  1.00  0.00     0.074 A 
ATOM     60  C   UNL     1      -1.185  -9.841 -11.222  1.00  0.00     0.031 C 
ATOM     61  C   UNL     1       0.661  -9.035 -12.666  1.00  0.00     0.031 A 
BRANCH  48  62
ATOM     62  C   UNL     1       6.412  -6.771 -12.543  1.00  0.00    -0.014 A 
ATOM     63  C   UNL     1       7.628  -7.469 -12.658  1.00  0.00     0.010 A 
ATOM     64  C   UNL     1       6.262  -5.544 -13.217  1.00  0.00     0.010 A 
ATOM     65  C   UNL     1       8.682  -6.936 -13.404  1.00  0.00     0.020 A 
ATOM     66  C   UNL     1       7.304  -5.023 -13.989  1.00  0.00     0.020 A 
ATOM     67  C   UNL     1       8.513  -5.717 -14.067  1.00  0.00     0.054 A 
BRANCH  67  68
ATOM     68  S   UNL     1       9.886  -5.072 -15.061  1.00  0.00     0.124 S 
ATOM     69  O   UNL     1      10.846  -4.681 -14.031  1.00  0.00    -0.237 OA
ATOM     70  O   UNL     1      10.267  -6.229 -15.867  1.00  0.00    -0.237 OA
ATOM     71  O   UNL     1       9.288  -3.966 -15.805  1.00  0.00    -0.744 OA
ENDBRANCH  67  68
ENDBRANCH  48  62
BRANCH  49  72
ATOM     72  C   UNL     1      -1.198 -10.172  -7.011  1.00  0.00    -0.014 A 
ATOM     73  C   UNL     1      -1.653 -11.500  -7.093  1.00  0.00     0.010 A 
ATOM     74  C   UNL     1      -1.851  -9.281  -6.139  1.00  0.00     0.010 A 
ATOM     75  C   UNL     1      -2.752 -11.921  -6.339  1.00  0.00     0.020 A 
ATOM     76  C   UNL     1      -2.930  -9.707  -5.359  1.00  0.00     0.020 A 
ATOM     77  C   UNL     1      -3.383 -11.022  -5.475  1.00  0.00     0.054 A 
BRANCH  77  78
ATOM     78  S   UNL     1      -4.783 -11.601  -4.478  1.00  0.00     0.124 S 
ATOM     79  O   UNL     1      -5.835 -11.737  -5.480  1.00  0.00    -0.237 OA
ATOM     80  O   UNL     1      -4.274 -12.851  -3.918  1.00  0.00    -0.237 OA
ATOM     81  O   UNL     1      -4.978 -10.527  -3.506  1.00  0.00    -0.744 OA
ENDBRANCH  77  78
ENDBRANCH  49  72
BRANCH  61  82
ATOM     82  C   UNL     1      -0.207  -9.307 -13.867  1.00  0.00    -0.014 A 
ATOM     83  C   UNL     1      -1.334  -8.516 -14.151  1.00  0.00     0.010 A 
ATOM     84  C   UNL     1       0.153 -10.334 -14.760  1.00  0.00     0.010 A 
ATOM     85  C   UNL     1      -2.103  -8.767 -15.290  1.00  0.00     0.020 A 
ATOM     86  C   UNL     1      -0.594 -10.567 -15.916  1.00  0.00     0.020 A 
ATOM     87  C   UNL     1      -1.726  -9.789 -16.167  1.00  0.00     0.054 A 
BRANCH  87  88
ATOM     88  S   UNL     1      -2.712 -10.061 -17.665  1.00  0.00     0.124 S 
ATOM     89  O   UNL     1      -3.933 -10.650 -17.122  1.00  0.00    -0.237 OA
ATOM     90  O   UNL     1      -2.852  -8.711 -18.205  1.00  0.00    -0.237 OA
ATOM     91  O   UNL     1      -1.888 -10.964 -18.465  1.00  0.00    -0.744 OA
ENDBRANCH  87  88
ENDBRANCH  61  82
ENDBRANCH  35  36
ENDBRANCH  27  30
ENDBRANCH  25  26
ENDBRANCH   1  25
TORSDOF 19
