REMARK SMILES O=C(NCCCNC(=O)[C@@H]1[C@H](C(=O)Nc2ccccc2Cc2ccccc2)[C@H]2C=C[C@@H]1O2)c1ccc(-c2c3nc(c(-c4ccc(S(=O)(=O)[O-])cc4)c4ccc([nH]4)c(-c4ccc(S(=O)(=O)[O-])cc4)c4nc(c(-c5ccc(S(=O)(=O)[O-])cc5)c5ccc2[nH]5)C=C4)C=C3)cc1
REMARK SMILES IDX 5 1 4 2 3 3 1 4 2 5 33 7 34 8 92 9 35 10 91 11 36 12 37 13
REMARK SMILES IDX 38 14 85 15 39 16 90 17 84 18 86 19 40 20 89 21 83 22 82 23
REMARK SMILES IDX 41 25 71 26 52 27 70 28 53 29 56 30 69 31 87 32 54 33 55 34
REMARK SMILES IDX 68 36 88 37 57 38 42 39 43 40 51 41 44 42 50 43 45 44 46 45
REMARK SMILES IDX 47 46 48 47 49 48 72 49 73 50 81 51 74 52 80 53 75 54 76 55
REMARK SMILES IDX 77 56 78 57 79 58 58 59 59 60 67 61 60 62 66 63 61 64 62 65
REMARK SMILES IDX 63 66 64 67 65 68 6 69 7 70 8 71 9 73 10 74 11 75 31 76
REMARK SMILES IDX 28 77 30 78 32 79 29 80 12 81 13 82 14 83 15 85 16 86 20 87
REMARK SMILES IDX 17 88 19 89 18 90 21 91 22 92 23 93 27 94 24 95 26 96 25 97
REMARK H PARENT 3 6 86 24 56 35 7 72 14 84
REMARK Flexibility Score: inf
ROOT
ATOM      1  C   UNL     1       3.110  -2.801   0.029  1.00  0.00     0.042 C 
ENDROOT
BRANCH   1   2
ATOM      2  C   UNL     1       3.048  -1.269  -0.185  1.00  0.00     0.118 C 
BRANCH   2   3
ATOM      3  N   UNL     1       1.722  -0.696  -0.327  1.00  0.00    -0.352 N 
ATOM      4  O   UNL     1       0.173   0.937  -0.205  1.00  0.00    -0.269 OA
ATOM      5  C   UNL     1       1.350   0.636  -0.182  1.00  0.00     0.251 C 
ATOM      6  H   UNL     1       0.999  -1.325  -0.553  1.00  0.00     0.163 HD
BRANCH   5   7
ATOM      7  C   UNL     1       2.383   1.692   0.053  1.00  0.00     0.039 A 
ATOM      8  C   UNL     1       3.570   1.743  -0.680  1.00  0.00     0.014 A 
ATOM      9  C   UNL     1       2.116   2.702   0.987  1.00  0.00     0.014 A 
ATOM     10  C   UNL     1       4.517   2.741  -0.429  1.00  0.00     0.010 A 
ATOM     11  C   UNL     1       3.030   3.749   1.181  1.00  0.00     0.010 A 
ATOM     12  C   UNL     1       4.238   3.784   0.469  1.00  0.00    -0.014 A 
BRANCH  12  13
ATOM     13  C   UNL     1       5.126   4.980   0.541  1.00  0.00     0.031 A 
ATOM     14  C   UNL     1       5.799   5.392   1.823  1.00  0.00     0.074 A 
ATOM     15  C   UNL     1       5.268   5.744  -0.563  1.00  0.00     0.049 A 
ATOM     16  N   UNL     1       6.507   6.465   2.075  1.00  0.00    -0.248 NA
ATOM     17  C   UNL     1       5.645   4.492   2.976  1.00  0.00     0.031 C 
ATOM     18  C   UNL     1       4.658   5.465  -1.866  1.00  0.00     0.029 A 
ATOM     19  N   UNL     1       5.959   6.912  -0.770  1.00  0.00    -0.354 N 
ATOM     20  C   UNL     1       6.860   6.387   3.419  1.00  0.00     0.074 A 
ATOM     21  C   UNL     1       6.270   5.168   3.932  1.00  0.00     0.031 C 
ATOM     22  C   UNL     1       5.027   6.409  -2.741  1.00  0.00     0.029 A 
ATOM     23  C   UNL     1       5.829   7.408  -2.048  1.00  0.00     0.049 A 
ATOM     24  H   UNL     1       6.496   7.353  -0.073  1.00  0.00     0.167 HD
ATOM     25  C   UNL     1       7.603   7.253   4.154  1.00  0.00     0.031 A 
ATOM     26  C   UNL     1       6.268   8.554  -2.601  1.00  0.00     0.031 A 
ATOM     27  C   UNL     1       8.174   8.472   3.634  1.00  0.00     0.049 A 
ATOM     28  C   UNL     1       7.047   9.518  -1.756  1.00  0.00     0.074 A 
ATOM     29  C   UNL     1       8.971   9.397   4.288  1.00  0.00     0.029 A 
ATOM     30  N   UNL     1       8.002   8.943   2.339  1.00  0.00    -0.354 N 
ATOM     31  N   UNL     1       7.395   9.409  -0.496  1.00  0.00    -0.248 NA
ATOM     32  C   UNL     1       7.492  10.757  -2.404  1.00  0.00     0.031 C 
ATOM     33  C   UNL     1       9.226  10.456   3.410  1.00  0.00     0.029 A 
ATOM     34  C   UNL     1       8.651  10.158   2.185  1.00  0.00     0.049 A 
ATOM     35  H   UNL     1       7.494   8.481   1.634  1.00  0.00     0.167 HD
ATOM     36  C   UNL     1       8.121  10.558  -0.206  1.00  0.00     0.074 A 
ATOM     37  C   UNL     1       8.176  11.336  -1.427  1.00  0.00     0.031 C 
ATOM     38  C   UNL     1       8.690  10.931   0.967  1.00  0.00     0.031 A 
BRANCH  25  39
ATOM     39  C   UNL     1       7.811   6.935   5.616  1.00  0.00    -0.014 A 
ATOM     40  C   UNL     1       8.602   5.846   6.026  1.00  0.00     0.010 A 
ATOM     41  C   UNL     1       7.237   7.764   6.599  1.00  0.00     0.010 A 
ATOM     42  C   UNL     1       8.770   5.562   7.386  1.00  0.00     0.020 A 
ATOM     43  C   UNL     1       7.428   7.503   7.960  1.00  0.00     0.020 A 
ATOM     44  C   UNL     1       8.177   6.389   8.344  1.00  0.00     0.054 A 
BRANCH  44  45
ATOM     45  S   UNL     1       8.410   5.994  10.100  1.00  0.00     0.124 S 
ATOM     46  O   UNL     1       7.591   4.793  10.248  1.00  0.00    -0.237 OA
ATOM     47  O   UNL     1       9.852   5.784  10.192  1.00  0.00    -0.237 OA
ATOM     48  O   UNL     1       7.909   7.177  10.794  1.00  0.00    -0.744 OA
ENDBRANCH  44  45
ENDBRANCH  25  39
BRANCH  26  49
ATOM     49  C   UNL     1       5.961   8.847  -4.028  1.00  0.00    -0.014 A 
ATOM     50  C   UNL     1       6.981   8.830  -4.994  1.00  0.00     0.010 A 
ATOM     51  C   UNL     1       4.636   9.096  -4.437  1.00  0.00     0.010 A 
ATOM     52  C   UNL     1       6.685   9.060  -6.340  1.00  0.00     0.020 A 
ATOM     53  C   UNL     1       4.331   9.292  -5.786  1.00  0.00     0.020 A 
ATOM     54  C   UNL     1       5.360   9.281  -6.729  1.00  0.00     0.054 A 
BRANCH  54  55
ATOM     55  S   UNL     1       4.994   9.503  -8.492  1.00  0.00     0.124 S 
ATOM     56  O   UNL     1       5.547  10.828  -8.752  1.00  0.00    -0.237 OA
ATOM     57  O   UNL     1       5.709   8.386  -9.104  1.00  0.00    -0.237 OA
ATOM     58  O   UNL     1       3.537   9.409  -8.553  1.00  0.00    -0.744 OA
ENDBRANCH  54  55
ENDBRANCH  26  49
BRANCH  38  59
ATOM     59  C   UNL     1       9.456  12.228   0.976  1.00  0.00    -0.014 A 
ATOM     60  C   UNL     1       8.798  13.468   0.885  1.00  0.00     0.010 A 
ATOM     61  C   UNL     1      10.856  12.204   1.115  1.00  0.00     0.010 A 
ATOM     62  C   UNL     1       9.531  14.659   0.898  1.00  0.00     0.020 A 
ATOM     63  C   UNL     1      11.588  13.392   1.161  1.00  0.00     0.020 A 
ATOM     64  C   UNL     1      10.921  14.613   1.038  1.00  0.00     0.054 A 
BRANCH  64  65
ATOM     65  S   UNL     1      11.844  16.173   1.095  1.00  0.00     0.124 S 
ATOM     66  O   UNL     1      11.760  16.627  -0.290  1.00  0.00    -0.237 OA
ATOM     67  O   UNL     1      11.082  16.959   2.062  1.00  0.00    -0.237 OA
ATOM     68  O   UNL     1      13.177  15.772   1.539  1.00  0.00    -0.744 OA
ENDBRANCH  64  65
ENDBRANCH  38  59
ENDBRANCH  12  13
ENDBRANCH   5   7
ENDBRANCH   2   3
ENDBRANCH   1   2
BRANCH   1  69
ATOM     69  C   UNL     1       3.718  -3.762  -1.115  1.00  0.00     0.117 C 
BRANCH  69  70
ATOM     70  N   UNL     1       5.110  -4.639  -1.200  1.00  0.00    -0.356 N 
ATOM     71  C   UNL     1       6.016  -5.652  -0.763  1.00  0.00     0.227 C 
ATOM     72  H   UNL     1       5.569  -4.252  -1.980  1.00  0.00     0.163 HD
ATOM     73  O   UNL     1       6.843  -5.894  -1.679  1.00  0.00    -0.275 OA
BRANCH  71  74
ATOM     74  C   UNL     1       6.372  -6.628   0.769  1.00  0.00     0.127 C 
ATOM     75  C   UNL     1       6.827  -8.023   0.351  1.00  0.00     0.127 C 
ATOM     76  C   UNL     1       5.645  -7.143   2.154  1.00  0.00     0.155 C 
ATOM     77  C   UNL     1       6.526  -8.982   1.520  1.00  0.00     0.155 C 
ATOM     78  C   UNL     1       6.700  -7.459   3.187  1.00  0.00     0.004 C 
ATOM     79  O   UNL     1       5.222  -8.499   1.887  1.00  0.00    -0.365 OA
ATOM     80  C   UNL     1       7.245  -8.613   2.788  1.00  0.00     0.004 C 
BRANCH  75  81
ATOM     81  C   UNL     1       5.916  -8.364  -0.756  1.00  0.00     0.231 C 
ATOM     82  O   UNL     1       6.232  -9.244  -1.563  1.00  0.00    -0.274 OA
ATOM     83  N   UNL     1       4.671  -7.795  -0.838  1.00  0.00    -0.325 N 
ATOM     84  H   UNL     1       4.218  -8.126  -1.647  1.00  0.00     0.169 HD
BRANCH  83  85
ATOM     85  C   UNL     1       3.777  -6.856  -0.130  1.00  0.00     0.044 A 
ATOM     86  C   UNL     1       2.490  -7.271  -0.585  1.00  0.00     0.026 A 
ATOM     87  C   UNL     1       3.873  -5.672   0.874  1.00  0.00    -0.020 A 
ATOM     88  C   UNL     1       1.317  -6.792  -0.056  1.00  0.00     0.002 A 
ATOM     89  C   UNL     1       2.615  -5.371   1.468  1.00  0.00     0.006 A 
ATOM     90  C   UNL     1       1.386  -5.900   1.000  1.00  0.00     0.000 A 
BRANCH  87  91
ATOM     91  C   UNL     1       5.157  -4.506   1.531  1.00  0.00     0.073 C 
BRANCH  91  92
ATOM     92  C   UNL     1       6.309  -3.487   0.816  1.00  0.00    -0.044 A 
ATOM     93  C   UNL     1       7.645  -3.844   0.466  1.00  0.00     0.004 A 
ATOM     94  C   UNL     1       6.053  -2.147   0.484  1.00  0.00     0.004 A 
ATOM     95  C   UNL     1       8.472  -3.096  -0.410  1.00  0.00     0.000 A 
ATOM     96  C   UNL     1       6.867  -1.373  -0.388  1.00  0.00     0.000 A 
ATOM     97  C   UNL     1       8.059  -1.870  -0.881  1.00  0.00     0.000 A 
ENDBRANCH  91  92
ENDBRANCH  87  91
ENDBRANCH  83  85
ENDBRANCH  75  81
ENDBRANCH  71  74
ENDBRANCH  69  70
ENDBRANCH   1  69
TORSDOF 17
