REMARK SMILES O=C(NCCCNC(=O)c1ccc(S(=O)(=O)NCc2ccn[nH]2)c(F)c1)c1ccc(-c2c3nc(c(-c4ccc(S(=O)(=O)[O-])cc4)c4ccc([nH]4)c(-c4ccc(S(=O)(=O)[O-])cc4)c4nc(c(-c5ccc(S(=O)(=O)[O-])cc5)c5ccc2[nH]5)C=C4)C=C3)cc1
REMARK SMILES IDX 5 1 4 2 3 3 1 4 2 5 27 7 28 8 86 9 29 10 85 11 30 12 31 13
REMARK SMILES IDX 32 14 79 15 33 16 84 17 78 18 80 19 34 20 83 21 77 22 76 23
REMARK SMILES IDX 35 25 65 26 46 27 64 28 47 29 50 30 63 31 81 32 48 33 49 34
REMARK SMILES IDX 62 36 82 37 51 38 36 39 37 40 45 41 38 42 44 43 39 44 40 45
REMARK SMILES IDX 41 46 42 47 43 48 66 49 67 50 75 51 68 52 74 53 69 54 70 55
REMARK SMILES IDX 71 56 72 57 73 58 52 59 53 60 61 61 54 62 60 63 55 64 56 65
REMARK SMILES IDX 57 66 58 67 59 68 6 69 7 70 8 71 9 73 10 74 11 75 26 76
REMARK SMILES IDX 12 77 24 78 13 79 25 80 14 81 15 82 16 83 17 84 18 86 19 87
REMARK SMILES IDX 20 88 23 89 21 90 22 91
REMARK H PARENT 3 6 80 24 50 35 7 72 17 85 23 92
REMARK Flexibility Score: inf
ROOT
ATOM      1  C   UNL     1       4.764   0.401  -2.555  1.00  0.00     0.042 C 
ENDROOT
BRANCH   1   2
ATOM      2  C   UNL     1       4.442   0.887  -1.150  1.00  0.00     0.118 C 
BRANCH   2   3
ATOM      3  N   UNL     1       3.027   0.769  -0.819  1.00  0.00    -0.352 N 
ATOM      4  O   UNL     1       1.148  -0.108   0.046  1.00  0.00    -0.269 OA
ATOM      5  C   UNL     1       2.375  -0.061   0.064  1.00  0.00     0.251 C 
ATOM      6  H   UNL     1       2.438   1.388  -1.309  1.00  0.00     0.163 HD
BRANCH   5   7
ATOM      7  C   UNL     1       3.135  -0.908   1.012  1.00  0.00     0.039 A 
ATOM      8  C   UNL     1       4.277  -0.423   1.645  1.00  0.00     0.014 A 
ATOM      9  C   UNL     1       2.680  -2.200   1.302  1.00  0.00     0.014 A 
ATOM     10  C   UNL     1       5.062  -1.278   2.406  1.00  0.00     0.010 A 
ATOM     11  C   UNL     1       3.412  -3.024   2.167  1.00  0.00     0.010 A 
ATOM     12  C   UNL     1       4.631  -2.583   2.698  1.00  0.00    -0.014 A 
BRANCH  12  13
ATOM     13  C   UNL     1       5.458  -3.410   3.617  1.00  0.00     0.031 A 
ATOM     14  C   UNL     1       6.114  -4.684   3.160  1.00  0.00     0.074 A 
ATOM     15  C   UNL     1       5.686  -2.942   4.862  1.00  0.00     0.049 A 
ATOM     16  N   UNL     1       6.960  -5.446   3.808  1.00  0.00    -0.248 NA
ATOM     17  C   UNL     1       5.780  -5.174   1.813  1.00  0.00     0.031 C 
ATOM     18  C   UNL     1       5.084  -1.730   5.429  1.00  0.00     0.029 A 
ATOM     19  N   UNL     1       6.517  -3.391   5.855  1.00  0.00    -0.354 N 
ATOM     20  C   UNL     1       7.248  -6.509   2.959  1.00  0.00     0.074 A 
ATOM     21  C   UNL     1       6.468  -6.308   1.757  1.00  0.00     0.031 C 
ATOM     22  C   UNL     1       5.625  -1.489   6.630  1.00  0.00     0.029 A 
ATOM     23  C   UNL     1       6.562  -2.559   6.949  1.00  0.00     0.049 A 
ATOM     24  H   UNL     1       7.032  -4.228   5.791  1.00  0.00     0.167 HD
ATOM     25  C   UNL     1       8.091  -7.551   3.161  1.00  0.00     0.031 A 
ATOM     26  C   UNL     1       7.273  -2.642   8.089  1.00  0.00     0.031 A 
ATOM     27  C   UNL     1       8.865  -7.749   4.360  1.00  0.00     0.049 A 
ATOM     28  C   UNL     1       8.211  -3.797   8.276  1.00  0.00     0.074 A 
ATOM     29  C   UNL     1       9.747  -8.776   4.657  1.00  0.00     0.029 A 
ATOM     30  N   UNL     1       8.858  -6.902   5.457  1.00  0.00    -0.354 N 
ATOM     31  N   UNL     1       8.474  -4.782   7.452  1.00  0.00    -0.248 NA
ATOM     32  C   UNL     1       8.946  -3.851   9.546  1.00  0.00     0.031 C 
ATOM     33  C   UNL     1      10.245  -8.567   5.948  1.00  0.00     0.029 A 
ATOM     34  C   UNL     1       9.710  -7.387   6.437  1.00  0.00     0.049 A 
ATOM     35  H   UNL     1       8.325  -6.077   5.530  1.00  0.00     0.167 HD
ATOM     36  C   UNL     1       9.403  -5.580   8.107  1.00  0.00     0.074 A 
ATOM     37  C   UNL     1       9.685  -4.939   9.377  1.00  0.00     0.031 C 
ATOM     38  C   UNL     1       9.962  -6.746   7.702  1.00  0.00     0.031 A 
BRANCH  25  39
ATOM     39  C   UNL     1       8.212  -8.575   2.062  1.00  0.00    -0.014 A 
ATOM     40  C   UNL     1       8.924  -8.290   0.883  1.00  0.00     0.010 A 
ATOM     41  C   UNL     1       7.663  -9.858   2.237  1.00  0.00     0.010 A 
ATOM     42  C   UNL     1       9.061  -9.261  -0.113  1.00  0.00     0.020 A 
ATOM     43  C   UNL     1       7.816 -10.839   1.252  1.00  0.00     0.020 A 
ATOM     44  C   UNL     1       8.504 -10.529   0.077  1.00  0.00     0.054 A 
BRANCH  44  45
ATOM     45  S   UNL     1       8.726 -11.783  -1.217  1.00  0.00     0.124 S 
ATOM     46  O   UNL     1       7.791 -11.325  -2.241  1.00  0.00    -0.237 OA
ATOM     47  O   UNL     1      10.142 -11.649  -1.553  1.00  0.00    -0.237 OA
ATOM     48  O   UNL     1       8.362 -13.033  -0.554  1.00  0.00    -0.744 OA
ENDBRANCH  44  45
ENDBRANCH  25  39
BRANCH  26  49
ATOM     49  C   UNL     1       7.100  -1.607   9.142  1.00  0.00    -0.014 A 
ATOM     50  C   UNL     1       8.123  -0.685   9.425  1.00  0.00     0.010 A 
ATOM     51  C   UNL     1       5.888  -1.526   9.851  1.00  0.00     0.010 A 
ATOM     52  C   UNL     1       7.940   0.291  10.409  1.00  0.00     0.020 A 
ATOM     53  C   UNL     1       5.691  -0.534  10.814  1.00  0.00     0.020 A 
ATOM     54  C   UNL     1       6.724   0.360  11.097  1.00  0.00     0.054 A 
BRANCH  54  55
ATOM     55  S   UNL     1       6.479   1.667  12.331  1.00  0.00     0.124 S 
ATOM     56  O   UNL     1       7.176   1.121  13.490  1.00  0.00    -0.237 OA
ATOM     57  O   UNL     1       7.108   2.825  11.700  1.00  0.00    -0.237 OA
ATOM     58  O   UNL     1       5.025   1.749  12.452  1.00  0.00    -0.744 OA
ENDBRANCH  54  55
ENDBRANCH  26  49
BRANCH  38  59
ATOM     59  C   UNL     1      10.933  -7.394   8.649  1.00  0.00    -0.014 A 
ATOM     60  C   UNL     1      10.482  -8.027   9.821  1.00  0.00     0.010 A 
ATOM     61  C   UNL     1      12.309  -7.372   8.363  1.00  0.00     0.010 A 
ATOM     62  C   UNL     1      11.397  -8.585  10.717  1.00  0.00     0.020 A 
ATOM     63  C   UNL     1      13.225  -7.951   9.245  1.00  0.00     0.020 A 
ATOM     64  C   UNL     1      12.764  -8.534  10.428  1.00  0.00     0.054 A 
BRANCH  64  65
ATOM     65  S   UNL     1      13.935  -9.268  11.601  1.00  0.00     0.124 S 
ATOM     66  O   UNL     1      14.000  -8.245  12.642  1.00  0.00    -0.237 OA
ATOM     67  O   UNL     1      13.274 -10.513  11.984  1.00  0.00    -0.237 OA
ATOM     68  O   UNL     1      15.154  -9.435  10.813  1.00  0.00    -0.744 OA
ENDBRANCH  64  65
ENDBRANCH  38  59
ENDBRANCH  12  13
ENDBRANCH   5   7
ENDBRANCH   2   3
ENDBRANCH   1   2
BRANCH   1  69
ATOM     69  C   UNL     1       4.138   1.243  -3.656  1.00  0.00     0.118 C 
BRANCH  69  70
ATOM     70  N   UNL     1       4.660   2.605  -3.689  1.00  0.00    -0.352 N 
ATOM     71  C   UNL     1       5.566   3.204  -4.527  1.00  0.00     0.251 C 
ATOM     72  H   UNL     1       4.300   3.196  -2.990  1.00  0.00     0.163 HD
ATOM     73  O   UNL     1       6.005   4.318  -4.258  1.00  0.00    -0.269 OA
BRANCH  71  74
ATOM     74  C   UNL     1       6.049   2.517  -5.745  1.00  0.00     0.042 A 
ATOM     75  C   UNL     1       5.174   1.838  -6.596  1.00  0.00     0.015 A 
ATOM     76  C   UNL     1       7.408   2.599  -6.068  1.00  0.00     0.054 A 
ATOM     77  C   UNL     1       5.679   1.099  -7.665  1.00  0.00     0.026 A 
ATOM     78  C   UNL     1       7.897   1.916  -7.179  1.00  0.00     0.144 A 
ATOM     79  C   UNL     1       7.053   1.115  -7.935  1.00  0.00     0.118 A 
ATOM     80  F   UNL     1       9.197   2.038  -7.477  1.00  0.00    -0.205 F 
BRANCH  79  81
ATOM     81  S   UNL     1       7.647   0.075  -9.227  1.00  0.00     0.243 S 
ATOM     82  O   UNL     1       6.891  -1.154  -9.145  1.00  0.00    -0.207 OA
ATOM     83  O   UNL     1       7.628   0.880 -10.431  1.00  0.00    -0.207 OA
BRANCH  81  84
ATOM     84  N   UNL     1       9.256  -0.278  -8.941  1.00  0.00    -0.205 NA
ATOM     85  H   UNL     1       9.763   0.595  -9.088  1.00  0.00     0.141 HD
BRANCH  84  86
ATOM     86  C   UNL     1       9.750  -0.817  -7.684  1.00  0.00     0.154 C 
BRANCH  86  87
ATOM     87  C   UNL     1       9.377  -2.226  -7.491  1.00  0.00     0.050 A 
ATOM     88  C   UNL     1       8.442  -2.825  -6.674  1.00  0.00     0.046 A 
ATOM     89  N   UNL     1      10.027  -3.254  -8.117  1.00  0.00    -0.281 N 
ATOM     90  C   UNL     1       8.638  -4.206  -6.853  1.00  0.00     0.135 A 
ATOM     91  N   UNL     1       9.614  -4.468  -7.724  1.00  0.00    -0.184 NA
ATOM     92  H   UNL     1      10.730  -3.116  -8.792  1.00  0.00     0.190 HD
ENDBRANCH  86  87
ENDBRANCH  84  86
ENDBRANCH  81  84
ENDBRANCH  79  81
ENDBRANCH  71  74
ENDBRANCH  69  70
ENDBRANCH   1  69
TORSDOF 17
