REMARK SMILES O=C(NCCCNC(=O)c1ncoc1-c1cc(F)cc(F)c1)c1ccc(-c2c3nc(c(-c4ccc(S(=O)(=O)[O-])cc4)c4ccc([nH]4)c(-c4ccc(S(=O)(=O)[O-])cc4)c4nc(c(-c5ccc(S(=O)(=O)[O-])cc5)c5ccc2[nH]5)C=C4)C=C3)cc1
REMARK SMILES IDX 4 1 3 2 1 3 2 4 23 6 24 7 82 8 25 9 81 10 26 11 27 12 28 13
REMARK SMILES IDX 75 14 29 15 80 16 74 17 76 18 30 19 79 20 73 21 72 22 31 24
REMARK SMILES IDX 61 25 42 26 60 27 43 28 46 29 59 30 77 31 44 32 45 33 58 35
REMARK SMILES IDX 78 36 47 37 32 38 33 39 41 40 34 41 40 42 35 43 36 44 37 45
REMARK SMILES IDX 38 46 39 47 62 48 63 49 71 50 64 51 70 52 65 53 66 54 67 55
REMARK SMILES IDX 68 56 69 57 48 58 49 59 57 60 50 61 56 62 51 63 52 64 53 65
REMARK SMILES IDX 54 66 55 67 5 68 6 69 7 70 8 71 9 73 10 74 11 75 14 76 12 77
REMARK SMILES IDX 13 78 15 79 16 80 22 81 17 82 20 83 18 84 19 85 21 86
REMARK H PARENT 3 5 76 23 46 34 7 72
REMARK Flexibility Score: inf
ROOT
ATOM      1  C   UNL     1       4.446  -1.274  -0.897  1.00  0.00     0.118 C 
ENDROOT
BRANCH   1   2
ATOM      2  N   UNL     1       3.054  -0.847  -0.880  1.00  0.00    -0.352 N 
ATOM      3  O   UNL     1       1.163   0.098  -0.124  1.00  0.00    -0.269 OA
ATOM      4  C   UNL     1       2.386   0.009  -0.037  1.00  0.00     0.251 C 
ATOM      5  H   UNL     1       2.497  -1.236  -1.593  1.00  0.00     0.163 HD
BRANCH   4   6
ATOM      6  C   UNL     1       3.111   0.800   0.984  1.00  0.00     0.039 A 
ATOM      7  C   UNL     1       4.320   1.433   0.692  1.00  0.00     0.014 A 
ATOM      8  C   UNL     1       2.542   0.944   2.255  1.00  0.00     0.014 A 
ATOM      9  C   UNL     1       5.032   2.071   1.706  1.00  0.00     0.010 A 
ATOM     10  C   UNL     1       3.222   1.653   3.252  1.00  0.00     0.010 A 
ATOM     11  C   UNL     1       4.495   2.184   2.999  1.00  0.00    -0.014 A 
BRANCH  11  12
ATOM     12  C   UNL     1       5.281   2.871   4.058  1.00  0.00     0.031 A 
ATOM     13  C   UNL     1       5.805   2.112   5.250  1.00  0.00     0.074 A 
ATOM     14  C   UNL     1       5.571   4.180   3.918  1.00  0.00     0.049 A 
ATOM     15  N   UNL     1       6.585   2.534   6.214  1.00  0.00    -0.248 NA
ATOM     16  C   UNL     1       5.399   0.705   5.383  1.00  0.00     0.031 C 
ATOM     17  C   UNL     1       5.108   5.034   2.821  1.00  0.00     0.029 A 
ATOM     18  N   UNL     1       6.349   5.012   4.681  1.00  0.00    -0.354 N 
ATOM     19  C   UNL     1       6.741   1.457   7.079  1.00  0.00     0.074 A 
ATOM     20  C   UNL     1       5.960   0.366   6.536  1.00  0.00     0.031 C 
ATOM     21  C   UNL     1       5.662   6.250   2.948  1.00  0.00     0.029 A 
ATOM     22  C   UNL     1       6.483   6.275   4.154  1.00  0.00     0.049 A 
ATOM     23  H   UNL     1       6.772   4.733   5.526  1.00  0.00     0.167 HD
ATOM     24  C   UNL     1       7.473   1.377   8.217  1.00  0.00     0.031 A 
ATOM     25  C   UNL     1       7.195   7.334   4.582  1.00  0.00     0.031 A 
ATOM     26  C   UNL     1       8.267   2.452   8.751  1.00  0.00     0.049 A 
ATOM     27  C   UNL     1       8.019   7.213   5.831  1.00  0.00     0.074 A 
ATOM     28  C   UNL     1       9.071   2.452   9.878  1.00  0.00     0.029 A 
ATOM     29  N   UNL     1       8.360   3.719   8.195  1.00  0.00    -0.354 N 
ATOM     30  N   UNL     1       8.181   6.172   6.611  1.00  0.00    -0.248 NA
ATOM     31  C   UNL     1       8.761   8.409   6.252  1.00  0.00     0.031 C 
ATOM     32  C   UNL     1       9.627   3.729  10.021  1.00  0.00     0.029 A 
ATOM     33  C   UNL     1       9.197   4.512   8.962  1.00  0.00     0.049 A 
ATOM     34  H   UNL     1       7.899   4.011   7.376  1.00  0.00     0.167 HD
ATOM     35  C   UNL     1       9.054   6.584   7.610  1.00  0.00     0.074 A 
ATOM     36  C   UNL     1       9.400   7.962   7.325  1.00  0.00     0.031 C 
ATOM     37  C   UNL     1       9.527   5.882   8.669  1.00  0.00     0.031 A 
BRANCH  24  38
ATOM     38  C   UNL     1       7.431   0.079   8.977  1.00  0.00    -0.014 A 
ATOM     39  C   UNL     1       8.128  -1.054   8.520  1.00  0.00     0.010 A 
ATOM     40  C   UNL     1       6.708   0.001  10.181  1.00  0.00     0.010 A 
ATOM     41  C   UNL     1       8.069  -2.254   9.234  1.00  0.00     0.020 A 
ATOM     42  C   UNL     1       6.664  -1.193  10.908  1.00  0.00     0.020 A 
ATOM     43  C   UNL     1       7.330  -2.319  10.419  1.00  0.00     0.054 A 
BRANCH  43  44
ATOM     44  S   UNL     1       7.272  -3.885  11.332  1.00  0.00     0.124 S 
ATOM     45  O   UNL     1       6.299  -4.649  10.555  1.00  0.00    -0.237 OA
ATOM     46  O   UNL     1       8.651  -4.360  11.250  1.00  0.00    -0.237 OA
ATOM     47  O   UNL     1       6.832  -3.490  12.668  1.00  0.00    -0.744 OA
ENDBRANCH  43  44
ENDBRANCH  24  38
BRANCH  25  48
ATOM     48  C   UNL     1       7.175   8.597   3.799  1.00  0.00    -0.014 A 
ATOM     49  C   UNL     1       8.290   8.975   3.030  1.00  0.00     0.010 A 
ATOM     50  C   UNL     1       6.027   9.409   3.792  1.00  0.00     0.010 A 
ATOM     51  C   UNL     1       8.260  10.148   2.272  1.00  0.00     0.020 A 
ATOM     52  C   UNL     1       5.986  10.571   3.017  1.00  0.00     0.020 A 
ATOM     53  C   UNL     1       7.107  10.938   2.269  1.00  0.00     0.054 A 
BRANCH  53  54
ATOM     54  S   UNL     1       7.056  12.420   1.223  1.00  0.00     0.124 S 
ATOM     55  O   UNL     1       7.776  13.391   2.040  1.00  0.00    -0.237 OA
ATOM     56  O   UNL     1       7.742  11.980   0.010  1.00  0.00    -0.237 OA
ATOM     57  O   UNL     1       5.626  12.671   1.063  1.00  0.00    -0.744 OA
ENDBRANCH  53  54
ENDBRANCH  25  48
BRANCH  37  58
ATOM     58  C   UNL     1      10.486   6.591   9.584  1.00  0.00    -0.014 A 
ATOM     59  C   UNL     1      10.031   7.553  10.503  1.00  0.00     0.010 A 
ATOM     60  C   UNL     1      11.854   6.273   9.540  1.00  0.00     0.010 A 
ATOM     61  C   UNL     1      10.937   8.212  11.339  1.00  0.00     0.020 A 
ATOM     62  C   UNL     1      12.760   6.916  10.387  1.00  0.00     0.020 A 
ATOM     63  C   UNL     1      12.297   7.895  11.270  1.00  0.00     0.054 A 
BRANCH  63  64
ATOM     64  S   UNL     1      13.456   8.743  12.378  1.00  0.00     0.124 S 
ATOM     65  O   UNL     1      13.657  10.015  11.689  1.00  0.00    -0.237 OA
ATOM     66  O   UNL     1      12.712   8.819  13.633  1.00  0.00    -0.237 OA
ATOM     67  O   UNL     1      14.617   7.856  12.403  1.00  0.00    -0.744 OA
ENDBRANCH  63  64
ENDBRANCH  37  58
ENDBRANCH  11  12
ENDBRANCH   4   6
ENDBRANCH   1   2
BRANCH   1  68
ATOM     68  C   UNL     1       4.615  -2.779  -0.690  1.00  0.00     0.042 C 
BRANCH  68  69
ATOM     69  C   UNL     1       3.971  -3.641  -1.773  1.00  0.00     0.118 C 
BRANCH  69  70
ATOM     70  N   UNL     1       4.522  -3.360  -3.087  1.00  0.00    -0.351 N 
ATOM     71  C   UNL     1       5.566  -3.952  -3.751  1.00  0.00     0.273 C 
ATOM     72  H   UNL     1       4.077  -2.631  -3.577  1.00  0.00     0.163 HD
ATOM     73  O   UNL     1       6.001  -3.380  -4.755  1.00  0.00    -0.267 OA
BRANCH  71  74
ATOM     74  C   UNL     1       6.127  -5.212  -3.282  1.00  0.00     0.174 A 
ATOM     75  N   UNL     1       5.428  -6.208  -2.614  1.00  0.00    -0.211 NA
ATOM     76  C   UNL     1       7.415  -5.658  -3.525  1.00  0.00     0.167 A 
ATOM     77  C   UNL     1       6.301  -7.181  -2.496  1.00  0.00     0.309 A 
ATOM     78  O   UNL     1       7.524  -6.930  -3.031  1.00  0.00    -0.443 OA
BRANCH  76  79
ATOM     79  C   UNL     1       8.613  -5.104  -4.124  1.00  0.00     0.026 A 
ATOM     80  C   UNL     1       9.141  -3.894  -3.657  1.00  0.00     0.051 A 
ATOM     81  C   UNL     1       9.255  -5.766  -5.177  1.00  0.00     0.051 A 
ATOM     82  C   UNL     1      10.288  -3.366  -4.243  1.00  0.00     0.126 A 
ATOM     83  C   UNL     1      10.395  -5.210  -5.753  1.00  0.00     0.126 A 
ATOM     84  F   UNL     1      10.790  -2.213  -3.781  1.00  0.00    -0.207 F 
ATOM     85  C   UNL     1      10.922  -4.012  -5.294  1.00  0.00     0.078 A 
ATOM     86  F   UNL     1      10.992  -5.844  -6.771  1.00  0.00    -0.207 F 
ENDBRANCH  76  79
ENDBRANCH  71  74
ENDBRANCH  69  70
ENDBRANCH  68  69
ENDBRANCH   1  68
TORSDOF 14
