REMARK SMILES CC[C@@H](NC(=O)N1CCO[C@H](CC(=O)NCCCNC(=O)c2ccc(-c3c4nc(c(-c5ccc(S(=O)(=O)[O-])cc5)c5ccc([nH]5)c(-c5ccc(S(=O)(=O)[O-])cc5)c5nc(c(-c6ccc(S(=O)(=O)[O-])cc6)c6ccc3[nH]6)C=C5)C=C4)cc2)C1)c1cccs1
REMARK SMILES IDX 16 1 15 2 13 3 14 4 12 6 11 7 7 8 8 9 82 10 9 11 10 12 5 13
REMARK SMILES IDX 4 14 6 16 3 17 2 18 1 19 83 20 84 21 87 22 85 23 86 24 17 25
REMARK SMILES IDX 18 26 19 27 20 28 21 30 22 31 23 32 81 33 24 34 80 35 25 36
REMARK SMILES IDX 26 37 27 38 74 39 28 40 79 41 73 42 75 43 29 44 78 45 72 46
REMARK SMILES IDX 71 47 30 49 60 50 41 51 59 52 42 53 45 54 58 55 76 56 43 57
REMARK SMILES IDX 44 58 57 60 77 61 46 62 31 63 32 64 40 65 33 66 39 67 34 68
REMARK SMILES IDX 35 69 36 70 37 71 38 72 61 73 62 74 70 75 63 76 69 77 64 78
REMARK SMILES IDX 65 79 66 80 67 81 68 82 47 83 48 84 56 85 49 86 55 87 50 88
REMARK SMILES IDX 51 89 52 90 53 91 54 92
REMARK H PARENT 15 5 4 15 19 29 75 48 45 59
REMARK Flexibility Score: inf
ROOT
ATOM      1  C   UNL     1      -5.314   0.383   3.714  1.00  0.00     0.117 C 
ENDROOT
BRANCH   1   2
ATOM      2  N   UNL     1      -4.186   0.172   2.827  1.00  0.00    -0.356 N 
ATOM      3  C   UNL     1      -3.325  -0.875   2.707  1.00  0.00     0.222 C 
ATOM      4  O   UNL     1      -2.631  -0.917   1.690  1.00  0.00    -0.275 OA
ATOM      5  H   UNL     1      -4.013   0.915   2.204  1.00  0.00     0.163 HD
BRANCH   3   6
ATOM      6  C   UNL     1      -3.232  -1.959   3.765  1.00  0.00     0.133 C 
BRANCH   6   7
ATOM      7  C   UNL     1      -2.880  -1.441   5.165  1.00  0.00     0.147 C 
ATOM      8  N   UNL     1      -0.602  -0.686   4.691  1.00  0.00    -0.320 N 
ATOM      9  C   UNL     1      -0.033  -1.684   5.591  1.00  0.00     0.150 C 
ATOM     10  C   UNL     1      -1.910  -0.257   5.160  1.00  0.00     0.154 C 
ATOM     11  C   UNL     1      -1.026  -2.828   5.914  1.00  0.00     0.182 C 
ATOM     12  O   UNL     1      -2.404  -2.455   6.070  1.00  0.00    -0.374 OA
BRANCH   8  13
ATOM     13  C   UNL     1       0.095   0.179   3.901  1.00  0.00     0.318 C 
ATOM     14  N   UNL     1       1.222  -0.167   3.249  1.00  0.00    -0.330 N 
ATOM     15  H   UNL     1       2.016   0.329   3.555  1.00  0.00     0.166 HD
ATOM     16  O   UNL     1      -0.225   1.370   3.822  1.00  0.00    -0.249 OA
BRANCH  14  17
ATOM     17  C   UNL     1       1.515  -1.131   2.175  1.00  0.00     0.124 C 
BRANCH  17  18
ATOM     18  C   UNL     1       0.700  -1.012   0.876  1.00  0.00     0.027 C 
ATOM     19  C   UNL     1       0.973   0.272   0.103  1.00  0.00     0.006 C 
ENDBRANCH  17  18
BRANCH  17  20
ATOM     20  C   UNL     1       1.700  -2.553   2.623  1.00  0.00     0.027 A 
ATOM     21  C   UNL     1       2.898  -3.242   2.721  1.00  0.00     0.017 A 
ATOM     22  S   UNL     1       0.394  -3.631   2.858  1.00  0.00    -0.147 S 
ATOM     23  C   UNL     1       2.739  -4.530   3.302  1.00  0.00     0.012 A 
ATOM     24  C   UNL     1       1.417  -4.805   3.566  1.00  0.00     0.065 A 
ENDBRANCH  17  20
ENDBRANCH  14  17
ENDBRANCH   8  13
ENDBRANCH   6   7
ENDBRANCH   3   6
ENDBRANCH   1   2
BRANCH   1  25
ATOM     25  C   UNL     1      -5.037   1.286   4.917  1.00  0.00     0.042 C 
BRANCH  25  26
ATOM     26  C   UNL     1      -4.339   2.601   4.593  1.00  0.00     0.118 C 
BRANCH  26  27
ATOM     27  N   UNL     1      -5.263   3.556   4.010  1.00  0.00    -0.352 N 
ATOM     28  C   UNL     1      -5.920   4.593   4.628  1.00  0.00     0.251 C 
ATOM     29  H   UNL     1      -5.441   3.448   3.048  1.00  0.00     0.163 HD
ATOM     30  O   UNL     1      -6.903   5.096   4.096  1.00  0.00    -0.269 OA
BRANCH  28  31
ATOM     31  C   UNL     1      -5.442   5.093   5.938  1.00  0.00     0.039 A 
ATOM     32  C   UNL     1      -6.368   5.358   6.950  1.00  0.00     0.014 A 
ATOM     33  C   UNL     1      -4.083   5.345   6.149  1.00  0.00     0.014 A 
ATOM     34  C   UNL     1      -5.927   5.841   8.187  1.00  0.00     0.010 A 
ATOM     35  C   UNL     1      -3.639   5.762   7.402  1.00  0.00     0.010 A 
ATOM     36  C   UNL     1      -4.557   6.031   8.429  1.00  0.00    -0.014 A 
BRANCH  36  37
ATOM     37  C   UNL     1      -4.055   6.552   9.728  1.00  0.00     0.031 A 
ATOM     38  C   UNL     1      -3.358   7.887   9.776  1.00  0.00     0.074 A 
ATOM     39  C   UNL     1      -4.160   5.805  10.844  1.00  0.00     0.049 A 
ATOM     40  N   UNL     1      -2.747   8.465  10.778  1.00  0.00    -0.248 NA
ATOM     41  C   UNL     1      -3.324   8.663   8.524  1.00  0.00     0.031 C 
ATOM     42  C   UNL     1      -4.800   4.491  10.929  1.00  0.00     0.029 A 
ATOM     43  N   UNL     1      -3.716   6.040  12.123  1.00  0.00    -0.354 N 
ATOM     44  C   UNL     1      -2.237   9.657  10.273  1.00  0.00     0.074 A 
ATOM     45  C   UNL     1      -2.572   9.698   8.867  1.00  0.00     0.031 C 
ATOM     46  C   UNL     1      -4.719   4.043  12.193  1.00  0.00     0.029 A 
ATOM     47  C   UNL     1      -3.983   5.014  12.998  1.00  0.00     0.049 A 
ATOM     48  H   UNL     1      -3.251   6.866  12.387  1.00  0.00     0.167 HD
ATOM     49  C   UNL     1      -1.565  10.637  10.924  1.00  0.00     0.031 A 
ATOM     50  C   UNL     1      -3.658   4.862  14.298  1.00  0.00     0.031 A 
ATOM     51  C   UNL     1      -1.245  10.598  12.326  1.00  0.00     0.049 A 
ATOM     52  C   UNL     1      -2.884   5.950  14.993  1.00  0.00     0.074 A 
ATOM     53  C   UNL     1      -0.605  11.558  13.089  1.00  0.00     0.029 A 
ATOM     54  N   UNL     1      -1.542   9.543  13.176  1.00  0.00    -0.354 N 
ATOM     55  N   UNL     1      -2.449   7.089  14.510  1.00  0.00    -0.248 NA
ATOM     56  C   UNL     1      -2.563   5.736  16.412  1.00  0.00     0.031 C 
ATOM     57  C   UNL     1      -0.471  11.064  14.390  1.00  0.00     0.029 A 
ATOM     58  C   UNL     1      -1.083   9.822  14.452  1.00  0.00     0.049 A 
ATOM     59  H   UNL     1      -2.011   8.719  12.912  1.00  0.00     0.167 HD
ATOM     60  C   UNL     1      -1.835   7.743  15.574  1.00  0.00     0.074 A 
ATOM     61  C   UNL     1      -1.959   6.875  16.727  1.00  0.00     0.031 C 
ATOM     62  C   UNL     1      -1.229   8.955  15.594  1.00  0.00     0.031 A 
BRANCH  49  63
ATOM     63  C   UNL     1      -1.125  11.834  10.122  1.00  0.00    -0.014 A 
ATOM     64  C   UNL     1      -2.060  12.760   9.626  1.00  0.00     0.010 A 
ATOM     65  C   UNL     1       0.245  12.059   9.896  1.00  0.00     0.010 A 
ATOM     66  C   UNL     1      -1.638  13.864   8.881  1.00  0.00     0.020 A 
ATOM     67  C   UNL     1       0.675  13.179   9.177  1.00  0.00     0.020 A 
ATOM     68  C   UNL     1      -0.272  14.065   8.658  1.00  0.00     0.054 A 
BRANCH  68  69
ATOM     69  S   UNL     1       0.248  15.518   7.706  1.00  0.00     0.124 S 
ATOM     70  O   UNL     1      -0.152  15.148   6.350  1.00  0.00    -0.237 OA
ATOM     71  O   UNL     1      -0.526  16.596   8.317  1.00  0.00    -0.237 OA
ATOM     72  O   UNL     1       1.690  15.585   7.932  1.00  0.00    -0.744 OA
ENDBRANCH  68  69
ENDBRANCH  49  63
BRANCH  50  73
ATOM     73  C   UNL     1      -4.070   3.633  15.031  1.00  0.00    -0.014 A 
ATOM     74  C   UNL     1      -5.057   3.697  16.030  1.00  0.00     0.010 A 
ATOM     75  C   UNL     1      -3.482   2.391  14.731  1.00  0.00     0.010 A 
ATOM     76  C   UNL     1      -5.433   2.547  16.730  1.00  0.00     0.020 A 
ATOM     77  C   UNL     1      -3.876   1.233  15.409  1.00  0.00     0.020 A 
ATOM     78  C   UNL     1      -4.841   1.321  16.414  1.00  0.00     0.054 A 
BRANCH  78  79
ATOM     79  S   UNL     1      -5.376  -0.166  17.306  1.00  0.00     0.124 S 
ATOM     80  O   UNL     1      -4.767   0.032  18.618  1.00  0.00    -0.237 OA
ATOM     81  O   UNL     1      -6.832  -0.054  17.261  1.00  0.00    -0.237 OA
ATOM     82  O   UNL     1      -4.817  -1.259  16.514  1.00  0.00    -0.744 OA
ENDBRANCH  78  79
ENDBRANCH  50  73
BRANCH  62  83
ATOM     83  C   UNL     1      -0.696   9.452  16.911  1.00  0.00    -0.014 A 
ATOM     84  C   UNL     1       0.477   8.921  17.473  1.00  0.00     0.010 A 
ATOM     85  C   UNL     1      -1.332  10.536  17.545  1.00  0.00     0.010 A 
ATOM     86  C   UNL     1       0.998   9.457  18.654  1.00  0.00     0.020 A 
ATOM     87  C   UNL     1      -0.800  11.091  18.711  1.00  0.00     0.020 A 
ATOM     88  C   UNL     1       0.359  10.543  19.262  1.00  0.00     0.054 A 
BRANCH  88  89
ATOM     89  S   UNL     1       1.099  11.271  20.750  1.00  0.00     0.124 S 
ATOM     90  O   UNL     1       0.807  10.260  21.762  1.00  0.00    -0.237 OA
ATOM     91  O   UNL     1       2.506  11.399  20.377  1.00  0.00    -0.237 OA
ATOM     92  O   UNL     1       0.386  12.537  20.909  1.00  0.00    -0.744 OA
ENDBRANCH  88  89
ENDBRANCH  62  83
ENDBRANCH  36  37
ENDBRANCH  28  31
ENDBRANCH  26  27
ENDBRANCH  25  26
ENDBRANCH   1  25
TORSDOF 18
