REMARK SMILES O=C(NCCCNC(=O)c1ccc(Cl)nc1NC[C@@H]1C[N@@H+]2CCC[C@@H]2CO1)c1ccc(-c2c3nc(c(-c4ccc(S(=O)(=O)[O-])cc4)c4ccc([nH]4)c(-c4ccc(S(=O)(=O)[O-])cc4)c4nc(c(-c5ccc(S(=O)(=O)[O-])cc5)c5ccc2[nH]5)C=C4)C=C3)cc1
REMARK SMILES IDX 5 1 4 2 3 3 1 4 2 5 28 7 29 8 87 9 30 10 86 11 31 12 32 13
REMARK SMILES IDX 33 14 80 15 34 16 85 17 79 18 81 19 35 20 84 21 78 22 77 23
REMARK SMILES IDX 36 25 66 26 47 27 65 28 48 29 51 30 64 31 82 32 49 33 50 34
REMARK SMILES IDX 63 36 83 37 52 38 37 39 38 40 46 41 39 42 45 43 40 44 41 45
REMARK SMILES IDX 42 46 43 47 44 48 67 49 68 50 76 51 69 52 75 53 70 54 71 55
REMARK SMILES IDX 72 56 73 57 74 58 53 59 54 60 62 61 55 62 61 63 56 64 57 65
REMARK SMILES IDX 58 66 59 67 60 68 6 69 7 70 8 71 9 73 10 74 11 75 16 76
REMARK SMILES IDX 12 77 15 78 13 79 14 80 17 81 18 83 19 84 20 85 27 86 21 87
REMARK SMILES IDX 26 88 22 89 25 90 23 92 24 93
REMARK H PARENT 3 6 81 24 51 35 7 72 17 82 21 91
REMARK Flexibility Score: inf
ROOT
ATOM      1  C   UNL     1       5.681   9.242   2.538  1.00  0.00     0.042 C 
ENDROOT
BRANCH   1   2
ATOM      2  C   UNL     1       4.734  10.352   2.107  1.00  0.00     0.118 C 
BRANCH   2   3
ATOM      3  N   UNL     1       3.401  10.215   2.683  1.00  0.00    -0.352 N 
ATOM      4  O   UNL     1       1.700  10.564   4.113  1.00  0.00    -0.269 OA
ATOM      5  C   UNL     1       2.757  10.972   3.634  1.00  0.00     0.251 C 
ATOM      6  H   UNL     1       2.877   9.459   2.334  1.00  0.00     0.163 HD
BRANCH   5   7
ATOM      7  C   UNL     1       3.335  12.253   4.095  1.00  0.00     0.039 A 
ATOM      8  C   UNL     1       3.934  13.129   3.190  1.00  0.00     0.014 A 
ATOM      9  C   UNL     1       3.252  12.603   5.447  1.00  0.00     0.014 A 
ATOM     10  C   UNL     1       4.603  14.253   3.654  1.00  0.00     0.010 A 
ATOM     11  C   UNL     1       3.827  13.798   5.897  1.00  0.00     0.010 A 
ATOM     12  C   UNL     1       4.535  14.619   5.008  1.00  0.00    -0.014 A 
BRANCH  12  13
ATOM     13  C   UNL     1       5.145  15.909   5.425  1.00  0.00     0.031 A 
ATOM     14  C   UNL     1       6.294  15.963   6.394  1.00  0.00     0.074 A 
ATOM     15  C   UNL     1       4.685  17.041   4.854  1.00  0.00     0.049 A 
ATOM     16  N   UNL     1       6.980  17.005   6.792  1.00  0.00    -0.248 NA
ATOM     17  C   UNL     1       6.730  14.695   7.001  1.00  0.00     0.031 C 
ATOM     18  C   UNL     1       3.564  17.114   3.910  1.00  0.00     0.029 A 
ATOM     19  N   UNL     1       5.120  18.338   4.946  1.00  0.00    -0.354 N 
ATOM     20  C   UNL     1       7.916  16.526   7.701  1.00  0.00     0.074 A 
ATOM     21  C   UNL     1       7.696  15.100   7.817  1.00  0.00     0.031 C 
ATOM     22  C   UNL     1       3.447  18.370   3.458  1.00  0.00     0.029 A 
ATOM     23  C   UNL     1       4.432  19.206   4.131  1.00  0.00     0.049 A 
ATOM     24  H   UNL     1       5.854  18.620   5.539  1.00  0.00     0.167 HD
ATOM     25  C   UNL     1       8.875  17.211   8.370  1.00  0.00     0.031 A 
ATOM     26  C   UNL     1       4.564  20.533   3.950  1.00  0.00     0.031 A 
ATOM     27  C   UNL     1       9.090  18.631   8.248  1.00  0.00     0.049 A 
ATOM     28  C   UNL     1       5.624  21.265   4.718  1.00  0.00     0.074 A 
ATOM     29  C   UNL     1      10.044  19.414   8.877  1.00  0.00     0.029 A 
ATOM     30  N   UNL     1       8.344  19.482   7.447  1.00  0.00    -0.354 N 
ATOM     31  N   UNL     1       6.511  20.785   5.557  1.00  0.00    -0.248 NA
ATOM     32  C   UNL     1       5.700  22.718   4.517  1.00  0.00     0.031 C 
ATOM     33  C   UNL     1       9.846  20.744   8.489  1.00  0.00     0.029 A 
ATOM     34  C   UNL     1       8.804  20.783   7.579  1.00  0.00     0.049 A 
ATOM     35  H   UNL     1       7.597  19.203   6.869  1.00  0.00     0.167 HD
ATOM     36  C   UNL     1       7.254  21.879   5.983  1.00  0.00     0.074 A 
ATOM     37  C   UNL     1       6.737  23.036   5.280  1.00  0.00     0.031 C 
ATOM     38  C   UNL     1       8.267  21.924   6.882  1.00  0.00     0.031 A 
BRANCH  25  39
ATOM     39  C   UNL     1       9.767  16.442   9.310  1.00  0.00    -0.014 A 
ATOM     40  C   UNL     1      10.778  15.596   8.821  1.00  0.00     0.010 A 
ATOM     41  C   UNL     1       9.648  16.632  10.699  1.00  0.00     0.010 A 
ATOM     42  C   UNL     1      11.640  14.938   9.704  1.00  0.00     0.020 A 
ATOM     43  C   UNL     1      10.522  15.994  11.585  1.00  0.00     0.020 A 
ATOM     44  C   UNL     1      11.507  15.143  11.081  1.00  0.00     0.054 A 
BRANCH  44  45
ATOM     45  S   UNL     1      12.671  14.315  12.200  1.00  0.00     0.124 S 
ATOM     46  O   UNL     1      12.217  12.928  12.134  1.00  0.00    -0.237 OA
ATOM     47  O   UNL     1      13.963  14.582  11.573  1.00  0.00    -0.237 OA
ATOM     48  O   UNL     1      12.455  14.980  13.482  1.00  0.00    -0.744 OA
ENDBRANCH  44  45
ENDBRANCH  25  39
BRANCH  26  49
ATOM     49  C   UNL     1       3.644  21.253   3.030  1.00  0.00    -0.014 A 
ATOM     50  C   UNL     1       4.115  21.821   1.834  1.00  0.00     0.010 A 
ATOM     51  C   UNL     1       2.279  21.368   3.351  1.00  0.00     0.010 A 
ATOM     52  C   UNL     1       3.243  22.515   0.990  1.00  0.00     0.020 A 
ATOM     53  C   UNL     1       1.398  22.032   2.495  1.00  0.00     0.020 A 
ATOM     54  C   UNL     1       1.890  22.618   1.328  1.00  0.00     0.054 A 
BRANCH  54  55
ATOM     55  S   UNL     1       0.766  23.496   0.208  1.00  0.00     0.124 S 
ATOM     56  O   UNL     1       1.073  24.891   0.506  1.00  0.00    -0.237 OA
ATOM     57  O   UNL     1       1.189  23.020  -1.106  1.00  0.00    -0.237 OA
ATOM     58  O   UNL     1      -0.557  23.040   0.630  1.00  0.00    -0.744 OA
ENDBRANCH  54  55
ENDBRANCH  26  49
BRANCH  38  59
ATOM     59  C   UNL     1       8.884  23.271   7.140  1.00  0.00    -0.014 A 
ATOM     60  C   UNL     1       8.190  24.259   7.861  1.00  0.00     0.010 A 
ATOM     61  C   UNL     1      10.177  23.549   6.662  1.00  0.00     0.010 A 
ATOM     62  C   UNL     1       8.758  25.520   8.057  1.00  0.00     0.020 A 
ATOM     63  C   UNL     1      10.760  24.799   6.880  1.00  0.00     0.020 A 
ATOM     64  C   UNL     1      10.038  25.784   7.559  1.00  0.00     0.054 A 
BRANCH  64  65
ATOM     65  S   UNL     1      10.761  27.423   7.834  1.00  0.00     0.124 S 
ATOM     66  O   UNL     1      10.043  28.239   6.859  1.00  0.00    -0.237 OA
ATOM     67  O   UNL     1      10.439  27.687   9.235  1.00  0.00    -0.237 OA
ATOM     68  O   UNL     1      12.182  27.225   7.555  1.00  0.00    -0.744 OA
ENDBRANCH  64  65
ENDBRANCH  38  59
ENDBRANCH  12  13
ENDBRANCH   5   7
ENDBRANCH   2   3
ENDBRANCH   1   2
BRANCH   1  69
ATOM     69  C   UNL     1       5.276   7.861   2.048  1.00  0.00     0.118 C 
BRANCH  69  70
ATOM     70  N   UNL     1       5.273   7.767   0.596  1.00  0.00    -0.352 N 
ATOM     71  C   UNL     1       6.153   7.145  -0.256  1.00  0.00     0.255 C 
ATOM     72  H   UNL     1       4.521   8.222   0.153  1.00  0.00     0.163 HD
ATOM     73  O   UNL     1       6.071   7.355  -1.463  1.00  0.00    -0.269 OA
BRANCH  71  74
ATOM     74  C   UNL     1       7.175   6.212   0.262  1.00  0.00     0.082 A 
ATOM     75  C   UNL     1       6.799   5.198   1.152  1.00  0.00     0.021 A 
ATOM     76  C   UNL     1       8.498   6.264  -0.202  1.00  0.00     0.140 A 
ATOM     77  C   UNL     1       7.764   4.337   1.652  1.00  0.00     0.042 A 
ATOM     78  N   UNL     1       9.438   5.424   0.293  1.00  0.00    -0.219 NA
ATOM     79  C   UNL     1       9.058   4.506   1.202  1.00  0.00     0.131 A 
ATOM     80  Cl  UNL     1      10.325   3.505   1.779  1.00  0.00    -0.062 Cl
BRANCH  76  81
ATOM     81  N   UNL     1       8.897   7.210  -1.126  1.00  0.00    -0.367 N 
ATOM     82  H   UNL     1       8.271   7.927  -1.379  1.00  0.00     0.162 HD
BRANCH  81  83
ATOM     83  C   UNL     1      10.217   7.174  -1.734  1.00  0.00     0.152 C 
BRANCH  83  84
ATOM     84  C   UNL     1      10.091   7.132  -3.277  1.00  0.00     0.192 C 
ATOM     85  C   UNL     1      11.513   7.106  -3.907  1.00  0.00     0.296 C 
ATOM     86  O   UNL     1       9.261   8.232  -3.709  1.00  0.00    -0.364 OA
ATOM     87  N   UNL     1      11.659   7.792  -5.197  1.00  0.00    -0.328 N 
ATOM     88  C   UNL     1      10.033   9.382  -4.041  1.00  0.00     0.225 C 
ATOM     89  C   UNL     1      13.064   8.072  -5.523  1.00  0.00     0.262 C 
ATOM     90  C   UNL     1      10.909   9.068  -5.258  1.00  0.00     0.210 C 
ATOM     91  H   UNL     1      11.269   7.143  -5.880  1.00  0.00     0.348 HD
ATOM     92  C   UNL     1      13.040   9.403  -6.253  1.00  0.00     0.068 C 
ATOM     93  C   UNL     1      11.940  10.155  -5.532  1.00  0.00     0.073 C 
ENDBRANCH  83  84
ENDBRANCH  81  83
ENDBRANCH  76  81
ENDBRANCH  71  74
ENDBRANCH  69  70
ENDBRANCH   1  69
TORSDOF 16
