REMARK SMILES Nc1nc(N2CCOC[C@H]2C(=O)NCCCNC(=O)c2ccc(-c3c4nc(c(-c5ccc(S(=O)(=O)[O-])cc5)c5ccc([nH]5)c(-c5ccc(S(=O)(=O)[O-])cc5)c5nc(c(-c6ccc(S(=O)(=O)[O-])cc6)c6ccc3[nH]6)C=C5)C=C4)cc2)ccc1[N+](=O)[O-]
REMARK SMILES IDX 15 1 14 2 13 3 11 4 12 5 10 7 5 8 6 9 7 10 9 11 8 12 4 13
REMARK SMILES IDX 2 14 3 15 82 16 81 17 80 18 1 19 83 22 84 23 85 24 16 25
REMARK SMILES IDX 17 26 18 27 19 29 20 30 21 31 79 32 22 33 78 34 23 35 24 36
REMARK SMILES IDX 25 37 72 38 26 39 77 40 71 41 73 42 27 43 76 44 70 45 69 46
REMARK SMILES IDX 28 48 58 49 39 50 57 51 40 52 43 53 56 54 74 55 41 56 42 57
REMARK SMILES IDX 55 59 75 60 44 61 29 62 30 63 38 64 31 65 37 66 32 67 33 68
REMARK SMILES IDX 34 69 35 70 36 71 59 72 60 73 68 74 61 75 67 76 62 77 63 78
REMARK SMILES IDX 64 79 65 80 66 81 45 82 46 83 54 84 47 85 53 86 48 87 49 88
REMARK SMILES IDX 50 89 51 90 52 91
REMARK H PARENT 13 6 1 20 1 21 17 28 73 47 43 58
REMARK Flexibility Score: inf
ROOT
ATOM      1  C   UNL     1      -2.265   4.371   3.364  1.00  0.00     0.042 C 
ENDROOT
BRANCH   1   2
ATOM      2  C   UNL     1      -2.229   5.188   2.078  1.00  0.00     0.117 C 
BRANCH   2   3
ATOM      3  N   UNL     1      -0.985   5.011   1.358  1.00  0.00    -0.354 N 
ATOM      4  C   UNL     1      -0.645   4.265   0.271  1.00  0.00     0.245 C 
ATOM      5  O   UNL     1       0.529   4.409  -0.105  1.00  0.00    -0.273 OA
ATOM      6  H   UNL     1      -0.237   5.534   1.728  1.00  0.00     0.163 HD
BRANCH   4   7
ATOM      7  C   UNL     1      -1.609   3.368  -0.544  1.00  0.00     0.199 C 
ATOM      8  N   UNL     1      -2.060   2.111   0.100  1.00  0.00    -0.340 N 
ATOM      9  C   UNL     1      -3.337   2.118   0.802  1.00  0.00     0.147 C 
ATOM     10  C   UNL     1      -4.406   2.809  -0.044  1.00  0.00     0.181 C 
ATOM     11  C   UNL     1      -2.792   4.134  -1.178  1.00  0.00     0.195 C 
ATOM     12  O   UNL     1      -4.011   4.135  -0.416  1.00  0.00    -0.377 OA
BRANCH   8  13
ATOM     13  C   UNL     1      -1.282   0.977   0.003  1.00  0.00     0.132 A 
ATOM     14  C   UNL     1       0.858   0.007  -0.088  1.00  0.00     0.204 A 
ATOM     15  N   UNL     1       0.061   1.106  -0.058  1.00  0.00    -0.207 NA
ATOM     16  C   UNL     1       0.322  -1.276  -0.108  1.00  0.00     0.311 A 
ATOM     17  C   UNL     1      -1.062  -1.428  -0.117  1.00  0.00     0.093 A 
ATOM     18  C   UNL     1      -1.860  -0.290  -0.065  1.00  0.00     0.054 A 
BRANCH  14  19
ATOM     19  N   UNL     1       2.205   0.294  -0.194  1.00  0.00    -0.378 N 
ATOM     20  H   UNL     1       2.513   1.229  -0.172  1.00  0.00     0.158 HD
ATOM     21  H   UNL     1       2.857  -0.437  -0.291  1.00  0.00     0.158 HD
ENDBRANCH  14  19
BRANCH  16  22
ATOM     22  N   UNL     1       1.161  -2.469  -0.100  1.00  0.00     0.066 N 
ATOM     23  O   UNL     1       0.630  -3.540  -0.435  1.00  0.00    -0.258 OA
ATOM     24  O   UNL     1       2.341  -2.365   0.267  1.00  0.00    -0.258 OA
ENDBRANCH  16  22
ENDBRANCH   8  13
ENDBRANCH   4   7
ENDBRANCH   2   3
ENDBRANCH   1   2
BRANCH   1  25
ATOM     25  C   UNL     1      -1.697   5.105   4.569  1.00  0.00     0.118 C 
BRANCH  25  26
ATOM     26  N   UNL     1      -2.589   6.157   5.037  1.00  0.00    -0.352 N 
ATOM     27  C   UNL     1      -3.216   6.334   6.247  1.00  0.00     0.251 C 
ATOM     28  H   UNL     1      -2.774   6.862   4.375  1.00  0.00     0.163 HD
ATOM     29  O   UNL     1      -4.088   7.195   6.336  1.00  0.00    -0.269 OA
BRANCH  27  30
ATOM     30  C   UNL     1      -2.875   5.506   7.431  1.00  0.00     0.039 A 
ATOM     31  C   UNL     1      -3.883   5.219   8.358  1.00  0.00     0.014 A 
ATOM     32  C   UNL     1      -1.574   5.059   7.676  1.00  0.00     0.014 A 
ATOM     33  C   UNL     1      -3.594   4.463   9.497  1.00  0.00     0.010 A 
ATOM     34  C   UNL     1      -1.310   4.218   8.756  1.00  0.00     0.010 A 
ATOM     35  C   UNL     1      -2.308   3.935   9.696  1.00  0.00    -0.014 A 
BRANCH  35  36
ATOM     36  C   UNL     1      -1.994   3.122  10.900  1.00  0.00     0.031 A 
ATOM     37  C   UNL     1      -0.971   3.600  11.899  1.00  0.00     0.074 A 
ATOM     38  C   UNL     1      -2.609   1.936  11.082  1.00  0.00     0.049 A 
ATOM     39  N   UNL     1      -0.588   3.042  13.020  1.00  0.00    -0.248 NA
ATOM     40  C   UNL     1      -0.261   4.852  11.586  1.00  0.00     0.031 C 
ATOM     41  C   UNL     1      -3.567   1.327  10.155  1.00  0.00     0.029 A 
ATOM     42  N   UNL     1      -2.527   1.033  12.112  1.00  0.00    -0.354 N 
ATOM     43  C   UNL     1       0.416   3.859  13.529  1.00  0.00     0.074 A 
ATOM     44  C   UNL     1       0.624   4.920  12.569  1.00  0.00     0.031 C 
ATOM     45  C   UNL     1      -4.015   0.175  10.678  1.00  0.00     0.029 A 
ATOM     46  C   UNL     1      -3.359  -0.051  11.962  1.00  0.00     0.049 A 
ATOM     47  H   UNL     1      -1.929   1.151  12.885  1.00  0.00     0.167 HD
ATOM     48  C   UNL     1       1.089   3.753  14.700  1.00  0.00     0.031 A 
ATOM     49  C   UNL     1      -3.582  -1.103  12.773  1.00  0.00     0.031 A 
ATOM     50  C   UNL     1       0.860   2.712  15.666  1.00  0.00     0.049 A 
ATOM     51  C   UNL     1      -2.870  -1.169  14.096  1.00  0.00     0.074 A 
ATOM     52  C   UNL     1       1.436   2.552  16.914  1.00  0.00     0.029 A 
ATOM     53  N   UNL     1      -0.020   1.655  15.493  1.00  0.00    -0.354 N 
ATOM     54  N   UNL     1      -1.983  -0.342  14.595  1.00  0.00    -0.248 NA
ATOM     55  C   UNL     1      -3.209  -2.296  14.974  1.00  0.00     0.031 C 
ATOM     56  C   UNL     1       0.933   1.375  17.479  1.00  0.00     0.029 A 
ATOM     57  C   UNL     1       0.006   0.831  16.605  1.00  0.00     0.049 A 
ATOM     58  H   UNL     1      -0.580   1.511  14.696  1.00  0.00     0.167 HD
ATOM     59  C   UNL     1      -1.675  -0.835  15.858  1.00  0.00     0.074 A 
ATOM     60  C   UNL     1      -2.486  -2.021  16.051  1.00  0.00     0.031 C 
ATOM     61  C   UNL     1      -0.803  -0.350  16.776  1.00  0.00     0.031 A 
BRANCH  48  62
ATOM     62  C   UNL     1       2.135   4.797  14.998  1.00  0.00    -0.014 A 
ATOM     63  C   UNL     1       1.776   6.129  15.277  1.00  0.00     0.010 A 
ATOM     64  C   UNL     1       3.494   4.438  15.024  1.00  0.00     0.010 A 
ATOM     65  C   UNL     1       2.758   7.091  15.527  1.00  0.00     0.020 A 
ATOM     66  C   UNL     1       4.479   5.391  15.303  1.00  0.00     0.020 A 
ATOM     67  C   UNL     1       4.105   6.717  15.532  1.00  0.00     0.054 A 
BRANCH  67  68
ATOM     68  S   UNL     1       5.359   7.983  15.872  1.00  0.00     0.124 S 
ATOM     69  O   UNL     1       5.379   8.730  14.617  1.00  0.00    -0.237 OA
ATOM     70  O   UNL     1       4.797   8.694  17.017  1.00  0.00    -0.237 OA
ATOM     71  O   UNL     1       6.565   7.208  16.155  1.00  0.00    -0.744 OA
ENDBRANCH  67  68
ENDBRANCH  48  62
BRANCH  49  72
ATOM     72  C   UNL     1      -4.561  -2.151  12.373  1.00  0.00    -0.014 A 
ATOM     73  C   UNL     1      -5.813  -2.240  13.007  1.00  0.00     0.010 A 
ATOM     74  C   UNL     1      -4.258  -3.044  11.329  1.00  0.00     0.010 A 
ATOM     75  C   UNL     1      -6.739  -3.211  12.615  1.00  0.00     0.020 A 
ATOM     76  C   UNL     1      -5.192  -3.999  10.917  1.00  0.00     0.020 A 
ATOM     77  C   UNL     1      -6.423  -4.083  11.569  1.00  0.00     0.054 A 
BRANCH  77  78
ATOM     78  S   UNL     1      -7.666  -5.290  11.029  1.00  0.00     0.124 S 
ATOM     79  O   UNL     1      -7.597  -6.292  12.088  1.00  0.00    -0.237 OA
ATOM     80  O   UNL     1      -8.888  -4.491  10.990  1.00  0.00    -0.237 OA
ATOM     81  O   UNL     1      -7.174  -5.723   9.722  1.00  0.00    -0.744 OA
ENDBRANCH  77  78
ENDBRANCH  49  72
BRANCH  61  82
ATOM     82  C   UNL     1      -0.704  -1.087  18.084  1.00  0.00    -0.014 A 
ATOM     83  C   UNL     1      -0.088  -2.348  18.167  1.00  0.00     0.010 A 
ATOM     84  C   UNL     1      -1.215  -0.493  19.253  1.00  0.00     0.010 A 
ATOM     85  C   UNL     1      -0.029  -3.025  19.387  1.00  0.00     0.020 A 
ATOM     86  C   UNL     1      -1.133  -1.155  20.480  1.00  0.00     0.020 A 
ATOM     87  C   UNL     1      -0.559  -2.426  20.535  1.00  0.00     0.054 A 
BRANCH  87  88
ATOM     88  S   UNL     1      -0.463  -3.318  22.111  1.00  0.00     0.124 S 
ATOM     89  O   UNL     1      -1.523  -4.311  21.963  1.00  0.00    -0.237 OA
ATOM     90  O   UNL     1       0.899  -3.846  22.101  1.00  0.00    -0.237 OA
ATOM     91  O   UNL     1      -0.714  -2.281  23.110  1.00  0.00    -0.744 OA
ENDBRANCH  87  88
ENDBRANCH  61  82
ENDBRANCH  35  36
ENDBRANCH  27  30
ENDBRANCH  25  26
ENDBRANCH   1  25
TORSDOF 16
