REMARK SMILES COc1ccc(C(=O)C[C@H](C)CC(=O)NCCCNC(=O)c2ccc(-c3c4nc(c(-c5ccc(S(=O)(=O)[O-])cc5)c5ccc([nH]5)c(-c5ccc(S(=O)(=O)[O-])cc5)c5nc(c(-c6ccc(S(=O)(=O)[O-])cc6)c6ccc3[nH]6)C=C5)C=C4)cc2)c(OC)c1
REMARK SMILES IDX 16 1 15 2 13 3 14 4 12 6 10 7 11 8 9 9 7 10 8 11 6 12 3 13
REMARK SMILES IDX 4 14 85 15 5 16 82 17 2 18 1 19 83 20 84 21 17 22 18 23
REMARK SMILES IDX 19 24 20 25 21 27 22 28 23 29 81 30 24 31 80 32 25 33 26 34
REMARK SMILES IDX 27 35 74 36 28 37 79 38 73 39 75 40 29 41 78 42 72 43 71 44
REMARK SMILES IDX 30 46 60 47 41 48 59 49 42 50 45 51 58 52 76 53 43 54 44 55
REMARK SMILES IDX 57 57 77 58 46 59 31 60 32 61 40 62 33 63 39 64 34 65 35 66
REMARK SMILES IDX 36 67 37 68 38 69 61 70 62 71 70 72 63 73 69 74 64 75 65 76
REMARK SMILES IDX 66 77 67 78 68 79 47 80 48 81 56 82 49 83 55 84 50 85 51 86
REMARK SMILES IDX 52 87 53 88 54 89
REMARK H PARENT 15 5 19 26 75 45 45 56
REMARK Flexibility Score: inf
ROOT
ATOM      1  C   UNL     1       4.873  -1.323  -8.701  1.00  0.00     0.117 C 
ENDROOT
BRANCH   1   2
ATOM      2  N   UNL     1       4.761   0.049  -9.173  1.00  0.00    -0.356 N 
ATOM      3  C   UNL     1       4.351   1.158  -8.489  1.00  0.00     0.220 C 
ATOM      4  O   UNL     1       3.989   2.150  -9.119  1.00  0.00    -0.275 OA
ATOM      5  H   UNL     1       5.014   0.198 -10.113  1.00  0.00     0.163 HD
BRANCH   3   6
ATOM      6  C   UNL     1       4.509   1.181  -6.988  1.00  0.00     0.103 C 
BRANCH   6   7
ATOM      7  C   UNL     1       3.290   1.059  -6.068  1.00  0.00     0.003 C 
ATOM      8  C   UNL     1       2.397  -0.135  -6.407  1.00  0.00     0.008 C 
BRANCH   7   9
ATOM      9  C   UNL     1       3.736   0.903  -4.595  1.00  0.00     0.085 C 
BRANCH   9  10
ATOM     10  C   UNL     1       4.413   2.120  -3.984  1.00  0.00     0.166 C 
ATOM     11  O   UNL     1       3.763   2.874  -3.254  1.00  0.00    -0.294 OA
BRANCH  10  12
ATOM     12  C   UNL     1       5.834   2.491  -4.299  1.00  0.00     0.060 A 
ATOM     13  C   UNL     1       8.338   3.494  -5.077  1.00  0.00     0.122 A 
ATOM     14  C   UNL     1       7.376   4.362  -4.579  1.00  0.00     0.047 A 
ATOM     15  C   UNL     1       8.091   2.122  -5.115  1.00  0.00     0.093 A 
ATOM     16  C   UNL     1       6.129   3.865  -4.202  1.00  0.00     0.019 A 
ATOM     17  C   UNL     1       6.843   1.605  -4.728  1.00  0.00     0.133 A 
BRANCH  13  18
ATOM     18  O   UNL     1       9.544   4.033  -5.435  1.00  0.00    -0.497 OA
ATOM     19  C   UNL     1       9.912   3.704  -6.775  1.00  0.00     0.278 C 
ENDBRANCH  13  18
BRANCH  17  20
ATOM     20  O   UNL     1       6.590   0.259  -4.713  1.00  0.00    -0.496 OA
ATOM     21  C   UNL     1       7.393  -0.567  -5.557  1.00  0.00     0.278 C 
ENDBRANCH  17  20
ENDBRANCH  10  12
ENDBRANCH   9  10
ENDBRANCH   7   9
ENDBRANCH   6   7
ENDBRANCH   3   6
ENDBRANCH   1   2
BRANCH   1  22
ATOM     22  C   UNL     1       3.593  -2.087  -9.005  1.00  0.00     0.042 C 
BRANCH  22  23
ATOM     23  C   UNL     1       3.389  -2.335 -10.488  1.00  0.00     0.118 C 
BRANCH  23  24
ATOM     24  N   UNL     1       4.214  -3.427 -10.971  1.00  0.00    -0.352 N 
ATOM     25  C   UNL     1       3.823  -4.633 -11.500  1.00  0.00     0.251 C 
ATOM     26  H   UNL     1       5.186  -3.283 -10.912  1.00  0.00     0.163 HD
ATOM     27  O   UNL     1       4.650  -5.528 -11.636  1.00  0.00    -0.269 OA
BRANCH  25  28
ATOM     28  C   UNL     1       2.407  -4.854 -11.877  1.00  0.00     0.039 A 
ATOM     29  C   UNL     1       1.819  -6.090 -11.601  1.00  0.00     0.014 A 
ATOM     30  C   UNL     1       1.660  -3.853 -12.506  1.00  0.00     0.014 A 
ATOM     31  C   UNL     1       0.473  -6.301 -11.909  1.00  0.00     0.010 A 
ATOM     32  C   UNL     1       0.296  -4.028 -12.715  1.00  0.00     0.010 A 
ATOM     33  C   UNL     1      -0.309  -5.262 -12.440  1.00  0.00    -0.014 A 
BRANCH  33  34
ATOM     34  C   UNL     1      -1.751  -5.456 -12.744  1.00  0.00     0.031 A 
ATOM     35  C   UNL     1      -2.247  -5.314 -14.160  1.00  0.00     0.074 A 
ATOM     36  C   UNL     1      -2.619  -5.711 -11.744  1.00  0.00     0.049 A 
ATOM     37  N   UNL     1      -3.470  -5.398 -14.617  1.00  0.00    -0.248 NA
ATOM     38  C   UNL     1      -1.244  -5.012 -15.196  1.00  0.00     0.031 C 
ATOM     39  C   UNL     1      -2.269  -5.831 -10.326  1.00  0.00     0.029 A 
ATOM     40  N   UNL     1      -3.976  -5.913 -11.766  1.00  0.00    -0.354 N 
ATOM     41  C   UNL     1      -3.384  -5.142 -15.981  1.00  0.00     0.074 A 
ATOM     42  C   UNL     1      -2.000  -4.846 -16.270  1.00  0.00     0.031 C 
ATOM     43  C   UNL     1      -3.376  -6.117  -9.622  1.00  0.00     0.029 A 
ATOM     44  C   UNL     1      -4.521  -6.156 -10.526  1.00  0.00     0.049 A 
ATOM     45  H   UNL     1      -4.511  -5.888 -12.593  1.00  0.00     0.167 HD
ATOM     46  C   UNL     1      -4.365  -5.173 -16.914  1.00  0.00     0.031 A 
ATOM     47  C   UNL     1      -5.798  -6.375 -10.157  1.00  0.00     0.031 A 
ATOM     48  C   UNL     1      -5.738  -5.489 -16.626  1.00  0.00     0.049 A 
ATOM     49  C   UNL     1      -6.870  -6.394 -11.213  1.00  0.00     0.074 A 
ATOM     50  C   UNL     1      -6.796  -5.606 -17.510  1.00  0.00     0.029 A 
ATOM     51  N   UNL     1      -6.245  -5.737 -15.359  1.00  0.00    -0.354 N 
ATOM     52  N   UNL     1      -6.755  -6.221 -12.508  1.00  0.00    -0.248 NA
ATOM     53  C   UNL     1      -8.244  -6.651 -10.759  1.00  0.00     0.031 C 
ATOM     54  C   UNL     1      -7.954  -5.867 -16.772  1.00  0.00     0.029 A 
ATOM     55  C   UNL     1      -7.605  -5.980 -15.435  1.00  0.00     0.049 A 
ATOM     56  H   UNL     1      -5.715  -5.739 -14.529  1.00  0.00     0.167 HD
ATOM     57  C   UNL     1      -8.036  -6.378 -13.026  1.00  0.00     0.074 A 
ATOM     58  C   UNL     1      -8.905  -6.679 -11.908  1.00  0.00     0.031 C 
ATOM     59  C   UNL     1      -8.455  -6.284 -14.312  1.00  0.00     0.031 A 
BRANCH  46  60
ATOM     60  C   UNL     1      -3.990  -4.858 -18.340  1.00  0.00    -0.014 A 
ATOM     61  C   UNL     1      -3.201  -5.742 -19.097  1.00  0.00     0.010 A 
ATOM     62  C   UNL     1      -4.487  -3.692 -18.950  1.00  0.00     0.010 A 
ATOM     63  C   UNL     1      -2.889  -5.451 -20.428  1.00  0.00     0.020 A 
ATOM     64  C   UNL     1      -4.202  -3.412 -20.290  1.00  0.00     0.020 A 
ATOM     65  C   UNL     1      -3.394  -4.288 -21.017  1.00  0.00     0.054 A 
BRANCH  65  66
ATOM     66  S   UNL     1      -3.010  -3.961 -22.759  1.00  0.00     0.124 S 
ATOM     67  O   UNL     1      -1.590  -3.623 -22.696  1.00  0.00    -0.237 OA
ATOM     68  O   UNL     1      -3.324  -5.236 -23.399  1.00  0.00    -0.237 OA
ATOM     69  O   UNL     1      -3.898  -2.855 -23.110  1.00  0.00    -0.744 OA
ENDBRANCH  65  66
ENDBRANCH  46  60
BRANCH  47  70
ATOM     70  C   UNL     1      -6.136  -6.599  -8.723  1.00  0.00    -0.014 A 
ATOM     71  C   UNL     1      -6.590  -7.855  -8.281  1.00  0.00     0.010 A 
ATOM     72  C   UNL     1      -6.015  -5.552  -7.792  1.00  0.00     0.010 A 
ATOM     73  C   UNL     1      -6.947  -8.049  -6.943  1.00  0.00     0.020 A 
ATOM     74  C   UNL     1      -6.340  -5.751  -6.447  1.00  0.00     0.020 A 
ATOM     75  C   UNL     1      -6.819  -6.995  -6.034  1.00  0.00     0.054 A 
BRANCH  75  76
ATOM     76  S   UNL     1      -7.261  -7.279  -4.297  1.00  0.00     0.124 S 
ATOM     77  O   UNL     1      -8.717  -7.345  -4.362  1.00  0.00    -0.237 OA
ATOM     78  O   UNL     1      -6.582  -8.537  -4.001  1.00  0.00    -0.237 OA
ATOM     79  O   UNL     1      -6.716  -6.109  -3.611  1.00  0.00    -0.744 OA
ENDBRANCH  75  76
ENDBRANCH  47  70
BRANCH  59  80
ATOM     80  C   UNL     1      -9.911  -6.550 -14.591  1.00  0.00    -0.014 A 
ATOM     81  C   UNL     1     -10.910  -5.643 -14.198  1.00  0.00     0.010 A 
ATOM     82  C   UNL     1     -10.276  -7.703 -15.311  1.00  0.00     0.010 A 
ATOM     83  C   UNL     1     -12.252  -5.900 -14.492  1.00  0.00     0.020 A 
ATOM     84  C   UNL     1     -11.613  -7.947 -15.634  1.00  0.00     0.020 A 
ATOM     85  C   UNL     1     -12.594  -7.051 -15.210  1.00  0.00     0.054 A 
BRANCH  85  86
ATOM     86  S   UNL     1     -14.338  -7.338 -15.617  1.00  0.00     0.124 S 
ATOM     87  O   UNL     1     -14.897  -7.704 -14.319  1.00  0.00    -0.237 OA
ATOM     88  O   UNL     1     -14.761  -6.041 -16.141  1.00  0.00    -0.237 OA
ATOM     89  O   UNL     1     -14.291  -8.416 -16.602  1.00  0.00    -0.744 OA
ENDBRANCH  85  86
ENDBRANCH  59  80
ENDBRANCH  33  34
ENDBRANCH  25  28
ENDBRANCH  23  24
ENDBRANCH  22  23
ENDBRANCH   1  22
TORSDOF 19
