REMARK SMILES C[C@H](NC(=O)[C@]1(C)Sc2ccccc2NC1=O)C(=O)NCCCNC(=O)c1ccc(-c2c3nc(c(-c4ccc(S(=O)(=O)[O-])cc4)c4ccc([nH]4)c(-c4ccc(S(=O)(=O)[O-])cc4)c4nc(c(-c5ccc(S(=O)(=O)[O-])cc5)c5ccc2[nH]5)C=C4)C=C3)cc1
REMARK SMILES IDX 22 1 21 2 20 3 18 4 19 5 2 7 1 8 3 9 4 10 5 12 6 13 8 14
REMARK SMILES IDX 16 15 7 16 9 17 15 18 17 19 10 20 14 21 11 23 13 24 12 25
REMARK SMILES IDX 23 26 24 27 25 28 26 30 27 31 28 32 86 33 29 34 85 35 30 36
REMARK SMILES IDX 31 37 32 38 79 39 33 40 84 41 78 42 80 43 34 44 83 45 77 46
REMARK SMILES IDX 76 47 35 49 65 50 46 51 64 52 47 53 50 54 63 55 81 56 48 57
REMARK SMILES IDX 49 58 62 60 82 61 51 62 36 63 37 64 45 65 38 66 44 67 39 68
REMARK SMILES IDX 40 69 41 70 42 71 43 72 66 73 67 74 75 75 68 76 74 77 69 78
REMARK SMILES IDX 70 79 71 80 72 81 73 82 52 83 53 84 61 85 54 86 60 87 55 88
REMARK SMILES IDX 56 89 57 90 58 91 59 92
REMARK H PARENT 20 6 3 11 15 22 24 29 80 48 50 59
REMARK Flexibility Score: inf
ROOT
ATOM      1  C   UNL     1      -1.628   3.237  -0.587  1.00  0.00     0.042 C 
ENDROOT
BRANCH   1   2
ATOM      2  C   UNL     1      -1.480   1.750  -0.876  1.00  0.00     0.117 C 
BRANCH   2   3
ATOM      3  N   UNL     1      -2.756   0.953  -0.813  1.00  0.00    -0.354 N 
ATOM      4  C   UNL     1      -3.970   0.559  -1.248  1.00  0.00     0.242 C 
ATOM      5  O   UNL     1      -4.325  -0.406  -0.526  1.00  0.00    -0.273 OA
ATOM      6  H   UNL     1      -2.639   0.421   0.007  1.00  0.00     0.163 HD
BRANCH   4   7
ATOM      7  C   UNL     1      -5.017   0.887  -2.454  1.00  0.00     0.168 C 
ATOM      8  C   UNL     1      -4.844  -0.060  -3.657  1.00  0.00     0.041 C 
BRANCH   7   9
ATOM      9  N   UNL     1      -5.993   1.993  -2.802  1.00  0.00    -0.343 N 
ATOM     10  C   UNL     1      -6.105   3.044  -3.679  1.00  0.00     0.246 C 
ATOM     11  H   UNL     1      -6.788   1.943  -2.223  1.00  0.00     0.164 HD
ATOM     12  O   UNL     1      -7.234   3.189  -4.170  1.00  0.00    -0.273 OA
BRANCH  10  13
ATOM     13  C   UNL     1      -5.007   4.080  -3.942  1.00  0.00     0.175 C 
ATOM     14  S   UNL     1      -4.427   4.092  -5.690  1.00  0.00    -0.097 SA
ATOM     15  C   UNL     1      -3.924   3.840  -2.959  1.00  0.00     0.250 C 
ATOM     16  C   UNL     1      -5.579   5.489  -3.660  1.00  0.00     0.045 C 
ATOM     17  C   UNL     1      -3.115   2.898  -5.666  1.00  0.00     0.032 A 
ATOM     18  N   UNL     1      -3.041   2.851  -3.254  1.00  0.00    -0.323 N 
ATOM     19  O   UNL     1      -3.959   4.309  -1.820  1.00  0.00    -0.273 OA
ATOM     20  C   UNL     1      -2.540   2.456  -6.860  1.00  0.00     0.017 A 
ATOM     21  C   UNL     1      -2.646   2.354  -4.483  1.00  0.00     0.054 A 
ATOM     22  H   UNL     1      -2.619   2.422  -2.475  1.00  0.00     0.170 HD
ATOM     23  C   UNL     1      -1.586   1.428  -6.866  1.00  0.00     0.001 A 
ATOM     24  C   UNL     1      -1.736   1.285  -4.488  1.00  0.00     0.027 A 
ATOM     25  C   UNL     1      -1.211   0.813  -5.679  1.00  0.00     0.002 A 
ENDBRANCH  10  13
ENDBRANCH   7   9
ENDBRANCH   4   7
ENDBRANCH   2   3
ENDBRANCH   1   2
BRANCH   1  26
ATOM     26  C   UNL     1      -0.646   3.841   0.391  1.00  0.00     0.118 C 
BRANCH  26  27
ATOM     27  N   UNL     1       0.584   4.362  -0.201  1.00  0.00    -0.352 N 
ATOM     28  C   UNL     1       1.132   5.636  -0.121  1.00  0.00     0.251 C 
ATOM     29  H   UNL     1       1.100   3.716  -0.735  1.00  0.00     0.163 HD
ATOM     30  O   UNL     1       2.142   5.897  -0.764  1.00  0.00    -0.269 OA
BRANCH  28  31
ATOM     31  C   UNL     1       0.485   6.690   0.709  1.00  0.00     0.039 A 
ATOM     32  C   UNL     1      -0.171   6.353   1.886  1.00  0.00     0.014 A 
ATOM     33  C   UNL     1       0.497   8.030   0.303  1.00  0.00     0.014 A 
ATOM     34  C   UNL     1      -1.038   7.254   2.478  1.00  0.00     0.010 A 
ATOM     35  C   UNL     1      -0.215   8.994   1.038  1.00  0.00     0.010 A 
ATOM     36  C   UNL     1      -1.028   8.607   2.114  1.00  0.00    -0.014 A 
BRANCH  36  37
ATOM     37  C   UNL     1      -1.816   9.563   2.946  1.00  0.00     0.031 A 
ATOM     38  C   UNL     1      -2.862  10.464   2.344  1.00  0.00     0.074 A 
ATOM     39  C   UNL     1      -1.632   9.546   4.286  1.00  0.00     0.049 A 
ATOM     40  N   UNL     1      -3.635  11.332   2.948  1.00  0.00    -0.248 NA
ATOM     41  C   UNL     1      -3.066  10.402   0.887  1.00  0.00     0.031 C 
ATOM     42  C   UNL     1      -0.653   8.704   4.986  1.00  0.00     0.029 A 
ATOM     43  N   UNL     1      -2.285  10.191   5.307  1.00  0.00    -0.354 N 
ATOM     44  C   UNL     1      -4.385  11.942   1.948  1.00  0.00     0.074 A 
ATOM     45  C   UNL     1      -3.962  11.362   0.693  1.00  0.00     0.031 C 
ATOM     46  C   UNL     1      -0.863   8.778   6.304  1.00  0.00     0.029 A 
ATOM     47  C   UNL     1      -1.885   9.782   6.561  1.00  0.00     0.049 A 
ATOM     48  H   UNL     1      -2.973  10.879   5.157  1.00  0.00     0.167 HD
ATOM     49  C   UNL     1      -5.343  12.892   2.074  1.00  0.00     0.031 A 
ATOM     50  C   UNL     1      -2.268  10.178   7.791  1.00  0.00     0.031 A 
ATOM     51  C   UNL     1      -5.774  13.431   3.341  1.00  0.00     0.049 A 
ATOM     52  C   UNL     1      -3.309  11.250   7.900  1.00  0.00     0.074 A 
ATOM     53  C   UNL     1      -6.739  14.396   3.575  1.00  0.00     0.029 A 
ATOM     54  N   UNL     1      -5.288  13.045   4.582  1.00  0.00    -0.354 N 
ATOM     55  N   UNL     1      -3.979  11.836   6.937  1.00  0.00    -0.248 NA
ATOM     56  C   UNL     1      -3.637  11.728   9.247  1.00  0.00     0.031 C 
ATOM     57  C   UNL     1      -6.788  14.641   4.948  1.00  0.00     0.029 A 
ATOM     58  C   UNL     1      -5.917  13.769   5.582  1.00  0.00     0.049 A 
ATOM     59  H   UNL     1      -4.599  12.357   4.730  1.00  0.00     0.167 HD
ATOM     60  C   UNL     1      -4.815  12.750   7.561  1.00  0.00     0.074 A 
ATOM     61  C   UNL     1      -4.587  12.619   8.987  1.00  0.00     0.031 C 
ATOM     62  C   UNL     1      -5.684  13.624   6.999  1.00  0.00     0.031 A 
BRANCH  49  63
ATOM     63  C   UNL     1      -5.999  13.431   0.826  1.00  0.00    -0.014 A 
ATOM     64  C   UNL     1      -5.820  14.785   0.476  1.00  0.00     0.010 A 
ATOM     65  C   UNL     1      -6.892  12.649   0.072  1.00  0.00     0.010 A 
ATOM     66  C   UNL     1      -6.547  15.354  -0.574  1.00  0.00     0.020 A 
ATOM     67  C   UNL     1      -7.597  13.207  -1.001  1.00  0.00     0.020 A 
ATOM     68  C   UNL     1      -7.440  14.563  -1.300  1.00  0.00     0.054 A 
BRANCH  68  69
ATOM     69  S   UNL     1      -8.401  15.330  -2.635  1.00  0.00     0.124 S 
ATOM     70  O   UNL     1      -9.378  16.123  -1.896  1.00  0.00    -0.237 OA
ATOM     71  O   UNL     1      -7.388  16.091  -3.361  1.00  0.00    -0.237 OA
ATOM     72  O   UNL     1      -8.947  14.187  -3.364  1.00  0.00    -0.744 OA
ENDBRANCH  68  69
ENDBRANCH  49  63
BRANCH  50  73
ATOM     73  C   UNL     1      -1.644   9.545   8.989  1.00  0.00    -0.014 A 
ATOM     74  C   UNL     1      -0.260   9.671   9.222  1.00  0.00     0.010 A 
ATOM     75  C   UNL     1      -2.401   8.719   9.838  1.00  0.00     0.010 A 
ATOM     76  C   UNL     1       0.368   8.921  10.219  1.00  0.00     0.020 A 
ATOM     77  C   UNL     1      -1.782   7.998  10.867  1.00  0.00     0.020 A 
ATOM     78  C   UNL     1      -0.396   8.076  11.025  1.00  0.00     0.054 A 
BRANCH  78  79
ATOM     79  S   UNL     1       0.451   7.060  12.266  1.00  0.00     0.124 S 
ATOM     80  O   UNL     1       1.066   6.026  11.438  1.00  0.00    -0.237 OA
ATOM     81  O   UNL     1       1.377   8.010  12.877  1.00  0.00    -0.237 OA
ATOM     82  O   UNL     1      -0.632   6.604  13.133  1.00  0.00    -0.744 OA
ENDBRANCH  78  79
ENDBRANCH  50  73
BRANCH  62  83
ATOM     83  C   UNL     1      -6.476  14.518   7.915  1.00  0.00    -0.014 A 
ATOM     84  C   UNL     1      -7.873  14.368   7.992  1.00  0.00     0.010 A 
ATOM     85  C   UNL     1      -5.862  15.591   8.585  1.00  0.00     0.010 A 
ATOM     86  C   UNL     1      -8.649  15.302   8.682  1.00  0.00     0.020 A 
ATOM     87  C   UNL     1      -6.631  16.508   9.305  1.00  0.00     0.020 A 
ATOM     88  C   UNL     1      -8.022  16.374   9.323  1.00  0.00     0.054 A 
BRANCH  88  89
ATOM     89  S   UNL     1      -9.051  17.605  10.168  1.00  0.00     0.124 S 
ATOM     90  O   UNL     1      -9.613  18.355   9.048  1.00  0.00    -0.237 OA
ATOM     91  O   UNL     1      -9.997  16.777  10.911  1.00  0.00    -0.237 OA
ATOM     92  O   UNL     1      -8.096  18.340  10.995  1.00  0.00    -0.744 OA
ENDBRANCH  88  89
ENDBRANCH  62  83
ENDBRANCH  36  37
ENDBRANCH  28  31
ENDBRANCH  26  27
ENDBRANCH   1  26
TORSDOF 15
