REMARK SMILES Cc1cccc(NC(=O)C[C@@H]2CCCCO2)c1C(=O)NCCCNC(=O)c1ccc(-c2c3nc(c(-c4ccc(S(=O)(=O)[O-])cc4)c4ccc([nH]4)c(-c4ccc(S(=O)(=O)[O-])cc4)c4nc(c(-c5ccc(S(=O)(=O)[O-])cc5)c5ccc2[nH]5)C=C4)C=C3)cc1
REMARK SMILES IDX 22 1 21 2 20 3 18 4 19 5 17 7 1 8 2 9 3 10 4 11 6 12 5 13
REMARK SMILES IDX 7 14 8 15 9 17 10 18 11 19 12 20 16 21 13 22 15 23 14 24
REMARK SMILES IDX 23 25 24 26 25 27 26 29 27 30 28 31 86 32 29 33 85 34 30 35
REMARK SMILES IDX 31 36 32 37 79 38 33 39 84 40 78 41 80 42 34 43 83 44 77 45
REMARK SMILES IDX 76 46 35 48 65 49 46 50 64 51 47 52 50 53 63 54 81 55 48 56
REMARK SMILES IDX 49 57 62 59 82 60 51 61 36 62 37 63 45 64 38 65 44 66 39 67
REMARK SMILES IDX 40 68 41 69 42 70 43 71 66 72 67 73 75 74 68 75 74 76 69 77
REMARK SMILES IDX 70 78 71 79 72 80 73 81 52 82 53 83 61 84 54 85 60 86 55 87
REMARK SMILES IDX 56 88 57 89 58 90 59 91
REMARK H PARENT 20 6 7 16 24 28 80 47 50 58
REMARK Flexibility Score: inf
ROOT
ATOM      1  C   UNL     1       4.567  -0.099   0.367  1.00  0.00     0.042 C 
ENDROOT
BRANCH   1   2
ATOM      2  C   UNL     1       3.323   0.630   1.114  1.00  0.00     0.118 C 
BRANCH   2   3
ATOM      3  N   UNL     1       2.488   1.594   0.343  1.00  0.00    -0.352 N 
ATOM      4  C   UNL     1       1.136   1.789   0.117  1.00  0.00     0.253 C 
ATOM      5  O   UNL     1       0.674   2.822  -0.361  1.00  0.00    -0.269 OA
ATOM      6  H   UNL     1       3.038   2.263  -0.126  1.00  0.00     0.163 HD
BRANCH   4   7
ATOM      7  C   UNL     1       0.193   0.732   0.516  1.00  0.00     0.066 A 
ATOM      8  C   UNL     1       1.414  -1.016  -0.858  1.00  0.00     0.045 C 
ATOM      9  C   UNL     1       0.538  -0.609   0.300  1.00  0.00    -0.036 A 
ATOM     10  C   UNL     1      -0.073  -1.583   1.088  1.00  0.00     0.004 A 
ATOM     11  C   UNL     1      -1.106  -1.226   1.952  1.00  0.00     0.002 A 
ATOM     12  C   UNL     1      -1.071   1.024   1.064  1.00  0.00     0.054 A 
ATOM     13  C   UNL     1      -1.648   0.061   1.889  1.00  0.00     0.027 A 
BRANCH  12  14
ATOM     14  N   UNL     1      -1.788   2.172   0.628  1.00  0.00    -0.325 N 
ATOM     15  C   UNL     1      -3.084   2.282   0.159  1.00  0.00     0.227 C 
ATOM     16  H   UNL     1      -1.284   3.017   0.666  1.00  0.00     0.169 HD
ATOM     17  O   UNL     1      -3.506   3.387  -0.203  1.00  0.00    -0.275 OA
BRANCH  15  18
ATOM     18  C   UNL     1      -4.019   1.083   0.070  1.00  0.00     0.132 C 
BRANCH  18  19
ATOM     19  C   UNL     1      -4.306   0.497  -1.333  1.00  0.00     0.127 C 
ATOM     20  C   UNL     1      -4.973  -0.888  -1.232  1.00  0.00     0.033 C 
ATOM     21  O   UNL     1      -3.207   0.379  -2.235  1.00  0.00    -0.378 OA
ATOM     22  C   UNL     1      -3.993  -1.947  -0.727  1.00  0.00     0.005 C 
ATOM     23  C   UNL     1      -2.209  -0.557  -1.868  1.00  0.00     0.160 C 
ATOM     24  C   UNL     1      -2.729  -1.957  -1.575  1.00  0.00     0.029 C 
ENDBRANCH  18  19
ENDBRANCH  15  18
ENDBRANCH  12  14
ENDBRANCH   4   7
ENDBRANCH   2   3
ENDBRANCH   1   2
BRANCH   1  25
ATOM     25  C   UNL     1       6.003   0.529   0.676  1.00  0.00     0.118 C 
BRANCH  25  26
ATOM     26  N   UNL     1       7.381   0.227  -0.015  1.00  0.00    -0.352 N 
ATOM     27  C   UNL     1       8.618   0.990  -0.247  1.00  0.00     0.251 C 
ATOM     28  H   UNL     1       7.428  -0.687  -0.378  1.00  0.00     0.163 HD
ATOM     29  O   UNL     1       9.579   0.582   0.431  1.00  0.00    -0.269 OA
BRANCH  27  30
ATOM     30  C   UNL     1       9.020   2.166  -1.261  1.00  0.00     0.039 A 
ATOM     31  C   UNL     1       9.928   3.208  -0.869  1.00  0.00     0.014 A 
ATOM     32  C   UNL     1       8.502   2.386  -2.533  1.00  0.00     0.014 A 
ATOM     33  C   UNL     1       9.824   4.561  -1.415  1.00  0.00     0.010 A 
ATOM     34  C   UNL     1       8.386   3.718  -3.068  1.00  0.00     0.010 A 
ATOM     35  C   UNL     1       8.823   4.852  -2.363  1.00  0.00    -0.014 A 
BRANCH  35  36
ATOM     36  C   UNL     1       7.991   6.155  -2.394  1.00  0.00     0.031 A 
ATOM     37  C   UNL     1       8.200   7.127  -3.457  1.00  0.00     0.074 A 
ATOM     38  C   UNL     1       6.913   6.551  -1.636  1.00  0.00     0.049 A 
ATOM     39  N   UNL     1       8.476   8.379  -3.284  1.00  0.00    -0.248 NA
ATOM     40  C   UNL     1       7.987   6.722  -4.834  1.00  0.00     0.031 C 
ATOM     41  C   UNL     1       5.994   7.710  -1.668  1.00  0.00     0.029 A 
ATOM     42  N   UNL     1       6.329   5.890  -0.582  1.00  0.00    -0.354 N 
ATOM     43  C   UNL     1       8.152   8.976  -4.484  1.00  0.00     0.074 A 
ATOM     44  C   UNL     1       8.106   7.895  -5.454  1.00  0.00     0.031 C 
ATOM     45  C   UNL     1       5.328   7.803  -0.487  1.00  0.00     0.029 A 
ATOM     46  C   UNL     1       5.812   6.745   0.379  1.00  0.00     0.049 A 
ATOM     47  H   UNL     1       6.283   4.909  -0.516  1.00  0.00     0.167 HD
ATOM     48  C   UNL     1       7.604  10.227  -4.550  1.00  0.00     0.031 A 
ATOM     49  C   UNL     1       6.402   6.799   1.621  1.00  0.00     0.031 A 
ATOM     50  C   UNL     1       7.178  10.733  -3.231  1.00  0.00     0.049 A 
ATOM     51  C   UNL     1       7.117   8.108   1.778  1.00  0.00     0.074 A 
ATOM     52  C   UNL     1       5.926  11.005  -2.690  1.00  0.00     0.029 A 
ATOM     53  N   UNL     1       8.055  10.735  -2.149  1.00  0.00    -0.354 N 
ATOM     54  N   UNL     1       7.145   9.010   0.845  1.00  0.00    -0.248 NA
ATOM     55  C   UNL     1       7.897   8.500   2.941  1.00  0.00     0.031 C 
ATOM     56  C   UNL     1       6.059  11.136  -1.278  1.00  0.00     0.029 A 
ATOM     57  C   UNL     1       7.395  10.985  -0.954  1.00  0.00     0.049 A 
ATOM     58  H   UNL     1       9.024  10.579  -2.223  1.00  0.00     0.167 HD
ATOM     59  C   UNL     1       7.939  10.051   1.198  1.00  0.00     0.074 A 
ATOM     60  C   UNL     1       8.365   9.699   2.544  1.00  0.00     0.031 C 
ATOM     61  C   UNL     1       8.151  11.066   0.307  1.00  0.00     0.031 A 
BRANCH  48  62
ATOM     62  C   UNL     1       7.153  10.834  -5.873  1.00  0.00    -0.014 A 
ATOM     63  C   UNL     1       6.234  11.900  -5.920  1.00  0.00     0.010 A 
ATOM     64  C   UNL     1       7.661  10.415  -7.123  1.00  0.00     0.010 A 
ATOM     65  C   UNL     1       5.791  12.450  -7.138  1.00  0.00     0.020 A 
ATOM     66  C   UNL     1       7.179  10.899  -8.345  1.00  0.00     0.020 A 
ATOM     67  C   UNL     1       6.253  11.930  -8.347  1.00  0.00     0.054 A 
BRANCH  67  68
ATOM     68  S   UNL     1       5.708  12.663  -9.912  1.00  0.00     0.124 S 
ATOM     69  O   UNL     1       4.254  12.556  -9.830  1.00  0.00    -0.237 OA
ATOM     70  O   UNL     1       6.248  14.017  -9.825  1.00  0.00    -0.237 OA
ATOM     71  O   UNL     1       6.331  11.816 -10.929  1.00  0.00    -0.744 OA
ENDBRANCH  67  68
ENDBRANCH  48  62
BRANCH  49  72
ATOM     72  C   UNL     1       6.930   5.467   2.217  1.00  0.00    -0.014 A 
ATOM     73  C   UNL     1       5.920   4.546   2.564  1.00  0.00     0.010 A 
ATOM     74  C   UNL     1       7.959   4.929   1.464  1.00  0.00     0.010 A 
ATOM     75  C   UNL     1       5.503   3.596   1.617  1.00  0.00     0.020 A 
ATOM     76  C   UNL     1       7.518   3.994   0.513  1.00  0.00     0.020 A 
ATOM     77  C   UNL     1       6.250   3.463   0.464  1.00  0.00     0.054 A 
BRANCH  77  78
ATOM     78  S   UNL     1       5.414   3.005  -1.324  1.00  0.00     0.124 S 
ATOM     79  O   UNL     1       4.019   2.931  -0.913  1.00  0.00    -0.237 OA
ATOM     80  O   UNL     1       5.663   4.119  -2.202  1.00  0.00    -0.237 OA
ATOM     81  O   UNL     1       5.973   1.738  -1.766  1.00  0.00    -0.744 OA
ENDBRANCH  77  78
ENDBRANCH  49  72
BRANCH  61  82
ATOM     82  C   UNL     1       9.048  12.261   0.503  1.00  0.00    -0.014 A 
ATOM     83  C   UNL     1       9.806  12.524   1.649  1.00  0.00     0.010 A 
ATOM     84  C   UNL     1       9.155  13.202  -0.552  1.00  0.00     0.010 A 
ATOM     85  C   UNL     1      10.634  13.647   1.736  1.00  0.00     0.020 A 
ATOM     86  C   UNL     1       9.999  14.310  -0.493  1.00  0.00     0.020 A 
ATOM     87  C   UNL     1      10.732  14.527   0.661  1.00  0.00     0.054 A 
BRANCH  87  88
ATOM     88  S   UNL     1      11.837  15.943   0.800  1.00  0.00     0.124 S 
ATOM     89  O   UNL     1      11.198  16.725   1.856  1.00  0.00    -0.237 OA
ATOM     90  O   UNL     1      13.104  15.313   1.167  1.00  0.00    -0.237 OA
ATOM     91  O   UNL     1      11.806  16.546  -0.530  1.00  0.00    -0.744 OA
ENDBRANCH  87  88
ENDBRANCH  61  82
ENDBRANCH  35  36
ENDBRANCH  27  30
ENDBRANCH  25  26
ENDBRANCH   1  25
TORSDOF 16
