REMARK SMILES CC(C)C[C@H](NC(=O)CNC(=O)[C@@H]([NH3+])C(C)C)C(=O)NCCCNC(=O)c1ccc(-c2c3nc(c(-c4ccc(S(=O)(=O)[O-])cc4)c4ccc([nH]4)c(-c4ccc(S(=O)(=O)[O-])cc4)c4nc(c(-c5ccc(S(=O)(=O)[O-])cc5)c5ccc2[nH]5)C=C4)C=C3)cc1
REMARK SMILES IDX 21 1 20 2 18 3 19 4 5 6 4 7 2 8 1 9 3 10 6 11 7 12 8 14 9 15
REMARK SMILES IDX 10 16 11 17 12 19 13 20 14 21 15 25 16 26 17 27 22 28 23 29
REMARK SMILES IDX 24 30 25 31 26 33 27 34 28 35 86 36 29 37 85 38 30 39 31 40
REMARK SMILES IDX 32 41 79 42 33 43 84 44 78 45 80 46 34 47 83 48 77 49 76 50
REMARK SMILES IDX 35 52 65 53 46 54 64 55 47 56 50 57 63 58 81 59 48 60 49 61
REMARK SMILES IDX 62 63 82 64 51 65 36 66 37 67 45 68 38 69 44 70 39 71 40 72
REMARK SMILES IDX 41 73 42 74 43 75 66 76 67 77 75 78 68 79 74 80 69 81 70 82
REMARK SMILES IDX 71 83 72 84 73 85 52 86 53 87 61 88 54 89 60 90 55 91 56 92
REMARK SMILES IDX 57 93 58 94 59 95
REMARK H PARENT 20 5 6 13 10 18 14 22 14 23 14 24 24 32 80 51 50 62
REMARK Flexibility Score: inf
ROOT
ATOM      1  C   UNL     1      -3.359   3.493   0.062  1.00  0.00     0.117 C 
ENDROOT
BRANCH   1   2
ATOM      2  N   UNL     1      -4.026   2.206   0.170  1.00  0.00    -0.354 N 
ATOM      3  C   UNL     1      -3.520   1.033   0.649  1.00  0.00     0.242 C 
ATOM      4  O   UNL     1      -4.229   0.026   0.645  1.00  0.00    -0.273 OA
ATOM      5  H   UNL     1      -4.959   2.177  -0.141  1.00  0.00     0.163 HD
BRANCH   3   6
ATOM      6  C   UNL     1      -2.072   0.992   1.155  1.00  0.00     0.171 C 
BRANCH   6   7
ATOM      7  C   UNL     1      -1.842   1.814   2.431  1.00  0.00     0.038 C 
BRANCH   7   8
ATOM      8  C   UNL     1      -3.006   2.426   3.254  1.00  0.00    -0.015 C 
ATOM      9  C   UNL     1      -4.025   1.431   3.798  1.00  0.00     0.007 C 
ATOM     10  C   UNL     1      -2.432   3.236   4.427  1.00  0.00     0.007 C 
ENDBRANCH   7   8
ENDBRANCH   6   7
BRANCH   6  11
ATOM     11  N   UNL     1      -1.262   1.209  -0.082  1.00  0.00    -0.343 N 
ATOM     12  C   UNL     1      -0.174   1.797  -0.615  1.00  0.00     0.240 C 
ATOM     13  H   UNL     1      -1.709   0.719  -0.809  1.00  0.00     0.164 HD
ATOM     14  O   UNL     1      -0.009   1.525  -1.815  1.00  0.00    -0.273 OA
BRANCH  12  15
ATOM     15  C   UNL     1       0.911   2.625   0.078  1.00  0.00     0.216 C 
BRANCH  15  16
ATOM     16  N   UNL     1       0.483   3.725   0.914  1.00  0.00    -0.342 N 
ATOM     17  C   UNL     1       0.686   4.028   2.221  1.00  0.00     0.278 C 
ATOM     18  H   UNL     1      -0.066   4.389   0.438  1.00  0.00     0.164 HD
ATOM     19  O   UNL     1       0.225   5.120   2.580  1.00  0.00    -0.268 OA
BRANCH  17  20
ATOM     20  C   UNL     1       1.333   3.072   3.269  1.00  0.00     0.273 C 
BRANCH  20  21
ATOM     21  N   UNL     1       1.549   1.700   2.768  1.00  0.00    -0.347 N 
ATOM     22  H   UNL     1       2.228   1.719   2.008  1.00  0.00     0.345 HD
ATOM     23  H   UNL     1       0.666   1.319   2.426  1.00  0.00     0.345 HD
ATOM     24  H   UNL     1       1.901   1.114   3.525  1.00  0.00     0.345 HD
ENDBRANCH  20  21
BRANCH  20  25
ATOM     25  C   UNL     1       2.633   3.671   3.861  1.00  0.00     0.051 C 
ATOM     26  C   UNL     1       2.352   4.952   4.662  1.00  0.00     0.014 C 
ATOM     27  C   UNL     1       3.352   2.685   4.794  1.00  0.00     0.014 C 
ENDBRANCH  20  25
ENDBRANCH  17  20
ENDBRANCH  15  16
ENDBRANCH  12  15
ENDBRANCH   6  11
ENDBRANCH   3   6
ENDBRANCH   1   2
BRANCH   1  28
ATOM     28  C   UNL     1      -3.517   4.103  -1.312  1.00  0.00     0.042 C 
BRANCH  28  29
ATOM     29  C   UNL     1      -4.957   4.482  -1.606  1.00  0.00     0.118 C 
BRANCH  29  30
ATOM     30  N   UNL     1      -5.509   5.425  -0.635  1.00  0.00    -0.352 N 
ATOM     31  C   UNL     1      -6.185   6.599  -0.870  1.00  0.00     0.251 C 
ATOM     32  H   UNL     1      -5.380   5.188   0.311  1.00  0.00     0.163 HD
ATOM     33  O   UNL     1      -6.453   7.364   0.041  1.00  0.00    -0.269 OA
BRANCH  31  34
ATOM     34  C   UNL     1      -6.551   6.909  -2.263  1.00  0.00     0.039 A 
ATOM     35  C   UNL     1      -6.191   8.142  -2.805  1.00  0.00     0.014 A 
ATOM     36  C   UNL     1      -7.149   5.920  -3.046  1.00  0.00     0.014 A 
ATOM     37  C   UNL     1      -6.365   8.354  -4.172  1.00  0.00     0.010 A 
ATOM     38  C   UNL     1      -7.218   6.093  -4.417  1.00  0.00     0.010 A 
ATOM     39  C   UNL     1      -6.837   7.315  -4.992  1.00  0.00    -0.014 A 
BRANCH  39  40
ATOM     40  C   UNL     1      -6.964   7.475  -6.458  1.00  0.00     0.031 A 
ATOM     41  C   UNL     1      -8.317   7.333  -7.098  1.00  0.00     0.074 A 
ATOM     42  C   UNL     1      -5.860   7.652  -7.211  1.00  0.00     0.049 A 
ATOM     43  N   UNL     1      -8.632   7.322  -8.366  1.00  0.00    -0.248 NA
ATOM     44  C   UNL     1      -9.463   7.133  -6.193  1.00  0.00     0.031 C 
ATOM     45  C   UNL     1      -4.488   7.747  -6.703  1.00  0.00     0.029 A 
ATOM     46  N   UNL     1      -5.718   7.774  -8.569  1.00  0.00    -0.354 N 
ATOM     47  C   UNL     1     -10.000   7.083  -8.410  1.00  0.00     0.074 A 
ATOM     48  C   UNL     1     -10.445   6.896  -7.048  1.00  0.00     0.031 C 
ATOM     49  C   UNL     1      -3.650   7.945  -7.734  1.00  0.00     0.029 A 
ATOM     50  C   UNL     1      -4.416   7.948  -8.975  1.00  0.00     0.049 A 
ATOM     51  H   UNL     1      -6.478   7.741  -9.195  1.00  0.00     0.167 HD
ATOM     52  C   UNL     1     -10.818   7.049  -9.487  1.00  0.00     0.031 A 
ATOM     53  C   UNL     1      -3.900   8.089 -10.211  1.00  0.00     0.031 A 
ATOM     54  C   UNL     1     -10.370   7.272 -10.834  1.00  0.00     0.049 A 
ATOM     55  C   UNL     1      -4.832   8.072 -11.391  1.00  0.00     0.074 A 
ATOM     56  C   UNL     1     -11.123   7.331 -11.992  1.00  0.00     0.029 A 
ATOM     57  N   UNL     1      -9.049   7.481 -11.200  1.00  0.00    -0.354 N 
ATOM     58  N   UNL     1      -6.134   7.912 -11.409  1.00  0.00    -0.248 NA
ATOM     59  C   UNL     1      -4.228   8.267 -12.716  1.00  0.00     0.031 C 
ATOM     60  C   UNL     1     -10.250   7.535 -13.065  1.00  0.00     0.029 A 
ATOM     61  C   UNL     1      -8.961   7.654 -12.569  1.00  0.00     0.049 A 
ATOM     62  H   UNL     1      -8.286   7.503 -10.577  1.00  0.00     0.167 HD
ATOM     63  C   UNL     1      -6.508   8.009 -12.744  1.00  0.00     0.074 A 
ATOM     64  C   UNL     1      -5.297   8.258 -13.500  1.00  0.00     0.031 C 
ATOM     65  C   UNL     1      -7.742   7.904 -13.296  1.00  0.00     0.031 A 
BRANCH  52  66
ATOM     66  C   UNL     1     -12.275   6.766  -9.242  1.00  0.00    -0.014 A 
ATOM     67  C   UNL     1     -13.096   7.705  -8.589  1.00  0.00     0.010 A 
ATOM     68  C   UNL     1     -12.838   5.556  -9.684  1.00  0.00     0.010 A 
ATOM     69  C   UNL     1     -14.440   7.418  -8.340  1.00  0.00     0.020 A 
ATOM     70  C   UNL     1     -14.190   5.278  -9.464  1.00  0.00     0.020 A 
ATOM     71  C   UNL     1     -14.978   6.204  -8.776  1.00  0.00     0.054 A 
BRANCH  71  72
ATOM     72  S   UNL     1     -16.731   5.866  -8.457  1.00  0.00     0.124 S 
ATOM     73  O   UNL     1     -16.725   5.572  -7.026  1.00  0.00    -0.237 OA
ATOM     74  O   UNL     1     -17.374   7.121  -8.838  1.00  0.00    -0.237 OA
ATOM     75  O   UNL     1     -17.028   4.729  -9.325  1.00  0.00    -0.744 OA
ENDBRANCH  71  72
ENDBRANCH  52  66
BRANCH  53  76
ATOM     76  C   UNL     1      -2.436   8.285 -10.389  1.00  0.00    -0.014 A 
ATOM     77  C   UNL     1      -1.929   9.539 -10.773  1.00  0.00     0.010 A 
ATOM     78  C   UNL     1      -1.538   7.228 -10.156  1.00  0.00     0.010 A 
ATOM     79  C   UNL     1      -0.554   9.728 -10.941  1.00  0.00     0.020 A 
ATOM     80  C   UNL     1      -0.160   7.419 -10.297  1.00  0.00     0.020 A 
ATOM     81  C   UNL     1       0.323   8.666 -10.700  1.00  0.00     0.054 A 
BRANCH  81  82
ATOM     82  S   UNL     1       2.107   8.948 -10.874  1.00  0.00     0.124 S 
ATOM     83  O   UNL     1       2.267   8.991 -12.324  1.00  0.00    -0.237 OA
ATOM     84  O   UNL     1       2.296  10.218 -10.178  1.00  0.00    -0.237 OA
ATOM     85  O   UNL     1       2.701   7.790 -10.211  1.00  0.00    -0.744 OA
ENDBRANCH  81  82
ENDBRANCH  53  76
BRANCH  65  86
ATOM     86  C   UNL     1      -7.851   8.089 -14.784  1.00  0.00    -0.014 A 
ATOM     87  C   UNL     1      -7.417   7.091 -15.673  1.00  0.00     0.010 A 
ATOM     88  C   UNL     1      -8.463   9.248 -15.294  1.00  0.00     0.010 A 
ATOM     89  C   UNL     1      -7.571   7.261 -17.050  1.00  0.00     0.020 A 
ATOM     90  C   UNL     1      -8.642   9.410 -16.669  1.00  0.00     0.020 A 
ATOM     91  C   UNL     1      -8.184   8.419 -17.540  1.00  0.00     0.054 A 
BRANCH  91  92
ATOM     92  S   UNL     1      -8.423   8.591 -19.329  1.00  0.00     0.124 S 
ATOM     93  O   UNL     1      -7.072   8.899 -19.788  1.00  0.00    -0.237 OA
ATOM     94  O   UNL     1      -8.932   7.276 -19.712  1.00  0.00    -0.237 OA
ATOM     95  O   UNL     1      -9.387   9.683 -19.446  1.00  0.00    -0.744 OA
ENDBRANCH  91  92
ENDBRANCH  65  86
ENDBRANCH  39  40
ENDBRANCH  31  34
ENDBRANCH  29  30
ENDBRANCH  28  29
ENDBRANCH   1  28
TORSDOF 21
