REMARK SMILES NC(=O)c1ccccc1N[C@@H]1CCCCC[C@@H]1C(=O)NCCCNC(=O)c1ccc(-c2c3nc(c(-c4ccc(S(=O)(=O)[O-])cc4)c4ccc([nH]4)c(-c4ccc(S(=O)(=O)[O-])cc4)c4nc(c(-c5ccc(S(=O)(=O)[O-])cc5)c5ccc2[nH]5)C=C4)C=C3)cc1
REMARK SMILES IDX 21 1 20 2 18 3 19 4 17 6 11 7 10 9 9 11 4 12 5 13 6 14 8 15
REMARK SMILES IDX 7 16 2 17 1 18 3 21 16 22 15 23 14 24 13 25 12 26 22 28
REMARK SMILES IDX 23 29 24 30 25 31 26 33 27 34 28 35 86 36 29 37 85 38 30 39
REMARK SMILES IDX 31 40 32 41 79 42 33 43 84 44 78 45 80 46 34 47 83 48 77 49
REMARK SMILES IDX 76 50 35 52 65 53 46 54 64 55 47 56 50 57 63 58 81 59 48 60
REMARK SMILES IDX 49 61 62 63 82 64 51 65 36 66 37 67 45 68 38 69 44 70 39 71
REMARK SMILES IDX 40 72 41 73 42 74 43 75 66 76 67 77 75 78 68 79 74 80 69 81
REMARK SMILES IDX 70 82 71 83 72 84 73 85 52 86 53 87 61 88 54 89 60 90 55 91
REMARK SMILES IDX 56 92 57 93 58 94 59 95
REMARK H PARENT 20 5 10 10 1 19 1 20 24 32 80 51 50 62
REMARK Flexibility Score: 90.00
ROOT
ATOM      1  C   UNL     1       2.426   4.887   4.307  1.00  0.00     0.117 C 
ENDROOT
BRANCH   1   2
ATOM      2  N   UNL     1       1.602   3.696   4.224  1.00  0.00    -0.356 N 
ATOM      3  C   UNL     1       1.921   2.381   4.075  1.00  0.00     0.225 C 
ATOM      4  O   UNL     1       0.975   1.593   4.078  1.00  0.00    -0.275 OA
ATOM      5  H   UNL     1       0.635   3.871   4.287  1.00  0.00     0.163 HD
BRANCH   3   6
ATOM      6  C   UNL     1       3.383   1.935   4.030  1.00  0.00     0.101 C 
BRANCH   6   7
ATOM      7  C   UNL     1       3.751   1.102   2.778  1.00  0.00     0.091 CG0
ATOM      8  G   UNL     1       5.125   0.412   2.729  1.00  0.00     0.000 G0
BRANCH   7   9
ATOM      9  N   UNL     1       2.699   0.240   2.221  1.00  0.00    -0.381 N 
ATOM     10  H   UNL     1       2.375   0.505   1.330  1.00  0.00     0.160 HD
BRANCH   9  11
ATOM     11  C   UNL     1       2.086  -0.891   2.752  1.00  0.00     0.047 A 
ATOM     12  C   UNL     1       0.868  -1.381   2.206  1.00  0.00     0.062 A 
ATOM     13  C   UNL     1       0.183  -2.458   2.799  1.00  0.00     0.016 A 
ATOM     14  C   UNL     1       0.721  -3.114   3.899  1.00  0.00     0.001 A 
ATOM     15  C   UNL     1       2.628  -1.627   3.812  1.00  0.00     0.026 A 
ATOM     16  C   UNL     1       1.955  -2.712   4.390  1.00  0.00     0.002 A 
BRANCH  12  17
ATOM     17  C   UNL     1       0.221  -0.807   0.989  1.00  0.00     0.250 C 
ATOM     18  N   UNL     1       1.056  -0.334   0.013  1.00  0.00    -0.366 N 
ATOM     19  H   UNL     1       0.680   0.054  -0.810  1.00  0.00     0.159 HD
ATOM     20  H   UNL     1       2.032  -0.383   0.134  1.00  0.00     0.159 HD
ATOM     21  O   UNL     1      -0.992  -0.815   0.826  1.00  0.00    -0.269 OA
ENDBRANCH  12  17
ENDBRANCH   9  11
ENDBRANCH   7   9
ENDBRANCH   6   7
BRANCH   6  22
ATOM     22  C   UNL     1       3.733   1.359   5.409  1.00  0.00     0.015 C 
BRANCH  22  23
ATOM     23  C   UNL     1       5.190   1.565   5.813  1.00  0.00     0.001 C 
BRANCH  23  24
ATOM     24  C   UNL     1       6.202   0.758   5.013  1.00  0.00     0.000 C 
BRANCH  24  25
ATOM     25  C   UNL     1       6.242   1.086   3.523  1.00  0.00     0.002 C 
BRANCH  25  26
ATOM     26  C   UNL     1       5.125   0.412   2.729  1.00  0.00     0.025 CG0
ATOM     27  G   UNL     1       3.751   1.102   2.778  1.00  0.00     0.000 G0
ENDBRANCH  25  26
ENDBRANCH  24  25
ENDBRANCH  23  24
ENDBRANCH  22  23
ENDBRANCH   6  22
ENDBRANCH   3   6
ENDBRANCH   1   2
BRANCH   1  28
ATOM     28  C   UNL     1       2.337   5.724   3.036  1.00  0.00     0.042 C 
BRANCH  28  29
ATOM     29  C   UNL     1       0.929   6.223   2.713  1.00  0.00     0.118 C 
BRANCH  29  30
ATOM     30  N   UNL     1       0.364   7.048   3.773  1.00  0.00    -0.352 N 
ATOM     31  C   UNL     1      -0.084   8.345   3.747  1.00  0.00     0.251 C 
ATOM     32  H   UNL     1       0.293   6.603   4.648  1.00  0.00     0.163 HD
ATOM     33  O   UNL     1      -0.352   8.909   4.804  1.00  0.00    -0.269 OA
BRANCH  31  34
ATOM     34  C   UNL     1      -0.225   9.069   2.465  1.00  0.00     0.039 A 
ATOM     35  C   UNL     1       0.196  10.400   2.394  1.00  0.00     0.014 A 
ATOM     36  C   UNL     1      -0.796   8.456   1.346  1.00  0.00     0.014 A 
ATOM     37  C   UNL     1       0.110  11.093   1.184  1.00  0.00     0.010 A 
ATOM     38  C   UNL     1      -0.819   9.125   0.124  1.00  0.00     0.010 A 
ATOM     39  C   UNL     1      -0.365  10.449   0.030  1.00  0.00    -0.014 A 
BRANCH  39  40
ATOM     40  C   UNL     1      -0.384  11.139  -1.285  1.00  0.00     0.031 A 
ATOM     41  C   UNL     1      -1.690  11.415  -1.980  1.00  0.00     0.074 A 
ATOM     42  C   UNL     1       0.780  11.452  -1.888  1.00  0.00     0.049 A 
ATOM     43  N   UNL     1      -1.900  11.934  -3.162  1.00  0.00    -0.248 NA
ATOM     44  C   UNL     1      -2.918  11.038  -1.262  1.00  0.00     0.031 C 
ATOM     45  C   UNL     1       2.115  11.201  -1.338  1.00  0.00     0.029 A 
ATOM     46  N   UNL     1       1.028  12.041  -3.103  1.00  0.00    -0.354 N 
ATOM     47  C   UNL     1      -3.278  11.925  -3.341  1.00  0.00     0.074 A 
ATOM     48  C   UNL     1      -3.852  11.314  -2.161  1.00  0.00     0.031 C 
ATOM     49  C   UNL     1       3.039  11.652  -2.202  1.00  0.00     0.029 A 
ATOM     50  C   UNL     1       2.367  12.187  -3.382  1.00  0.00     0.049 A 
ATOM     51  H   UNL     1       0.316  12.332  -3.716  1.00  0.00     0.167 HD
ATOM     52  C   UNL     1      -4.003  12.397  -4.383  1.00  0.00     0.031 A 
ATOM     53  C   UNL     1       2.987  12.687  -4.468  1.00  0.00     0.031 A 
ATOM     54  C   UNL     1      -3.433  13.021  -5.548  1.00  0.00     0.049 A 
ATOM     55  C   UNL     1       2.162  13.209  -5.611  1.00  0.00     0.074 A 
ATOM     56  C   UNL     1      -4.087  13.581  -6.631  1.00  0.00     0.029 A 
ATOM     57  N   UNL     1      -2.074  13.167  -5.782  1.00  0.00    -0.354 N 
ATOM     58  N   UNL     1       0.857  13.242  -5.735  1.00  0.00    -0.248 NA
ATOM     59  C   UNL     1       2.893  13.769  -6.756  1.00  0.00     0.031 C 
ATOM     60  C   UNL     1      -3.123  14.031  -7.540  1.00  0.00     0.029 A 
ATOM     61  C   UNL     1      -1.869  13.793  -7.000  1.00  0.00     0.049 A 
ATOM     62  H   UNL     1      -1.361  12.869  -5.173  1.00  0.00     0.167 HD
ATOM     63  C   UNL     1       0.610  13.849  -6.961  1.00  0.00     0.074 A 
ATOM     64  C   UNL     1       1.899  14.177  -7.534  1.00  0.00     0.031 C 
ATOM     65  C   UNL     1      -0.579  14.112  -7.557  1.00  0.00     0.031 A 
BRANCH  52  66
ATOM     66  C   UNL     1      -5.500  12.251  -4.310  1.00  0.00    -0.014 A 
ATOM     67  C   UNL     1      -6.261  13.029  -3.419  1.00  0.00     0.010 A 
ATOM     68  C   UNL     1      -6.158  11.349  -5.165  1.00  0.00     0.010 A 
ATOM     69  C   UNL     1      -7.648  12.876  -3.353  1.00  0.00     0.020 A 
ATOM     70  C   UNL     1      -7.548  11.211  -5.120  1.00  0.00     0.020 A 
ATOM     71  C   UNL     1      -8.282  11.963  -4.201  1.00  0.00     0.054 A 
BRANCH  71  72
ATOM     72  S   UNL     1     -10.086  11.794  -4.106  1.00  0.00     0.124 S 
ATOM     73  O   UNL     1     -10.251  11.026  -2.874  1.00  0.00    -0.237 OA
ATOM     74  O   UNL     1     -10.537  13.182  -4.044  1.00  0.00    -0.237 OA
ATOM     75  O   UNL     1     -10.433  11.084  -5.334  1.00  0.00    -0.744 OA
ENDBRANCH  71  72
ENDBRANCH  52  66
BRANCH  53  76
ATOM     76  C   UNL     1       4.473  12.731  -4.517  1.00  0.00    -0.014 A 
ATOM     77  C   UNL     1       5.152  13.954  -4.385  1.00  0.00     0.010 A 
ATOM     78  C   UNL     1       5.216  11.547  -4.674  1.00  0.00     0.010 A 
ATOM     79  C   UNL     1       6.549  13.995  -4.423  1.00  0.00     0.020 A 
ATOM     80  C   UNL     1       6.613  11.581  -4.688  1.00  0.00     0.020 A 
ATOM     81  C   UNL     1       7.271  12.808  -4.572  1.00  0.00     0.054 A 
BRANCH  81  82
ATOM     82  S   UNL     1       9.084  12.875  -4.557  1.00  0.00     0.124 S 
ATOM     83  O   UNL     1       9.380  13.383  -5.892  1.00  0.00    -0.237 OA
ATOM     84  O   UNL     1       9.358  13.792  -3.454  1.00  0.00    -0.237 OA
ATOM     85  O   UNL     1       9.473  11.488  -4.312  1.00  0.00    -0.744 OA
ENDBRANCH  81  82
ENDBRANCH  53  76
BRANCH  65  86
ATOM     86  C   UNL     1      -0.544  14.817  -8.886  1.00  0.00    -0.014 A 
ATOM     87  C   UNL     1      -0.161  14.140 -10.057  1.00  0.00     0.010 A 
ATOM     88  C   UNL     1      -0.953  16.160  -8.970  1.00  0.00     0.010 A 
ATOM     89  C   UNL     1      -0.160  14.805 -11.287  1.00  0.00     0.020 A 
ATOM     90  C   UNL     1      -0.976  16.821 -10.200  1.00  0.00     0.020 A 
ATOM     91  C   UNL     1      -0.566  16.142 -11.350  1.00  0.00     0.054 A 
BRANCH  91  92
ATOM     92  S   UNL     1      -0.601  16.971 -12.963  1.00  0.00     0.124 S 
ATOM     93  O   UNL     1       0.816  17.237 -13.198  1.00  0.00    -0.237 OA
ATOM     94  O   UNL     1      -1.203  15.962 -13.831  1.00  0.00    -0.237 OA
ATOM     95  O   UNL     1      -1.427  18.153 -12.727  1.00  0.00    -0.744 OA
ENDBRANCH  91  92
ENDBRANCH  65  86
ENDBRANCH  39  40
ENDBRANCH  31  34
ENDBRANCH  29  30
ENDBRANCH  28  29
ENDBRANCH   1  28
TORSDOF 16
