REMARK SMILES Cc1cc2[nH]ccc2nc1C(=O)NCCCNC(=O)c1ccc(-c2c3nc(c(-c4ccc(S(=O)(=O)[O-])cc4)c4ccc([nH]4)c(-c4ccc(S(=O)(=O)[O-])cc4)c4nc(c(-c5ccc(S(=O)(=O)[O-])cc5)c5ccc2[nH]5)C=C4)C=C3)cc1
REMARK SMILES IDX 17 1 18 2 19 3 16 5 15 6 14 7 13 8 11 9 12 10 10 12 1 13
REMARK SMILES IDX 2 14 3 15 4 16 9 17 5 18 8 19 6 20 7 22 20 23 21 24 79 25
REMARK SMILES IDX 22 26 78 27 23 28 24 29 25 30 72 31 26 32 77 33 71 34 73 35
REMARK SMILES IDX 27 36 76 37 70 38 69 39 28 41 58 42 39 43 57 44 40 45 43 46
REMARK SMILES IDX 56 47 74 48 41 49 42 50 55 52 75 53 44 54 29 55 30 56 38 57
REMARK SMILES IDX 31 58 37 59 32 60 33 61 34 62 35 63 36 64 59 65 60 66 68 67
REMARK SMILES IDX 61 68 67 69 62 70 63 71 64 72 65 73 66 74 45 75 46 76 54 77
REMARK SMILES IDX 47 78 53 79 48 80 49 81 50 82 51 83 52 84
REMARK H PARENT 17 4 13 11 5 21 73 40 43 51
REMARK Flexibility Score: inf
ROOT
ATOM      1  N   UNL     1       3.018   1.725   3.531  1.00  0.00    -0.352 N 
ATOM      2  C   UNL     1       3.294   2.338   4.749  1.00  0.00     0.251 C 
ATOM      3  O   UNL     1       2.902   1.869   5.800  1.00  0.00    -0.269 OA
ATOM      4  H   UNL     1       2.356   0.997   3.542  1.00  0.00     0.163 HD
ENDROOT
BRANCH   1   5
ATOM      5  C   UNL     1       3.615   2.056   2.237  1.00  0.00     0.118 C 
BRANCH   5   6
ATOM      6  C   UNL     1       3.319   1.074   1.125  1.00  0.00     0.042 C 
BRANCH   6   7
ATOM      7  C   UNL     1       1.861   0.996   0.710  1.00  0.00     0.118 C 
BRANCH   7   8
ATOM      8  N   UNL     1       1.306   2.096  -0.041  1.00  0.00    -0.351 N 
ATOM      9  C   UNL     1       0.401   2.085  -1.090  1.00  0.00     0.270 C 
ATOM     10  O   UNL     1      -0.099   3.173  -1.390  1.00  0.00    -0.268 OA
ATOM     11  H   UNL     1       1.617   2.989   0.234  1.00  0.00     0.163 HD
BRANCH   9  12
ATOM     12  C   UNL     1       0.075   0.860  -1.933  1.00  0.00     0.131 A 
ATOM     13  C   UNL     1      -0.396  -0.851  -0.037  1.00  0.00     0.047 C 
ATOM     14  C   UNL     1      -0.181  -0.444  -1.466  1.00  0.00    -0.018 A 
ATOM     15  C   UNL     1      -0.317  -1.484  -2.406  1.00  0.00     0.034 A 
ATOM     16  C   UNL     1      -0.394  -1.114  -3.741  1.00  0.00     0.064 A 
ATOM     17  N   UNL     1       0.007   1.203  -3.250  1.00  0.00    -0.241 NA
ATOM     18  N   UNL     1      -0.624  -1.845  -4.881  1.00  0.00    -0.360 N 
ATOM     19  C   UNL     1      -0.276   0.214  -4.121  1.00  0.00     0.089 A 
ATOM     20  C   UNL     1      -0.757  -1.003  -5.956  1.00  0.00     0.085 A 
ATOM     21  H   UNL     1      -0.684  -2.827  -4.921  1.00  0.00     0.166 HD
ATOM     22  C   UNL     1      -0.530   0.283  -5.511  1.00  0.00     0.048 A 
ENDBRANCH   9  12
ENDBRANCH   7   8
ENDBRANCH   6   7
ENDBRANCH   5   6
ENDBRANCH   1   5
BRANCH   2  23
ATOM     23  C   UNL     1       4.139   3.552   4.708  1.00  0.00     0.039 A 
ATOM     24  C   UNL     1       5.352   3.579   5.392  1.00  0.00     0.014 A 
ATOM     25  C   UNL     1       3.815   4.541   3.785  1.00  0.00     0.014 A 
ATOM     26  C   UNL     1       6.301   4.531   5.024  1.00  0.00     0.010 A 
ATOM     27  C   UNL     1       4.812   5.378   3.323  1.00  0.00     0.010 A 
ATOM     28  C   UNL     1       6.066   5.390   3.932  1.00  0.00    -0.014 A 
BRANCH  28  29
ATOM     29  C   UNL     1       7.175   6.190   3.389  1.00  0.00     0.031 A 
ATOM     30  C   UNL     1       8.519   5.536   3.373  1.00  0.00     0.074 A 
ATOM     31  C   UNL     1       7.082   7.400   2.795  1.00  0.00     0.049 A 
ATOM     32  N   UNL     1       9.501   5.759   4.184  1.00  0.00    -0.248 NA
ATOM     33  C   UNL     1       8.777   4.452   2.413  1.00  0.00     0.031 C 
ATOM     34  C   UNL     1       5.892   8.167   2.417  1.00  0.00     0.029 A 
ATOM     35  N   UNL     1       8.101   8.183   2.332  1.00  0.00    -0.354 N 
ATOM     36  C   UNL     1      10.574   5.003   3.724  1.00  0.00     0.074 A 
ATOM     37  C   UNL     1      10.032   4.113   2.725  1.00  0.00     0.031 C 
ATOM     38  C   UNL     1       6.242   9.175   1.588  1.00  0.00     0.029 A 
ATOM     39  C   UNL     1       7.688   9.249   1.550  1.00  0.00     0.049 A 
ATOM     40  H   UNL     1       9.047   8.005   2.536  1.00  0.00     0.167 HD
ATOM     41  C   UNL     1      11.863   5.307   4.049  1.00  0.00     0.031 A 
ATOM     42  C   UNL     1       8.468  10.167   0.935  1.00  0.00     0.031 A 
ATOM     43  C   UNL     1      11.939   6.282   5.106  1.00  0.00     0.049 A 
ATOM     44  C   UNL     1       9.742  10.226   1.687  1.00  0.00     0.074 A 
ATOM     45  C   UNL     1      11.485   6.360   6.407  1.00  0.00     0.029 A 
ATOM     46  N   UNL     1      12.266   7.567   4.743  1.00  0.00    -0.354 N 
ATOM     47  N   UNL     1       9.835  10.656   2.916  1.00  0.00    -0.248 NA
ATOM     48  C   UNL     1      10.882   9.463   1.206  1.00  0.00     0.031 C 
ATOM     49  C   UNL     1      11.114   7.725   6.586  1.00  0.00     0.029 A 
ATOM     50  C   UNL     1      11.407   8.406   5.401  1.00  0.00     0.049 A 
ATOM     51  H   UNL     1      12.984   7.835   4.124  1.00  0.00     0.167 HD
ATOM     52  C   UNL     1      10.835   9.886   3.489  1.00  0.00     0.074 A 
ATOM     53  C   UNL     1      11.522   9.265   2.361  1.00  0.00     0.031 C 
ATOM     54  C   UNL     1      10.846   9.614   4.828  1.00  0.00     0.031 A 
BRANCH  41  55
ATOM     55  C   UNL     1      13.054   5.035   3.160  1.00  0.00    -0.014 A 
ATOM     56  C   UNL     1      14.349   5.316   3.649  1.00  0.00     0.010 A 
ATOM     57  C   UNL     1      12.929   4.806   1.775  1.00  0.00     0.010 A 
ATOM     58  C   UNL     1      15.442   5.451   2.783  1.00  0.00     0.020 A 
ATOM     59  C   UNL     1      14.021   4.893   0.909  1.00  0.00     0.020 A 
ATOM     60  C   UNL     1      15.263   5.258   1.414  1.00  0.00     0.054 A 
BRANCH  60  61
ATOM     61  S   UNL     1      16.644   5.574   0.286  1.00  0.00     0.124 S 
ATOM     62  O   UNL     1      16.801   7.021   0.408  1.00  0.00    -0.237 OA
ATOM     63  O   UNL     1      17.713   4.769   0.870  1.00  0.00    -0.237 OA
ATOM     64  O   UNL     1      16.147   5.101  -1.003  1.00  0.00    -0.744 OA
ENDBRANCH  60  61
ENDBRANCH  41  55
BRANCH  42  65
ATOM     65  C   UNL     1       8.253  10.807  -0.383  1.00  0.00    -0.014 A 
ATOM     66  C   UNL     1       9.053  11.885  -0.799  1.00  0.00     0.010 A 
ATOM     67  C   UNL     1       7.444  10.174  -1.351  1.00  0.00     0.010 A 
ATOM     68  C   UNL     1       9.104  12.265  -2.149  1.00  0.00     0.020 A 
ATOM     69  C   UNL     1       7.482  10.554  -2.697  1.00  0.00     0.020 A 
ATOM     70  C   UNL     1       8.337  11.579  -3.095  1.00  0.00     0.054 A 
BRANCH  70  71
ATOM     71  S   UNL     1       8.565  11.946  -4.859  1.00  0.00     0.124 S 
ATOM     72  O   UNL     1       8.011  13.292  -4.971  1.00  0.00    -0.237 OA
ATOM     73  O   UNL     1      10.013  11.844  -5.017  1.00  0.00    -0.237 OA
ATOM     74  O   UNL     1       7.797  10.900  -5.532  1.00  0.00    -0.744 OA
ENDBRANCH  70  71
ENDBRANCH  42  65
BRANCH  54  75
ATOM     75  C   UNL     1       9.994  10.445   5.758  1.00  0.00    -0.014 A 
ATOM     76  C   UNL     1       8.588  10.477   5.706  1.00  0.00     0.010 A 
ATOM     77  C   UNL     1      10.641  11.051   6.851  1.00  0.00     0.010 A 
ATOM     78  C   UNL     1       7.850  11.091   6.731  1.00  0.00     0.020 A 
ATOM     79  C   UNL     1       9.912  11.649   7.882  1.00  0.00     0.020 A 
ATOM     80  C   UNL     1       8.518  11.662   7.819  1.00  0.00     0.054 A 
BRANCH  80  81
ATOM     81  S   UNL     1       7.556  12.345   9.200  1.00  0.00     0.124 S 
ATOM     82  O   UNL     1       6.958  13.540   8.611  1.00  0.00    -0.237 OA
ATOM     83  O   UNL     1       6.624  11.264   9.513  1.00  0.00    -0.237 OA
ATOM     84  O   UNL     1       8.560  12.602  10.232  1.00  0.00    -0.744 OA
ENDBRANCH  80  81
ENDBRANCH  54  75
ENDBRANCH  28  29
ENDBRANCH   2  23
TORSDOF 13
