REMARK SMILES CCN1C(=O)/C(=C2/SC(=S)N([C@@H](C)C(=O)NCCCNC(=O)c3ccc(-c4c5nc(c(-c6ccc(S(=O)(=O)[O-])cc6)c6ccc([nH]6)c(-c6ccc(S(=O)(=O)[O-])cc6)c6nc(c(-c7ccc(S(=O)(=O)[O-])cc7)c7ccc4[nH]7)C=C6)C=C5)cc3)C2=O)c2cc(Br)ccc21
REMARK SMILES IDX 18 1 17 2 16 3 14 4 15 5 12 7 13 8 11 9 3 10 4 11 91 12 5 13
REMARK SMILES IDX 6 14 85 15 90 16 7 17 86 18 89 19 8 20 83 21 87 22 9 23
REMARK SMILES IDX 84 24 88 25 10 26 2 27 1 28 19 29 20 30 21 31 22 33 23 34
REMARK SMILES IDX 24 35 82 36 25 37 81 38 26 39 27 40 28 41 75 42 29 43 80 44
REMARK SMILES IDX 74 45 76 46 30 47 79 48 73 49 72 50 31 52 61 53 42 54 60 55
REMARK SMILES IDX 43 56 46 57 59 58 77 59 44 60 45 61 58 63 78 64 47 65 32 66
REMARK SMILES IDX 33 67 41 68 34 69 40 70 35 71 36 72 37 73 38 74 39 75 62 76
REMARK SMILES IDX 63 77 71 78 64 79 70 80 65 81 66 82 67 83 68 84 69 85 48 86
REMARK SMILES IDX 49 87 57 88 50 89 56 90 51 91 52 92 53 93 54 94 55 95
REMARK H PARENT 16 6 20 32 76 51 46 62
REMARK Flexibility Score: inf
ROOT
ATOM      1  C   UNL     1       3.806   4.923   9.420  1.00  0.00     0.042 C 
ENDROOT
BRANCH   1   2
ATOM      2  C   UNL     1       4.758   3.871   9.988  1.00  0.00     0.117 C 
BRANCH   2   3
ATOM      3  N   UNL     1       4.058   2.657  10.380  1.00  0.00    -0.354 N 
ATOM      4  C   UNL     1       3.979   1.395   9.873  1.00  0.00     0.242 C 
ATOM      5  O   UNL     1       3.267   0.618  10.524  1.00  0.00    -0.273 OA
ATOM      6  H   UNL     1       3.518   2.774  11.195  1.00  0.00     0.163 HD
BRANCH   4   7
ATOM      7  C   UNL     1       4.704   0.882   8.596  1.00  0.00     0.178 C 
ATOM      8  C   UNL     1       6.221   0.911   8.733  1.00  0.00     0.042 C 
BRANCH   7   9
ATOM      9  N   UNL     1       4.112   1.444   7.367  1.00  0.00    -0.280 N 
ATOM     10  N   UNL     1       0.826   0.489   2.746  1.00  0.00    -0.308 N 
ATOM     11  C   UNL     1       1.446   0.170   3.971  1.00  0.00     0.260 C 
ATOM     12  C   UNL     1       0.564   1.867   2.646  1.00  0.00     0.052 A 
ATOM     13  O   UNL     1       1.856  -0.910   4.333  1.00  0.00    -0.269 OA
ATOM     14  C   UNL     1       1.614   1.496   4.681  1.00  0.00     0.069 C 
ATOM     15  C   UNL     1       1.001   2.511   3.801  1.00  0.00     0.014 A 
ATOM     16  C   UNL     1      -0.012   2.575   1.598  1.00  0.00     0.028 A 
ATOM     17  C   UNL     1       2.359   1.728   5.777  1.00  0.00     0.093 C 
ATOM     18  C   UNL     1       0.817   3.874   3.940  1.00  0.00     0.026 A 
ATOM     19  C   UNL     1      -0.091   3.969   1.697  1.00  0.00     0.018 A 
ATOM     20  S   UNL     1       2.955   3.315   6.170  1.00  0.00    -0.053 SA
ATOM     21  C   UNL     1       3.011   0.805   6.771  1.00  0.00     0.267 C 
ATOM     22  C   UNL     1       0.334   4.603   2.864  1.00  0.00     0.018 A 
ATOM     23  C   UNL     1       4.427   2.643   6.790  1.00  0.00     0.149 C 
ATOM     24  O   UNL     1       2.588  -0.302   7.061  1.00  0.00    -0.268 OA
ATOM     25  Br  UNL     1       0.363   6.471   3.032  1.00  0.00    -0.051 Br
ATOM     26  S   UNL     1       5.896   3.372   6.518  1.00  0.00    -0.052 S 
BRANCH  10  27
ATOM     27  C   UNL     1       0.526  -0.468   1.698  1.00  0.00     0.122 C 
ATOM     28  C   UNL     1       1.365  -0.289   0.436  1.00  0.00     0.028 C 
ENDBRANCH  10  27
ENDBRANCH   7   9
ENDBRANCH   4   7
ENDBRANCH   2   3
ENDBRANCH   1   2
BRANCH   1  29
ATOM     29  C   UNL     1       3.138   5.794  10.480  1.00  0.00     0.118 C 
BRANCH  29  30
ATOM     30  N   UNL     1       3.989   6.890  10.930  1.00  0.00    -0.352 N 
ATOM     31  C   UNL     1       3.921   8.246  10.697  1.00  0.00     0.251 C 
ATOM     32  H   UNL     1       4.743   6.612  11.498  1.00  0.00     0.163 HD
ATOM     33  O   UNL     1       4.865   8.951  11.050  1.00  0.00    -0.269 OA
BRANCH  31  34
ATOM     34  C   UNL     1       2.760   8.868  10.011  1.00  0.00     0.039 A 
ATOM     35  C   UNL     1       1.452   8.453  10.253  1.00  0.00     0.014 A 
ATOM     36  C   UNL     1       2.982   9.937   9.132  1.00  0.00     0.014 A 
ATOM     37  C   UNL     1       0.401   8.968   9.494  1.00  0.00     0.010 A 
ATOM     38  C   UNL     1       1.910  10.524   8.444  1.00  0.00     0.010 A 
ATOM     39  C   UNL     1       0.611  10.015   8.581  1.00  0.00    -0.014 A 
BRANCH  39  40
ATOM     40  C   UNL     1      -0.539  10.571   7.808  1.00  0.00     0.031 A 
ATOM     41  C   UNL     1      -0.568  10.507   6.299  1.00  0.00     0.074 A 
ATOM     42  C   UNL     1      -1.592  11.097   8.471  1.00  0.00     0.049 A 
ATOM     43  N   UNL     1      -1.494  10.939   5.479  1.00  0.00    -0.248 NA
ATOM     44  C   UNL     1       0.581   9.886   5.620  1.00  0.00     0.031 C 
ATOM     45  C   UNL     1      -1.696  11.216   9.928  1.00  0.00     0.029 A 
ATOM     46  N   UNL     1      -2.787  11.601   8.015  1.00  0.00    -0.354 N 
ATOM     47  C   UNL     1      -1.038  10.651   4.196  1.00  0.00     0.074 A 
ATOM     48  C   UNL     1       0.264  10.043   4.340  1.00  0.00     0.031 C 
ATOM     49  C   UNL     1      -2.908  11.694  10.246  1.00  0.00     0.029 A 
ATOM     50  C   UNL     1      -3.644  11.988   9.021  1.00  0.00     0.049 A 
ATOM     51  H   UNL     1      -3.009  11.678   7.059  1.00  0.00     0.167 HD
ATOM     52  C   UNL     1      -1.662  10.848   3.010  1.00  0.00     0.031 A 
ATOM     53  C   UNL     1      -4.879  12.529   8.975  1.00  0.00     0.031 A 
ATOM     54  C   UNL     1      -2.976  11.407   2.867  1.00  0.00     0.049 A 
ATOM     55  C   UNL     1      -5.523  12.780   7.641  1.00  0.00     0.074 A 
ATOM     56  C   UNL     1      -3.687  11.612   1.697  1.00  0.00     0.029 A 
ATOM     57  N   UNL     1      -3.781  11.829   3.910  1.00  0.00    -0.354 N 
ATOM     58  N   UNL     1      -5.073  12.482   6.446  1.00  0.00    -0.248 NA
ATOM     59  C   UNL     1      -6.834  13.444   7.643  1.00  0.00     0.031 C 
ATOM     60  C   UNL     1      -4.907  12.200   2.029  1.00  0.00     0.029 A 
ATOM     61  C   UNL     1      -4.975  12.316   3.409  1.00  0.00     0.049 A 
ATOM     62  H   UNL     1      -3.541  11.788   4.864  1.00  0.00     0.167 HD
ATOM     63  C   UNL     1      -6.051  12.912   5.556  1.00  0.00     0.074 A 
ATOM     64  C   UNL     1      -7.125  13.471   6.348  1.00  0.00     0.031 C 
ATOM     65  C   UNL     1      -6.047  12.855   4.204  1.00  0.00     0.031 A 
BRANCH  52  66
ATOM     66  C   UNL     1      -0.983  10.403   1.744  1.00  0.00    -0.014 A 
ATOM     67  C   UNL     1      -0.407  11.333   0.862  1.00  0.00     0.010 A 
ATOM     68  C   UNL     1      -1.079   9.061   1.350  1.00  0.00     0.010 A 
ATOM     69  C   UNL     1       0.075  10.918  -0.387  1.00  0.00     0.020 A 
ATOM     70  C   UNL     1      -0.561   8.633   0.126  1.00  0.00     0.020 A 
ATOM     71  C   UNL     1      -0.004   9.569  -0.745  1.00  0.00     0.054 A 
BRANCH  71  72
ATOM     72  S   UNL     1       0.627   9.027  -2.357  1.00  0.00     0.124 S 
ATOM     73  O   UNL     1      -0.495   9.322  -3.242  1.00  0.00    -0.237 OA
ATOM     74  O   UNL     1       1.813   9.859  -2.540  1.00  0.00    -0.237 OA
ATOM     75  O   UNL     1       0.903   7.606  -2.150  1.00  0.00    -0.744 OA
ENDBRANCH  71  72
ENDBRANCH  52  66
BRANCH  53  76
ATOM     76  C   UNL     1      -5.579  12.860  10.248  1.00  0.00    -0.014 A 
ATOM     77  C   UNL     1      -5.079  13.868  11.095  1.00  0.00     0.010 A 
ATOM     78  C   UNL     1      -6.705  12.124  10.657  1.00  0.00     0.010 A 
ATOM     79  C   UNL     1      -5.651  14.092  12.349  1.00  0.00     0.020 A 
ATOM     80  C   UNL     1      -7.301  12.369  11.899  1.00  0.00     0.020 A 
ATOM     81  C   UNL     1      -6.750  13.330  12.749  1.00  0.00     0.054 A 
BRANCH  81  82
ATOM     82  S   UNL     1      -7.448  13.606  14.401  1.00  0.00     0.124 S 
ATOM     83  O   UNL     1      -6.485  12.912  15.251  1.00  0.00    -0.237 OA
ATOM     84  O   UNL     1      -7.448  15.063  14.510  1.00  0.00    -0.237 OA
ATOM     85  O   UNL     1      -8.770  12.991  14.320  1.00  0.00    -0.744 OA
ENDBRANCH  81  82
ENDBRANCH  53  76
BRANCH  65  86
ATOM     86  C   UNL     1      -7.230  13.406   3.457  1.00  0.00    -0.014 A 
ATOM     87  C   UNL     1      -8.072  12.534   2.741  1.00  0.00     0.010 A 
ATOM     88  C   UNL     1      -7.404  14.794   3.324  1.00  0.00     0.010 A 
ATOM     89  C   UNL     1      -9.036  13.040   1.868  1.00  0.00     0.020 A 
ATOM     90  C   UNL     1      -8.386  15.304   2.471  1.00  0.00     0.020 A 
ATOM     91  C   UNL     1      -9.175  14.423   1.727  1.00  0.00     0.054 A 
BRANCH  91  92
ATOM     92  S   UNL     1     -10.390  15.063   0.542  1.00  0.00     0.124 S 
ATOM     93  O   UNL     1      -9.721  14.836  -0.736  1.00  0.00    -0.237 OA
ATOM     94  O   UNL     1     -11.560  14.226   0.798  1.00  0.00    -0.237 OA
ATOM     95  O   UNL     1     -10.540  16.464   0.928  1.00  0.00    -0.744 OA
ENDBRANCH  91  92
ENDBRANCH  65  86
ENDBRANCH  39  40
ENDBRANCH  31  34
ENDBRANCH  29  30
ENDBRANCH   1  29
TORSDOF 15
