REMARK SMILES CC1(C)CCC[C@@H]1[NH2+]Cc1cc(C(=O)NCCCNC(=O)c2ccc(-c3c4nc(c(-c5ccc(S(=O)(=O)[O-])cc5)c5ccc([nH]5)c(-c5ccc(S(=O)(=O)[O-])cc5)c5nc(c(-c6ccc(S(=O)(=O)[O-])cc6)c6ccc3[nH]6)C=C5)C=C4)cc2)cs1
REMARK SMILES IDX 17 1 16 2 15 3 13 4 14 5 12 7 10 8 11 9 83 10 82 11 9 12
REMARK SMILES IDX 8 13 7 16 1 17 2 18 3 19 4 20 5 21 6 22 18 23 19 24 20 25
REMARK SMILES IDX 21 27 22 28 23 29 81 30 24 31 80 32 25 33 26 34 27 35 74 36
REMARK SMILES IDX 28 37 79 38 73 39 75 40 29 41 78 42 72 43 71 44 30 46 60 47
REMARK SMILES IDX 41 48 59 49 42 50 45 51 58 52 76 53 43 54 44 55 57 57 77 58
REMARK SMILES IDX 46 59 31 60 32 61 40 62 33 63 39 64 34 65 35 66 36 67 37 68
REMARK SMILES IDX 38 69 61 70 62 71 70 72 63 73 69 74 64 75 65 76 66 77 67 78
REMARK SMILES IDX 68 79 47 80 48 81 56 82 49 83 55 84 50 85 51 86 52 87 53 88
REMARK SMILES IDX 54 89
REMARK H PARENT 15 6 8 14 8 15 19 26 75 45 45 56
REMARK Flexibility Score: inf
ROOT
ATOM      1  C   UNL     1      -1.087   6.913  -0.173  1.00  0.00     0.042 C 
ENDROOT
BRANCH   1   2
ATOM      2  C   UNL     1      -1.204   6.623  -1.668  1.00  0.00     0.118 C 
BRANCH   2   3
ATOM      3  N   UNL     1      -0.274   7.421  -2.447  1.00  0.00    -0.352 N 
ATOM      4  C   UNL     1       0.933   7.096  -3.009  1.00  0.00     0.252 C 
ATOM      5  O   UNL     1       1.454   7.926  -3.763  1.00  0.00    -0.269 OA
ATOM      6  H   UNL     1      -0.558   8.352  -2.596  1.00  0.00     0.163 HD
BRANCH   4   7
ATOM      7  C   UNL     1       1.546   5.790  -2.773  1.00  0.00     0.051 A 
ATOM      8  C   UNL     1       1.998   3.680  -1.829  1.00  0.00     0.059 A 
ATOM      9  C   UNL     1       1.439   4.928  -1.634  1.00  0.00     0.035 A 
ATOM     10  S   UNL     1       2.886   3.631  -3.287  1.00  0.00    -0.142 S 
ATOM     11  C   UNL     1       2.402   5.218  -3.701  1.00  0.00     0.079 A 
BRANCH   8  12
ATOM     12  C   UNL     1       1.866   2.472  -0.940  1.00  0.00     0.308 C 
BRANCH  12  13
ATOM     13  N   UNL     1       0.454   2.100  -0.877  1.00  0.00    -0.339 N 
ATOM     14  H   UNL     1      -0.072   2.931  -0.607  1.00  0.00     0.346 HD
ATOM     15  H   UNL     1       0.231   1.737  -1.803  1.00  0.00     0.346 HD
BRANCH  13  16
ATOM     16  C   UNL     1       0.099   1.031   0.051  1.00  0.00     0.188 C 
ATOM     17  C   UNL     1       2.101  -0.444   0.709  1.00  0.00     0.017 C 
ATOM     18  C   UNL     1       0.777  -0.361  -0.062  1.00  0.00     0.017 C 
ATOM     19  C   UNL     1       0.987  -0.819  -1.517  1.00  0.00     0.017 C 
ATOM     20  C   UNL     1      -0.273  -1.257   0.629  1.00  0.00     0.013 C 
ATOM     21  C   UNL     1      -1.609  -0.752   0.110  1.00  0.00     0.007 C 
ATOM     22  C   UNL     1      -1.413   0.745  -0.112  1.00  0.00     0.065 C 
ENDBRANCH  13  16
ENDBRANCH  12  13
ENDBRANCH   8  12
ENDBRANCH   4   7
ENDBRANCH   2   3
ENDBRANCH   1   2
BRANCH   1  23
ATOM     23  C   UNL     1      -1.716   8.238   0.242  1.00  0.00     0.118 C 
BRANCH  23  24
ATOM     24  N   UNL     1      -3.165   8.219   0.113  1.00  0.00    -0.352 N 
ATOM     25  C   UNL     1      -4.137   8.517   1.034  1.00  0.00     0.251 C 
ATOM     26  H   UNL     1      -3.500   7.950  -0.773  1.00  0.00     0.163 HD
ATOM     27  O   UNL     1      -5.305   8.232   0.780  1.00  0.00    -0.269 OA
BRANCH  25  28
ATOM     28  C   UNL     1      -3.795   9.161   2.322  1.00  0.00     0.039 A 
ATOM     29  C   UNL     1      -4.489   8.771   3.471  1.00  0.00     0.014 A 
ATOM     30  C   UNL     1      -2.838  10.177   2.399  1.00  0.00     0.014 A 
ATOM     31  C   UNL     1      -4.196   9.368   4.699  1.00  0.00     0.010 A 
ATOM     32  C   UNL     1      -2.494  10.718   3.636  1.00  0.00     0.010 A 
ATOM     33  C   UNL     1      -3.178  10.330   4.796  1.00  0.00    -0.014 A 
BRANCH  33  34
ATOM     34  C   UNL     1      -2.826  10.947   6.100  1.00  0.00     0.031 A 
ATOM     35  C   UNL     1      -3.024  12.425   6.316  1.00  0.00     0.074 A 
ATOM     36  C   UNL     1      -2.272  10.190   7.067  1.00  0.00     0.049 A 
ATOM     37  N   UNL     1      -2.723  13.152   7.361  1.00  0.00    -0.248 NA
ATOM     38  C   UNL     1      -3.615  13.188   5.205  1.00  0.00     0.031 C 
ATOM     39  C   UNL     1      -1.990   8.755   6.962  1.00  0.00     0.029 A 
ATOM     40  N   UNL     1      -1.839  10.520   8.326  1.00  0.00    -0.354 N 
ATOM     41  C   UNL     1      -3.064  14.458   7.026  1.00  0.00     0.074 A 
ATOM     42  C   UNL     1      -3.554  14.430   5.665  1.00  0.00     0.031 C 
ATOM     43  C   UNL     1      -1.453   8.327   8.116  1.00  0.00     0.029 A 
ATOM     44  C   UNL     1      -1.314   9.459   9.026  1.00  0.00     0.049 A 
ATOM     45  H   UNL     1      -1.897  11.432   8.694  1.00  0.00     0.167 HD
ATOM     46  C   UNL     1      -2.991  15.576   7.786  1.00  0.00     0.031 A 
ATOM     47  C   UNL     1      -0.774   9.403  10.259  1.00  0.00     0.031 A 
ATOM     48  C   UNL     1      -2.520  15.595   9.146  1.00  0.00     0.049 A 
ATOM     49  C   UNL     1      -0.716  10.656  11.089  1.00  0.00     0.074 A 
ATOM     50  C   UNL     1      -2.465  16.664  10.023  1.00  0.00     0.029 A 
ATOM     51  N   UNL     1      -2.022  14.494   9.826  1.00  0.00    -0.354 N 
ATOM     52  N   UNL     1      -1.105  11.869  10.776  1.00  0.00    -0.248 NA
ATOM     53  C   UNL     1      -0.161  10.529  12.443  1.00  0.00     0.031 C 
ATOM     54  C   UNL     1      -1.887  16.221  11.217  1.00  0.00     0.029 A 
ATOM     55  C   UNL     1      -1.639  14.862  11.105  1.00  0.00     0.049 A 
ATOM     56  H   UNL     1      -1.952  13.585   9.455  1.00  0.00     0.167 HD
ATOM     57  C   UNL     1      -0.869  12.644  11.906  1.00  0.00     0.074 A 
ATOM     58  C   UNL     1      -0.317  11.759  12.912  1.00  0.00     0.031 C 
ATOM     59  C   UNL     1      -1.093  13.968  12.095  1.00  0.00     0.031 A 
BRANCH  46  60
ATOM     60  C   UNL     1      -3.426  16.877   7.162  1.00  0.00    -0.014 A 
ATOM     61  C   UNL     1      -4.779  17.130   6.869  1.00  0.00     0.010 A 
ATOM     62  C   UNL     1      -2.474  17.881   6.906  1.00  0.00     0.010 A 
ATOM     63  C   UNL     1      -5.165  18.343   6.293  1.00  0.00     0.020 A 
ATOM     64  C   UNL     1      -2.860  19.108   6.357  1.00  0.00     0.020 A 
ATOM     65  C   UNL     1      -4.202  19.324   6.039  1.00  0.00     0.054 A 
BRANCH  65  66
ATOM     66  S   UNL     1      -4.736  20.900   5.315  1.00  0.00     0.124 S 
ATOM     67  O   UNL     1      -5.028  20.513   3.937  1.00  0.00    -0.237 OA
ATOM     68  O   UNL     1      -5.897  21.249   6.128  1.00  0.00    -0.237 OA
ATOM     69  O   UNL     1      -3.575  21.771   5.484  1.00  0.00    -0.744 OA
ENDBRANCH  65  66
ENDBRANCH  46  60
BRANCH  47  70
ATOM     70  C   UNL     1      -0.262   8.108  10.786  1.00  0.00    -0.014 A 
ATOM     71  C   UNL     1      -0.941   7.437  11.818  1.00  0.00     0.010 A 
ATOM     72  C   UNL     1       0.901   7.531  10.244  1.00  0.00     0.010 A 
ATOM     73  C   UNL     1      -0.457   6.222  12.312  1.00  0.00     0.020 A 
ATOM     74  C   UNL     1       1.372   6.302  10.715  1.00  0.00     0.020 A 
ATOM     75  C   UNL     1       0.696   5.661  11.755  1.00  0.00     0.054 A 
BRANCH  75  76
ATOM     76  S   UNL     1       1.277   4.057  12.374  1.00  0.00     0.124 S 
ATOM     77  O   UNL     1       1.847   4.419  13.667  1.00  0.00    -0.237 OA
ATOM     78  O   UNL     1       0.046   3.272  12.421  1.00  0.00    -0.237 OA
ATOM     79  O   UNL     1       2.240   3.629  11.361  1.00  0.00    -0.744 OA
ENDBRANCH  75  76
ENDBRANCH  47  70
BRANCH  59  80
ATOM     80  C   UNL     1      -0.783  14.536  13.454  1.00  0.00    -0.014 A 
ATOM     81  C   UNL     1       0.542  14.713  13.889  1.00  0.00     0.010 A 
ATOM     82  C   UNL     1      -1.840  14.946  14.288  1.00  0.00     0.010 A 
ATOM     83  C   UNL     1       0.804  15.259  15.149  1.00  0.00     0.020 A 
ATOM     84  C   UNL     1      -1.581  15.519  15.535  1.00  0.00     0.020 A 
ATOM     85  C   UNL     1      -0.260  15.657  15.964  1.00  0.00     0.054 A 
BRANCH  85  86
ATOM     86  S   UNL     1       0.106  16.399  17.578  1.00  0.00     0.124 S 
ATOM     87  O   UNL     1       0.521  15.236  18.359  1.00  0.00    -0.237 OA
ATOM     88  O   UNL     1       1.166  17.353  17.260  1.00  0.00    -0.237 OA
ATOM     89  O   UNL     1      -1.164  16.999  17.980  1.00  0.00    -0.744 OA
ENDBRANCH  85  86
ENDBRANCH  59  80
ENDBRANCH  33  34
ENDBRANCH  25  28
ENDBRANCH  23  24
ENDBRANCH   1  23
TORSDOF 16
