REMARK SMILES O=C(CS(=O)(=O)NCc1ccc(N2CCOCC2)nc1)NCCCNC(=O)c1ccc(-c2c3nc(c(-c4ccc(S(=O)(=O)[O-])cc4)c4ccc([nH]4)c(-c4ccc(S(=O)(=O)[O-])cc4)c4nc(c(-c5ccc(S(=O)(=O)[O-])cc5)c5ccc2[nH]5)C=C4)C=C3)cc1
REMARK SMILES IDX 22 1 21 2 1 3 2 4 3 6 4 7 5 8 6 9 7 10 8 12 9 13 10 14 20 15
REMARK SMILES IDX 11 16 19 17 12 18 13 19 14 20 18 21 15 22 17 23 16 24 23 25
REMARK SMILES IDX 24 26 25 27 26 28 27 30 28 31 29 32 87 33 30 34 86 35 31 36
REMARK SMILES IDX 32 37 33 38 80 39 34 40 85 41 79 42 81 43 35 44 84 45 78 46
REMARK SMILES IDX 77 47 36 49 66 50 47 51 65 52 48 53 51 54 64 55 82 56 49 57
REMARK SMILES IDX 50 58 63 60 83 61 52 62 37 63 38 64 46 65 39 66 45 67 40 68
REMARK SMILES IDX 41 69 42 70 43 71 44 72 67 73 68 74 76 75 69 76 75 77 70 78
REMARK SMILES IDX 71 79 72 80 73 81 74 82 53 83 54 84 62 85 55 86 61 87 56 88
REMARK SMILES IDX 57 89 58 90 59 91 60 92
REMARK H PARENT 21 5 7 11 25 29 81 48 51 59
REMARK Flexibility Score: inf
ROOT
ATOM      1  C   UNL     1       2.021   2.212   0.534  1.00  0.00     0.117 C 
ENDROOT
BRANCH   1   2
ATOM      2  N   UNL     1       2.671   0.920   0.407  1.00  0.00    -0.355 N 
ATOM      3  O   UNL     1       0.728  -0.264   0.176  1.00  0.00    -0.274 OA
ATOM      4  C   UNL     1       1.958  -0.242   0.209  1.00  0.00     0.236 C 
ATOM      5  H   UNL     1       3.653   0.873   0.464  1.00  0.00     0.163 HD
BRANCH   4   6
ATOM      6  C   UNL     1       2.739  -1.512   0.110  1.00  0.00     0.253 C 
BRANCH   6   7
ATOM      7  S   UNL     1       3.967  -1.462  -1.162  1.00  0.00     0.220 S 
ATOM      8  O   UNL     1       4.860  -0.358  -0.873  1.00  0.00    -0.212 OA
ATOM      9  O   UNL     1       4.493  -2.800  -1.306  1.00  0.00    -0.212 OA
BRANCH   7  10
ATOM     10  N   UNL     1       3.179  -1.179  -2.597  1.00  0.00    -0.210 NA
ATOM     11  H   UNL     1       2.392  -1.828  -2.608  1.00  0.00     0.141 HD
BRANCH  10  12
ATOM     12  C   UNL     1       2.627   0.111  -3.009  1.00  0.00     0.135 C 
BRANCH  12  13
ATOM     13  C   UNL     1       3.564   1.278  -3.104  1.00  0.00    -0.015 A 
ATOM     14  C   UNL     1       3.088   2.570  -2.904  1.00  0.00     0.010 A 
ATOM     15  C   UNL     1       4.909   1.167  -3.430  1.00  0.00     0.118 A 
ATOM     16  C   UNL     1       3.975   3.643  -2.913  1.00  0.00     0.047 A 
ATOM     17  N   UNL     1       5.779   2.206  -3.486  1.00  0.00    -0.239 NA
ATOM     18  C   UNL     1       5.329   3.435  -3.172  1.00  0.00     0.128 A 
BRANCH  18  19
ATOM     19  N   UNL     1       6.201   4.497  -3.164  1.00  0.00    -0.352 N 
ATOM     20  C   UNL     1       6.216   5.439  -2.042  1.00  0.00     0.146 C 
ATOM     21  C   UNL     1       7.467   4.437  -3.884  1.00  0.00     0.146 C 
ATOM     22  C   UNL     1       6.613   6.831  -2.546  1.00  0.00     0.181 C 
ATOM     23  C   UNL     1       7.767   5.864  -4.378  1.00  0.00     0.181 C 
ATOM     24  O   UNL     1       7.848   6.801  -3.287  1.00  0.00    -0.378 OA
ENDBRANCH  18  19
ENDBRANCH  12  13
ENDBRANCH  10  12
ENDBRANCH   7  10
ENDBRANCH   6   7
ENDBRANCH   4   6
ENDBRANCH   1   2
BRANCH   1  25
ATOM     25  C   UNL     1       2.383   2.933   1.823  1.00  0.00     0.042 C 
BRANCH  25  26
ATOM     26  C   UNL     1       3.830   3.416   1.883  1.00  0.00     0.118 C 
BRANCH  26  27
ATOM     27  N   UNL     1       4.102   4.456   0.901  1.00  0.00    -0.352 N 
ATOM     28  C   UNL     1       4.538   5.747   1.060  1.00  0.00     0.251 C 
ATOM     29  H   UNL     1       3.947   4.188  -0.033  1.00  0.00     0.163 HD
ATOM     30  O   UNL     1       4.330   6.551   0.152  1.00  0.00    -0.269 OA
BRANCH  28  31
ATOM     31  C   UNL     1       5.244   6.207   2.277  1.00  0.00     0.039 A 
ATOM     32  C   UNL     1       5.263   7.584   2.526  1.00  0.00     0.014 A 
ATOM     33  C   UNL     1       5.906   5.344   3.152  1.00  0.00     0.014 A 
ATOM     34  C   UNL     1       5.841   8.076   3.692  1.00  0.00     0.010 A 
ATOM     35  C   UNL     1       6.380   5.820   4.372  1.00  0.00     0.010 A 
ATOM     36  C   UNL     1       6.332   7.189   4.660  1.00  0.00    -0.014 A 
BRANCH  36  37
ATOM     37  C   UNL     1       6.722   7.694   5.997  1.00  0.00     0.031 A 
ATOM     38  C   UNL     1       8.129   7.550   6.497  1.00  0.00     0.074 A 
ATOM     39  C   UNL     1       5.769   8.256   6.769  1.00  0.00     0.049 A 
ATOM     40  N   UNL     1       8.642   7.962   7.628  1.00  0.00    -0.248 NA
ATOM     41  C   UNL     1       9.080   6.833   5.632  1.00  0.00     0.031 C 
ATOM     42  C   UNL     1       4.354   8.389   6.403  1.00  0.00     0.029 A 
ATOM     43  N   UNL     1       5.841   8.834   8.009  1.00  0.00    -0.354 N 
ATOM     44  C   UNL     1       9.968   7.549   7.614  1.00  0.00     0.074 A 
ATOM     45  C   UNL     1      10.167   6.805   6.390  1.00  0.00     0.031 C 
ATOM     46  C   UNL     1       3.708   9.061   7.367  1.00  0.00     0.029 A 
ATOM     47  C   UNL     1       4.646   9.360   8.441  1.00  0.00     0.049 A 
ATOM     48  H   UNL     1       6.670   8.870   8.540  1.00  0.00     0.167 HD
ATOM     49  C   UNL     1      10.937   7.788   8.530  1.00  0.00     0.031 A 
ATOM     50  C   UNL     1       4.339  10.016   9.576  1.00  0.00     0.031 A 
ATOM     51  C   UNL     1      10.720   8.528   9.747  1.00  0.00     0.049 A 
ATOM     52  C   UNL     1       5.434  10.273  10.572  1.00  0.00     0.074 A 
ATOM     53  C   UNL     1      11.637   8.863  10.727  1.00  0.00     0.029 A 
ATOM     54  N   UNL     1       9.497   9.045  10.151  1.00  0.00    -0.354 N 
ATOM     55  N   UNL     1       6.699   9.930  10.512  1.00  0.00    -0.248 NA
ATOM     56  C   UNL     1       5.064  11.021  11.779  1.00  0.00     0.031 C 
ATOM     57  C   UNL     1      10.958   9.534  11.749  1.00  0.00     0.029 A 
ATOM     58  C   UNL     1       9.631   9.680  11.374  1.00  0.00     0.049 A 
ATOM     59  H   UNL     1       8.657   8.972   9.642  1.00  0.00     0.167 HD
ATOM     60  C   UNL     1       7.285  10.447  11.661  1.00  0.00     0.074 A 
ATOM     61  C   UNL     1       6.237  11.143  12.383  1.00  0.00     0.031 C 
ATOM     62  C   UNL     1       8.572  10.357  12.080  1.00  0.00     0.031 A 
BRANCH  49  63
ATOM     63  C   UNL     1      12.310   7.234   8.252  1.00  0.00    -0.014 A 
ATOM     64  C   UNL     1      13.099   7.733   7.199  1.00  0.00     0.010 A 
ATOM     65  C   UNL     1      12.835   6.218   9.073  1.00  0.00     0.010 A 
ATOM     66  C   UNL     1      14.365   7.199   6.944  1.00  0.00     0.020 A 
ATOM     67  C   UNL     1      14.114   5.702   8.841  1.00  0.00     0.020 A 
ATOM     68  C   UNL     1      14.864   6.184   7.766  1.00  0.00     0.054 A 
BRANCH  68  69
ATOM     69  S   UNL     1      16.518   5.524   7.425  1.00  0.00     0.124 S 
ATOM     70  O   UNL     1      16.293   4.766   6.197  1.00  0.00    -0.237 OA
ATOM     71  O   UNL     1      17.321   6.736   7.276  1.00  0.00    -0.237 OA
ATOM     72  O   UNL     1      16.822   4.720   8.606  1.00  0.00    -0.744 OA
ENDBRANCH  68  69
ENDBRANCH  49  63
BRANCH  50  73
ATOM     73  C   UNL     1       2.947  10.492   9.810  1.00  0.00    -0.014 A 
ATOM     74  C   UNL     1       2.648  11.866   9.810  1.00  0.00     0.010 A 
ATOM     75  C   UNL     1       1.906   9.569  10.018  1.00  0.00     0.010 A 
ATOM     76  C   UNL     1       1.342  12.308  10.040  1.00  0.00     0.020 A 
ATOM     77  C   UNL     1       0.593  10.005  10.215  1.00  0.00     0.020 A 
ATOM     78  C   UNL     1       0.322  11.373  10.239  1.00  0.00     0.054 A 
BRANCH  78  79
ATOM     79  S   UNL     1      -1.373  11.968  10.495  1.00  0.00     0.124 S 
ATOM     80  O   UNL     1      -1.300  12.524  11.842  1.00  0.00    -0.237 OA
ATOM     81  O   UNL     1      -1.532  12.940   9.415  1.00  0.00    -0.237 OA
ATOM     82  O   UNL     1      -2.184  10.759  10.359  1.00  0.00    -0.744 OA
ENDBRANCH  78  79
ENDBRANCH  50  73
BRANCH  62  83
ATOM     83  C   UNL     1       8.921  11.068  13.362  1.00  0.00    -0.014 A 
ATOM     84  C   UNL     1       8.440  10.620  14.605  1.00  0.00     0.010 A 
ATOM     85  C   UNL     1       9.759  12.197  13.316  1.00  0.00     0.010 A 
ATOM     86  C   UNL     1       8.744  11.324  15.773  1.00  0.00     0.020 A 
ATOM     87  C   UNL     1      10.095  12.881  14.485  1.00  0.00     0.020 A 
ATOM     88  C   UNL     1       9.565  12.454  15.704  1.00  0.00     0.054 A 
BRANCH  88  89
ATOM     89  S   UNL     1       9.950  13.348  17.233  1.00  0.00     0.124 S 
ATOM     90  O   UNL     1       8.688  14.025  17.514  1.00  0.00    -0.237 OA
ATOM     91  O   UNL     1      10.304  12.270  18.154  1.00  0.00    -0.237 OA
ATOM     92  O   UNL     1      11.057  14.223  16.854  1.00  0.00    -0.744 OA
ENDBRANCH  88  89
ENDBRANCH  62  83
ENDBRANCH  36  37
ENDBRANCH  28  31
ENDBRANCH  26  27
ENDBRANCH  25  26
ENDBRANCH   1  25
TORSDOF 18
