REMARK SMILES COc1ccc(Cl)c(C[C@H]([NH3+])C(=O)NCCCNC(=O)c2ccc(-c3c4nc(c(-c5ccc(S(=O)(=O)[O-])cc5)c5ccc([nH]5)c(-c5ccc(S(=O)(=O)[O-])cc5)c5nc(c(-c6ccc(S(=O)(=O)[O-])cc6)c6ccc3[nH]6)C=C5)C=C4)cc2)c1F
REMARK SMILES IDX 16 1 15 2 14 3 12 4 13 5 10 7 9 8 8 9 3 10 4 11 81 12 5 13
REMARK SMILES IDX 82 14 6 15 7 16 2 17 1 18 11 19 17 23 18 24 19 25 20 27
REMARK SMILES IDX 21 28 22 29 80 30 23 31 79 32 24 33 25 34 26 35 73 36 27 37
REMARK SMILES IDX 78 38 72 39 74 40 28 41 77 42 71 43 70 44 29 46 59 47 40 48
REMARK SMILES IDX 58 49 41 50 44 51 57 52 75 53 42 54 43 55 56 57 76 58 45 59
REMARK SMILES IDX 30 60 31 61 39 62 32 63 38 64 33 65 34 66 35 67 36 68 37 69
REMARK SMILES IDX 60 70 61 71 69 72 62 73 68 74 63 75 64 76 65 77 66 78 67 79
REMARK SMILES IDX 46 80 47 81 55 82 48 83 54 84 49 85 50 86 51 87 52 88 53 89
REMARK H PARENT 14 6 11 20 11 21 11 22 18 26 74 45 44 56
REMARK Flexibility Score: inf
ROOT
ATOM      1  C   UNL     1       5.522  -3.025   6.263  1.00  0.00     0.042 C 
ENDROOT
BRANCH   1   2
ATOM      2  C   UNL     1       5.311  -1.668   6.920  1.00  0.00     0.118 C 
BRANCH   2   3
ATOM      3  N   UNL     1       6.211  -0.670   6.370  1.00  0.00    -0.351 N 
ATOM      4  C   UNL     1       5.960   0.440   5.622  1.00  0.00     0.278 C 
ATOM      5  O   UNL     1       6.929   1.026   5.132  1.00  0.00    -0.268 OA
ATOM      6  H   UNL     1       7.163  -0.822   6.571  1.00  0.00     0.163 HD
BRANCH   4   7
ATOM      7  C   UNL     1       4.520   0.931   5.368  1.00  0.00     0.275 C 
BRANCH   7   8
ATOM      8  C   UNL     1       3.749   1.149   6.690  1.00  0.00     0.115 C 
BRANCH   8   9
ATOM      9  C   UNL     1       3.376   2.589   6.965  1.00  0.00     0.017 A 
ATOM     10  C   UNL     1       1.618   4.278   7.162  1.00  0.00     0.154 A 
ATOM     11  C   UNL     1       2.575   5.246   7.457  1.00  0.00     0.051 A 
ATOM     12  C   UNL     1       2.027   2.969   6.889  1.00  0.00     0.169 A 
ATOM     13  C   UNL     1       3.919   4.890   7.550  1.00  0.00     0.025 A 
ATOM     14  F   UNL     1       1.117   2.043   6.550  1.00  0.00    -0.203 F 
ATOM     15  C   UNL     1       4.315   3.568   7.327  1.00  0.00     0.047 A 
ATOM     16  Cl  UNL     1       5.984   3.199   7.561  1.00  0.00    -0.084 Cl
BRANCH  10  17
ATOM     17  O   UNL     1       0.322   4.719   7.131  1.00  0.00    -0.494 OA
ATOM     18  C   UNL     1      -0.605   3.829   7.752  1.00  0.00     0.278 C 
ENDBRANCH  10  17
ENDBRANCH   8   9
ENDBRANCH   7   8
BRANCH   7  19
ATOM     19  N   UNL     1       3.834   0.010   4.434  1.00  0.00    -0.347 N 
ATOM     20  H   UNL     1       3.783  -0.920   4.849  1.00  0.00     0.345 HD
ATOM     21  H   UNL     1       4.355  -0.036   3.558  1.00  0.00     0.345 HD
ATOM     22  H   UNL     1       2.891   0.353   4.250  1.00  0.00     0.345 HD
ENDBRANCH   7  19
ENDBRANCH   4   7
ENDBRANCH   2   3
ENDBRANCH   1   2
BRANCH   1  23
ATOM     23  C   UNL     1       6.895  -3.624   6.540  1.00  0.00     0.118 C 
BRANCH  23  24
ATOM     24  N   UNL     1       7.105  -3.906   7.955  1.00  0.00    -0.352 N 
ATOM     25  C   UNL     1       7.281  -5.109   8.595  1.00  0.00     0.251 C 
ATOM     26  H   UNL     1       7.123  -3.115   8.541  1.00  0.00     0.163 HD
ATOM     27  O   UNL     1       7.234  -5.158   9.822  1.00  0.00    -0.269 OA
BRANCH  25  28
ATOM     28  C   UNL     1       7.500  -6.339   7.807  1.00  0.00     0.039 A 
ATOM     29  C   UNL     1       6.805  -7.500   8.154  1.00  0.00     0.014 A 
ATOM     30  C   UNL     1       8.380  -6.344   6.722  1.00  0.00     0.014 A 
ATOM     31  C   UNL     1       6.929  -8.641   7.359  1.00  0.00     0.010 A 
ATOM     32  C   UNL     1       8.437  -7.453   5.884  1.00  0.00     0.010 A 
ATOM     33  C   UNL     1       7.707  -8.611   6.190  1.00  0.00    -0.014 A 
BRANCH  33  34
ATOM     34  C   UNL     1       7.751  -9.767   5.259  1.00  0.00     0.031 A 
ATOM     35  C   UNL     1       9.048 -10.482   4.996  1.00  0.00     0.074 A 
ATOM     36  C   UNL     1       6.635 -10.121   4.590  1.00  0.00     0.049 A 
ATOM     37  N   UNL     1       9.295 -11.458   4.160  1.00  0.00    -0.248 NA
ATOM     38  C   UNL     1      10.225 -10.027   5.754  1.00  0.00     0.031 C 
ATOM     39  C   UNL     1       5.324  -9.480   4.727  1.00  0.00     0.029 A 
ATOM     40  N   UNL     1       6.426 -11.101   3.652  1.00  0.00    -0.354 N 
ATOM     41  C   UNL     1      10.654 -11.723   4.279  1.00  0.00     0.074 A 
ATOM     42  C   UNL     1      11.188 -10.773   5.232  1.00  0.00     0.031 C 
ATOM     43  C   UNL     1       4.445 -10.099   3.924  1.00  0.00     0.029 A 
ATOM     44  C   UNL     1       5.135 -11.146   3.179  1.00  0.00     0.049 A 
ATOM     45  H   UNL     1       7.133 -11.714   3.347  1.00  0.00     0.167 HD
ATOM     46  C   UNL     1      11.388 -12.681   3.665  1.00  0.00     0.031 A 
ATOM     47  C   UNL     1       4.572 -11.931   2.240  1.00  0.00     0.031 A 
ATOM     48  C   UNL     1      10.852 -13.625   2.720  1.00  0.00     0.049 A 
ATOM     49  C   UNL     1       5.415 -12.968   1.550  1.00  0.00     0.074 A 
ATOM     50  C   UNL     1      11.503 -14.669   2.086  1.00  0.00     0.029 A 
ATOM     51  N   UNL     1       9.542 -13.636   2.267  1.00  0.00    -0.354 N 
ATOM     52  N   UNL     1       6.683 -13.250   1.729  1.00  0.00    -0.248 NA
ATOM     53  C   UNL     1       4.749 -13.796   0.535  1.00  0.00     0.031 C 
ATOM     54  C   UNL     1      10.601 -15.274   1.204  1.00  0.00     0.029 A 
ATOM     55  C   UNL     1       9.372 -14.648   1.336  1.00  0.00     0.049 A 
ATOM     56  H   UNL     1       8.836 -13.017   2.563  1.00  0.00     0.167 HD
ATOM     57  C   UNL     1       6.962 -14.302   0.864  1.00  0.00     0.074 A 
ATOM     58  C   UNL     1       5.726 -14.619   0.179  1.00  0.00     0.031 C 
ATOM     59  C   UNL     1       8.137 -14.947   0.655  1.00  0.00     0.031 A 
BRANCH  46  60
ATOM     60  C   UNL     1      12.858 -12.749   3.990  1.00  0.00    -0.014 A 
ATOM     61  C   UNL     1      13.305 -13.166   5.257  1.00  0.00     0.010 A 
ATOM     62  C   UNL     1      13.808 -12.432   3.001  1.00  0.00     0.010 A 
ATOM     63  C   UNL     1      14.671 -13.224   5.543  1.00  0.00     0.020 A 
ATOM     64  C   UNL     1      15.177 -12.518   3.274  1.00  0.00     0.020 A 
ATOM     65  C   UNL     1      15.599 -12.898   4.549  1.00  0.00     0.054 A 
BRANCH  65  66
ATOM     66  S   UNL     1      17.366 -13.005   4.943  1.00  0.00     0.124 S 
ATOM     67  O   UNL     1      17.546 -11.861   5.833  1.00  0.00    -0.237 OA
ATOM     68  O   UNL     1      17.473 -14.316   5.577  1.00  0.00    -0.237 OA
ATOM     69  O   UNL     1      18.020 -12.890   3.642  1.00  0.00    -0.744 OA
ENDBRANCH  65  66
ENDBRANCH  46  60
BRANCH  47  70
ATOM     70  C   UNL     1       3.131 -11.766   1.899  1.00  0.00    -0.014 A 
ATOM     71  C   UNL     1       2.196 -12.755   2.250  1.00  0.00     0.010 A 
ATOM     72  C   UNL     1       2.686 -10.610   1.231  1.00  0.00     0.010 A 
ATOM     73  C   UNL     1       0.845 -12.600   1.925  1.00  0.00     0.020 A 
ATOM     74  C   UNL     1       1.331 -10.438   0.931  1.00  0.00     0.020 A 
ATOM     75  C   UNL     1       0.421 -11.440   1.270  1.00  0.00     0.054 A 
BRANCH  75  76
ATOM     76  S   UNL     1      -1.345 -11.237   0.908  1.00  0.00     0.124 S 
ATOM     77  O   UNL     1      -1.542 -12.188  -0.181  1.00  0.00    -0.237 OA
ATOM     78  O   UNL     1      -1.970 -11.591   2.180  1.00  0.00    -0.237 OA
ATOM     79  O   UNL     1      -1.458  -9.828   0.538  1.00  0.00    -0.744 OA
ENDBRANCH  75  76
ENDBRANCH  47  70
BRANCH  59  80
ATOM     80  C   UNL     1       8.140 -16.075  -0.343  1.00  0.00    -0.014 A 
ATOM     81  C   UNL     1       8.033 -15.826  -1.722  1.00  0.00     0.010 A 
ATOM     82  C   UNL     1       8.309 -17.398   0.104  1.00  0.00     0.010 A 
ATOM     83  C   UNL     1       8.066 -16.884  -2.635  1.00  0.00     0.020 A 
ATOM     84  C   UNL     1       8.373 -18.455  -0.807  1.00  0.00     0.020 A 
ATOM     85  C   UNL     1       8.238 -18.192  -2.171  1.00  0.00     0.054 A 
BRANCH  85  86
ATOM     86  S   UNL     1       8.327 -19.541  -3.381  1.00  0.00     0.124 S 
ATOM     87  O   UNL     1       6.940 -19.640  -3.827  1.00  0.00    -0.237 OA
ATOM     88  O   UNL     1       9.270 -19.022  -4.369  1.00  0.00    -0.237 OA
ATOM     89  O   UNL     1       8.813 -20.676  -2.600  1.00  0.00    -0.744 OA
ENDBRANCH  85  86
ENDBRANCH  59  80
ENDBRANCH  33  34
ENDBRANCH  25  28
ENDBRANCH  23  24
ENDBRANCH   1  23
TORSDOF 17
