REMARK SMILES CCCn1ncc(C(=O)N2CCC(C(=O)NCCCNC(=O)c3ccc(-c4c5nc(c(-c6ccc(S(=O)(=O)[O-])cc6)c6ccc([nH]6)c(-c6ccc(S(=O)(=O)[O-])cc6)c6nc(c(-c7ccc(S(=O)(=O)[O-])cc7)c7ccc4[nH]7)C=C6)C=C5)cc3)CC2)c1C
REMARK SMILES IDX 18 1 17 2 16 3 14 4 15 5 13 7 8 8 9 9 10 10 11 11 84 12
REMARK SMILES IDX 12 13 83 14 7 15 4 16 5 17 85 18 6 19 86 20 3 21 2 22 1 23
REMARK SMILES IDX 19 24 20 25 21 26 22 28 23 29 24 30 82 31 25 32 81 33 26 34
REMARK SMILES IDX 27 35 28 36 75 37 29 38 80 39 74 40 76 41 30 42 79 43 73 44
REMARK SMILES IDX 72 45 31 47 61 48 42 49 60 50 43 51 46 52 59 53 77 54 44 55
REMARK SMILES IDX 45 56 58 58 78 59 47 60 32 61 33 62 41 63 34 64 40 65 35 66
REMARK SMILES IDX 36 67 37 68 38 69 39 70 62 71 63 72 71 73 64 74 70 75 65 76
REMARK SMILES IDX 66 77 67 78 68 79 69 80 48 81 49 82 57 83 50 84 56 85 51 86
REMARK SMILES IDX 52 87 53 88 54 89 55 90
REMARK H PARENT 16 6 20 27 76 46 46 57
REMARK Flexibility Score: inf
ROOT
ATOM      1  C   UNL     1       0.015   2.803   7.403  1.00  0.00     0.042 C 
ENDROOT
BRANCH   1   2
ATOM      2  C   UNL     1       0.633   1.505   7.924  1.00  0.00     0.117 C 
BRANCH   2   3
ATOM      3  N   UNL     1       0.102   1.062   9.209  1.00  0.00    -0.356 N 
ATOM      4  C   UNL     1      -0.627  -0.040   9.547  1.00  0.00     0.223 C 
ATOM      5  O   UNL     1      -0.862  -0.235  10.741  1.00  0.00    -0.275 OA
ATOM      6  H   UNL     1       0.305   1.663   9.962  1.00  0.00     0.163 HD
BRANCH   4   7
ATOM      7  C   UNL     1      -1.147  -1.014   8.498  1.00  0.00     0.082 C 
ATOM      8  C   UNL     1      -0.713  -0.848   4.642  1.00  0.00     0.257 C 
ATOM      9  O   UNL     1      -0.823   0.376   4.595  1.00  0.00    -0.269 OA
ATOM     10  N   UNL     1      -1.234  -1.589   5.696  1.00  0.00    -0.338 N 
ATOM     11  C   UNL     1      -2.451  -1.128   6.334  1.00  0.00     0.120 C 
ATOM     12  C   UNL     1      -0.403  -2.468   6.505  1.00  0.00     0.120 C 
ATOM     13  C   UNL     1      -2.136  -0.305   7.564  1.00  0.00     0.035 C 
ATOM     14  C   UNL     1      -0.002  -1.791   7.818  1.00  0.00     0.035 C 
BRANCH   8  15
ATOM     15  C   UNL     1      -0.167  -1.612   3.527  1.00  0.00     0.080 A 
ATOM     16  N   UNL     1       0.662  -2.143   1.550  1.00  0.00    -0.269 N 
ATOM     17  N   UNL     1       0.175  -3.308   2.031  1.00  0.00    -0.180 NA
ATOM     18  C   UNL     1       0.573  -1.115   2.458  1.00  0.00     0.048 A 
ATOM     19  C   UNL     1      -0.344  -2.975   3.213  1.00  0.00     0.149 A 
ATOM     20  C   UNL     1       1.129   0.246   2.258  1.00  0.00     0.067 C 
BRANCH  16  21
ATOM     21  C   UNL     1       1.261  -2.158   0.225  1.00  0.00     0.144 C 
BRANCH  21  22
ATOM     22  C   UNL     1       0.472  -1.441  -0.877  1.00  0.00     0.020 C 
ATOM     23  C   UNL     1       0.810   0.036  -1.029  1.00  0.00     0.006 C 
ENDBRANCH  21  22
ENDBRANCH  16  21
ENDBRANCH   8  15
ENDBRANCH   4   7
ENDBRANCH   2   3
ENDBRANCH   1   2
BRANCH   1  24
ATOM     24  C   UNL     1       0.437   4.022   8.198  1.00  0.00     0.118 C 
BRANCH  24  25
ATOM     25  N   UNL     1       1.858   4.344   8.055  1.00  0.00    -0.352 N 
ATOM     26  C   UNL     1       2.539   5.415   8.602  1.00  0.00     0.251 C 
ATOM     27  H   UNL     1       2.391   3.725   7.504  1.00  0.00     0.163 HD
ATOM     28  O   UNL     1       3.636   5.752   8.164  1.00  0.00    -0.269 OA
BRANCH  26  29
ATOM     29  C   UNL     1       1.909   6.153   9.711  1.00  0.00     0.039 A 
ATOM     30  C   UNL     1       1.901   7.549   9.751  1.00  0.00     0.014 A 
ATOM     31  C   UNL     1       1.249   5.410  10.684  1.00  0.00     0.014 A 
ATOM     32  C   UNL     1       1.135   8.189  10.725  1.00  0.00     0.010 A 
ATOM     33  C   UNL     1       0.365   6.034  11.526  1.00  0.00     0.010 A 
ATOM     34  C   UNL     1       0.342   7.423  11.594  1.00  0.00    -0.014 A 
BRANCH  34  35
ATOM     35  C   UNL     1      -0.605   8.049  12.514  1.00  0.00     0.031 A 
ATOM     36  C   UNL     1      -1.585   8.972  11.879  1.00  0.00     0.074 A 
ATOM     37  C   UNL     1      -0.756   7.642  13.794  1.00  0.00     0.049 A 
ATOM     38  N   UNL     1      -1.655  10.256  12.002  1.00  0.00    -0.248 NA
ATOM     39  C   UNL     1      -2.519   8.420  10.883  1.00  0.00     0.031 C 
ATOM     40  C   UNL     1      -0.084   6.526  14.476  1.00  0.00     0.029 A 
ATOM     41  N   UNL     1      -1.651   8.060  14.729  1.00  0.00    -0.354 N 
ATOM     42  C   UNL     1      -2.782  10.650  11.287  1.00  0.00     0.074 A 
ATOM     43  C   UNL     1      -3.149   9.522  10.469  1.00  0.00     0.031 C 
ATOM     44  C   UNL     1      -0.762   6.202  15.598  1.00  0.00     0.029 A 
ATOM     45  C   UNL     1      -1.787   7.203  15.817  1.00  0.00     0.049 A 
ATOM     46  H   UNL     1      -2.160   8.899  14.644  1.00  0.00     0.167 HD
ATOM     47  C   UNL     1      -3.477  11.777  11.614  1.00  0.00     0.031 A 
ATOM     48  C   UNL     1      -2.683   7.302  16.828  1.00  0.00     0.031 A 
ATOM     49  C   UNL     1      -2.749  12.589  12.556  1.00  0.00     0.049 A 
ATOM     50  C   UNL     1      -3.144   8.707  16.857  1.00  0.00     0.074 A 
ATOM     51  C   UNL     1      -1.542  13.256  12.553  1.00  0.00     0.029 A 
ATOM     52  N   UNL     1      -3.119  12.459  13.874  1.00  0.00    -0.354 N 
ATOM     53  N   UNL     1      -2.366   9.709  17.156  1.00  0.00    -0.248 NA
ATOM     54  C   UNL     1      -4.364   9.058  16.149  1.00  0.00     0.031 C 
ATOM     55  C   UNL     1      -1.033  13.105  13.877  1.00  0.00     0.029 A 
ATOM     56  C   UNL     1      -1.982  12.416  14.638  1.00  0.00     0.049 A 
ATOM     57  H   UNL     1      -4.042  12.405  14.212  1.00  0.00     0.167 HD
ATOM     58  C   UNL     1      -2.760  10.728  16.304  1.00  0.00     0.074 A 
ATOM     59  C   UNL     1      -4.073  10.318  15.812  1.00  0.00     0.031 C 
ATOM     60  C   UNL     1      -1.862  11.661  15.869  1.00  0.00     0.031 A 
BRANCH  47  61
ATOM     61  C   UNL     1      -4.972  11.940  11.435  1.00  0.00    -0.014 A 
ATOM     62  C   UNL     1      -5.567  13.168  11.797  1.00  0.00     0.010 A 
ATOM     63  C   UNL     1      -5.843  10.857  11.201  1.00  0.00     0.010 A 
ATOM     64  C   UNL     1      -6.951  13.280  11.994  1.00  0.00     0.020 A 
ATOM     65  C   UNL     1      -7.228  10.970  11.350  1.00  0.00     0.020 A 
ATOM     66  C   UNL     1      -7.770  12.171  11.784  1.00  0.00     0.054 A 
BRANCH  66  67
ATOM     67  S   UNL     1      -9.538  12.290  12.149  1.00  0.00     0.124 S 
ATOM     68  O   UNL     1      -9.533  12.462  13.599  1.00  0.00    -0.237 OA
ATOM     69  O   UNL     1      -9.937  13.460  11.372  1.00  0.00    -0.237 OA
ATOM     70  O   UNL     1     -10.072  11.017  11.670  1.00  0.00    -0.744 OA
ENDBRANCH  66  67
ENDBRANCH  47  61
BRANCH  48  71
ATOM     71  C   UNL     1      -3.336   6.233  17.620  1.00  0.00    -0.014 A 
ATOM     72  C   UNL     1      -3.982   6.532  18.834  1.00  0.00     0.010 A 
ATOM     73  C   UNL     1      -3.586   4.976  17.032  1.00  0.00     0.010 A 
ATOM     74  C   UNL     1      -4.909   5.640  19.398  1.00  0.00     0.020 A 
ATOM     75  C   UNL     1      -4.507   4.080  17.592  1.00  0.00     0.020 A 
ATOM     76  C   UNL     1      -5.186   4.430  18.757  1.00  0.00     0.054 A 
BRANCH  76  77
ATOM     77  S   UNL     1      -6.539   3.385  19.378  1.00  0.00     0.124 S 
ATOM     78  O   UNL     1      -5.981   2.860  20.621  1.00  0.00    -0.237 OA
ATOM     79  O   UNL     1      -7.634   4.339  19.531  1.00  0.00    -0.237 OA
ATOM     80  O   UNL     1      -6.727   2.398  18.316  1.00  0.00    -0.744 OA
ENDBRANCH  76  77
ENDBRANCH  48  71
BRANCH  60  81
ATOM     81  C   UNL     1      -0.543  11.771  16.602  1.00  0.00    -0.014 A 
ATOM     82  C   UNL     1       0.410  10.735  16.677  1.00  0.00     0.010 A 
ATOM     83  C   UNL     1      -0.209  13.027  17.135  1.00  0.00     0.010 A 
ATOM     84  C   UNL     1       1.650  10.947  17.300  1.00  0.00     0.020 A 
ATOM     85  C   UNL     1       1.030  13.250  17.738  1.00  0.00     0.020 A 
ATOM     86  C   UNL     1       1.950  12.205  17.830  1.00  0.00     0.054 A 
BRANCH  86  87
ATOM     87  S   UNL     1       3.565  12.488  18.610  1.00  0.00     0.124 S 
ATOM     88  O   UNL     1       3.472  11.692  19.830  1.00  0.00    -0.237 OA
ATOM     89  O   UNL     1       4.503  11.994  17.605  1.00  0.00    -0.237 OA
ATOM     90  O   UNL     1       3.602  13.936  18.818  1.00  0.00    -0.744 OA
ENDBRANCH  86  87
ENDBRANCH  60  81
ENDBRANCH  34  35
ENDBRANCH  26  29
ENDBRANCH  24  25
ENDBRANCH   1  24
TORSDOF 16
