REMARK SMILES C#Cc1ccc2c(c1)C=C(C(=O)NCCCNC(=O)c1ccc(-c3c4nc(c(-c5ccc(S(=O)(=O)[O-])cc5)c5ccc([nH]5)c(-c5ccc(S(=O)(=O)[O-])cc5)c5nc(c(-c6ccc(S(=O)(=O)[O-])cc6)c6ccc3[nH]6)C=C5)C=C4)cc1)[C@@H](C(F)(F)F)O2
REMARK SMILES IDX 16 1 15 2 14 3 13 4 11 5 12 6 10 8 3 9 4 10 8 11 5 12 7 13
REMARK SMILES IDX 6 14 9 15 85 16 80 17 2 18 1 19 81 20 82 21 83 22 84 23
REMARK SMILES IDX 17 24 18 25 19 27 20 28 21 29 79 30 22 31 78 32 23 33 24 34
REMARK SMILES IDX 25 35 72 36 26 37 77 38 71 39 73 40 27 41 76 42 70 43 69 44
REMARK SMILES IDX 28 46 58 47 39 48 57 49 40 50 43 51 56 52 74 53 41 54 42 55
REMARK SMILES IDX 55 57 75 58 44 59 29 60 30 61 38 62 31 63 37 64 32 65 33 66
REMARK SMILES IDX 34 67 35 68 36 69 59 70 60 71 68 72 61 73 67 74 62 75 63 76
REMARK SMILES IDX 64 77 65 78 66 79 45 80 46 81 54 82 47 83 53 84 48 85 49 86
REMARK SMILES IDX 50 87 51 88 52 89
REMARK H PARENT 13 7 17 26 73 45 43 56
REMARK Flexibility Score: inf
ROOT
ATOM      1  C   UNL     1     -10.928   3.713   1.283  1.00  0.00     0.118 C 
ENDROOT
BRANCH   1   2
ATOM      2  C   UNL     1      -9.965   2.552   1.110  1.00  0.00     0.042 C 
BRANCH   2   3
ATOM      3  C   UNL     1      -9.174   2.672  -0.177  1.00  0.00     0.118 C 
BRANCH   3   4
ATOM      4  N   UNL     1      -8.063   3.606  -0.052  1.00  0.00    -0.352 N 
ATOM      5  C   UNL     1      -6.711   3.539  -0.035  1.00  0.00     0.251 C 
ATOM      6  O   UNL     1      -6.126   4.623   0.051  1.00  0.00    -0.270 OA
ATOM      7  H   UNL     1      -8.380   4.532   0.045  1.00  0.00     0.163 HD
BRANCH   5   8
ATOM      8  C   UNL     1      -5.922   2.275  -0.115  1.00  0.00     0.067 C 
ATOM      9  C   UNL     1      -1.629   0.056  -0.088  1.00  0.00     0.025 A 
ATOM     10  C   UNL     1      -2.272  -1.184  -0.078  1.00  0.00     0.021 A 
ATOM     11  C   UNL     1      -2.377   1.240  -0.068  1.00  0.00     0.029 A 
ATOM     12  C   UNL     1      -3.661  -1.244  -0.047  1.00  0.00     0.048 A 
ATOM     13  C   UNL     1      -3.773   1.182  -0.042  1.00  0.00     0.018 A 
ATOM     14  C   UNL     1      -4.401  -0.066  -0.037  1.00  0.00     0.128 A 
ATOM     15  C   UNL     1      -4.589   2.389   0.028  1.00  0.00     0.025 C 
ATOM     16  O   UNL     1      -5.753  -0.216   0.022  1.00  0.00    -0.475 OA
ATOM     17  C   UNL     1      -6.545   0.932  -0.368  1.00  0.00     0.314 C 
BRANCH   9  18
ATOM     18  C   UNL     1      -0.201   0.101  -0.102  1.00  0.00    -0.070 C 
ATOM     19  C   UNL     1       1.002   0.106  -0.103  1.00  0.00     0.010 C 
ENDBRANCH   9  18
BRANCH  17  20
ATOM     20  C   UNL     1      -6.989   0.761  -1.835  1.00  0.00     0.429 C 
ATOM     21  F   UNL     1      -7.907  -0.232  -1.941  1.00  0.00    -0.167 F 
ATOM     22  F   UNL     1      -7.572   1.874  -2.343  1.00  0.00    -0.167 F 
ATOM     23  F   UNL     1      -5.962   0.456  -2.659  1.00  0.00    -0.167 F 
ENDBRANCH  17  20
ENDBRANCH   5   8
ENDBRANCH   3   4
ENDBRANCH   2   3
ENDBRANCH   1   2
BRANCH   1  24
ATOM     24  N   UNL     1     -11.952   3.746   0.236  1.00  0.00    -0.352 N 
ATOM     25  C   UNL     1     -13.309   3.532   0.307  1.00  0.00     0.251 C 
ATOM     26  H   UNL     1     -11.614   3.955  -0.665  1.00  0.00     0.163 HD
ATOM     27  O   UNL     1     -13.962   3.385  -0.721  1.00  0.00    -0.269 OA
BRANCH  25  28
ATOM     28  C   UNL     1     -13.956   3.450   1.629  1.00  0.00     0.039 A 
ATOM     29  C   UNL     1     -13.546   4.307   2.647  1.00  0.00     0.014 A 
ATOM     30  C   UNL     1     -14.921   2.473   1.876  1.00  0.00     0.014 A 
ATOM     31  C   UNL     1     -13.884   4.013   3.955  1.00  0.00     0.010 A 
ATOM     32  C   UNL     1     -15.385   2.284   3.180  1.00  0.00     0.010 A 
ATOM     33  C   UNL     1     -14.814   3.003   4.242  1.00  0.00    -0.014 A 
BRANCH  33  34
ATOM     34  C   UNL     1     -15.159   2.726   5.661  1.00  0.00     0.031 A 
ATOM     35  C   UNL     1     -14.919   1.367   6.264  1.00  0.00     0.074 A 
ATOM     36  C   UNL     1     -15.622   3.737   6.425  1.00  0.00     0.049 A 
ATOM     37  N   UNL     1     -15.133   0.969   7.492  1.00  0.00    -0.248 NA
ATOM     38  C   UNL     1     -14.377   0.316   5.386  1.00  0.00     0.031 C 
ATOM     39  C   UNL     1     -15.864   5.103   5.952  1.00  0.00     0.029 A 
ATOM     40  N   UNL     1     -15.934   3.792   7.760  1.00  0.00    -0.354 N 
ATOM     41  C   UNL     1     -14.774  -0.374   7.528  1.00  0.00     0.074 A 
ATOM     42  C   UNL     1     -14.368  -0.739   6.190  1.00  0.00     0.031 C 
ATOM     43  C   UNL     1     -16.207   5.875   6.990  1.00  0.00     0.029 A 
ATOM     44  C   UNL     1     -16.315   5.043   8.183  1.00  0.00     0.049 A 
ATOM     45  H   UNL     1     -15.889   3.010   8.357  1.00  0.00     0.167 HD
ATOM     46  C   UNL     1     -14.767  -1.217   8.587  1.00  0.00     0.031 A 
ATOM     47  C   UNL     1     -16.727   5.482   9.389  1.00  0.00     0.031 A 
ATOM     48  C   UNL     1     -15.154  -0.829   9.921  1.00  0.00     0.049 A 
ATOM     49  C   UNL     1     -16.764   4.512  10.533  1.00  0.00     0.074 A 
ATOM     50  C   UNL     1     -15.158  -1.605  11.066  1.00  0.00     0.029 A 
ATOM     51  N   UNL     1     -15.597   0.433  10.293  1.00  0.00    -0.354 N 
ATOM     52  N   UNL     1     -16.399   3.252  10.551  1.00  0.00    -0.248 NA
ATOM     53  C   UNL     1     -17.256   5.018  11.820  1.00  0.00     0.031 C 
ATOM     54  C   UNL     1     -15.690  -0.843  12.107  1.00  0.00     0.029 A 
ATOM     55  C   UNL     1     -15.915   0.443  11.642  1.00  0.00     0.049 A 
ATOM     56  H   UNL     1     -15.673   1.206   9.688  1.00  0.00     0.167 HD
ATOM     57  C   UNL     1     -16.595   2.819  11.857  1.00  0.00     0.074 A 
ATOM     58  C   UNL     1     -17.084   3.961  12.604  1.00  0.00     0.031 C 
ATOM     59  C   UNL     1     -16.393   1.586  12.384  1.00  0.00     0.031 A 
BRANCH  46  60
ATOM     60  C   UNL     1     -14.325  -2.646   8.376  1.00  0.00    -0.014 A 
ATOM     61  C   UNL     1     -15.228  -3.699   8.623  1.00  0.00     0.010 A 
ATOM     62  C   UNL     1     -12.986  -2.959   8.079  1.00  0.00     0.010 A 
ATOM     63  C   UNL     1     -14.793  -5.027   8.632  1.00  0.00     0.020 A 
ATOM     64  C   UNL     1     -12.554  -4.289   8.047  1.00  0.00     0.020 A 
ATOM     65  C   UNL     1     -13.454  -5.312   8.356  1.00  0.00     0.054 A 
BRANCH  65  66
ATOM     66  S   UNL     1     -12.894  -7.036   8.439  1.00  0.00     0.124 S 
ATOM     67  O   UNL     1     -12.952  -7.311   9.872  1.00  0.00    -0.237 OA
ATOM     68  O   UNL     1     -13.884  -7.730   7.620  1.00  0.00    -0.237 OA
ATOM     69  O   UNL     1     -11.549  -6.987   7.867  1.00  0.00    -0.744 OA
ENDBRANCH  65  66
ENDBRANCH  46  60
BRANCH  47  70
ATOM     70  C   UNL     1     -17.105   6.916   9.550  1.00  0.00    -0.014 A 
ATOM     71  C   UNL     1     -18.179   7.456   8.815  1.00  0.00     0.010 A 
ATOM     72  C   UNL     1     -16.333   7.774  10.352  1.00  0.00     0.010 A 
ATOM     73  C   UNL     1     -18.422   8.831   8.813  1.00  0.00     0.020 A 
ATOM     74  C   UNL     1     -16.603   9.146  10.390  1.00  0.00     0.020 A 
ATOM     75  C   UNL     1     -17.621   9.669   9.591  1.00  0.00     0.054 A 
BRANCH  75  76
ATOM     76  S   UNL     1     -17.907  11.458   9.508  1.00  0.00     0.124 S 
ATOM     77  O   UNL     1     -17.427  11.775   8.165  1.00  0.00    -0.237 OA
ATOM     78  O   UNL     1     -19.351  11.556   9.700  1.00  0.00    -0.237 OA
ATOM     79  O   UNL     1     -17.096  11.986  10.602  1.00  0.00    -0.744 OA
ENDBRANCH  75  76
ENDBRANCH  47  70
BRANCH  59  80
ATOM     80  C   UNL     1     -16.684   1.380  13.851  1.00  0.00    -0.014 A 
ATOM     81  C   UNL     1     -15.643   0.998  14.719  1.00  0.00     0.010 A 
ATOM     82  C   UNL     1     -17.999   1.425  14.345  1.00  0.00     0.010 A 
ATOM     83  C   UNL     1     -15.916   0.616  16.034  1.00  0.00     0.020 A 
ATOM     84  C   UNL     1     -18.272   1.088  15.674  1.00  0.00     0.020 A 
ATOM     85  C   UNL     1     -17.232   0.655  16.500  1.00  0.00     0.054 A 
BRANCH  85  86
ATOM     86  S   UNL     1     -17.571   0.106  18.195  1.00  0.00     0.124 S 
ATOM     87  O   UNL     1     -17.375  -1.337  18.096  1.00  0.00    -0.237 OA
ATOM     88  O   UNL     1     -16.565   0.828  18.970  1.00  0.00    -0.237 OA
ATOM     89  O   UNL     1     -18.949   0.534  18.425  1.00  0.00    -0.744 OA
ENDBRANCH  85  86
ENDBRANCH  59  80
ENDBRANCH  33  34
ENDBRANCH  25  28
ENDBRANCH   1  24
TORSDOF 15
