REMARK SMILES CCOc1c(Br)cc(CNc2cccc(C(=O)NCCCNC(=O)c3ccc(-c4c5nc(c(-c6ccc(S(=O)(=O)[O-])cc6)c6ccc([nH]6)c(-c6ccc(S(=O)(=O)[O-])cc6)c6nc(c(-c7ccc(S(=O)(=O)[O-])cc7)c7ccc4[nH]7)C=C6)C=C5)cc3)c2C)cc1OC
REMARK SMILES IDX 19 1 18 2 16 3 17 4 15 6 11 7 12 8 85 9 13 10 86 11 14 12
REMARK SMILES IDX 10 13 9 15 8 16 4 17 5 18 88 19 6 20 7 21 87 22 3 23 2 24
REMARK SMILES IDX 1 25 89 26 90 27 20 28 21 29 22 30 23 31 24 33 25 34 26 35
REMARK SMILES IDX 84 36 27 37 83 38 28 39 29 40 30 41 77 42 31 43 82 44 76 45
REMARK SMILES IDX 78 46 32 47 81 48 75 49 74 50 33 52 63 53 44 54 62 55 45 56
REMARK SMILES IDX 48 57 61 58 79 59 46 60 47 61 60 63 80 64 49 65 34 66 35 67
REMARK SMILES IDX 43 68 36 69 42 70 37 71 38 72 39 73 40 74 41 75 64 76 65 77
REMARK SMILES IDX 73 78 66 79 72 80 67 81 68 82 69 83 70 84 71 85 50 86 51 87
REMARK SMILES IDX 59 88 52 89 58 90 53 91 54 92 55 93 56 94 57 95
REMARK H PARENT 18 5 10 14 22 32 78 51 48 62
REMARK Flexibility Score: inf
ROOT
ATOM      1  C   UNL     1      10.838  -0.643   3.317  1.00  0.00     0.118 C 
ENDROOT
BRANCH   1   2
ATOM      2  N   UNL     1       9.888   0.416   2.995  1.00  0.00    -0.352 N 
ATOM      3  C   UNL     1       9.103   0.755   1.917  1.00  0.00     0.251 C 
ATOM      4  O   UNL     1       8.382   1.731   2.129  1.00  0.00    -0.269 OA
ATOM      5  H   UNL     1       9.782   1.052   3.739  1.00  0.00     0.163 HD
BRANCH   3   6
ATOM      6  C   UNL     1       9.071   0.048   0.570  1.00  0.00     0.044 A 
ATOM      7  C   UNL     1       8.117  -0.357  -1.688  1.00  0.00     0.038 A 
ATOM      8  C   UNL     1       9.061  -1.368  -1.891  1.00  0.00     0.026 A 
ATOM      9  C   UNL     1       8.133   0.386  -0.461  1.00  0.00    -0.015 A 
ATOM     10  C   UNL     1       9.998  -1.667  -0.922  1.00  0.00     0.003 A 
ATOM     11  C   UNL     1       7.086   1.474  -0.331  1.00  0.00     0.047 C 
ATOM     12  C   UNL     1       9.990  -0.973   0.285  1.00  0.00     0.014 A 
BRANCH   7  13
ATOM     13  N   UNL     1       7.141  -0.130  -2.657  1.00  0.00    -0.381 N 
ATOM     14  H   UNL     1       6.897   0.799  -2.874  1.00  0.00     0.160 HD
BRANCH  13  15
ATOM     15  C   UNL     1       6.473  -1.209  -3.359  1.00  0.00     0.149 C 
BRANCH  15  16
ATOM     16  C   UNL     1       5.006  -1.191  -3.001  1.00  0.00    -0.024 A 
ATOM     17  C   UNL     1       2.273  -1.081  -2.289  1.00  0.00     0.175 A 
ATOM     18  C   UNL     1       3.235  -1.567  -1.385  1.00  0.00     0.064 A 
ATOM     19  C   UNL     1       2.674  -0.723  -3.587  1.00  0.00     0.162 A 
ATOM     20  Br  UNL     1       2.767  -2.248   0.327  1.00  0.00    -0.047 Br
ATOM     21  C   UNL     1       4.588  -1.597  -1.730  1.00  0.00     0.025 A 
ATOM     22  C   UNL     1       4.039  -0.764  -3.920  1.00  0.00     0.056 A 
BRANCH  17  23
ATOM     23  O   UNL     1       0.963  -1.027  -1.885  1.00  0.00    -0.489 OA
BRANCH  23  24
ATOM     24  C   UNL     1       0.557   0.303  -1.527  1.00  0.00     0.226 C 
ATOM     25  C   UNL     1       0.503   0.475  -0.020  1.00  0.00     0.049 C 
ENDBRANCH  23  24
ENDBRANCH  17  23
BRANCH  19  26
ATOM     26  O   UNL     1       1.900  -0.296  -4.633  1.00  0.00    -0.493 OA
ATOM     27  C   UNL     1       0.523  -0.639  -4.644  1.00  0.00     0.278 C 
ENDBRANCH  19  26
ENDBRANCH  15  16
ENDBRANCH  13  15
ENDBRANCH   7  13
ENDBRANCH   3   6
ENDBRANCH   1   2
BRANCH   1  28
ATOM     28  C   UNL     1      12.226  -0.359   2.742  1.00  0.00     0.042 C 
BRANCH  28  29
ATOM     29  C   UNL     1      13.136   0.371   3.718  1.00  0.00     0.118 C 
BRANCH  29  30
ATOM     30  N   UNL     1      14.243  -0.459   4.181  1.00  0.00    -0.352 N 
ATOM     31  C   UNL     1      15.371  -0.047   4.873  1.00  0.00     0.251 C 
ATOM     32  H   UNL     1      14.182  -1.421   3.978  1.00  0.00     0.163 HD
ATOM     33  O   UNL     1      16.369  -0.726   5.000  1.00  0.00    -0.269 OA
BRANCH  31  34
ATOM     34  C   UNL     1      15.232   1.231   5.597  1.00  0.00     0.039 A 
ATOM     35  C   UNL     1      14.976   1.142   6.971  1.00  0.00     0.014 A 
ATOM     36  C   UNL     1      14.998   2.401   4.881  1.00  0.00     0.014 A 
ATOM     37  C   UNL     1      14.306   2.182   7.603  1.00  0.00     0.010 A 
ATOM     38  C   UNL     1      14.252   3.390   5.488  1.00  0.00     0.010 A 
ATOM     39  C   UNL     1      13.864   3.254   6.830  1.00  0.00    -0.014 A 
BRANCH  39  40
ATOM     40  C   UNL     1      12.932   4.260   7.321  1.00  0.00     0.031 A 
ATOM     41  C   UNL     1      13.447   5.594   7.697  1.00  0.00     0.074 A 
ATOM     42  C   UNL     1      11.606   3.999   7.344  1.00  0.00     0.049 A 
ATOM     43  N   UNL     1      12.850   6.422   8.486  1.00  0.00    -0.248 NA
ATOM     44  C   UNL     1      14.749   6.072   7.242  1.00  0.00     0.031 C 
ATOM     45  C   UNL     1      10.527   4.966   7.518  1.00  0.00     0.029 A 
ATOM     46  N   UNL     1      10.966   2.759   7.431  1.00  0.00    -0.354 N 
ATOM     47  C   UNL     1      13.508   7.629   8.385  1.00  0.00     0.074 A 
ATOM     48  C   UNL     1      14.736   7.330   7.689  1.00  0.00     0.031 C 
ATOM     49  C   UNL     1       9.446   4.321   7.985  1.00  0.00     0.029 A 
ATOM     50  C   UNL     1       9.854   2.953   8.268  1.00  0.00     0.049 A 
ATOM     51  H   UNL     1      11.239   1.920   6.995  1.00  0.00     0.167 HD
ATOM     52  C   UNL     1      12.871   8.777   8.756  1.00  0.00     0.031 A 
ATOM     53  C   UNL     1       9.687   2.319   9.466  1.00  0.00     0.031 A 
ATOM     54  C   UNL     1      11.584   8.489   9.388  1.00  0.00     0.049 A 
ATOM     55  C   UNL     1       9.582   3.288  10.626  1.00  0.00     0.074 A 
ATOM     56  C   UNL     1      10.281   8.510   8.918  1.00  0.00     0.029 A 
ATOM     57  N   UNL     1      11.556   7.801  10.596  1.00  0.00    -0.354 N 
ATOM     58  N   UNL     1       9.954   4.538  10.566  1.00  0.00    -0.248 NA
ATOM     59  C   UNL     1       9.085   2.921  11.950  1.00  0.00     0.031 C 
ATOM     60  C   UNL     1       9.489   7.726   9.797  1.00  0.00     0.029 A 
ATOM     61  C   UNL     1      10.302   7.266  10.819  1.00  0.00     0.049 A 
ATOM     62  H   UNL     1      12.323   7.708  11.207  1.00  0.00     0.167 HD
ATOM     63  C   UNL     1       9.750   5.139  11.779  1.00  0.00     0.074 A 
ATOM     64  C   UNL     1       9.202   4.085  12.615  1.00  0.00     0.031 C 
ATOM     65  C   UNL     1      10.044   6.454  12.001  1.00  0.00     0.031 A 
BRANCH  52  66
ATOM     66  C   UNL     1      13.274  10.151   8.253  1.00  0.00    -0.014 A 
ATOM     67  C   UNL     1      12.298  11.166   8.146  1.00  0.00     0.010 A 
ATOM     68  C   UNL     1      14.560  10.490   7.793  1.00  0.00     0.010 A 
ATOM     69  C   UNL     1      12.563  12.397   7.523  1.00  0.00     0.020 A 
ATOM     70  C   UNL     1      14.834  11.700   7.136  1.00  0.00     0.020 A 
ATOM     71  C   UNL     1      13.826  12.645   6.992  1.00  0.00     0.054 A 
BRANCH  71  72
ATOM     72  S   UNL     1      14.136  14.200   6.115  1.00  0.00     0.124 S 
ATOM     73  O   UNL     1      13.122  14.177   5.063  1.00  0.00    -0.237 OA
ATOM     74  O   UNL     1      13.934  15.196   7.163  1.00  0.00    -0.237 OA
ATOM     75  O   UNL     1      15.513  14.065   5.644  1.00  0.00    -0.744 OA
ENDBRANCH  71  72
ENDBRANCH  52  66
BRANCH  53  76
ATOM     76  C   UNL     1      10.292   0.960   9.536  1.00  0.00    -0.014 A 
ATOM     77  C   UNL     1       9.680  -0.064   8.782  1.00  0.00     0.010 A 
ATOM     78  C   UNL     1      11.626   0.794   9.948  1.00  0.00     0.010 A 
ATOM     79  C   UNL     1      10.430  -1.140   8.300  1.00  0.00     0.020 A 
ATOM     80  C   UNL     1      12.380  -0.287   9.466  1.00  0.00     0.020 A 
ATOM     81  C   UNL     1      11.793  -1.206   8.590  1.00  0.00     0.054 A 
BRANCH  81  82
ATOM     82  S   UNL     1      12.811  -2.388   7.651  1.00  0.00     0.124 S 
ATOM     83  O   UNL     1      12.240  -3.672   8.042  1.00  0.00    -0.237 OA
ATOM     84  O   UNL     1      12.558  -1.984   6.266  1.00  0.00    -0.237 OA
ATOM     85  O   UNL     1      14.162  -2.123   8.134  1.00  0.00    -0.744 OA
ENDBRANCH  81  82
ENDBRANCH  53  76
BRANCH  65  86
ATOM     86  C   UNL     1      10.033   7.133  13.347  1.00  0.00    -0.014 A 
ATOM     87  C   UNL     1      10.270   6.468  14.560  1.00  0.00     0.010 A 
ATOM     88  C   UNL     1       9.911   8.543  13.398  1.00  0.00     0.010 A 
ATOM     89  C   UNL     1      10.312   7.167  15.775  1.00  0.00     0.020 A 
ATOM     90  C   UNL     1       9.995   9.253  14.597  1.00  0.00     0.020 A 
ATOM     91  C   UNL     1      10.168   8.555  15.786  1.00  0.00     0.054 A 
BRANCH  91  92
ATOM     92  S   UNL     1      10.274   9.455  17.354  1.00  0.00     0.124 S 
ATOM     93  O   UNL     1       8.891   9.404  17.823  1.00  0.00    -0.237 OA
ATOM     94  O   UNL     1      11.226   8.660  18.126  1.00  0.00    -0.237 OA
ATOM     95  O   UNL     1      10.754  10.776  16.958  1.00  0.00    -0.744 OA
ENDBRANCH  91  92
ENDBRANCH  65  86
ENDBRANCH  39  40
ENDBRANCH  31  34
ENDBRANCH  29  30
ENDBRANCH  28  29
ENDBRANCH   1  28
TORSDOF 19
