REMARK SMILES CC[C@@H](C)N(C)S(=O)(=O)c1cc(C(=O)NCCCNC(=O)c2ccc(-c3c4nc(c(-c5ccc(S(=O)(=O)[O-])cc5)c5ccc([nH]5)c(-c5ccc(S(=O)(=O)[O-])cc5)c5nc(c(-c6ccc(S(=O)(=O)[O-])cc6)c6ccc3[nH]6)C=C5)C=C4)cc2)c(C)cc1C
REMARK SMILES IDX 16 1 15 2 13 3 14 4 12 6 10 7 11 8 85 9 84 10 86 11 82 12
REMARK SMILES IDX 83 13 7 14 8 15 9 16 5 17 6 18 3 19 4 20 2 21 1 22 17 23
REMARK SMILES IDX 18 24 19 25 20 26 21 28 22 29 23 30 81 31 24 32 80 33 25 34
REMARK SMILES IDX 26 35 27 36 74 37 28 38 79 39 73 40 75 41 29 42 78 43 72 44
REMARK SMILES IDX 71 45 30 47 60 48 41 49 59 50 42 51 45 52 58 53 76 54 43 55
REMARK SMILES IDX 44 56 57 58 77 59 46 60 31 61 32 62 40 63 33 64 39 65 34 66
REMARK SMILES IDX 35 67 36 68 37 69 38 70 61 71 62 72 70 73 63 74 69 75 64 76
REMARK SMILES IDX 65 77 66 78 67 79 68 80 47 81 48 82 56 83 49 84 55 85 50 86
REMARK SMILES IDX 51 87 52 88 53 89 54 90
REMARK H PARENT 15 5 19 27 75 46 45 57
REMARK Flexibility Score: inf
ROOT
ATOM      1  C   UNL     1      -3.399  -8.338  -5.662  1.00  0.00     0.118 C 
ENDROOT
BRANCH   1   2
ATOM      2  N   UNL     1      -3.915  -7.059  -5.213  1.00  0.00    -0.352 N 
ATOM      3  C   UNL     1      -3.707  -6.251  -4.128  1.00  0.00     0.251 C 
ATOM      4  O   UNL     1      -4.342  -5.191  -4.143  1.00  0.00    -0.269 OA
ATOM      5  H   UNL     1      -4.574  -6.682  -5.839  1.00  0.00     0.163 HD
BRANCH   3   6
ATOM      6  C   UNL     1      -2.776  -6.482  -2.971  1.00  0.00     0.044 A 
ATOM      7  C   UNL     1      -1.557  -5.237  -1.197  1.00  0.00     0.086 A 
ATOM      8  C   UNL     1      -2.238  -5.283  -2.433  1.00  0.00     0.036 A 
ATOM      9  C   UNL     1      -1.347  -6.425  -0.484  1.00  0.00    -0.031 A 
ATOM     10  C   UNL     1      -1.799  -7.621  -1.062  1.00  0.00     0.009 A 
ATOM     11  C   UNL     1      -0.714  -6.573   0.871  1.00  0.00     0.046 C 
ATOM     12  C   UNL     1      -2.562  -7.668  -2.248  1.00  0.00    -0.038 A 
ATOM     13  C   UNL     1      -3.178  -9.002  -2.532  1.00  0.00     0.045 C 
BRANCH   7  14
ATOM     14  S   UNL     1      -1.260  -3.617  -0.475  1.00  0.00     0.243 S 
ATOM     15  O   UNL     1      -1.604  -3.709   0.927  1.00  0.00    -0.207 OA
ATOM     16  O   UNL     1      -1.932  -2.638  -1.306  1.00  0.00    -0.207 OA
BRANCH  14  17
ATOM     17  N   UNL     1       0.424  -3.304  -0.618  1.00  0.00    -0.198 NA
ATOM     18  C   UNL     1       1.364  -4.422  -0.406  1.00  0.00     0.124 C 
BRANCH  17  19
ATOM     19  C   UNL     1       0.935  -2.033   0.036  1.00  0.00     0.069 C 
ATOM     20  C   UNL     1       0.655  -1.986   1.541  1.00  0.00     0.026 C 
BRANCH  19  21
ATOM     21  C   UNL     1       0.440  -0.780  -0.700  1.00  0.00     0.016 C 
ATOM     22  C   UNL     1       1.125   0.495  -0.218  1.00  0.00     0.005 C 
ENDBRANCH  19  21
ENDBRANCH  17  19
ENDBRANCH  14  17
ENDBRANCH   7  14
ENDBRANCH   3   6
ENDBRANCH   1   2
BRANCH   1  23
ATOM     23  C   UNL     1      -4.422  -9.452  -5.419  1.00  0.00     0.042 C 
BRANCH  23  24
ATOM     24  C   UNL     1      -5.491  -9.591  -6.497  1.00  0.00     0.118 C 
BRANCH  24  25
ATOM     25  N   UNL     1      -5.045 -10.429  -7.596  1.00  0.00    -0.352 N 
ATOM     26  C   UNL     1      -5.408 -11.707  -7.951  1.00  0.00     0.251 C 
ATOM     27  H   UNL     1      -4.373 -10.014  -8.184  1.00  0.00     0.163 HD
ATOM     28  O   UNL     1      -4.709 -12.306  -8.767  1.00  0.00    -0.269 OA
BRANCH  26  29
ATOM     29  C   UNL     1      -6.603 -12.383  -7.377  1.00  0.00     0.039 A 
ATOM     30  C   UNL     1      -6.559 -13.772  -7.191  1.00  0.00     0.014 A 
ATOM     31  C   UNL     1      -7.793 -11.702  -7.109  1.00  0.00     0.014 A 
ATOM     32  C   UNL     1      -7.681 -14.460  -6.712  1.00  0.00     0.010 A 
ATOM     33  C   UNL     1      -8.886 -12.377  -6.558  1.00  0.00     0.010 A 
ATOM     34  C   UNL     1      -8.852 -13.767  -6.374  1.00  0.00    -0.014 A 
BRANCH  34  35
ATOM     35  C   UNL     1     -10.065 -14.481  -5.885  1.00  0.00     0.031 A 
ATOM     36  C   UNL     1     -11.332 -14.466  -6.705  1.00  0.00     0.074 A 
ATOM     37  C   UNL     1     -10.050 -15.108  -4.691  1.00  0.00     0.049 A 
ATOM     38  N   UNL     1     -12.511 -14.955  -6.415  1.00  0.00    -0.248 NA
ATOM     39  C   UNL     1     -11.270 -13.792  -8.013  1.00  0.00     0.031 C 
ATOM     40  C   UNL     1      -8.903 -15.181  -3.784  1.00  0.00     0.029 A 
ATOM     41  N   UNL     1     -11.037 -15.799  -4.032  1.00  0.00    -0.354 N 
ATOM     42  C   UNL     1     -13.335 -14.626  -7.486  1.00  0.00     0.074 A 
ATOM     43  C   UNL     1     -12.531 -13.862  -8.416  1.00  0.00     0.031 C 
ATOM     44  C   UNL     1      -9.246 -15.894  -2.698  1.00  0.00     0.029 A 
ATOM     45  C   UNL     1     -10.643 -16.300  -2.813  1.00  0.00     0.049 A 
ATOM     46  H   UNL     1     -11.943 -15.924  -4.398  1.00  0.00     0.167 HD
ATOM     47  C   UNL     1     -14.636 -14.942  -7.691  1.00  0.00     0.031 A 
ATOM     48  C   UNL     1     -11.329 -17.003  -1.890  1.00  0.00     0.031 A 
ATOM     49  C   UNL     1     -15.431 -15.728  -6.786  1.00  0.00     0.049 A 
ATOM     50  C   UNL     1     -12.767 -17.358  -2.148  1.00  0.00     0.074 A 
ATOM     51  C   UNL     1     -16.747 -16.135  -6.927  1.00  0.00     0.029 A 
ATOM     52  N   UNL     1     -14.981 -16.240  -5.580  1.00  0.00    -0.354 N 
ATOM     53  N   UNL     1     -13.516 -17.061  -3.183  1.00  0.00    -0.248 NA
ATOM     54  C   UNL     1     -13.450 -18.155  -1.118  1.00  0.00     0.031 C 
ATOM     55  C   UNL     1     -17.101 -16.872  -5.791  1.00  0.00     0.029 A 
ATOM     56  C   UNL     1     -15.993 -16.956  -4.964  1.00  0.00     0.049 A 
ATOM     57  H   UNL     1     -14.076 -16.113  -5.214  1.00  0.00     0.167 HD
ATOM     58  C   UNL     1     -14.749 -17.657  -2.940  1.00  0.00     0.074 A 
ATOM     59  C   UNL     1     -14.642 -18.340  -1.667  1.00  0.00     0.031 C 
ATOM     60  C   UNL     1     -15.868 -17.640  -3.703  1.00  0.00     0.031 A 
BRANCH  47  61
ATOM     61  C   UNL     1     -15.283 -14.438  -8.953  1.00  0.00    -0.014 A 
ATOM     62  C   UNL     1     -14.967 -15.002 -10.202  1.00  0.00     0.010 A 
ATOM     63  C   UNL     1     -16.248 -13.416  -8.887  1.00  0.00     0.010 A 
ATOM     64  C   UNL     1     -15.573 -14.526 -11.367  1.00  0.00     0.020 A 
ATOM     65  C   UNL     1     -16.875 -12.954 -10.048  1.00  0.00     0.020 A 
ATOM     66  C   UNL     1     -16.520 -13.500 -11.284  1.00  0.00     0.054 A 
BRANCH  66  67
ATOM     67  S   UNL     1     -17.309 -12.915 -12.809  1.00  0.00     0.124 S 
ATOM     68  O   UNL     1     -16.254 -12.092 -13.395  1.00  0.00    -0.237 OA
ATOM     69  O   UNL     1     -17.602 -14.157 -13.519  1.00  0.00    -0.237 OA
ATOM     70  O   UNL     1     -18.480 -12.182 -12.334  1.00  0.00    -0.744 OA
ENDBRANCH  66  67
ENDBRANCH  47  61
BRANCH  48  71
ATOM     71  C   UNL     1     -10.658 -17.436  -0.634  1.00  0.00    -0.014 A 
ATOM     72  C   UNL     1     -10.319 -18.786  -0.438  1.00  0.00     0.010 A 
ATOM     73  C   UNL     1     -10.357 -16.501   0.373  1.00  0.00     0.010 A 
ATOM     74  C   UNL     1      -9.711 -19.199   0.751  1.00  0.00     0.020 A 
ATOM     75  C   UNL     1      -9.729 -16.906   1.554  1.00  0.00     0.020 A 
ATOM     76  C   UNL     1      -9.422 -18.256   1.741  1.00  0.00     0.054 A 
BRANCH  76  77
ATOM     77  S   UNL     1      -8.590 -18.801   3.260  1.00  0.00     0.124 S 
ATOM     78  O   UNL     1      -9.693 -19.384   4.016  1.00  0.00    -0.237 OA
ATOM     79  O   UNL     1      -7.596 -19.746   2.758  1.00  0.00    -0.237 OA
ATOM     80  O   UNL     1      -8.039 -17.563   3.806  1.00  0.00    -0.744 OA
ENDBRANCH  76  77
ENDBRANCH  48  71
BRANCH  60  81
ATOM     81  C   UNL     1     -17.056 -18.416  -3.207  1.00  0.00    -0.014 A 
ATOM     82  C   UNL     1     -17.853 -17.932  -2.155  1.00  0.00     0.010 A 
ATOM     83  C   UNL     1     -17.409 -19.622  -3.839  1.00  0.00     0.010 A 
ATOM     84  C   UNL     1     -18.967 -18.657  -1.724  1.00  0.00     0.020 A 
ATOM     85  C   UNL     1     -18.534 -20.338  -3.425  1.00  0.00     0.020 A 
ATOM     86  C   UNL     1     -19.299 -19.857  -2.360  1.00  0.00     0.054 A 
BRANCH  86  87
ATOM     87  S   UNL     1     -20.775 -20.760  -1.815  1.00  0.00     0.124 S 
ATOM     88  O   UNL     1     -20.300 -21.411  -0.598  1.00  0.00    -0.237 OA
ATOM     89  O   UNL     1     -21.753 -19.693  -1.617  1.00  0.00    -0.237 OA
ATOM     90  O   UNL     1     -21.062 -21.658  -2.932  1.00  0.00    -0.744 OA
ENDBRANCH  86  87
ENDBRANCH  60  81
ENDBRANCH  34  35
ENDBRANCH  26  29
ENDBRANCH  24  25
ENDBRANCH  23  24
ENDBRANCH   1  23
TORSDOF 17
