REMARK SMILES O=C(NC[C@@H]1CCOC1)NC[C@@H]1CC[C@H](C(=O)NCCCNC(=O)c2ccc(-c3c4nc(c(-c5ccc(S(=O)(=O)[O-])cc5)c5ccc([nH]5)c(-c5ccc(S(=O)(=O)[O-])cc5)c5nc(c(-c6ccc(S(=O)(=O)[O-])cc6)c6ccc3[nH]6)C=C5)C=C4)cc2)O1
REMARK SMILES IDX 19 1 18 2 16 3 17 4 15 6 12 7 13 8 85 9 14 10 11 11 10 12
REMARK SMILES IDX 1 13 2 14 3 15 4 18 5 19 6 20 9 21 7 22 8 23 20 24 21 25
REMARK SMILES IDX 22 26 23 27 24 29 25 30 26 31 84 32 27 33 83 34 28 35 29 36
REMARK SMILES IDX 30 37 77 38 31 39 82 40 76 41 78 42 32 43 81 44 75 45 74 46
REMARK SMILES IDX 33 48 63 49 44 50 62 51 45 52 48 53 61 54 79 55 46 56 47 57
REMARK SMILES IDX 60 59 80 60 49 61 34 62 35 63 43 64 36 65 42 66 37 67 38 68
REMARK SMILES IDX 39 69 40 70 41 71 64 72 65 73 73 74 66 75 72 76 67 77 68 78
REMARK SMILES IDX 69 79 70 80 71 81 50 82 51 83 59 84 52 85 58 86 53 87 54 88
REMARK SMILES IDX 55 89 56 90 57 91
REMARK H PARENT 18 5 3 16 10 17 22 28 78 47 48 58
REMARK Flexibility Score: inf
ROOT
ATOM      1  C   UNL     1       1.679  -2.522  -0.154  1.00  0.00     0.117 C 
ENDROOT
BRANCH   1   2
ATOM      2  N   UNL     1       1.496  -3.765   0.597  1.00  0.00    -0.354 N 
ATOM      3  C   UNL     1       1.738  -4.106   1.892  1.00  0.00     0.249 C 
ATOM      4  O   UNL     1       1.627  -5.305   2.181  1.00  0.00    -0.272 OA
ATOM      5  H   UNL     1       1.124  -4.500   0.058  1.00  0.00     0.163 HD
BRANCH   3   6
ATOM      6  C   UNL     1       2.153  -3.096   2.981  1.00  0.00     0.207 C 
ATOM      7  C   UNL     1       2.828  -0.907   3.340  1.00  0.00     0.138 C 
ATOM      8  C   UNL     1       4.104  -1.715   3.166  1.00  0.00     0.037 C 
ATOM      9  O   UNL     1       1.788  -1.734   2.795  1.00  0.00    -0.363 OA
ATOM     10  C   UNL     1       3.645  -3.147   3.297  1.00  0.00     0.045 C 
BRANCH   7  11
ATOM     11  C   UNL     1       2.800   0.495   2.693  1.00  0.00     0.149 C 
BRANCH  11  12
ATOM     12  N   UNL     1       3.795   0.669   1.651  1.00  0.00    -0.336 N 
ATOM     13  O   UNL     1       2.433   0.661  -0.185  1.00  0.00    -0.249 OA
ATOM     14  C   UNL     1       3.550   0.588   0.317  1.00  0.00     0.314 C 
ATOM     15  N   UNL     1       4.649   0.332  -0.457  1.00  0.00    -0.338 N 
ATOM     16  H   UNL     1       4.514   0.365  -1.432  1.00  0.00     0.165 HD
ATOM     17  H   UNL     1       4.719   0.861   1.932  1.00  0.00     0.165 HD
BRANCH  15  18
ATOM     18  C   UNL     1       5.992   0.015  -0.005  1.00  0.00     0.123 C 
BRANCH  18  19
ATOM     19  C   UNL     1       6.872  -0.846  -0.929  1.00  0.00     0.036 C 
ATOM     20  C   UNL     1       6.354  -2.212  -1.329  1.00  0.00     0.036 C 
ATOM     21  C   UNL     1       8.088  -1.305  -0.135  1.00  0.00     0.165 C 
ATOM     22  C   UNL     1       6.578  -3.074  -0.110  1.00  0.00     0.160 C 
ATOM     23  O   UNL     1       7.639  -2.445   0.625  1.00  0.00    -0.381 OA
ENDBRANCH  18  19
ENDBRANCH  15  18
ENDBRANCH  11  12
ENDBRANCH   7  11
ENDBRANCH   3   6
ENDBRANCH   1   2
BRANCH   1  24
ATOM     24  C   UNL     1       2.937  -2.618  -1.024  1.00  0.00     0.042 C 
BRANCH  24  25
ATOM     25  C   UNL     1       2.799  -2.283  -2.523  1.00  0.00     0.118 C 
BRANCH  25  26
ATOM     26  N   UNL     1       2.830  -0.871  -2.882  1.00  0.00    -0.352 N 
ATOM     27  C   UNL     1       3.588  -0.078  -3.721  1.00  0.00     0.251 C 
ATOM     28  H   UNL     1       2.139  -0.353  -2.409  1.00  0.00     0.163 HD
ATOM     29  O   UNL     1       3.092   1.009  -4.033  1.00  0.00    -0.269 OA
BRANCH  27  30
ATOM     30  C   UNL     1       5.008  -0.322  -4.143  1.00  0.00     0.039 A 
ATOM     31  C   UNL     1       5.826   0.825  -4.252  1.00  0.00     0.014 A 
ATOM     32  C   UNL     1       5.597  -1.545  -4.448  1.00  0.00     0.014 A 
ATOM     33  C   UNL     1       7.190   0.751  -4.601  1.00  0.00     0.010 A 
ATOM     34  C   UNL     1       6.983  -1.624  -4.752  1.00  0.00     0.010 A 
ATOM     35  C   UNL     1       7.809  -0.483  -4.828  1.00  0.00    -0.014 A 
BRANCH  35  36
ATOM     36  C   UNL     1       9.272  -0.577  -5.194  1.00  0.00     0.031 A 
ATOM     37  C   UNL     1       9.692  -1.198  -6.513  1.00  0.00     0.074 A 
ATOM     38  C   UNL     1      10.260  -0.135  -4.378  1.00  0.00     0.049 A 
ATOM     39  N   UNL     1      10.898  -1.451  -6.966  1.00  0.00    -0.248 NA
ATOM     40  C   UNL     1       8.616  -1.596  -7.432  1.00  0.00     0.031 C 
ATOM     41  C   UNL     1      10.079   0.506  -3.076  1.00  0.00     0.029 A 
ATOM     42  N   UNL     1      11.635  -0.170  -4.528  1.00  0.00    -0.354 N 
ATOM     43  C   UNL     1      10.724  -2.072  -8.199  1.00  0.00     0.074 A 
ATOM     44  C   UNL     1       9.295  -2.182  -8.409  1.00  0.00     0.031 C 
ATOM     45  C   UNL     1      11.282   0.801  -2.551  1.00  0.00     0.029 A 
ATOM     46  C   UNL     1      12.335   0.350  -3.460  1.00  0.00     0.049 A 
ATOM     47  H   UNL     1      12.075  -0.534  -5.330  1.00  0.00     0.167 HD
ATOM     48  C   UNL     1      11.650  -2.499  -9.093  1.00  0.00     0.031 A 
ATOM     49  C   UNL     1      13.662   0.451  -3.218  1.00  0.00     0.031 A 
ATOM     50  C   UNL     1      13.076  -2.353  -8.959  1.00  0.00     0.049 A 
ATOM     51  C   UNL     1      14.675  -0.046  -4.224  1.00  0.00     0.074 A 
ATOM     52  C   UNL     1      14.059  -2.706  -9.871  1.00  0.00     0.029 A 
ATOM     53  N   UNL     1      13.727  -1.812  -7.866  1.00  0.00    -0.354 N 
ATOM     54  N   UNL     1      14.476  -0.582  -5.402  1.00  0.00    -0.248 NA
ATOM     55  C   UNL     1      16.100   0.089  -3.865  1.00  0.00     0.031 C 
ATOM     56  C   UNL     1      15.307  -2.419  -9.311  1.00  0.00     0.029 A 
ATOM     57  C   UNL     1      15.098  -1.840  -8.072  1.00  0.00     0.049 A 
ATOM     58  H   UNL     1      13.283  -1.458  -7.061  1.00  0.00     0.167 HD
ATOM     59  C   UNL     1      15.744  -0.809  -5.935  1.00  0.00     0.074 A 
ATOM     60  C   UNL     1      16.705  -0.346  -4.962  1.00  0.00     0.031 C 
ATOM     61  C   UNL     1      16.073  -1.357  -7.130  1.00  0.00     0.031 A 
BRANCH  48  62
ATOM     62  C   UNL     1      11.151  -3.185 -10.337  1.00  0.00    -0.014 A 
ATOM     63  C   UNL     1      10.555  -2.454 -11.379  1.00  0.00     0.010 A 
ATOM     64  C   UNL     1      11.363  -4.567 -10.497  1.00  0.00     0.010 A 
ATOM     65  C   UNL     1      10.149  -3.100 -12.548  1.00  0.00     0.020 A 
ATOM     66  C   UNL     1      10.983  -5.211 -11.677  1.00  0.00     0.020 A 
ATOM     67  C   UNL     1      10.365  -4.475 -12.689  1.00  0.00     0.054 A 
BRANCH  67  68
ATOM     68  S   UNL     1       9.866  -5.279 -14.236  1.00  0.00     0.124 S 
ATOM     69  O   UNL     1       8.413  -5.328 -14.091  1.00  0.00    -0.237 OA
ATOM     70  O   UNL     1      10.364  -4.357 -15.252  1.00  0.00    -0.237 OA
ATOM     71  O   UNL     1      10.541  -6.573 -14.187  1.00  0.00    -0.744 OA
ENDBRANCH  67  68
ENDBRANCH  48  62
BRANCH  49  72
ATOM     72  C   UNL     1      14.159   1.038  -1.937  1.00  0.00    -0.014 A 
ATOM     73  C   UNL     1      14.842   2.269  -1.930  1.00  0.00     0.010 A 
ATOM     74  C   UNL     1      14.035   0.322  -0.733  1.00  0.00     0.010 A 
ATOM     75  C   UNL     1      15.429   2.750  -0.755  1.00  0.00     0.020 A 
ATOM     76  C   UNL     1      14.595   0.814   0.450  1.00  0.00     0.020 A 
ATOM     77  C   UNL     1      15.307   2.015   0.427  1.00  0.00     0.054 A 
BRANCH  77  78
ATOM     78  S   UNL     1      16.070   2.655   1.944  1.00  0.00     0.124 S 
ATOM     79  O   UNL     1      17.478   2.334   1.734  1.00  0.00    -0.237 OA
ATOM     80  O   UNL     1      15.729   4.075   1.897  1.00  0.00    -0.237 OA
ATOM     81  O   UNL     1      15.404   1.899   3.003  1.00  0.00    -0.744 OA
ENDBRANCH  77  78
ENDBRANCH  49  72
BRANCH  61  82
ATOM     82  C   UNL     1      17.531  -1.442  -7.508  1.00  0.00    -0.014 A 
ATOM     83  C   UNL     1      18.398  -2.365  -6.897  1.00  0.00     0.010 A 
ATOM     84  C   UNL     1      18.026  -0.632  -8.549  1.00  0.00     0.010 A 
ATOM     85  C   UNL     1      19.734  -2.462  -7.303  1.00  0.00     0.020 A 
ATOM     86  C   UNL     1      19.355  -0.742  -8.974  1.00  0.00     0.020 A 
ATOM     87  C   UNL     1      20.205  -1.650  -8.340  1.00  0.00     0.054 A 
BRANCH  87  88
ATOM     88  S   UNL     1      21.926  -1.833  -8.888  1.00  0.00     0.124 S 
ATOM     89  O   UNL     1      22.661  -1.179  -7.809  1.00  0.00    -0.237 OA
ATOM     90  O   UNL     1      22.087  -3.284  -8.967  1.00  0.00    -0.237 OA
ATOM     91  O   UNL     1      21.957  -1.139 -10.173  1.00  0.00    -0.744 OA
ENDBRANCH  87  88
ENDBRANCH  61  82
ENDBRANCH  35  36
ENDBRANCH  27  30
ENDBRANCH  25  26
ENDBRANCH  24  25
ENDBRANCH   1  24
TORSDOF 17
