REMARK SMILES [NH3+][C@@]1(C(=O)NCCCNC(=O)c2ccc(-c3c4nc(c(-c5ccc(S(=O)(=O)[O-])cc5)c5ccc([nH]5)c(-c5ccc(S(=O)(=O)[O-])cc5)c5nc(c(-c6ccc(S(=O)(=O)[O-])cc6)c6ccc3[nH]6)C=C5)C=C4)cc2)CC[C@H](Sc2cccs2)C1
REMARK SMILES IDX 7 1 6 2 5 3 3 4 4 5 2 7 72 8 81 9 73 10 74 11 1 12 75 16
REMARK SMILES IDX 76 17 77 18 80 19 78 20 79 21 8 22 9 23 10 24 11 26 12 27
REMARK SMILES IDX 13 28 71 29 14 30 70 31 15 32 16 33 17 34 64 35 18 36 69 37
REMARK SMILES IDX 63 38 65 39 19 40 68 41 62 42 61 43 20 45 50 46 31 47 49 48
REMARK SMILES IDX 32 49 35 50 48 51 66 52 33 53 34 54 47 56 67 57 36 58 21 59
REMARK SMILES IDX 22 60 30 61 23 62 29 63 24 64 25 65 26 66 27 67 28 68 51 69
REMARK SMILES IDX 52 70 60 71 53 72 59 73 54 74 55 75 56 76 57 77 58 78 37 79
REMARK SMILES IDX 38 80 46 81 39 82 45 83 40 84 41 85 42 86 43 87 44 88
REMARK H PARENT 5 6 1 13 1 14 1 15 9 25 65 44 35 55
REMARK Flexibility Score: inf
ROOT
ATOM      1  C   UNL     1       0.404   4.133  -3.717  1.00  0.00     0.042 C 
ENDROOT
BRANCH   1   2
ATOM      2  C   UNL     1      -0.517   3.190  -2.969  1.00  0.00     0.118 C 
BRANCH   2   3
ATOM      3  N   UNL     1      -0.079   1.814  -3.001  1.00  0.00    -0.351 N 
ATOM      4  C   UNL     1       0.311   0.982  -2.001  1.00  0.00     0.281 C 
ATOM      5  O   UNL     1       0.581  -0.180  -2.337  1.00  0.00    -0.268 OA
ATOM      6  H   UNL     1      -0.059   1.411  -3.900  1.00  0.00     0.163 HD
BRANCH   4   7
ATOM      7  C   UNL     1       0.416   1.411  -0.488  1.00  0.00     0.175 C 
ATOM      8  C   UNL     1      -0.926   1.800   0.145  1.00  0.00     0.080 C 
ATOM      9  C   UNL     1       1.372   2.583  -0.245  1.00  0.00     0.094 C 
ATOM     10  C   UNL     1      -0.882   3.302   0.438  1.00  0.00     0.022 C 
ATOM     11  C   UNL     1       0.598   3.668   0.530  1.00  0.00     0.059 C 
BRANCH   7  12
ATOM     12  N   UNL     1       0.937   0.221   0.248  1.00  0.00    -0.345 N 
ATOM     13  H   UNL     1       0.312  -0.572   0.099  1.00  0.00     0.345 HD
ATOM     14  H   UNL     1       0.985   0.432   1.245  1.00  0.00     0.345 HD
ATOM     15  H   UNL     1       1.869  -0.011  -0.095  1.00  0.00     0.345 HD
ENDBRANCH   7  12
BRANCH  11  16
ATOM     16  S   UNL     1       1.226   5.279  -0.037  1.00  0.00    -0.112 SA
BRANCH  16  17
ATOM     17  C   UNL     1      -0.093   6.396  -0.288  1.00  0.00     0.060 A 
ATOM     18  C   UNL     1      -1.241   6.581   0.451  1.00  0.00     0.027 A 
ATOM     19  S   UNL     1       0.027   7.568  -1.543  1.00  0.00    -0.137 S 
ATOM     20  C   UNL     1      -2.027   7.677  -0.022  1.00  0.00     0.013 A 
ATOM     21  C   UNL     1      -1.445   8.307  -1.099  1.00  0.00     0.066 A 
ENDBRANCH  16  17
ENDBRANCH  11  16
ENDBRANCH   4   7
ENDBRANCH   2   3
ENDBRANCH   1   2
BRANCH   1  22
ATOM     22  C   UNL     1       0.209   4.083  -5.221  1.00  0.00     0.118 C 
BRANCH  22  23
ATOM     23  N   UNL     1      -1.096   4.602  -5.625  1.00  0.00    -0.352 N 
ATOM     24  C   UNL     1      -1.456   5.812  -6.164  1.00  0.00     0.251 C 
ATOM     25  H   UNL     1      -1.844   3.977  -5.487  1.00  0.00     0.163 HD
ATOM     26  O   UNL     1      -2.650   6.122  -6.193  1.00  0.00    -0.269 OA
BRANCH  24  27
ATOM     27  C   UNL     1      -0.439   6.745  -6.695  1.00  0.00     0.039 A 
ATOM     28  C   UNL     1      -0.629   8.125  -6.563  1.00  0.00     0.014 A 
ATOM     29  C   UNL     1       0.690   6.269  -7.360  1.00  0.00     0.014 A 
ATOM     30  C   UNL     1       0.347   9.011  -7.031  1.00  0.00     0.010 A 
ATOM     31  C   UNL     1       1.715   7.139  -7.706  1.00  0.00     0.010 A 
ATOM     32  C   UNL     1       1.548   8.524  -7.568  1.00  0.00    -0.014 A 
BRANCH  32  33
ATOM     33  C   UNL     1       2.637   9.423  -8.034  1.00  0.00     0.031 A 
ATOM     34  C   UNL     1       3.111   9.340  -9.466  1.00  0.00     0.074 A 
ATOM     35  C   UNL     1       3.260  10.239  -7.160  1.00  0.00     0.049 A 
ATOM     36  N   UNL     1       4.132   9.929 -10.033  1.00  0.00    -0.248 NA
ATOM     37  C   UNL     1       2.362   8.447 -10.369  1.00  0.00     0.031 C 
ATOM     38  C   UNL     1       2.925  10.383  -5.741  1.00  0.00     0.029 A 
ATOM     39  N   UNL     1       4.318  11.097  -7.336  1.00  0.00    -0.354 N 
ATOM     40  C   UNL     1       4.170   9.446 -11.337  1.00  0.00     0.074 A 
ATOM     41  C   UNL     1       3.103   8.481 -11.466  1.00  0.00     0.031 C 
ATOM     42  C   UNL     1       3.738  11.297  -5.186  1.00  0.00     0.029 A 
ATOM     43  C   UNL     1       4.686  11.764  -6.191  1.00  0.00     0.049 A 
ATOM     44  H   UNL     1       4.771  11.222  -8.201  1.00  0.00     0.167 HD
ATOM     45  C   UNL     1       5.005   9.791 -12.345  1.00  0.00     0.031 A 
ATOM     46  C   UNL     1       5.684  12.643  -5.971  1.00  0.00     0.031 A 
ATOM     47  C   UNL     1       6.035  10.787 -12.226  1.00  0.00     0.049 A 
ATOM     48  C   UNL     1       6.593  13.016  -7.113  1.00  0.00     0.074 A 
ATOM     49  C   UNL     1       6.881  11.268 -13.209  1.00  0.00     0.029 A 
ATOM     50  N   UNL     1       6.353  11.460 -11.056  1.00  0.00    -0.354 N 
ATOM     51  N   UNL     1       6.570  12.597  -8.356  1.00  0.00    -0.248 NA
ATOM     52  C   UNL     1       7.658  13.987  -6.824  1.00  0.00     0.031 C 
ATOM     53  C   UNL     1       7.748  12.193 -12.621  1.00  0.00     0.029 A 
ATOM     54  C   UNL     1       7.398  12.336 -11.288  1.00  0.00     0.049 A 
ATOM     55  H   UNL     1       5.902  11.334 -10.190  1.00  0.00     0.167 HD
ATOM     56  C   UNL     1       7.590  13.284  -9.005  1.00  0.00     0.074 A 
ATOM     57  C   UNL     1       8.203  14.152  -8.021  1.00  0.00     0.031 C 
ATOM     58  C   UNL     1       7.982  13.207 -10.301  1.00  0.00     0.031 A 
BRANCH  45  59
ATOM     59  C   UNL     1       4.842   9.094 -13.671  1.00  0.00    -0.014 A 
ATOM     60  C   UNL     1       3.721   9.330 -14.487  1.00  0.00     0.010 A 
ATOM     61  C   UNL     1       5.859   8.241 -14.138  1.00  0.00     0.010 A 
ATOM     62  C   UNL     1       3.606   8.705 -15.731  1.00  0.00     0.020 A 
ATOM     63  C   UNL     1       5.763   7.637 -15.395  1.00  0.00     0.020 A 
ATOM     64  C   UNL     1       4.630   7.864 -16.178  1.00  0.00     0.054 A 
BRANCH  64  65
ATOM     65  S   UNL     1       4.477   7.109 -17.820  1.00  0.00     0.124 S 
ATOM     66  O   UNL     1       3.425   6.120 -17.600  1.00  0.00    -0.237 OA
ATOM     67  O   UNL     1       4.105   8.245 -18.660  1.00  0.00    -0.237 OA
ATOM     68  O   UNL     1       5.806   6.558 -18.075  1.00  0.00    -0.744 OA
ENDBRANCH  64  65
ENDBRANCH  45  59
BRANCH  46  69
ATOM     69  C   UNL     1       5.873  13.248  -4.623  1.00  0.00    -0.014 A 
ATOM     70  C   UNL     1       5.633  14.619  -4.418  1.00  0.00     0.010 A 
ATOM     71  C   UNL     1       6.312  12.465  -3.540  1.00  0.00     0.010 A 
ATOM     72  C   UNL     1       5.863  15.203  -3.169  1.00  0.00     0.020 A 
ATOM     73  C   UNL     1       6.513  13.038  -2.280  1.00  0.00     0.020 A 
ATOM     74  C   UNL     1       6.305  14.408  -2.108  1.00  0.00     0.054 A 
BRANCH  74  75
ATOM     75  S   UNL     1       6.582  15.184  -0.491  1.00  0.00     0.124 S 
ATOM     76  O   UNL     1       7.805  15.945  -0.726  1.00  0.00    -0.237 OA
ATOM     77  O   UNL     1       5.368  15.977  -0.310  1.00  0.00    -0.237 OA
ATOM     78  O   UNL     1       6.716  14.047   0.416  1.00  0.00    -0.744 OA
ENDBRANCH  74  75
ENDBRANCH  46  69
BRANCH  58  79
ATOM     79  C   UNL     1       9.086  14.125 -10.753  1.00  0.00    -0.014 A 
ATOM     80  C   UNL     1      10.419  13.918 -10.363  1.00  0.00     0.010 A 
ATOM     81  C   UNL     1       8.786  15.171 -11.647  1.00  0.00     0.010 A 
ATOM     82  C   UNL     1      11.431  14.756 -10.839  1.00  0.00     0.020 A 
ATOM     83  C   UNL     1       9.798  15.991 -12.149  1.00  0.00     0.020 A 
ATOM     84  C   UNL     1      11.114  15.785 -11.732  1.00  0.00     0.054 A 
BRANCH  84  85
ATOM     85  S   UNL     1      12.453  16.821 -12.380  1.00  0.00     0.124 S 
ATOM     86  O   UNL     1      12.796  17.637 -11.218  1.00  0.00    -0.237 OA
ATOM     87  O   UNL     1      13.457  15.836 -12.775  1.00  0.00    -0.237 OA
ATOM     88  O   UNL     1      11.829  17.544 -13.486  1.00  0.00    -0.744 OA
ENDBRANCH  84  85
ENDBRANCH  58  79
ENDBRANCH  32  33
ENDBRANCH  24  27
ENDBRANCH  22  23
ENDBRANCH   1  22
TORSDOF 16
