REMARK SMILES Cc1c(CC(=O)NCCCNC(=O)c2ccc(-c3c4nc(c(-c5ccc(S(=O)(=O)[O-])cc5)c5ccc([nH]5)c(-c5ccc(S(=O)(=O)[O-])cc5)c5nc(c(-c6ccc(S(=O)(=O)[O-])cc6)c6ccc3[nH]6)C=C5)C=C4)cc2)cccc1-c1ccn(C(F)F)c(=O)c1
REMARK SMILES IDX 9 1 8 2 7 3 5 4 6 5 4 7 3 8 1 9 2 10 77 11 74 12 76 13 75 14
REMARK SMILES IDX 78 15 79 16 87 17 80 18 85 19 81 20 86 21 82 22 83 23 84 24
REMARK SMILES IDX 10 25 11 26 12 27 13 29 14 30 15 31 73 32 16 33 72 34 17 35
REMARK SMILES IDX 18 36 19 37 66 38 20 39 71 40 65 41 67 42 21 43 70 44 64 45
REMARK SMILES IDX 63 46 22 48 52 49 33 50 51 51 34 52 37 53 50 54 68 55 35 56
REMARK SMILES IDX 36 57 49 59 69 60 38 61 23 62 24 63 32 64 25 65 31 66 26 67
REMARK SMILES IDX 27 68 28 69 29 70 30 71 53 72 54 73 62 74 55 75 61 76 56 77
REMARK SMILES IDX 57 78 58 79 59 80 60 81 39 82 40 83 48 84 41 85 47 86 42 87
REMARK SMILES IDX 43 88 44 89 45 90 46 91
REMARK H PARENT 7 6 11 28 67 47 37 58
REMARK Flexibility Score: inf
ROOT
ATOM      1  C   UNL     1       1.390  -0.524   3.048  1.00  0.00     0.042 C 
ENDROOT
BRANCH   1   2
ATOM      2  C   UNL     1       2.053  -1.876   2.806  1.00  0.00     0.117 C 
BRANCH   2   3
ATOM      3  N   UNL     1       1.106  -2.920   2.434  1.00  0.00    -0.356 N 
ATOM      4  C   UNL     1       0.633  -3.270   1.201  1.00  0.00     0.224 C 
ATOM      5  O   UNL     1      -0.145  -4.224   1.110  1.00  0.00    -0.275 OA
ATOM      6  H   UNL     1       0.755  -3.453   3.184  1.00  0.00     0.163 HD
BRANCH   4   7
ATOM      7  C   UNL     1       1.063  -2.505  -0.048  1.00  0.00     0.135 C 
BRANCH   7   8
ATOM      8  C   UNL     1       0.386  -1.153  -0.195  1.00  0.00    -0.035 A 
ATOM      9  C   UNL     1       2.602   0.079  -0.430  1.00  0.00     0.045 C 
ATOM     10  C   UNL     1       1.098   0.072  -0.287  1.00  0.00    -0.040 A 
ATOM     11  C   UNL     1       0.370   1.292  -0.262  1.00  0.00    -0.015 A 
ATOM     12  C   UNL     1      -1.024  -1.132  -0.176  1.00  0.00     0.004 A 
ATOM     13  C   UNL     1      -1.034   1.272  -0.216  1.00  0.00     0.009 A 
ATOM     14  C   UNL     1      -1.727   0.068  -0.189  1.00  0.00     0.001 A 
BRANCH  11  15
ATOM     15  C   UNL     1       1.045   2.609  -0.207  1.00  0.00    -0.011 A 
ATOM     16  C   UNL     1       1.823   3.144  -1.308  1.00  0.00     0.027 A 
ATOM     17  C   UNL     1       0.995   3.292   0.952  1.00  0.00     0.080 A 
ATOM     18  C   UNL     1       2.568   4.242  -1.139  1.00  0.00     0.095 A 
ATOM     19  C   UNL     1       1.738   4.572   1.118  1.00  0.00     0.255 A 
ATOM     20  N   UNL     1       2.559   4.931   0.060  1.00  0.00    -0.258 N 
ATOM     21  O   UNL     1       1.595   5.215   2.151  1.00  0.00    -0.269 OA
BRANCH  20  22
ATOM     22  C   UNL     1       3.387   6.093   0.246  1.00  0.00     0.451 C 
ATOM     23  F   UNL     1       2.639   7.217   0.364  1.00  0.00    -0.185 F 
ATOM     24  F   UNL     1       4.163   5.982   1.351  1.00  0.00    -0.185 F 
ENDBRANCH  20  22
ENDBRANCH  11  15
ENDBRANCH   7   8
ENDBRANCH   4   7
ENDBRANCH   2   3
ENDBRANCH   1   2
BRANCH   1  25
ATOM     25  C   UNL     1       0.800  -0.388   4.443  1.00  0.00     0.118 C 
BRANCH  25  26
ATOM     26  N   UNL     1       1.401   0.693   5.212  1.00  0.00    -0.352 N 
ATOM     27  C   UNL     1       0.936   1.234   6.398  1.00  0.00     0.251 C 
ATOM     28  H   UNL     1       2.229   1.081   4.848  1.00  0.00     0.163 HD
ATOM     29  O   UNL     1       1.319   2.301   6.839  1.00  0.00    -0.269 OA
BRANCH  27  30
ATOM     30  C   UNL     1       0.063   0.359   7.205  1.00  0.00     0.039 A 
ATOM     31  C   UNL     1       0.646  -0.237   8.330  1.00  0.00     0.014 A 
ATOM     32  C   UNL     1      -1.145  -0.093   6.686  1.00  0.00     0.014 A 
ATOM     33  C   UNL     1       0.094  -1.405   8.844  1.00  0.00     0.010 A 
ATOM     34  C   UNL     1      -1.633  -1.304   7.135  1.00  0.00     0.010 A 
ATOM     35  C   UNL     1      -0.991  -1.981   8.184  1.00  0.00    -0.014 A 
BRANCH  35  36
ATOM     36  C   UNL     1      -1.491  -3.320   8.472  1.00  0.00     0.031 A 
ATOM     37  C   UNL     1      -2.776  -3.485   9.192  1.00  0.00     0.074 A 
ATOM     38  C   UNL     1      -0.838  -4.410   8.010  1.00  0.00     0.049 A 
ATOM     39  N   UNL     1      -3.132  -4.553   9.825  1.00  0.00    -0.248 NA
ATOM     40  C   UNL     1      -3.750  -2.404   9.300  1.00  0.00     0.031 C 
ATOM     41  C   UNL     1      -1.369  -5.768   7.920  1.00  0.00     0.029 A 
ATOM     42  N   UNL     1       0.521  -4.562   7.727  1.00  0.00    -0.354 N 
ATOM     43  C   UNL     1      -4.465  -4.418  10.142  1.00  0.00     0.074 A 
ATOM     44  C   UNL     1      -4.778  -3.034   9.874  1.00  0.00     0.031 C 
ATOM     45  C   UNL     1      -0.342  -6.630   7.918  1.00  0.00     0.029 A 
ATOM     46  C   UNL     1       0.867  -5.857   8.150  1.00  0.00     0.049 A 
ATOM     47  H   UNL     1       1.117  -3.896   7.315  1.00  0.00     0.167 HD
ATOM     48  C   UNL     1      -5.205  -5.521  10.454  1.00  0.00     0.031 A 
ATOM     49  C   UNL     1       1.810  -6.135   9.097  1.00  0.00     0.031 A 
ATOM     50  C   UNL     1      -4.380  -6.725  10.525  1.00  0.00     0.049 A 
ATOM     51  C   UNL     1       1.266  -6.943  10.256  1.00  0.00     0.074 A 
ATOM     52  C   UNL     1      -4.152  -7.768   9.642  1.00  0.00     0.029 A 
ATOM     53  N   UNL     1      -3.416  -6.832  11.519  1.00  0.00    -0.354 N 
ATOM     54  N   UNL     1      -0.006  -7.108  10.491  1.00  0.00    -0.248 NA
ATOM     55  C   UNL     1       2.101  -7.588  11.267  1.00  0.00     0.031 C 
ATOM     56  C   UNL     1      -2.990  -8.459  10.072  1.00  0.00     0.029 A 
ATOM     57  C   UNL     1      -2.532  -7.853  11.228  1.00  0.00     0.049 A 
ATOM     58  H   UNL     1      -3.369  -6.260  12.320  1.00  0.00     0.167 HD
ATOM     59  C   UNL     1      -0.177  -7.840  11.636  1.00  0.00     0.074 A 
ATOM     60  C   UNL     1       1.174  -8.129  12.079  1.00  0.00     0.031 C 
ATOM     61  C   UNL     1      -1.418  -8.135  12.124  1.00  0.00     0.031 A 
BRANCH  48  62
ATOM     62  C   UNL     1      -6.718  -5.547  10.394  1.00  0.00    -0.014 A 
ATOM     63  C   UNL     1      -7.382  -6.751  10.075  1.00  0.00     0.010 A 
ATOM     64  C   UNL     1      -7.540  -4.419  10.572  1.00  0.00     0.010 A 
ATOM     65  C   UNL     1      -8.764  -6.800   9.833  1.00  0.00     0.020 A 
ATOM     66  C   UNL     1      -8.916  -4.442  10.294  1.00  0.00     0.020 A 
ATOM     67  C   UNL     1      -9.519  -5.633   9.911  1.00  0.00     0.054 A 
BRANCH  67  68
ATOM     68  S   UNL     1     -11.282  -5.690   9.498  1.00  0.00     0.124 S 
ATOM     69  O   UNL     1     -11.273  -6.248   8.148  1.00  0.00    -0.237 OA
ATOM     70  O   UNL     1     -11.820  -6.561  10.537  1.00  0.00    -0.237 OA
ATOM     71  O   UNL     1     -11.702  -4.292   9.581  1.00  0.00    -0.744 OA
ENDBRANCH  67  68
ENDBRANCH  48  62
BRANCH  49  72
ATOM     72  C   UNL     1       2.905  -5.131   9.185  1.00  0.00    -0.014 A 
ATOM     73  C   UNL     1       3.818  -5.085   8.111  1.00  0.00     0.010 A 
ATOM     74  C   UNL     1       2.767  -4.003  10.013  1.00  0.00     0.010 A 
ATOM     75  C   UNL     1       4.428  -3.882   7.751  1.00  0.00     0.020 A 
ATOM     76  C   UNL     1       3.383  -2.795   9.655  1.00  0.00     0.020 A 
ATOM     77  C   UNL     1       4.145  -2.729   8.483  1.00  0.00     0.054 A 
BRANCH  77  78
ATOM     78  S   UNL     1       4.620  -1.127   7.766  1.00  0.00     0.124 S 
ATOM     79  O   UNL     1       6.057  -1.286   7.565  1.00  0.00    -0.237 OA
ATOM     80  O   UNL     1       3.817  -1.093   6.543  1.00  0.00    -0.237 OA
ATOM     81  O   UNL     1       4.229  -0.171   8.796  1.00  0.00    -0.744 OA
ENDBRANCH  77  78
ENDBRANCH  49  72
BRANCH  61  82
ATOM     82  C   UNL     1      -1.723  -8.777  13.455  1.00  0.00    -0.014 A 
ATOM     83  C   UNL     1      -0.876  -8.719  14.573  1.00  0.00     0.010 A 
ATOM     84  C   UNL     1      -2.998  -9.366  13.647  1.00  0.00     0.010 A 
ATOM     85  C   UNL     1      -1.260  -9.269  15.806  1.00  0.00     0.020 A 
ATOM     86  C   UNL     1      -3.406  -9.879  14.881  1.00  0.00     0.020 A 
ATOM     87  C   UNL     1      -2.521  -9.848  15.951  1.00  0.00     0.054 A 
BRANCH  87  88
ATOM     88  S   UNL     1      -3.041 -10.489  17.564  1.00  0.00     0.124 S 
ATOM     89  O   UNL     1      -2.591 -11.877  17.494  1.00  0.00    -0.237 OA
ATOM     90  O   UNL     1      -2.312  -9.643  18.506  1.00  0.00    -0.237 OA
ATOM     91  O   UNL     1      -4.488 -10.296  17.556  1.00  0.00    -0.744 OA
ENDBRANCH  87  88
ENDBRANCH  61  82
ENDBRANCH  35  36
ENDBRANCH  27  30
ENDBRANCH  25  26
ENDBRANCH   1  25
TORSDOF 16
