REMARK SMILES O=C(NCCCNC(=O)C1CCN(c2nc(-c3ccc(F)cc3)cc(C(F)F)n2)CC1)c1ccc(-c2c3nc(c(-c4ccc(S(=O)(=O)[O-])cc4)c4ccc([nH]4)c(-c4ccc(S(=O)(=O)[O-])cc4)c4nc(c(-c5ccc(S(=O)(=O)[O-])cc5)c5ccc2[nH]5)C=C4)C=C3)cc1
REMARK SMILES IDX 4 1 3 2 1 3 2 4 32 6 33 7 91 8 34 9 90 10 35 11 36 12 37 13
REMARK SMILES IDX 84 14 38 15 89 16 83 17 85 18 39 19 88 20 82 21 81 22 40 24
REMARK SMILES IDX 70 25 51 26 69 27 52 28 55 29 68 30 86 31 53 32 54 33 67 35
REMARK SMILES IDX 87 36 56 37 41 38 42 39 50 40 43 41 49 42 44 43 45 44 46 45
REMARK SMILES IDX 47 46 48 47 71 48 72 49 80 50 73 51 79 52 74 53 75 54 76 55
REMARK SMILES IDX 77 56 78 57 57 58 58 59 66 60 59 61 65 62 60 63 61 64 62 65
REMARK SMILES IDX 63 66 64 67 5 68 6 69 7 70 8 71 9 73 10 74 11 75 31 76 12 77
REMARK SMILES IDX 30 78 13 79 14 80 15 81 29 82 16 83 25 84 24 85 17 86 18 87
REMARK SMILES IDX 23 88 19 89 22 90 20 91 21 92 26 93 27 94 28 95
REMARK H PARENT 3 5 85 23 55 34 7 72
REMARK Flexibility Score: inf
ROOT
ATOM      1  C   UNL     1       4.612  -0.767  -1.402  1.00  0.00     0.118 C 
ENDROOT
BRANCH   1   2
ATOM      2  N   UNL     1       3.195  -0.528  -1.170  1.00  0.00    -0.352 N 
ATOM      3  O   UNL     1       1.289  -0.004  -0.114  1.00  0.00    -0.269 OA
ATOM      4  C   UNL     1       2.515  -0.007  -0.093  1.00  0.00     0.251 C 
ATOM      5  H   UNL     1       2.615  -0.787  -1.923  1.00  0.00     0.163 HD
BRANCH   4   6
ATOM      6  C   UNL     1       3.230   0.509   1.099  1.00  0.00     0.039 A 
ATOM      7  C   UNL     1       4.384   1.283   0.989  1.00  0.00     0.014 A 
ATOM      8  C   UNL     1       2.698   0.243   2.367  1.00  0.00     0.014 A 
ATOM      9  C   UNL     1       5.096   1.638   2.134  1.00  0.00     0.010 A 
ATOM     10  C   UNL     1       3.366   0.679   3.517  1.00  0.00     0.010 A 
ATOM     11  C   UNL     1       4.598   1.339   3.413  1.00  0.00    -0.014 A 
BRANCH  11  12
ATOM     12  C   UNL     1       5.371   1.752   4.616  1.00  0.00     0.031 A 
ATOM     13  C   UNL     1       5.948   0.728   5.560  1.00  0.00     0.074 A 
ATOM     14  C   UNL     1       5.594   3.063   4.835  1.00  0.00     0.049 A 
ATOM     15  N   UNL     1       6.710   0.913   6.609  1.00  0.00    -0.248 NA
ATOM     16  C   UNL     1       5.624  -0.684   5.301  1.00  0.00     0.031 C 
ATOM     17  C   UNL     1       5.083   4.156   4.003  1.00  0.00     0.029 A 
ATOM     18  N   UNL     1       6.330   3.701   5.802  1.00  0.00    -0.354 N 
ATOM     19  C   UNL     1       6.939  -0.350   7.146  1.00  0.00     0.074 A 
ATOM     20  C   UNL     1       6.213  -1.292   6.322  1.00  0.00     0.031 C 
ATOM     21  C   UNL     1       5.573   5.319   4.455  1.00  0.00     0.029 A 
ATOM     22  C   UNL     1       6.384   5.065   5.641  1.00  0.00     0.049 A 
ATOM     23  H   UNL     1       6.777   3.227   6.540  1.00  0.00     0.167 HD
ATOM     24  C   UNL     1       7.688  -0.696   8.222  1.00  0.00     0.031 A 
ATOM     25  C   UNL     1       7.012   6.012   6.364  1.00  0.00     0.031 A 
ATOM     26  C   UNL     1       8.415   0.241   9.040  1.00  0.00     0.049 A 
ATOM     27  C   UNL     1       7.821   5.604   7.561  1.00  0.00     0.074 A 
ATOM     28  C   UNL     1       9.235  -0.018  10.125  1.00  0.00     0.029 A 
ATOM     29  N   UNL     1       8.405   1.618   8.869  1.00  0.00    -0.354 N 
ATOM     30  N   UNL     1       8.058   4.400   8.024  1.00  0.00    -0.248 NA
ATOM     31  C   UNL     1       8.449   6.685   8.333  1.00  0.00     0.031 C 
ATOM     32  C   UNL     1       9.679   1.204  10.641  1.00  0.00     0.029 A 
ATOM     33  C   UNL     1       9.181   2.222   9.845  1.00  0.00     0.049 A 
ATOM     34  H   UNL     1       7.917   2.095   8.160  1.00  0.00     0.167 HD
ATOM     35  C   UNL     1       8.880   4.577   9.130  1.00  0.00     0.074 A 
ATOM     36  C   UNL     1       9.112   6.002   9.256  1.00  0.00     0.031 C 
ATOM     37  C   UNL     1       9.397   3.642   9.966  1.00  0.00     0.031 A 
BRANCH  24  38
ATOM     38  C   UNL     1       7.735  -2.155   8.598  1.00  0.00    -0.014 A 
ATOM     39  C   UNL     1       8.438  -3.091   7.817  1.00  0.00     0.010 A 
ATOM     40  C   UNL     1       7.093  -2.591   9.772  1.00  0.00     0.010 A 
ATOM     41  C   UNL     1       8.456  -4.442   8.178  1.00  0.00     0.020 A 
ATOM     42  C   UNL     1       7.131  -3.936  10.150  1.00  0.00     0.020 A 
ATOM     43  C   UNL     1       7.796  -4.857   9.338  1.00  0.00     0.054 A 
BRANCH  43  44
ATOM     44  S   UNL     1       7.835  -6.616   9.783  1.00  0.00     0.124 S 
ATOM     45  O   UNL     1       6.901  -7.190   8.817  1.00  0.00    -0.237 OA
ATOM     46  O   UNL     1       9.239  -6.967   9.582  1.00  0.00    -0.237 OA
ATOM     47  O   UNL     1       7.384  -6.633  11.172  1.00  0.00    -0.744 OA
ENDBRANCH  43  44
ENDBRANCH  24  38
BRANCH  25  48
ATOM     48  C   UNL     1       6.906   7.440   5.960  1.00  0.00    -0.014 A 
ATOM     49  C   UNL     1       8.016   8.114   5.422  1.00  0.00     0.010 A 
ATOM     50  C   UNL     1       5.683   8.124   6.086  1.00  0.00     0.010 A 
ATOM     51  C   UNL     1       7.907   9.450   5.026  1.00  0.00     0.020 A 
ATOM     52  C   UNL     1       5.564   9.451   5.665  1.00  0.00     0.020 A 
ATOM     53  C   UNL     1       6.680  10.108   5.147  1.00  0.00     0.054 A 
BRANCH  53  54
ATOM     54  S   UNL     1       6.545  11.822   4.567  1.00  0.00     0.124 S 
ATOM     55  O   UNL     1       7.223  12.556   5.631  1.00  0.00    -0.237 OA
ATOM     56  O   UNL     1       7.241  11.779   3.284  1.00  0.00    -0.237 OA
ATOM     57  O   UNL     1       5.102  12.038   4.477  1.00  0.00    -0.744 OA
ENDBRANCH  53  54
ENDBRANCH  25  48
BRANCH  37  58
ATOM     58  C   UNL     1      10.288   4.132  11.075  1.00  0.00    -0.014 A 
ATOM     59  C   UNL     1       9.762   4.814  12.186  1.00  0.00     0.010 A 
ATOM     60  C   UNL     1      11.671   3.881  11.015  1.00  0.00     0.010 A 
ATOM     61  C   UNL     1      10.609   5.272  13.199  1.00  0.00     0.020 A 
ATOM     62  C   UNL     1      12.518   4.314  12.038  1.00  0.00     0.020 A 
ATOM     63  C   UNL     1      11.983   5.023  13.116  1.00  0.00     0.054 A 
BRANCH  63  64
ATOM     64  S   UNL     1      13.061   5.604  14.454  1.00  0.00     0.124 S 
ATOM     65  O   UNL     1      13.148   7.035  14.174  1.00  0.00    -0.237 OA
ATOM     66  O   UNL     1      12.309   5.244  15.654  1.00  0.00    -0.237 OA
ATOM     67  O   UNL     1      14.297   4.853  14.253  1.00  0.00    -0.744 OA
ENDBRANCH  63  64
ENDBRANCH  37  58
ENDBRANCH  11  12
ENDBRANCH   4   6
ENDBRANCH   1   2
BRANCH   1  68
ATOM     68  C   UNL     1       4.978  -2.244  -1.538  1.00  0.00     0.042 C 
BRANCH  68  69
ATOM     69  C   UNL     1       4.241  -3.008  -2.635  1.00  0.00     0.117 C 
BRANCH  69  70
ATOM     70  N   UNL     1       4.265  -2.349  -3.928  1.00  0.00    -0.356 N 
ATOM     71  C   UNL     1       5.144  -2.462  -4.961  1.00  0.00     0.223 C 
ATOM     72  H   UNL     1       3.526  -1.718  -4.083  1.00  0.00     0.163 HD
ATOM     73  O   UNL     1       4.924  -1.797  -5.973  1.00  0.00    -0.275 OA
BRANCH  71  74
ATOM     74  C   UNL     1       6.336  -3.401  -4.840  1.00  0.00     0.082 C 
ATOM     75  C   UNL     1       7.557  -2.820  -5.567  1.00  0.00     0.035 C 
ATOM     76  C   UNL     1       5.979  -4.817  -5.331  1.00  0.00     0.035 C 
ATOM     77  C   UNL     1       7.494  -3.015  -7.076  1.00  0.00     0.120 C 
ATOM     78  C   UNL     1       6.013  -4.980  -6.861  1.00  0.00     0.120 C 
ATOM     79  N   UNL     1       7.255  -4.422  -7.349  1.00  0.00    -0.341 N 
BRANCH  79  80
ATOM     80  C   UNL     1       7.950  -4.963  -8.398  1.00  0.00     0.226 A 
ATOM     81  N   UNL     1       9.261  -4.695  -8.440  1.00  0.00    -0.213 NA
ATOM     82  N   UNL     1       7.338  -5.709  -9.326  1.00  0.00    -0.212 NA
ATOM     83  C   UNL     1       9.991  -5.151  -9.466  1.00  0.00     0.076 A 
ATOM     84  C   UNL     1       8.076  -6.136 -10.385  1.00  0.00     0.112 A 
ATOM     85  C   UNL     1       9.429  -5.867 -10.496  1.00  0.00     0.059 A 
BRANCH  83  86
ATOM     86  C   UNL     1      11.420  -4.835  -9.381  1.00  0.00     0.001 A 
ATOM     87  C   UNL     1      12.080  -4.113 -10.389  1.00  0.00     0.013 A 
ATOM     88  C   UNL     1      12.156  -5.214  -8.240  1.00  0.00     0.013 A 
ATOM     89  C   UNL     1      13.433  -3.786 -10.261  1.00  0.00     0.040 A 
ATOM     90  C   UNL     1      13.509  -4.897  -8.116  1.00  0.00     0.040 A 
ATOM     91  C   UNL     1      14.135  -4.184  -9.129  1.00  0.00     0.123 A 
ATOM     92  F   UNL     1      15.431  -3.869  -9.011  1.00  0.00    -0.207 F 
ENDBRANCH  83  86
BRANCH  84  93
ATOM     93  C   UNL     1       7.376  -6.895 -11.492  1.00  0.00     0.391 C 
ATOM     94  F   UNL     1       6.671  -7.978 -11.056  1.00  0.00    -0.203 F 
ATOM     95  F   UNL     1       6.497  -6.128 -12.199  1.00  0.00    -0.203 F 
ENDBRANCH  84  93
ENDBRANCH  79  80
ENDBRANCH  71  74
ENDBRANCH  69  70
ENDBRANCH  68  69
ENDBRANCH   1  68
TORSDOF 16
