REMARK SMILES CC(C)c1cc(O)cc(C(C)C)c1O[C@@H]1O[C@@H](C(=O)NCCCNC(=O)c2ccc(-c3c4nc(c(-c5ccc(S(=O)(=O)[O-])cc5)c5ccc([nH]5)c(-c5ccc(S(=O)(=O)[O-])cc5)c5nc(c(-c6ccc(S(=O)(=O)[O-])cc6)c6ccc3[nH]6)C=C5)C=C4)cc2)[C@@H](O)[C@H](O)[C@@H]1O
REMARK SMILES IDX 22 1 21 2 20 3 18 4 19 5 17 7 15 8 16 9 91 10 89 11 87 12
REMARK SMILES IDX 14 13 13 14 4 15 5 16 6 17 9 18 8 19 2 20 1 21 3 22 7 23
REMARK SMILES IDX 10 25 11 26 12 27 92 28 90 30 88 32 23 34 24 35 25 36 26 38
REMARK SMILES IDX 27 39 28 40 86 41 29 42 85 43 30 44 31 45 32 46 79 47 33 48
REMARK SMILES IDX 84 49 78 50 80 51 34 52 83 53 77 54 76 55 35 57 65 58 46 59
REMARK SMILES IDX 64 60 47 61 50 62 63 63 81 64 48 65 49 66 62 68 82 69 51 70
REMARK SMILES IDX 36 71 37 72 45 73 38 74 44 75 39 76 40 77 41 78 42 79 43 80
REMARK SMILES IDX 66 81 67 82 75 83 68 84 74 85 69 86 70 87 71 88 72 89 73 90
REMARK SMILES IDX 52 91 53 92 61 93 54 94 60 95 55 96 56 97 57 98 58 99 59 100
REMARK H PARENT 20 6 7 24 92 29 90 31 88 33 24 37 80 56 50 67
REMARK Flexibility Score: inf
ROOT
ATOM      1  C   UNL     1      -2.390   1.282   0.511  1.00  0.00     0.042 C 
ENDROOT
BRANCH   1   2
ATOM      2  C   UNL     1      -2.064  -0.148   0.885  1.00  0.00     0.117 C 
BRANCH   2   3
ATOM      3  N   UNL     1      -2.150  -1.092  -0.222  1.00  0.00    -0.354 N 
ATOM      4  C   UNL     1      -1.258  -1.885  -0.869  1.00  0.00     0.252 C 
ATOM      5  O   UNL     1      -1.768  -2.776  -1.565  1.00  0.00    -0.272 OA
ATOM      6  H   UNL     1      -3.062  -1.173  -0.583  1.00  0.00     0.163 HD
BRANCH   4   7
ATOM      7  C   UNL     1       0.296  -1.741  -0.842  1.00  0.00     0.242 C 
ATOM      8  C   UNL     1       0.854  -3.920   0.046  1.00  0.00     0.339 C 
ATOM      9  O   UNL     1       0.981  -2.994  -1.040  1.00  0.00    -0.324 OA
ATOM     10  C   UNL     1       0.967  -3.360   1.502  1.00  0.00     0.214 C 
ATOM     11  C   UNL     1       0.648  -1.858   1.619  1.00  0.00     0.181 C 
ATOM     12  C   UNL     1       0.963  -1.053   0.338  1.00  0.00     0.184 C 
BRANCH   8  13
ATOM     13  O   UNL     1       1.606  -5.130  -0.144  1.00  0.00    -0.461 OA
BRANCH  13  14
ATOM     14  C   UNL     1       2.957  -5.355  -0.151  1.00  0.00     0.130 A 
ATOM     15  C   UNL     1       3.255  -6.753  -0.044  1.00  0.00     0.001 A 
ATOM     16  C   UNL     1       4.598  -7.182  -0.007  1.00  0.00     0.054 A 
ATOM     17  C   UNL     1       5.629  -6.268  -0.110  1.00  0.00     0.116 A 
ATOM     18  C   UNL     1       4.032  -4.431  -0.225  1.00  0.00     0.001 A 
ATOM     19  C   UNL     1       5.356  -4.921  -0.226  1.00  0.00     0.054 A 
BRANCH  15  20
ATOM     20  C   UNL     1       2.124  -7.790   0.054  1.00  0.00     0.017 C 
ATOM     21  C   UNL     1       2.528  -9.229  -0.306  1.00  0.00     0.012 C 
ATOM     22  C   UNL     1       1.497  -7.790   1.454  1.00  0.00     0.012 C 
ENDBRANCH  15  20
BRANCH  17  23
ATOM     23  O   UNL     1       6.936  -6.649  -0.095  1.00  0.00    -0.508 OA
ATOM     24  H   UNL     1       7.159  -7.556  -0.017  1.00  0.00     0.293 HD
ENDBRANCH  17  23
BRANCH  18  25
ATOM     25  C   UNL     1       3.913  -2.926  -0.296  1.00  0.00     0.017 C 
ATOM     26  C   UNL     1       4.735  -2.161   0.754  1.00  0.00     0.012 C 
ATOM     27  C   UNL     1       4.153  -2.371  -1.697  1.00  0.00     0.012 C 
ENDBRANCH  18  25
ENDBRANCH  13  14
ENDBRANCH   8  13
BRANCH  10  28
ATOM     28  O   UNL     1       2.230  -3.584   2.155  1.00  0.00    -0.384 OA
ATOM     29  H   UNL     1       2.919  -3.066   1.711  1.00  0.00     0.211 HD
ENDBRANCH  10  28
BRANCH  11  30
ATOM     30  O   UNL     1       1.333  -1.291   2.744  1.00  0.00    -0.387 OA
ATOM     31  H   UNL     1       2.291  -1.358   2.607  1.00  0.00     0.211 HD
ENDBRANCH  11  30
BRANCH  12  32
ATOM     32  O   UNL     1       0.678   0.345   0.374  1.00  0.00    -0.387 OA
ATOM     33  H   UNL     1      -0.279   0.478   0.464  1.00  0.00     0.211 HD
ENDBRANCH  12  32
ENDBRANCH   4   7
ENDBRANCH   2   3
ENDBRANCH   1   2
BRANCH   1  34
ATOM     34  C   UNL     1      -3.882   1.549   0.593  1.00  0.00     0.118 C 
BRANCH  34  35
ATOM     35  N   UNL     1      -4.404   1.322   1.944  1.00  0.00    -0.352 N 
ATOM     36  C   UNL     1      -4.643   2.204   2.970  1.00  0.00     0.251 C 
ATOM     37  H   UNL     1      -4.619   0.384   2.150  1.00  0.00     0.163 HD
ATOM     38  O   UNL     1      -4.766   1.788   4.117  1.00  0.00    -0.269 OA
BRANCH  36  39
ATOM     39  C   UNL     1      -4.762   3.645   2.679  1.00  0.00     0.039 A 
ATOM     40  C   UNL     1      -4.249   4.586   3.574  1.00  0.00     0.014 A 
ATOM     41  C   UNL     1      -5.403   4.059   1.513  1.00  0.00     0.014 A 
ATOM     42  C   UNL     1      -4.309   5.943   3.249  1.00  0.00     0.010 A 
ATOM     43  C   UNL     1      -5.348   5.388   1.133  1.00  0.00     0.010 A 
ATOM     44  C   UNL     1      -4.816   6.348   2.003  1.00  0.00    -0.014 A 
BRANCH  44  45
ATOM     45  C   UNL     1      -4.819   7.764   1.569  1.00  0.00     0.031 A 
ATOM     46  C   UNL     1      -6.123   8.426   1.206  1.00  0.00     0.074 A 
ATOM     47  C   UNL     1      -3.647   8.405   1.391  1.00  0.00     0.049 A 
ATOM     48  N   UNL     1      -6.329   9.598   0.666  1.00  0.00    -0.248 NA
ATOM     49  C   UNL     1      -7.357   7.650   1.436  1.00  0.00     0.031 C 
ATOM     50  C   UNL     1      -2.318   7.838   1.643  1.00  0.00     0.029 A 
ATOM     51  N   UNL     1      -3.382   9.672   0.938  1.00  0.00    -0.354 N 
ATOM     52  C   UNL     1      -7.701   9.681   0.457  1.00  0.00     0.074 A 
ATOM     53  C   UNL     1      -8.276   8.426   0.880  1.00  0.00     0.031 C 
ATOM     54  C   UNL     1      -1.383   8.762   1.369  1.00  0.00     0.029 A 
ATOM     55  C   UNL     1      -2.040   9.967   0.878  1.00  0.00     0.049 A 
ATOM     56  H   UNL     1      -4.086  10.310   0.680  1.00  0.00     0.167 HD
ATOM     57  C   UNL     1      -8.420  10.722  -0.022  1.00  0.00     0.031 A 
ATOM     58  C   UNL     1      -1.411  11.082   0.462  1.00  0.00     0.031 A 
ATOM     59  C   UNL     1      -7.843  11.987  -0.386  1.00  0.00     0.049 A 
ATOM     60  C   UNL     1      -2.239  12.237  -0.031  1.00  0.00     0.074 A 
ATOM     61  C   UNL     1      -8.489  13.143  -0.785  1.00  0.00     0.029 A 
ATOM     62  N   UNL     1      -6.484  12.263  -0.387  1.00  0.00    -0.354 N 
ATOM     63  N   UNL     1      -3.543  12.328  -0.138  1.00  0.00    -0.248 NA
ATOM     64  C   UNL     1      -1.512  13.442  -0.453  1.00  0.00     0.031 C 
ATOM     65  C   UNL     1      -7.517  14.105  -1.072  1.00  0.00     0.029 A 
ATOM     66  C   UNL     1      -6.269  13.563  -0.804  1.00  0.00     0.049 A 
ATOM     67  H   UNL     1      -5.778  11.627  -0.128  1.00  0.00     0.167 HD
ATOM     68  C   UNL     1      -3.794  13.605  -0.623  1.00  0.00     0.074 A 
ATOM     69  C   UNL     1      -2.508  14.259  -0.764  1.00  0.00     0.031 C 
ATOM     70  C   UNL     1      -4.978  14.187  -0.932  1.00  0.00     0.031 A 
BRANCH  57  71
ATOM     71  C   UNL     1      -9.908  10.550  -0.163  1.00  0.00    -0.014 A 
ATOM     72  C   UNL     1     -10.742  10.493   0.968  1.00  0.00     0.010 A 
ATOM     73  C   UNL     1     -10.489  10.520  -1.444  1.00  0.00     0.010 A 
ATOM     74  C   UNL     1     -12.128  10.387   0.821  1.00  0.00     0.020 A 
ATOM     75  C   UNL     1     -11.877  10.439  -1.596  1.00  0.00     0.020 A 
ATOM     76  C   UNL     1     -12.687  10.365  -0.461  1.00  0.00     0.054 A 
BRANCH  76  77
ATOM     77  S   UNL     1     -14.492  10.294  -0.619  1.00  0.00     0.124 S 
ATOM     78  O   UNL     1     -14.774   8.913  -0.234  1.00  0.00    -0.237 OA
ATOM     79  O   UNL     1     -14.936  11.312   0.330  1.00  0.00    -0.237 OA
ATOM     80  O   UNL     1     -14.731  10.610  -2.025  1.00  0.00    -0.744 OA
ENDBRANCH  76  77
ENDBRANCH  57  71
BRANCH  58  81
ATOM     81  C   UNL     1       0.075  11.166   0.493  1.00  0.00    -0.014 A 
ATOM     82  C   UNL     1       0.722  12.019   1.405  1.00  0.00     0.010 A 
ATOM     83  C   UNL     1       0.853  10.404  -0.398  1.00  0.00     0.010 A 
ATOM     84  C   UNL     1       2.115  12.138   1.400  1.00  0.00     0.020 A 
ATOM     85  C   UNL     1       2.247  10.498  -0.386  1.00  0.00     0.020 A 
ATOM     86  C   UNL     1       2.869  11.380   0.500  1.00  0.00     0.054 A 
BRANCH  86  87
ATOM     87  S   UNL     1       4.676  11.536   0.520  1.00  0.00     0.124 S 
ATOM     88  O   UNL     1       4.875  12.817  -0.150  1.00  0.00    -0.237 OA
ATOM     89  O   UNL     1       4.982  11.514   1.948  1.00  0.00    -0.237 OA
ATOM     90  O   UNL     1       5.127  10.362  -0.224  1.00  0.00    -0.744 OA
ENDBRANCH  86  87
ENDBRANCH  58  81
BRANCH  70  91
ATOM     91  C   UNL     1      -4.938  15.603  -1.432  1.00  0.00    -0.014 A 
ATOM     92  C   UNL     1      -4.487  15.896  -2.731  1.00  0.00     0.010 A 
ATOM     93  C   UNL     1      -5.411  16.644  -0.613  1.00  0.00     0.010 A 
ATOM     94  C   UNL     1      -4.483  17.214  -3.192  1.00  0.00     0.020 A 
ATOM     95  C   UNL     1      -5.434  17.959  -1.082  1.00  0.00     0.020 A 
ATOM     96  C   UNL     1      -4.957  18.237  -2.364  1.00  0.00     0.054 A 
BRANCH  96  97
ATOM     97  S   UNL     1      -4.985  19.933  -3.005  1.00  0.00     0.124 S 
ATOM     98  O   UNL     1      -3.574  20.301  -2.950  1.00  0.00    -0.237 OA
ATOM     99  O   UNL     1      -5.539  19.760  -4.346  1.00  0.00    -0.237 OA
ATOM    100  O   UNL     1      -5.852  20.642  -2.066  1.00  0.00    -0.744 OA
ENDBRANCH  96  97
ENDBRANCH  70  91
ENDBRANCH  44  45
ENDBRANCH  36  39
ENDBRANCH  34  35
ENDBRANCH   1  34
TORSDOF 21
