REMARK SMILES Cc1cccc(CC(=O)N[C@H]2CCCCC[C@@H]2C(=O)NCCCNC(=O)c2ccc(-c3c4nc(c(-c5ccc(S(=O)(=O)[O-])cc5)c5ccc([nH]5)c(-c5ccc(S(=O)(=O)[O-])cc5)c5nc(c(-c6ccc(S(=O)(=O)[O-])cc6)c6ccc3[nH]6)C=C5)C=C4)cc2)c1
REMARK SMILES IDX 21 1 20 2 18 3 19 4 17 6 11 7 10 9 8 10 9 11 7 13 6 14 1 15
REMARK SMILES IDX 2 16 3 17 87 18 4 19 5 20 16 21 15 22 14 23 13 24 12 25
REMARK SMILES IDX 22 27 23 28 24 29 25 30 26 32 27 33 28 34 86 35 29 36 85 37
REMARK SMILES IDX 30 38 31 39 32 40 79 41 33 42 84 43 78 44 80 45 34 46 83 47
REMARK SMILES IDX 77 48 76 49 35 51 65 52 46 53 64 54 47 55 50 56 63 57 81 58
REMARK SMILES IDX 48 59 49 60 62 62 82 63 51 64 36 65 37 66 45 67 38 68 44 69
REMARK SMILES IDX 39 70 40 71 41 72 42 73 43 74 66 75 67 76 75 77 68 78 74 79
REMARK SMILES IDX 69 80 70 81 71 82 72 83 73 84 52 85 53 86 61 87 54 88 60 89
REMARK SMILES IDX 55 90 56 91 57 92 58 93 59 94
REMARK H PARENT 20 5 10 12 24 31 80 50 50 61
REMARK Flexibility Score: 90.00
ROOT
ATOM      1  C   UNL     1      -2.003   6.294  -1.366  1.00  0.00     0.117 C 
ENDROOT
BRANCH   1   2
ATOM      2  N   UNL     1      -1.921   5.532  -2.610  1.00  0.00    -0.356 N 
ATOM      3  C   UNL     1      -1.293   4.396  -3.003  1.00  0.00     0.225 C 
ATOM      4  O   UNL     1      -1.598   4.010  -4.142  1.00  0.00    -0.275 OA
ATOM      5  H   UNL     1      -2.447   5.941  -3.335  1.00  0.00     0.163 HD
BRANCH   3   6
ATOM      6  C   UNL     1      -0.208   3.612  -2.203  1.00  0.00     0.101 C 
BRANCH   6   7
ATOM      7  C   UNL     1      -0.395   2.097  -2.521  1.00  0.00     0.094 CG0
ATOM      8  G   UNL     1      -0.209   1.051  -1.406  1.00  0.00     0.000 G0
BRANCH   7   9
ATOM      9  N   UNL     1       0.114   1.612  -3.828  1.00  0.00    -0.352 N 
ATOM     10  C   UNL     1       1.285   1.464  -4.492  1.00  0.00     0.224 C 
ATOM     11  O   UNL     1       1.229   0.873  -5.579  1.00  0.00    -0.275 OA
ATOM     12  H   UNL     1      -0.634   1.301  -4.388  1.00  0.00     0.163 HD
BRANCH  10  13
ATOM     13  C   UNL     1       2.629   1.948  -3.988  1.00  0.00     0.135 C 
BRANCH  13  14
ATOM     14  C   UNL     1       2.829   3.439  -4.059  1.00  0.00    -0.038 A 
ATOM     15  C   UNL     1       3.672   6.256  -1.645  1.00  0.00     0.044 C 
ATOM     16  C   UNL     1       3.357   5.527  -2.917  1.00  0.00    -0.051 A 
ATOM     17  C   UNL     1       2.966   6.236  -4.056  1.00  0.00     0.003 A 
ATOM     18  C   UNL     1       3.332   4.127  -2.946  1.00  0.00     0.007 A 
ATOM     19  C   UNL     1       2.561   5.556  -5.205  1.00  0.00     0.001 A 
ATOM     20  C   UNL     1       2.488   4.164  -5.207  1.00  0.00     0.004 A 
ENDBRANCH  13  14
ENDBRANCH  10  13
ENDBRANCH   7   9
ENDBRANCH   6   7
BRANCH   6  21
ATOM     21  C   UNL     1      -0.122   3.919  -0.705  1.00  0.00     0.015 C 
BRANCH  21  22
ATOM     22  C   UNL     1       1.144   3.482   0.024  1.00  0.00     0.001 C 
BRANCH  22  23
ATOM     23  C   UNL     1       1.156   2.044   0.493  1.00  0.00     0.000 C 
BRANCH  23  24
ATOM     24  C   UNL     1       1.099   1.032  -0.636  1.00  0.00     0.002 C 
BRANCH  24  25
ATOM     25  C   UNL     1      -0.209   1.051  -1.406  1.00  0.00     0.026 CG0
ATOM     26  G   UNL     1      -0.395   2.097  -2.521  1.00  0.00     0.000 G0
ENDBRANCH  24  25
ENDBRANCH  23  24
ENDBRANCH  22  23
ENDBRANCH  21  22
ENDBRANCH   6  21
ENDBRANCH   3   6
ENDBRANCH   1   2
BRANCH   1  27
ATOM     27  C   UNL     1      -0.794   7.205  -1.153  1.00  0.00     0.042 C 
BRANCH  27  28
ATOM     28  C   UNL     1      -1.081   8.661  -1.477  1.00  0.00     0.118 C 
BRANCH  28  29
ATOM     29  N   UNL     1      -1.038   9.528  -0.308  1.00  0.00    -0.352 N 
ATOM     30  C   UNL     1      -1.115  10.921  -0.287  1.00  0.00     0.251 C 
ATOM     31  H   UNL     1      -0.944   9.082   0.565  1.00  0.00     0.163 HD
ATOM     32  O   UNL     1      -0.859  11.585   0.677  1.00  0.00    -0.269 OA
BRANCH  30  33
ATOM     33  C   UNL     1      -1.670  11.527  -1.518  1.00  0.00     0.039 A 
ATOM     34  C   UNL     1      -3.015  11.911  -1.466  1.00  0.00     0.014 A 
ATOM     35  C   UNL     1      -1.006  11.346  -2.726  1.00  0.00     0.014 A 
ATOM     36  C   UNL     1      -3.756  11.943  -2.642  1.00  0.00     0.010 A 
ATOM     37  C   UNL     1      -1.768  11.277  -3.876  1.00  0.00     0.010 A 
ATOM     38  C   UNL     1      -3.148  11.533  -3.827  1.00  0.00    -0.014 A 
BRANCH  38  39
ATOM     39  C   UNL     1      -3.880  11.298  -5.066  1.00  0.00     0.031 A 
ATOM     40  C   UNL     1      -3.751  12.272  -6.175  1.00  0.00     0.074 A 
ATOM     41  C   UNL     1      -4.607  10.171  -5.244  1.00  0.00     0.049 A 
ATOM     42  N   UNL     1      -4.609  12.416  -7.129  1.00  0.00    -0.248 NA
ATOM     43  C   UNL     1      -2.636  13.212  -6.258  1.00  0.00     0.031 C 
ATOM     44  C   UNL     1      -5.125   9.662  -6.512  1.00  0.00     0.029 A 
ATOM     45  N   UNL     1      -5.222   9.363  -4.284  1.00  0.00    -0.354 N 
ATOM     46  C   UNL     1      -4.016  13.204  -8.090  1.00  0.00     0.074 A 
ATOM     47  C   UNL     1      -2.828  13.740  -7.468  1.00  0.00     0.031 C 
ATOM     48  C   UNL     1      -6.179   8.872  -6.259  1.00  0.00     0.029 A 
ATOM     49  C   UNL     1      -6.454   8.973  -4.836  1.00  0.00     0.049 A 
ATOM     50  H   UNL     1      -4.864   9.117  -3.400  1.00  0.00     0.167 HD
ATOM     51  C   UNL     1      -4.496  13.203  -9.365  1.00  0.00     0.031 A 
ATOM     52  C   UNL     1      -7.670   9.272  -4.293  1.00  0.00     0.031 A 
ATOM     53  C   UNL     1      -5.706  12.399  -9.494  1.00  0.00     0.049 A 
ATOM     54  C   UNL     1      -8.578  10.026  -5.244  1.00  0.00     0.074 A 
ATOM     55  C   UNL     1      -5.948  11.118  -9.965  1.00  0.00     0.029 A 
ATOM     56  N   UNL     1      -6.855  12.792  -8.819  1.00  0.00    -0.354 N 
ATOM     57  N   UNL     1      -8.167  10.610  -6.335  1.00  0.00    -0.248 NA
ATOM     58  C   UNL     1     -10.008  10.217  -5.021  1.00  0.00     0.031 C 
ATOM     59  C   UNL     1      -7.230  10.716  -9.507  1.00  0.00     0.029 A 
ATOM     60  C   UNL     1      -7.774  11.761  -8.781  1.00  0.00     0.049 A 
ATOM     61  H   UNL     1      -6.996  13.683  -8.424  1.00  0.00     0.167 HD
ATOM     62  C   UNL     1      -9.219  11.238  -6.953  1.00  0.00     0.074 A 
ATOM     63  C   UNL     1     -10.354  10.950  -6.095  1.00  0.00     0.031 C 
ATOM     64  C   UNL     1      -9.057  11.944  -8.112  1.00  0.00     0.031 A 
BRANCH  51  65
ATOM     65  C   UNL     1      -3.660  13.680 -10.531  1.00  0.00    -0.014 A 
ATOM     66  C   UNL     1      -3.732  13.005 -11.765  1.00  0.00     0.010 A 
ATOM     67  C   UNL     1      -2.735  14.739 -10.450  1.00  0.00     0.010 A 
ATOM     68  C   UNL     1      -2.852  13.289 -12.820  1.00  0.00     0.020 A 
ATOM     69  C   UNL     1      -1.818  15.005 -11.479  1.00  0.00     0.020 A 
ATOM     70  C   UNL     1      -1.875  14.268 -12.658  1.00  0.00     0.054 A 
BRANCH  70  71
ATOM     71  S   UNL     1      -0.676  14.546 -13.988  1.00  0.00     0.124 S 
ATOM     72  O   UNL     1      -0.160  13.202 -14.238  1.00  0.00    -0.237 OA
ATOM     73  O   UNL     1      -1.510  15.108 -15.046  1.00  0.00    -0.237 OA
ATOM     74  O   UNL     1       0.287  15.473 -13.397  1.00  0.00    -0.744 OA
ENDBRANCH  70  71
ENDBRANCH  51  65
BRANCH  52  75
ATOM     75  C   UNL     1      -7.661   9.425  -2.812  1.00  0.00    -0.014 A 
ATOM     76  C   UNL     1      -7.446   8.259  -2.045  1.00  0.00     0.010 A 
ATOM     77  C   UNL     1      -7.413  10.680  -2.228  1.00  0.00     0.010 A 
ATOM     78  C   UNL     1      -6.821   8.335  -0.799  1.00  0.00     0.020 A 
ATOM     79  C   UNL     1      -6.791  10.757  -0.973  1.00  0.00     0.020 A 
ATOM     80  C   UNL     1      -6.434   9.581  -0.305  1.00  0.00     0.054 A 
BRANCH  80  81
ATOM     81  S   UNL     1      -5.276   9.614   1.097  1.00  0.00     0.124 S 
ATOM     82  O   UNL     1      -6.028   8.926   2.141  1.00  0.00    -0.237 OA
ATOM     83  O   UNL     1      -4.130   8.877   0.561  1.00  0.00    -0.237 OA
ATOM     84  O   UNL     1      -5.052  11.039   1.315  1.00  0.00    -0.744 OA
ENDBRANCH  80  81
ENDBRANCH  52  75
BRANCH  64  85
ATOM     85  C   UNL     1     -10.085  12.826  -8.790  1.00  0.00    -0.014 A 
ATOM     86  C   UNL     1     -11.221  13.356  -8.161  1.00  0.00     0.010 A 
ATOM     87  C   UNL     1      -9.839  13.256 -10.119  1.00  0.00     0.010 A 
ATOM     88  C   UNL     1     -12.094  14.224  -8.838  1.00  0.00     0.020 A 
ATOM     89  C   UNL     1     -10.675  14.155 -10.787  1.00  0.00     0.020 A 
ATOM     90  C   UNL     1     -11.817  14.617 -10.147  1.00  0.00     0.054 A 
BRANCH  90  91
ATOM     91  S   UNL     1     -12.907  15.797 -10.983  1.00  0.00     0.124 S 
ATOM     92  O   UNL     1     -13.915  14.915 -11.565  1.00  0.00    -0.237 OA
ATOM     93  O   UNL     1     -13.375  16.644  -9.887  1.00  0.00    -0.237 OA
ATOM     94  O   UNL     1     -12.025  16.461 -11.939  1.00  0.00    -0.744 OA
ENDBRANCH  90  91
ENDBRANCH  64  85
ENDBRANCH  38  39
ENDBRANCH  30  33
ENDBRANCH  28  29
ENDBRANCH  27  28
ENDBRANCH   1  27
TORSDOF 16
