REMARK SMILES CC(=O)Nc1cnc(N2CC=C(c3ccccc3C)CC2)c(C(=O)NCCCNC(=O)c2ccc(-c3c4nc(c(-c5ccc(S(=O)(=O)[O-])cc5)c5ccc([nH]5)c(-c5ccc(S(=O)(=O)[O-])cc5)c5nc(c(-c6ccc(S(=O)(=O)[O-])cc6)c6ccc3[nH]6)C=C5)C=C4)cc2)c1
REMARK SMILES IDX 27 1 26 2 25 3 23 4 24 5 22 7 5 8 6 9 92 10 7 11 8 12 4 13
REMARK SMILES IDX 1 14 2 15 3 16 9 18 10 19 21 20 11 21 20 22 12 23 13 24
REMARK SMILES IDX 14 25 18 26 15 27 17 28 19 29 16 30 28 31 29 32 30 33 31 35
REMARK SMILES IDX 32 36 33 37 91 38 34 39 90 40 35 41 36 42 37 43 84 44 38 45
REMARK SMILES IDX 89 46 83 47 85 48 39 49 88 50 82 51 81 52 40 54 70 55 51 56
REMARK SMILES IDX 69 57 52 58 55 59 68 60 86 61 53 62 54 63 67 65 87 66 56 67
REMARK SMILES IDX 41 68 42 69 50 70 43 71 49 72 44 73 45 74 46 75 47 76 48 77
REMARK SMILES IDX 71 78 72 79 80 80 73 81 79 82 74 83 75 84 76 85 77 86 78 87
REMARK SMILES IDX 57 88 58 89 66 90 59 91 65 92 60 93 61 94 62 95 63 96 64 97
REMARK H PARENT 25 6 4 17 29 34 85 53 55 64
REMARK Flexibility Score: inf
ROOT
ATOM      1  C   UNL     1       4.289  -0.679  -0.704  1.00  0.00     0.042 C 
ENDROOT
BRANCH   1   2
ATOM      2  C   UNL     1       4.139  -0.420   0.795  1.00  0.00     0.118 C 
BRANCH   2   3
ATOM      3  N   UNL     1       4.882   0.756   1.241  1.00  0.00    -0.352 N 
ATOM      4  C   UNL     1       4.661   2.116   1.294  1.00  0.00     0.255 C 
ATOM      5  O   UNL     1       5.487   2.719   1.981  1.00  0.00    -0.269 OA
ATOM      6  H   UNL     1       5.768   0.515   1.596  1.00  0.00     0.163 HD
BRANCH   4   7
ATOM      7  C   UNL     1       3.535   2.862   0.618  1.00  0.00     0.084 A 
ATOM      8  C   UNL     1       1.454   2.838  -0.683  1.00  0.00     0.060 A 
ATOM      9  C   UNL     1       1.423   4.210  -0.548  1.00  0.00     0.139 A 
ATOM     10  C   UNL     1       2.537   2.183  -0.107  1.00  0.00     0.045 A 
ATOM     11  N   UNL     1       2.342   4.916   0.136  1.00  0.00    -0.236 NA
ATOM     12  C   UNL     1       3.401   4.270   0.707  1.00  0.00     0.141 A 
BRANCH   8  13
ATOM     13  N   UNL     1       0.438   2.212  -1.426  1.00  0.00    -0.325 N 
ATOM     14  C   UNL     1       0.365  -0.062  -0.391  1.00  0.00     0.114 C 
ATOM     15  C   UNL     1      -0.025   0.928  -1.452  1.00  0.00     0.221 C 
ATOM     16  O   UNL     1      -0.831   0.621  -2.335  1.00  0.00    -0.275 OA
ATOM     17  H   UNL     1      -0.029   2.816  -2.046  1.00  0.00     0.169 HD
ENDBRANCH   8  13
BRANCH  12  18
ATOM     18  N   UNL     1       4.260   5.142   1.322  1.00  0.00    -0.352 N 
ATOM     19  C   UNL     1       3.791   5.840   2.505  1.00  0.00     0.146 C 
ATOM     20  C   UNL     1       5.651   5.296   0.918  1.00  0.00     0.123 C 
ATOM     21  C   UNL     1       4.493   7.161   2.676  1.00  0.00    -0.002 C 
ATOM     22  C   UNL     1       5.959   6.787   0.708  1.00  0.00     0.057 C 
ATOM     23  C   UNL     1       5.469   7.620   1.869  1.00  0.00    -0.041 C 
BRANCH  23  24
ATOM     24  C   UNL     1       6.113   8.923   2.132  1.00  0.00    -0.020 A 
ATOM     25  C   UNL     1       6.816   9.076   3.341  1.00  0.00     0.008 A 
ATOM     26  C   UNL     1       6.057  10.008   1.234  1.00  0.00    -0.044 A 
ATOM     27  C   UNL     1       7.460  10.273   3.656  1.00  0.00     0.001 A 
ATOM     28  C   UNL     1       6.726  11.203   1.558  1.00  0.00     0.004 A 
ATOM     29  C   UNL     1       5.328   9.930  -0.079  1.00  0.00     0.045 C 
ATOM     30  C   UNL     1       7.418  11.336   2.762  1.00  0.00     0.000 A 
ENDBRANCH  23  24
ENDBRANCH  12  18
ENDBRANCH   4   7
ENDBRANCH   2   3
ENDBRANCH   1   2
BRANCH   1  31
ATOM     31  C   UNL     1       5.376  -1.692  -1.030  1.00  0.00     0.118 C 
BRANCH  31  32
ATOM     32  N   UNL     1       4.847  -2.945  -1.570  1.00  0.00    -0.352 N 
ATOM     33  C   UNL     1       5.570  -3.977  -2.143  1.00  0.00     0.251 C 
ATOM     34  H   UNL     1       3.871  -3.066  -1.521  1.00  0.00     0.163 HD
ATOM     35  O   UNL     1       5.056  -4.910  -2.737  1.00  0.00    -0.269 OA
BRANCH  33  36
ATOM     36  C   UNL     1       7.022  -3.951  -1.889  1.00  0.00     0.039 A 
ATOM     37  C   UNL     1       7.482  -4.755  -0.839  1.00  0.00     0.014 A 
ATOM     38  C   UNL     1       7.770  -2.885  -2.381  1.00  0.00     0.014 A 
ATOM     39  C   UNL     1       8.615  -4.365  -0.138  1.00  0.00     0.010 A 
ATOM     40  C   UNL     1       8.844  -2.453  -1.629  1.00  0.00     0.010 A 
ATOM     41  C   UNL     1       9.224  -3.157  -0.474  1.00  0.00    -0.014 A 
BRANCH  41  42
ATOM     42  C   UNL     1      10.210  -2.498   0.373  1.00  0.00     0.031 A 
ATOM     43  C   UNL     1      11.633  -2.505  -0.031  1.00  0.00     0.074 A 
ATOM     44  C   UNL     1       9.819  -1.827   1.481  1.00  0.00     0.049 A 
ATOM     45  N   UNL     1      12.620  -2.265   0.765  1.00  0.00    -0.248 NA
ATOM     46  C   UNL     1      12.064  -2.885  -1.376  1.00  0.00     0.031 C 
ATOM     47  C   UNL     1      10.612  -0.863   2.242  1.00  0.00     0.029 A 
ATOM     48  N   UNL     1       8.698  -2.049   2.288  1.00  0.00    -0.354 N 
ATOM     49  C   UNL     1      13.746  -2.130  -0.012  1.00  0.00     0.074 A 
ATOM     50  C   UNL     1      13.380  -2.671  -1.296  1.00  0.00     0.031 C 
ATOM     51  C   UNL     1      10.137  -0.812   3.496  1.00  0.00     0.029 A 
ATOM     52  C   UNL     1       9.126  -1.848   3.612  1.00  0.00     0.049 A 
ATOM     53  H   UNL     1       7.793  -2.296   1.989  1.00  0.00     0.167 HD
ATOM     54  C   UNL     1      14.806  -1.423   0.470  1.00  0.00     0.031 A 
ATOM     55  C   UNL     1       9.096  -2.807   4.583  1.00  0.00     0.031 A 
ATOM     56  C   UNL     1      14.675  -1.180   1.906  1.00  0.00     0.049 A 
ATOM     57  C   UNL     1      10.459  -3.086   5.184  1.00  0.00     0.074 A 
ATOM     58  C   UNL     1      14.356  -0.064   2.660  1.00  0.00     0.029 A 
ATOM     59  N   UNL     1      14.615  -2.270   2.769  1.00  0.00    -0.354 N 
ATOM     60  N   UNL     1      11.582  -2.686   4.653  1.00  0.00    -0.248 NA
ATOM     61  C   UNL     1      10.672  -3.872   6.397  1.00  0.00     0.031 C 
ATOM     62  C   UNL     1      13.985  -0.511   3.959  1.00  0.00     0.029 A 
ATOM     63  C   UNL     1      14.128  -1.887   4.003  1.00  0.00     0.049 A 
ATOM     64  H   UNL     1      14.883  -3.187   2.532  1.00  0.00     0.167 HD
ATOM     65  C   UNL     1      12.637  -3.137   5.400  1.00  0.00     0.074 A 
ATOM     66  C   UNL     1      12.014  -3.866   6.491  1.00  0.00     0.031 C 
ATOM     67  C   UNL     1      13.933  -2.883   5.051  1.00  0.00     0.031 A 
BRANCH  54  68
ATOM     68  C   UNL     1      15.834  -0.729  -0.408  1.00  0.00    -0.014 A 
ATOM     69  C   UNL     1      16.762   0.162   0.173  1.00  0.00     0.010 A 
ATOM     70  C   UNL     1      15.862  -0.804  -1.816  1.00  0.00     0.010 A 
ATOM     71  C   UNL     1      17.621   0.960  -0.605  1.00  0.00     0.020 A 
ATOM     72  C   UNL     1      16.725  -0.031  -2.604  1.00  0.00     0.020 A 
ATOM     73  C   UNL     1      17.587   0.867  -1.995  1.00  0.00     0.054 A 
BRANCH  73  74
ATOM     74  S   UNL     1      18.643   1.940  -3.001  1.00  0.00     0.124 S 
ATOM     75  O   UNL     1      18.116   3.268  -2.698  1.00  0.00    -0.237 OA
ATOM     76  O   UNL     1      19.977   1.654  -2.481  1.00  0.00    -0.237 OA
ATOM     77  O   UNL     1      18.403   1.480  -4.369  1.00  0.00    -0.744 OA
ENDBRANCH  73  74
ENDBRANCH  54  68
BRANCH  55  78
ATOM     78  C   UNL     1       8.001  -3.804   4.432  1.00  0.00    -0.014 A 
ATOM     79  C   UNL     1       6.685  -3.352   4.668  1.00  0.00     0.010 A 
ATOM     80  C   UNL     1       8.195  -4.968   3.668  1.00  0.00     0.010 A 
ATOM     81  C   UNL     1       5.605  -3.936   4.005  1.00  0.00     0.020 A 
ATOM     82  C   UNL     1       7.109  -5.557   3.002  1.00  0.00     0.020 A 
ATOM     83  C   UNL     1       5.836  -4.991   3.122  1.00  0.00     0.054 A 
BRANCH  83  84
ATOM     84  S   UNL     1       4.493  -5.450   1.983  1.00  0.00     0.124 S 
ATOM     85  O   UNL     1       3.456  -5.918   2.896  1.00  0.00    -0.237 OA
ATOM     86  O   UNL     1       4.215  -4.178   1.314  1.00  0.00    -0.237 OA
ATOM     87  O   UNL     1       5.105  -6.473   1.141  1.00  0.00    -0.744 OA
ENDBRANCH  83  84
ENDBRANCH  55  78
BRANCH  67  88
ATOM     88  C   UNL     1      15.157  -3.494   5.691  1.00  0.00    -0.014 A 
ATOM     89  C   UNL     1      15.165  -4.728   6.362  1.00  0.00     0.010 A 
ATOM     90  C   UNL     1      16.410  -2.862   5.500  1.00  0.00     0.010 A 
ATOM     91  C   UNL     1      16.355  -5.273   6.870  1.00  0.00     0.020 A 
ATOM     92  C   UNL     1      17.606  -3.417   5.963  1.00  0.00     0.020 A 
ATOM     93  C   UNL     1      17.567  -4.611   6.671  1.00  0.00     0.054 A 
BRANCH  93  94
ATOM     94  S   UNL     1      19.108  -5.351   7.271  1.00  0.00     0.124 S 
ATOM     95  O   UNL     1      19.191  -4.813   8.626  1.00  0.00    -0.237 OA
ATOM     96  O   UNL     1      18.841  -6.785   7.184  1.00  0.00    -0.237 OA
ATOM     97  O   UNL     1      20.112  -4.855   6.334  1.00  0.00    -0.744 OA
ENDBRANCH  93  94
ENDBRANCH  67  88
ENDBRANCH  41  42
ENDBRANCH  33  36
ENDBRANCH  31  32
ENDBRANCH   1  31
TORSDOF 16
