REMARK SMILES O=C(NCCCNC(=O)c1cc(N2C(=O)[C@H]3[C@@H]4C=C[C@@H]([C@@H]5C[C@H]45)[C@@H]3C2=O)ccc1Cl)c1ccc(-c2c3nc(c(-c4ccc(S(=O)(=O)[O-])cc4)c4ccc([nH]4)c(-c4ccc(S(=O)(=O)[O-])cc4)c4nc(c(-c5ccc(S(=O)(=O)[O-])cc5)c5ccc2[nH]5)C=C4)C=C3)cc1
REMARK SMILES IDX 4 1 3 2 1 3 2 4 31 6 32 7 90 8 33 9 89 10 34 11 35 12 36 13
REMARK SMILES IDX 83 14 37 15 88 16 82 17 84 18 38 19 87 20 81 21 80 22 39 24
REMARK SMILES IDX 69 25 50 26 68 27 51 28 54 29 67 30 85 31 52 32 53 33 66 35
REMARK SMILES IDX 86 36 55 37 40 38 41 39 49 40 42 41 48 42 43 43 44 44 45 45
REMARK SMILES IDX 46 46 47 47 70 48 71 49 79 50 72 51 78 52 73 53 74 54 75 55
REMARK SMILES IDX 76 56 77 57 56 58 57 59 65 60 58 61 64 62 59 63 60 64 61 65
REMARK SMILES IDX 62 66 63 67 5 68 6 69 7 70 8 71 9 73 10 74 11 75 29 76 12 77
REMARK SMILES IDX 28 78 30 79 27 80 13 81 14 82 25 83 15 84 16 85 24 86 26 87
REMARK SMILES IDX 17 88 20 89 18 90 23 91 19 92 21 93 22 94
REMARK H PARENT 3 5 84 23 54 34 7 72
REMARK Flexibility Score: inf
ROOT
ATOM      1  C   UNL     1       4.575  -1.230   0.055  1.00  0.00     0.118 C 
ENDROOT
BRANCH   1   2
ATOM      2  N   UNL     1       3.131  -1.049  -0.030  1.00  0.00    -0.352 N 
ATOM      3  O   UNL     1       1.158   0.036   0.081  1.00  0.00    -0.269 OA
ATOM      4  C   UNL     1       2.381   0.104   0.005  1.00  0.00     0.251 C 
ATOM      5  H   UNL     1       2.612  -1.880  -0.128  1.00  0.00     0.163 HD
BRANCH   4   6
ATOM      6  C   UNL     1       3.054   1.420  -0.017  1.00  0.00     0.039 A 
ATOM      7  C   UNL     1       4.135   1.646  -0.868  1.00  0.00     0.014 A 
ATOM      8  C   UNL     1       2.606   2.438   0.829  1.00  0.00     0.014 A 
ATOM      9  C   UNL     1       4.887   2.803  -0.735  1.00  0.00     0.010 A 
ATOM     10  C   UNL     1       3.290   3.657   0.869  1.00  0.00     0.010 A 
ATOM     11  C   UNL     1       4.459   3.837   0.113  1.00  0.00    -0.014 A 
BRANCH  11  12
ATOM     12  C   UNL     1       5.208   5.119   0.115  1.00  0.00     0.031 A 
ATOM     13  C   UNL     1       5.875   5.638   1.359  1.00  0.00     0.074 A 
ATOM     14  C   UNL     1       5.307   5.800  -1.044  1.00  0.00     0.049 A 
ATOM     15  N   UNL     1       6.582   6.728   1.514  1.00  0.00    -0.248 NA
ATOM     16  C   UNL     1       5.726   4.841   2.587  1.00  0.00     0.031 C 
ATOM     17  C   UNL     1       4.700   5.392  -2.316  1.00  0.00     0.029 A 
ATOM     18  N   UNL     1       5.968   6.960  -1.353  1.00  0.00    -0.354 N 
ATOM     19  C   UNL     1       6.946   6.762   2.856  1.00  0.00     0.074 A 
ATOM     20  C   UNL     1       6.357   5.595   3.478  1.00  0.00     0.031 C 
ATOM     21  C   UNL     1       5.065   6.252  -3.276  1.00  0.00     0.029 A 
ATOM     22  C   UNL     1       5.857   7.317  -2.676  1.00  0.00     0.049 A 
ATOM     23  H   UNL     1       6.473   7.486  -0.692  1.00  0.00     0.167 HD
ATOM     24  C   UNL     1       7.702   7.682   3.505  1.00  0.00     0.031 A 
ATOM     25  C   UNL     1       6.316   8.396  -3.337  1.00  0.00     0.031 A 
ATOM     26  C   UNL     1       8.274   8.845   2.874  1.00  0.00     0.049 A 
ATOM     27  C   UNL     1       7.106   9.422  -2.582  1.00  0.00     0.074 A 
ATOM     28  C   UNL     1       9.077   9.821   3.438  1.00  0.00     0.029 A 
ATOM     29  N   UNL     1       8.096   9.197   1.544  1.00  0.00    -0.354 N 
ATOM     30  N   UNL     1       7.467   9.418  -1.321  1.00  0.00    -0.248 NA
ATOM     31  C   UNL     1       7.551  10.599  -3.337  1.00  0.00     0.031 C 
ATOM     32  C   UNL     1       9.329  10.797   2.468  1.00  0.00     0.029 A 
ATOM     33  C   UNL     1       8.746  10.392   1.278  1.00  0.00     0.049 A 
ATOM     34  H   UNL     1       7.584   8.675   0.885  1.00  0.00     0.167 HD
ATOM     35  C   UNL     1       8.201  10.582  -1.136  1.00  0.00     0.074 A 
ATOM     36  C   UNL     1       8.251  11.253  -2.420  1.00  0.00     0.031 C 
ATOM     37  C   UNL     1       8.780  11.054  -0.004  1.00  0.00     0.031 A 
BRANCH  24  38
ATOM     38  C   UNL     1       7.926   7.490   4.985  1.00  0.00    -0.014 A 
ATOM     39  C   UNL     1       8.730   6.445   5.477  1.00  0.00     0.010 A 
ATOM     40  C   UNL     1       7.363   8.401   5.898  1.00  0.00     0.010 A 
ATOM     41  C   UNL     1       8.931   6.292   6.852  1.00  0.00     0.020 A 
ATOM     42  C   UNL     1       7.586   8.270   7.272  1.00  0.00     0.020 A 
ATOM     43  C   UNL     1       8.355   7.204   7.742  1.00  0.00     0.054 A 
BRANCH  43  44
ATOM     44  S   UNL     1       8.646   6.987   9.520  1.00  0.00     0.124 S 
ATOM     45  O   UNL     1       7.858   5.791   9.810  1.00  0.00    -0.237 OA
ATOM     46  O   UNL     1      10.095   6.816   9.588  1.00  0.00    -0.237 OA
ATOM     47  O   UNL     1       8.139   8.224  10.109  1.00  0.00    -0.744 OA
ENDBRANCH  43  44
ENDBRANCH  24  38
BRANCH  25  48
ATOM     48  C   UNL     1       6.009   8.559  -4.784  1.00  0.00    -0.014 A 
ATOM     49  C   UNL     1       7.028   8.480  -5.748  1.00  0.00     0.010 A 
ATOM     50  C   UNL     1       4.681   8.762  -5.206  1.00  0.00     0.010 A 
ATOM     51  C   UNL     1       6.726   8.618  -7.106  1.00  0.00     0.020 A 
ATOM     52  C   UNL     1       4.371   8.864  -6.563  1.00  0.00     0.020 A 
ATOM     53  C   UNL     1       5.399   8.805  -7.505  1.00  0.00     0.054 A 
BRANCH  53  54
ATOM     54  S   UNL     1       5.028   8.929  -9.275  1.00  0.00     0.124 S 
ATOM     55  O   UNL     1       5.570  10.243  -9.607  1.00  0.00    -0.237 OA
ATOM     56  O   UNL     1       5.751   7.787  -9.829  1.00  0.00    -0.237 OA
ATOM     57  O   UNL     1       3.572   8.820  -9.329  1.00  0.00    -0.744 OA
ENDBRANCH  53  54
ENDBRANCH  25  48
BRANCH  37  58
ATOM     58  C   UNL     1       9.546  12.346  -0.112  1.00  0.00    -0.014 A 
ATOM     59  C   UNL     1       8.889  13.573  -0.313  1.00  0.00     0.010 A 
ATOM     60  C   UNL     1      10.946  12.333   0.029  1.00  0.00     0.010 A 
ATOM     61  C   UNL     1       9.621  14.759  -0.406  1.00  0.00     0.020 A 
ATOM     62  C   UNL     1      11.678  13.521  -0.029  1.00  0.00     0.020 A 
ATOM     63  C   UNL     1      11.012  14.726  -0.261  1.00  0.00     0.054 A 
BRANCH  63  64
ATOM     64  S   UNL     1      11.934  16.285  -0.344  1.00  0.00     0.124 S 
ATOM     65  O   UNL     1      11.845  16.616  -1.763  1.00  0.00    -0.237 OA
ATOM     66  O   UNL     1      11.175  17.152   0.554  1.00  0.00    -0.237 OA
ATOM     67  O   UNL     1      13.269  15.924   0.129  1.00  0.00    -0.744 OA
ENDBRANCH  63  64
ENDBRANCH  37  58
ENDBRANCH  11  12
ENDBRANCH   4   6
ENDBRANCH   1   2
BRANCH   1  68
ATOM     68  C   UNL     1       5.018  -1.931   1.329  1.00  0.00     0.042 C 
BRANCH  68  69
ATOM     69  C   UNL     1       4.494  -3.349   1.465  1.00  0.00     0.118 C 
BRANCH  69  70
ATOM     70  N   UNL     1       4.886  -4.198   0.351  1.00  0.00    -0.352 N 
ATOM     71  C   UNL     1       5.556  -5.388   0.350  1.00  0.00     0.252 C 
ATOM     72  H   UNL     1       4.628  -3.863  -0.538  1.00  0.00     0.163 HD
ATOM     73  O   UNL     1       5.873  -5.917  -0.713  1.00  0.00    -0.269 OA
BRANCH  71  74
ATOM     74  C   UNL     1       5.953  -6.037   1.610  1.00  0.00     0.060 A 
ATOM     75  C   UNL     1       7.314  -6.364   1.740  1.00  0.00     0.042 A 
ATOM     76  C   UNL     1       5.033  -6.429   2.592  1.00  0.00     0.053 A 
ATOM     77  C   UNL     1       7.740  -7.112   2.834  1.00  0.00     0.053 A 
ATOM     78  C   UNL     1       5.487  -7.074   3.741  1.00  0.00     0.023 A 
ATOM     79  Cl  UNL     1       3.322  -6.240   2.436  1.00  0.00    -0.083 Cl
ATOM     80  C   UNL     1       6.828  -7.437   3.848  1.00  0.00     0.028 A 
BRANCH  77  81
ATOM     81  N   UNL     1       9.079  -7.516   2.969  1.00  0.00    -0.250 N 
ATOM     82  C   UNL     1      10.142  -6.600   3.024  1.00  0.00     0.238 C 
ATOM     83  C   UNL     1       9.438  -8.788   3.462  1.00  0.00     0.238 C 
ATOM     84  O   UNL     1      10.143  -5.394   2.854  1.00  0.00    -0.274 OA
ATOM     85  C   UNL     1      11.325  -7.451   3.357  1.00  0.00     0.100 C 
ATOM     86  C   UNL     1      10.636  -8.464   4.275  1.00  0.00     0.100 C 
ATOM     87  O   UNL     1       8.836  -9.842   3.430  1.00  0.00    -0.274 OA
ATOM     88  C   UNL     1      12.676  -7.053   3.975  1.00  0.00     0.028 C 
ATOM     89  C   UNL     1      11.681  -9.222   5.077  1.00  0.00     0.028 C 
ATOM     90  C   UNL     1      13.487  -8.345   3.699  1.00  0.00    -0.026 C 
ATOM     91  C   UNL     1      12.690  -6.919   5.510  1.00  0.00     0.001 C 
ATOM     92  C   UNL     1      12.934  -9.465   4.221  1.00  0.00    -0.026 C 
ATOM     93  C   UNL     1      12.122  -8.184   6.175  1.00  0.00     0.001 C 
ATOM     94  C   UNL     1      11.516  -6.801   6.437  1.00  0.00     0.009 C 
ENDBRANCH  77  81
ENDBRANCH  71  74
ENDBRANCH  69  70
ENDBRANCH  68  69
ENDBRANCH   1  68
TORSDOF 14
