REMARK SMILES [NH3+][C@@H](CC(=O)NCCCNC(=O)c1ccc(-c2c3nc(c(-c4ccc(S(=O)(=O)[O-])cc4)c4ccc([nH]4)c(-c4ccc(S(=O)(=O)[O-])cc4)c4nc(c(-c5ccc(S(=O)(=O)[O-])cc5)c5ccc2[nH]5)C=C4)C=C3)cc1)[NH+]1CCOCC1
REMARK SMILES IDX 8 1 7 2 6 3 4 4 5 5 3 7 2 8 1 9 73 13 74 14 78 15 75 17
REMARK SMILES IDX 77 18 76 19 9 20 10 21 11 22 12 24 13 25 14 26 72 27 15 28
REMARK SMILES IDX 71 29 16 30 17 31 18 32 65 33 19 34 70 35 64 36 66 37 20 38
REMARK SMILES IDX 69 39 63 40 62 41 21 43 51 44 32 45 50 46 33 47 36 48 49 49
REMARK SMILES IDX 67 50 34 51 35 52 48 54 68 55 37 56 22 57 23 58 31 59 24 60
REMARK SMILES IDX 30 61 25 62 26 63 27 64 28 65 29 66 52 67 53 68 61 69 54 70
REMARK SMILES IDX 60 71 55 72 56 73 57 74 58 75 59 76 38 77 39 78 47 79 40 80
REMARK SMILES IDX 46 81 41 82 42 83 43 84 44 85 45 86
REMARK H PARENT 6 6 1 10 1 11 1 12 73 16 10 23 66 42 36 53
REMARK Flexibility Score: inf
ROOT
ATOM      1  C   UNL     1       1.508  -0.988  -2.221  1.00  0.00     0.042 C 
ENDROOT
BRANCH   1   2
ATOM      2  C   UNL     1       2.414   0.202  -1.920  1.00  0.00     0.117 C 
BRANCH   2   3
ATOM      3  N   UNL     1       1.744   1.472  -2.108  1.00  0.00    -0.356 N 
ATOM      4  C   UNL     1       1.349   2.416  -1.218  1.00  0.00     0.232 C 
ATOM      5  O   UNL     1       0.929   3.478  -1.684  1.00  0.00    -0.275 OA
ATOM      6  H   UNL     1       1.539   1.689  -3.046  1.00  0.00     0.163 HD
BRANCH   4   7
ATOM      7  C   UNL     1       1.505   2.237   0.270  1.00  0.00     0.232 C 
BRANCH   7   8
ATOM      8  C   UNL     1       0.502   1.393   1.076  1.00  0.00     0.389 C 
BRANCH   8   9
ATOM      9  N   UNL     1       0.883   0.005   1.260  1.00  0.00    -0.308 N 
ATOM     10  H   UNL     1       1.891  -0.055   1.403  1.00  0.00     0.349 HD
ATOM     11  H   UNL     1       0.625  -0.531   0.431  1.00  0.00     0.349 HD
ATOM     12  H   UNL     1       0.401  -0.375   2.074  1.00  0.00     0.349 HD
ENDBRANCH   8   9
BRANCH   8  13
ATOM     13  N   UNL     1      -0.928   1.459   0.875  1.00  0.00    -0.282 N 
ATOM     14  C   UNL     1      -1.606   0.773  -0.224  1.00  0.00     0.296 C 
ATOM     15  C   UNL     1      -1.578   2.733   1.199  1.00  0.00     0.296 C 
ATOM     16  H   UNL     1      -1.084   0.782   1.622  1.00  0.00     0.353 HD
ATOM     17  C   UNL     1      -2.029   1.667  -1.397  1.00  0.00     0.222 C 
ATOM     18  C   UNL     1      -1.983   3.572  -0.022  1.00  0.00     0.222 C 
ATOM     19  O   UNL     1      -2.762   2.811  -0.951  1.00  0.00    -0.370 OA
ENDBRANCH   8  13
ENDBRANCH   7   8
ENDBRANCH   4   7
ENDBRANCH   2   3
ENDBRANCH   1   2
BRANCH   1  20
ATOM     20  C   UNL     1       0.859  -0.967  -3.602  1.00  0.00     0.118 C 
BRANCH  20  21
ATOM     21  N   UNL     1       1.820  -1.165  -4.672  1.00  0.00    -0.352 N 
ATOM     22  C   UNL     1       2.068  -2.267  -5.455  1.00  0.00     0.251 C 
ATOM     23  H   UNL     1       2.386  -0.384  -4.868  1.00  0.00     0.163 HD
ATOM     24  O   UNL     1       3.081  -2.281  -6.150  1.00  0.00    -0.269 OA
BRANCH  22  25
ATOM     25  C   UNL     1       1.154  -3.435  -5.462  1.00  0.00     0.039 A 
ATOM     26  C   UNL     1       1.712  -4.716  -5.517  1.00  0.00     0.014 A 
ATOM     27  C   UNL     1      -0.235  -3.288  -5.487  1.00  0.00     0.014 A 
ATOM     28  C   UNL     1       0.883  -5.843  -5.544  1.00  0.00     0.010 A 
ATOM     29  C   UNL     1      -1.061  -4.413  -5.442  1.00  0.00     0.010 A 
ATOM     30  C   UNL     1      -0.512  -5.703  -5.479  1.00  0.00    -0.014 A 
BRANCH  30  31
ATOM     31  C   UNL     1      -1.406  -6.892  -5.470  1.00  0.00     0.031 A 
ATOM     32  C   UNL     1      -2.357  -7.139  -6.613  1.00  0.00     0.074 A 
ATOM     33  C   UNL     1      -1.397  -7.731  -4.414  1.00  0.00     0.049 A 
ATOM     34  N   UNL     1      -3.257  -8.080  -6.748  1.00  0.00    -0.248 NA
ATOM     35  C   UNL     1      -2.305  -6.194  -7.740  1.00  0.00     0.031 C 
ATOM     36  C   UNL     1      -0.547  -7.595  -3.229  1.00  0.00     0.029 A 
ATOM     37  N   UNL     1      -2.133  -8.863  -4.164  1.00  0.00    -0.354 N 
ATOM     38  C   UNL     1      -3.888  -7.832  -7.962  1.00  0.00     0.074 A 
ATOM     39  C   UNL     1      -3.295  -6.629  -8.507  1.00  0.00     0.031 C 
ATOM     40  C   UNL     1      -0.795  -8.614  -2.390  1.00  0.00     0.029 A 
ATOM     41  C   UNL     1      -1.845  -9.455  -2.957  1.00  0.00     0.049 A 
ATOM     42  H   UNL     1      -2.805  -9.217  -4.791  1.00  0.00     0.167 HD
ATOM     43  C   UNL     1      -4.859  -8.547  -8.579  1.00  0.00     0.031 A 
ATOM     44  C   UNL     1      -2.369 -10.546  -2.367  1.00  0.00     0.031 A 
ATOM     45  C   UNL     1      -5.436  -9.756  -8.053  1.00  0.00     0.049 A 
ATOM     46  C   UNL     1      -3.448 -11.322  -3.071  1.00  0.00     0.074 A 
ATOM     47  C   UNL     1      -6.396 -10.572  -8.628  1.00  0.00     0.029 A 
ATOM     48  N   UNL     1      -5.104 -10.327  -6.836  1.00  0.00    -0.354 N 
ATOM     49  N   UNL     1      -4.001 -11.090  -4.238  1.00  0.00    -0.248 NA
ATOM     50  C   UNL     1      -3.967 -12.513  -2.383  1.00  0.00     0.031 C 
ATOM     51  C   UNL     1      -6.668 -11.619  -7.742  1.00  0.00     0.029 A 
ATOM     52  C   UNL     1      -5.847 -11.479  -6.636  1.00  0.00     0.049 A 
ATOM     53  H   UNL     1      -4.438  -9.968  -6.206  1.00  0.00     0.167 HD
ATOM     54  C   UNL     1      -4.915 -12.120  -4.433  1.00  0.00     0.074 A 
ATOM     55  C   UNL     1      -4.831 -12.982  -3.272  1.00  0.00     0.031 C 
ATOM     56  C   UNL     1      -5.749 -12.331  -5.480  1.00  0.00     0.031 A 
BRANCH  43  57
ATOM     57  C   UNL     1      -5.362  -8.040  -9.905  1.00  0.00    -0.014 A 
ATOM     58  C   UNL     1      -4.575  -8.153 -11.065  1.00  0.00     0.010 A 
ATOM     59  C   UNL     1      -6.654  -7.495 -10.003  1.00  0.00     0.010 A 
ATOM     60  C   UNL     1      -5.058  -7.697 -12.294  1.00  0.00     0.020 A 
ATOM     61  C   UNL     1      -7.150  -7.059 -11.235  1.00  0.00     0.020 A 
ATOM     62  C   UNL     1      -6.342  -7.149 -12.371  1.00  0.00     0.054 A 
BRANCH  62  63
ATOM     63  S   UNL     1      -6.957  -6.593 -13.984  1.00  0.00     0.124 S 
ATOM     64  O   UNL     1      -6.230  -5.339 -14.165  1.00  0.00    -0.237 OA
ATOM     65  O   UNL     1      -6.560  -7.682 -14.873  1.00  0.00    -0.237 OA
ATOM     66  O   UNL     1      -8.396  -6.455 -13.778  1.00  0.00    -0.744 OA
ENDBRANCH  62  63
ENDBRANCH  43  57
BRANCH  44  67
ATOM     67  C   UNL     1      -1.878 -10.981  -1.032  1.00  0.00    -0.014 A 
ATOM     68  C   UNL     1      -1.086 -12.136  -0.906  1.00  0.00     0.010 A 
ATOM     69  C   UNL     1      -2.205 -10.245   0.121  1.00  0.00     0.010 A 
ATOM     70  C   UNL     1      -0.651 -12.562   0.352  1.00  0.00     0.020 A 
ATOM     71  C   UNL     1      -1.752 -10.655   1.378  1.00  0.00     0.020 A 
ATOM     72  C   UNL     1      -0.989 -11.820   1.487  1.00  0.00     0.054 A 
BRANCH  72  73
ATOM     73  S   UNL     1      -0.383 -12.366   3.108  1.00  0.00     0.124 S 
ATOM     74  O   UNL     1      -1.302 -13.455   3.423  1.00  0.00    -0.237 OA
ATOM     75  O   UNL     1       0.993 -12.762   2.817  1.00  0.00    -0.237 OA
ATOM     76  O   UNL     1      -0.516 -11.171   3.939  1.00  0.00    -0.744 OA
ENDBRANCH  72  73
ENDBRANCH  44  67
BRANCH  56  77
ATOM     77  C   UNL     1      -6.614 -13.560  -5.437  1.00  0.00    -0.014 A 
ATOM     78  C   UNL     1      -7.742 -13.626  -4.600  1.00  0.00     0.010 A 
ATOM     79  C   UNL     1      -6.322 -14.645  -6.284  1.00  0.00     0.010 A 
ATOM     80  C   UNL     1      -8.546 -14.768  -4.590  1.00  0.00     0.020 A 
ATOM     81  C   UNL     1      -7.136 -15.779  -6.292  1.00  0.00     0.020 A 
ATOM     82  C   UNL     1      -8.236 -15.840  -5.434  1.00  0.00     0.054 A 
BRANCH  82  83
ATOM     83  S   UNL     1      -9.319 -17.296  -5.436  1.00  0.00     0.124 S 
ATOM     84  O   UNL     1      -8.909 -17.980  -4.213  1.00  0.00    -0.237 OA
ATOM     85  O   UNL     1     -10.655 -16.706  -5.408  1.00  0.00    -0.237 OA
ATOM     86  O   UNL     1      -8.974 -17.980  -6.680  1.00  0.00    -0.744 OA
ENDBRANCH  82  83
ENDBRANCH  56  77
ENDBRANCH  30  31
ENDBRANCH  22  25
ENDBRANCH  20  21
ENDBRANCH   1  20
TORSDOF 16
