REMARK SMILES O=C(NCCCNC(=O)c1ccc(-c2ccn(C(F)F)c(=O)c2)cc1O)c1ccc(-c2c3nc(c(-c4ccc(S(=O)(=O)[O-])cc4)c4ccc([nH]4)c(-c4ccc(S(=O)(=O)[O-])cc4)c4nc(c(-c5ccc(S(=O)(=O)[O-])cc5)c5ccc2[nH]5)C=C4)C=C3)cc1
REMARK SMILES IDX 4 1 3 2 1 3 2 4 27 6 28 7 86 8 29 9 85 10 30 11 31 12 32 13
REMARK SMILES IDX 79 14 33 15 84 16 78 17 80 18 34 19 83 20 77 21 76 22 35 24
REMARK SMILES IDX 65 25 46 26 64 27 47 28 50 29 63 30 81 31 48 32 49 33 62 35
REMARK SMILES IDX 82 36 51 37 36 38 37 39 45 40 38 41 44 42 39 43 40 44 41 45
REMARK SMILES IDX 42 46 43 47 66 48 67 49 75 50 68 51 74 52 69 53 70 54 71 55
REMARK SMILES IDX 72 56 73 57 52 58 53 59 61 60 54 61 60 62 55 63 56 64 57 65
REMARK SMILES IDX 58 66 59 67 5 68 6 69 7 70 8 71 9 73 10 74 11 75 25 76 12 77
REMARK SMILES IDX 24 78 13 79 26 80 14 82 15 83 23 84 16 85 21 86 17 87 22 88
REMARK SMILES IDX 18 89 19 90 20 91
REMARK H PARENT 3 5 80 23 50 34 7 72 26 81
REMARK Flexibility Score: inf
ROOT
ATOM      1  C   UNL     1       4.560  -0.314   1.251  1.00  0.00     0.118 C 
ENDROOT
BRANCH   1   2
ATOM      2  N   UNL     1       3.112  -0.357   1.105  1.00  0.00    -0.352 N 
ATOM      3  O   UNL     1       1.099   0.058   0.206  1.00  0.00    -0.269 OA
ATOM      4  C   UNL     1       2.316  -0.025   0.039  1.00  0.00     0.251 C 
ATOM      5  H   UNL     1       2.627  -0.677   1.900  1.00  0.00     0.163 HD
BRANCH   4   6
ATOM      6  C   UNL     1       2.896   0.239  -1.297  1.00  0.00     0.039 A 
ATOM      7  C   UNL     1       2.311   1.218  -2.106  1.00  0.00     0.014 A 
ATOM      8  C   UNL     1       3.967  -0.512  -1.788  1.00  0.00     0.014 A 
ATOM      9  C   UNL     1       2.813   1.457  -3.388  1.00  0.00     0.010 A 
ATOM     10  C   UNL     1       4.531  -0.205  -3.022  1.00  0.00     0.010 A 
ATOM     11  C   UNL     1       3.936   0.754  -3.852  1.00  0.00    -0.014 A 
BRANCH  11  12
ATOM     12  C   UNL     1       4.449   0.934  -5.234  1.00  0.00     0.031 A 
ATOM     13  C   UNL     1       4.411  -0.228  -6.194  1.00  0.00     0.074 A 
ATOM     14  C   UNL     1       4.974   2.113  -5.620  1.00  0.00     0.049 A 
ATOM     15  N   UNL     1       4.876  -0.304  -7.413  1.00  0.00    -0.248 NA
ATOM     16  C   UNL     1       3.790  -1.476  -5.713  1.00  0.00     0.031 C 
ATOM     17  C   UNL     1       5.077   3.307  -4.780  1.00  0.00     0.029 A 
ATOM     18  N   UNL     1       5.519   2.502  -6.819  1.00  0.00    -0.354 N 
ATOM     19  C   UNL     1       4.620  -1.604  -7.834  1.00  0.00     0.074 A 
ATOM     20  C   UNL     1       4.016  -2.302  -6.724  1.00  0.00     0.031 C 
ATOM     21  C   UNL     1       5.615   4.304  -5.499  1.00  0.00     0.029 A 
ATOM     22  C   UNL     1       5.942   3.811  -6.835  1.00  0.00     0.049 A 
ATOM     23  H   UNL     1       5.599   1.901  -7.595  1.00  0.00     0.167 HD
ATOM     24  C   UNL     1       4.837  -2.157  -9.049  1.00  0.00     0.031 A 
ATOM     25  C   UNL     1       6.530   4.534  -7.811  1.00  0.00     0.031 A 
ATOM     26  C   UNL     1       5.398  -1.443 -10.164  1.00  0.00     0.049 A 
ATOM     27  C   UNL     1       6.778   3.895  -9.150  1.00  0.00     0.074 A 
ATOM     28  C   UNL     1       5.609  -1.904 -11.451  1.00  0.00     0.029 A 
ATOM     29  N   UNL     1       5.820  -0.123 -10.134  1.00  0.00    -0.354 N 
ATOM     30  N   UNL     1       6.495   2.674  -9.541  1.00  0.00    -0.248 NA
ATOM     31  C   UNL     1       7.412   4.725 -10.184  1.00  0.00     0.031 C 
ATOM     32  C   UNL     1       6.219  -0.884 -12.181  1.00  0.00     0.029 A 
ATOM     33  C   UNL     1       6.317   0.239 -11.373  1.00  0.00     0.049 A 
ATOM     34  H   UNL     1       5.774   0.468  -9.348  1.00  0.00     0.167 HD
ATOM     35  C   UNL     1       6.899   2.596 -10.870  1.00  0.00     0.074 A 
ATOM     36  C   UNL     1       7.429   3.897 -11.222  1.00  0.00     0.031 C 
ATOM     37  C   UNL     1       6.837   1.540 -11.716  1.00  0.00     0.031 A 
BRANCH  24  38
ATOM     38  C   UNL     1       4.442  -3.595  -9.264  1.00  0.00    -0.014 A 
ATOM     39  C   UNL     1       5.429  -4.559  -9.541  1.00  0.00     0.010 A 
ATOM     40  C   UNL     1       3.087  -3.970  -9.317  1.00  0.00     0.010 A 
ATOM     41  C   UNL     1       5.069  -5.858  -9.908  1.00  0.00     0.020 A 
ATOM     42  C   UNL     1       2.724  -5.277  -9.651  1.00  0.00     0.020 A 
ATOM     43  C   UNL     1       3.717  -6.205  -9.973  1.00  0.00     0.054 A 
BRANCH  43  44
ATOM     44  S   UNL     1       3.268  -7.881 -10.498  1.00  0.00     0.124 S 
ATOM     45  O   UNL     1       3.532  -7.836 -11.932  1.00  0.00    -0.237 OA
ATOM     46  O   UNL     1       4.176  -8.715  -9.713  1.00  0.00    -0.237 OA
ATOM     47  O   UNL     1       1.859  -7.991 -10.124  1.00  0.00    -0.744 OA
ENDBRANCH  43  44
ENDBRANCH  24  38
BRANCH  25  48
ATOM     48  C   UNL     1       6.874   5.960  -7.550  1.00  0.00    -0.014 A 
ATOM     49  C   UNL     1       7.873   6.295  -6.616  1.00  0.00     0.010 A 
ATOM     50  C   UNL     1       6.139   6.992  -8.160  1.00  0.00     0.010 A 
ATOM     51  C   UNL     1       8.087   7.627  -6.250  1.00  0.00     0.020 A 
ATOM     52  C   UNL     1       6.372   8.329  -7.820  1.00  0.00     0.020 A 
ATOM     53  C   UNL     1       7.322   8.634  -6.842  1.00  0.00     0.054 A 
BRANCH  53  54
ATOM     54  S   UNL     1       7.564  10.348  -6.296  1.00  0.00     0.124 S 
ATOM     55  O   UNL     1       6.909  10.340  -4.991  1.00  0.00    -0.237 OA
ATOM     56  O   UNL     1       9.019  10.471  -6.269  1.00  0.00    -0.237 OA
ATOM     57  O   UNL     1       6.894  11.135  -7.328  1.00  0.00    -0.744 OA
ENDBRANCH  53  54
ENDBRANCH  25  48
BRANCH  37  58
ATOM     58  C   UNL     1       7.348   1.712 -13.123  1.00  0.00    -0.014 A 
ATOM     59  C   UNL     1       6.451   1.630 -14.205  1.00  0.00     0.010 A 
ATOM     60  C   UNL     1       8.728   1.783 -13.382  1.00  0.00     0.010 A 
ATOM     61  C   UNL     1       6.925   1.563 -15.517  1.00  0.00     0.020 A 
ATOM     62  C   UNL     1       9.205   1.748 -14.696  1.00  0.00     0.020 A 
ATOM     63  C   UNL     1       8.301   1.608 -15.752  1.00  0.00     0.054 A 
BRANCH  63  64
ATOM     64  S   UNL     1       8.900   1.457 -17.457  1.00  0.00     0.124 S 
ATOM     65  O   UNL     1       8.710   0.035 -17.726  1.00  0.00    -0.237 OA
ATOM     66  O   UNL     1       8.015   2.361 -18.189  1.00  0.00    -0.237 OA
ATOM     67  O   UNL     1      10.292   1.896 -17.372  1.00  0.00    -0.744 OA
ENDBRANCH  63  64
ENDBRANCH  37  58
ENDBRANCH  11  12
ENDBRANCH   4   6
ENDBRANCH   1   2
BRANCH   1  68
ATOM     68  C   UNL     1       5.014   0.695   2.293  1.00  0.00     0.042 C 
BRANCH  68  69
ATOM     69  C   UNL     1       4.526   0.401   3.702  1.00  0.00     0.118 C 
BRANCH  69  70
ATOM     70  N   UNL     1       5.019  -0.868   4.214  1.00  0.00    -0.352 N 
ATOM     71  C   UNL     1       5.675  -1.122   5.391  1.00  0.00     0.255 C 
ATOM     72  H   UNL     1       4.860  -1.650   3.638  1.00  0.00     0.163 HD
ATOM     73  O   UNL     1       6.093  -2.255   5.632  1.00  0.00    -0.269 OA
BRANCH  71  74
ATOM     74  C   UNL     1       5.945  -0.033   6.349  1.00  0.00     0.081 A 
ATOM     75  C   UNL     1       7.270   0.142   6.768  1.00  0.00     0.018 A 
ATOM     76  C   UNL     1       4.939   0.790   6.865  1.00  0.00     0.128 A 
ATOM     77  C   UNL     1       7.593   1.157   7.672  1.00  0.00     0.010 A 
ATOM     78  C   UNL     1       5.264   1.819   7.746  1.00  0.00     0.055 A 
ATOM     79  C   UNL     1       6.591   2.006   8.163  1.00  0.00    -0.014 A 
BRANCH  76  80
ATOM     80  O   UNL     1       3.630   0.594   6.524  1.00  0.00    -0.507 OA
ATOM     81  H   UNL     1       3.397  -0.095   5.932  1.00  0.00     0.293 HD
ENDBRANCH  76  80
BRANCH  79  82
ATOM     82  C   UNL     1       6.878   3.058   9.158  1.00  0.00    -0.011 A 
ATOM     83  C   UNL     1       6.164   3.123  10.420  1.00  0.00     0.027 A 
ATOM     84  C   UNL     1       7.788   4.007   8.876  1.00  0.00     0.080 A 
ATOM     85  C   UNL     1       6.371   4.131  11.271  1.00  0.00     0.095 A 
ATOM     86  C   UNL     1       8.050   5.120   9.830  1.00  0.00     0.255 A 
ATOM     87  N   UNL     1       7.288   5.123  10.986  1.00  0.00    -0.258 N 
ATOM     88  O   UNL     1       8.902   5.958   9.537  1.00  0.00    -0.269 OA
BRANCH  87  89
ATOM     89  C   UNL     1       7.486   6.214  11.903  1.00  0.00     0.451 C 
ATOM     90  F   UNL     1       8.765   6.257  12.349  1.00  0.00    -0.185 F 
ATOM     91  F   UNL     1       7.202   7.402  11.317  1.00  0.00    -0.185 F 
ENDBRANCH  87  89
ENDBRANCH  79  82
ENDBRANCH  71  74
ENDBRANCH  69  70
ENDBRANCH  68  69
ENDBRANCH   1  68
TORSDOF 16
