REMARK SMILES CN(C)S(=O)(=O)c1ccc(-n2c(CCC(=O)NCCCNC(=O)c3ccc(-c4c5nc(c(-c6ccc(S(=O)(=O)[O-])cc6)c6ccc([nH]6)c(-c6ccc(S(=O)(=O)[O-])cc6)c6nc(c(-c7ccc(S(=O)(=O)[O-])cc7)c7ccc4[nH]7)C=C6)C=C5)cc3)ccc2-c2ccc(F)cc2)cc1
REMARK SMILES IDX 18 1 17 2 15 3 16 4 14 6 13 7 12 8 11 9 86 10 84 11 85 12
REMARK SMILES IDX 10 13 7 14 8 15 95 16 9 17 94 18 4 19 5 20 6 21 2 22 1 23
REMARK SMILES IDX 3 24 87 25 88 26 93 27 89 28 92 29 90 30 91 31 19 32 20 33
REMARK SMILES IDX 21 34 22 35 23 37 24 38 25 39 83 40 26 41 82 42 27 43 28 44
REMARK SMILES IDX 29 45 76 46 30 47 81 48 75 49 77 50 31 51 80 52 74 53 73 54
REMARK SMILES IDX 32 56 62 57 43 58 61 59 44 60 47 61 60 62 78 63 45 64 46 65
REMARK SMILES IDX 59 67 79 68 48 69 33 70 34 71 42 72 35 73 41 74 36 75 37 76
REMARK SMILES IDX 38 77 39 78 40 79 63 80 64 81 72 82 65 83 71 84 66 85 67 86
REMARK SMILES IDX 68 87 69 88 70 89 49 90 50 91 58 92 51 93 57 94 52 95 53 96
REMARK SMILES IDX 54 97 55 98 56 99
REMARK H PARENT 17 5 21 36 77 55 47 66
REMARK Flexibility Score: inf
ROOT
ATOM      1  C   UNL     1      -2.616   1.720   8.119  1.00  0.00     0.117 C 
ENDROOT
BRANCH   1   2
ATOM      2  N   UNL     1      -1.613   0.682   7.963  1.00  0.00    -0.356 N 
ATOM      3  C   UNL     1      -0.534   0.361   8.746  1.00  0.00     0.220 C 
ATOM      4  O   UNL     1       0.029  -0.715   8.522  1.00  0.00    -0.275 OA
ATOM      5  H   UNL     1      -1.725   0.117   7.164  1.00  0.00     0.163 HD
BRANCH   3   6
ATOM      6  C   UNL     1       0.042   1.309   9.796  1.00  0.00     0.106 C 
BRANCH   6   7
ATOM      7  C   UNL     1       1.264   2.158   9.369  1.00  0.00     0.064 C 
BRANCH   7   8
ATOM      8  C   UNL     1       0.894   3.541   8.887  1.00  0.00     0.024 A 
ATOM      9  N   UNL     1       0.845   4.039   7.558  1.00  0.00    -0.314 N 
ATOM     10  C   UNL     1       0.456   5.406   7.701  1.00  0.00     0.053 A 
ATOM     11  C   UNL     1       0.586   4.566   9.768  1.00  0.00     0.024 A 
ATOM     12  C   UNL     1       0.311   5.717   9.037  1.00  0.00     0.029 A 
BRANCH   9  13
ATOM     13  C   UNL     1       0.991   3.258   6.308  1.00  0.00     0.046 A 
ATOM     14  C   UNL     1       1.024   1.522   3.992  1.00  0.00     0.082 A 
ATOM     15  C   UNL     1       1.227   2.897   3.853  1.00  0.00     0.024 A 
ATOM     16  C   UNL     1       0.854   1.022   5.264  1.00  0.00     0.024 A 
ATOM     17  C   UNL     1       1.208   3.753   5.011  1.00  0.00     0.028 A 
ATOM     18  C   UNL     1       0.872   1.877   6.360  1.00  0.00     0.028 A 
BRANCH  14  19
ATOM     19  S   UNL     1       1.261   0.288   2.722  1.00  0.00     0.242 S 
ATOM     20  O   UNL     1       0.742  -0.958   3.271  1.00  0.00    -0.207 OA
ATOM     21  O   UNL     1       2.642   0.409   2.333  1.00  0.00    -0.207 OA
BRANCH  19  22
ATOM     22  N   UNL     1       0.240   0.665   1.408  1.00  0.00    -0.204 NA
ATOM     23  C   UNL     1       0.512  -0.293   0.277  1.00  0.00     0.124 C 
ATOM     24  C   UNL     1      -1.206   0.656   1.679  1.00  0.00     0.124 C 
ENDBRANCH  19  22
ENDBRANCH  14  19
ENDBRANCH   9  13
BRANCH  10  25
ATOM     25  C   UNL     1      -0.142   6.193   6.641  1.00  0.00    -0.001 A 
ATOM     26  C   UNL     1       0.604   7.050   5.836  1.00  0.00     0.013 A 
ATOM     27  C   UNL     1      -1.421   5.790   6.279  1.00  0.00     0.013 A 
ATOM     28  C   UNL     1       0.235   7.156   4.508  1.00  0.00     0.040 A 
ATOM     29  C   UNL     1      -1.722   5.789   4.947  1.00  0.00     0.040 A 
ATOM     30  C   UNL     1      -0.838   6.393   4.078  1.00  0.00     0.123 A 
ATOM     31  F   UNL     1      -0.896   6.059   2.803  1.00  0.00    -0.207 F 
ENDBRANCH  10  25
ENDBRANCH   7   8
ENDBRANCH   6   7
ENDBRANCH   3   6
ENDBRANCH   1   2
BRANCH   1  32
ATOM     32  C   UNL     1      -2.778   2.706   6.951  1.00  0.00     0.042 C 
BRANCH  32  33
ATOM     33  C   UNL     1      -3.701   2.335   5.771  1.00  0.00     0.118 C 
BRANCH  33  34
ATOM     34  N   UNL     1      -4.654   3.434   5.489  1.00  0.00    -0.352 N 
ATOM     35  C   UNL     1      -5.055   4.245   4.450  1.00  0.00     0.251 C 
ATOM     36  H   UNL     1      -5.161   3.655   6.303  1.00  0.00     0.163 HD
ATOM     37  O   UNL     1      -5.970   5.031   4.718  1.00  0.00    -0.269 OA
BRANCH  35  38
ATOM     38  C   UNL     1      -4.489   4.281   3.068  1.00  0.00     0.039 A 
ATOM     39  C   UNL     1      -5.117   5.092   2.095  1.00  0.00     0.014 A 
ATOM     40  C   UNL     1      -3.319   3.627   2.704  1.00  0.00     0.014 A 
ATOM     41  C   UNL     1      -4.606   5.202   0.789  1.00  0.00     0.010 A 
ATOM     42  C   UNL     1      -2.824   3.714   1.407  1.00  0.00     0.010 A 
ATOM     43  C   UNL     1      -3.458   4.488   0.437  1.00  0.00    -0.014 A 
BRANCH  43  44
ATOM     44  C   UNL     1      -2.874   4.454  -0.934  1.00  0.00     0.031 A 
ATOM     45  C   UNL     1      -1.552   5.242  -1.133  1.00  0.00     0.074 A 
ATOM     46  C   UNL     1      -3.523   3.611  -1.789  1.00  0.00     0.049 A 
ATOM     47  N   UNL     1      -0.849   5.540  -2.182  1.00  0.00    -0.248 NA
ATOM     48  C   UNL     1      -0.898   5.790   0.066  1.00  0.00     0.031 C 
ATOM     49  C   UNL     1      -4.721   2.805  -1.443  1.00  0.00     0.029 A 
ATOM     50  N   UNL     1      -3.319   3.245  -3.095  1.00  0.00    -0.354 N 
ATOM     51  C   UNL     1       0.348   6.195  -1.752  1.00  0.00     0.074 A 
ATOM     52  C   UNL     1       0.278   6.275  -0.330  1.00  0.00     0.031 C 
ATOM     53  C   UNL     1      -5.194   2.159  -2.528  1.00  0.00     0.029 A 
ATOM     54  C   UNL     1      -4.358   2.471  -3.665  1.00  0.00     0.049 A 
ATOM     55  H   UNL     1      -2.512   3.501  -3.598  1.00  0.00     0.167 HD
ATOM     56  C   UNL     1       1.327   6.647  -2.594  1.00  0.00     0.031 A 
ATOM     57  C   UNL     1      -4.577   2.182  -4.980  1.00  0.00     0.031 A 
ATOM     58  C   UNL     1       0.875   6.552  -3.937  1.00  0.00     0.049 A 
ATOM     59  C   UNL     1      -3.440   2.768  -5.702  1.00  0.00     0.074 A 
ATOM     60  C   UNL     1      -0.054   7.275  -4.638  1.00  0.00     0.029 A 
ATOM     61  N   UNL     1       1.150   5.395  -4.615  1.00  0.00    -0.354 N 
ATOM     62  N   UNL     1      -2.233   2.296  -5.705  1.00  0.00    -0.248 NA
ATOM     63  C   UNL     1      -3.639   4.050  -6.386  1.00  0.00     0.031 C 
ATOM     64  C   UNL     1      -0.714   6.279  -5.387  1.00  0.00     0.029 A 
ATOM     65  C   UNL     1      -0.016   5.070  -5.266  1.00  0.00     0.049 A 
ATOM     66  H   UNL     1       2.002   4.901  -4.632  1.00  0.00     0.167 HD
ATOM     67  C   UNL     1      -1.484   3.383  -6.080  1.00  0.00     0.074 A 
ATOM     68  C   UNL     1      -2.385   4.297  -6.748  1.00  0.00     0.031 C 
ATOM     69  C   UNL     1      -0.319   3.672  -5.450  1.00  0.00     0.031 A 
BRANCH  56  70
ATOM     70  C   UNL     1       2.745   7.130  -2.401  1.00  0.00    -0.014 A 
ATOM     71  C   UNL     1       3.312   7.878  -3.469  1.00  0.00     0.010 A 
ATOM     72  C   UNL     1       3.632   6.601  -1.452  1.00  0.00     0.010 A 
ATOM     73  C   UNL     1       4.688   7.956  -3.680  1.00  0.00     0.020 A 
ATOM     74  C   UNL     1       5.029   6.711  -1.636  1.00  0.00     0.020 A 
ATOM     75  C   UNL     1       5.543   7.335  -2.780  1.00  0.00     0.054 A 
BRANCH  75  76
ATOM     76  S   UNL     1       7.313   7.297  -3.186  1.00  0.00     0.124 S 
ATOM     77  O   UNL     1       7.354   6.361  -4.307  1.00  0.00    -0.237 OA
ATOM     78  O   UNL     1       7.590   8.691  -3.530  1.00  0.00    -0.237 OA
ATOM     79  O   UNL     1       7.940   6.833  -1.952  1.00  0.00    -0.744 OA
ENDBRANCH  75  76
ENDBRANCH  56  70
BRANCH  57  80
ATOM     80  C   UNL     1      -5.721   1.671  -5.812  1.00  0.00    -0.014 A 
ATOM     81  C   UNL     1      -6.934   1.170  -5.325  1.00  0.00     0.010 A 
ATOM     82  C   UNL     1      -5.643   1.856  -7.220  1.00  0.00     0.010 A 
ATOM     83  C   UNL     1      -8.057   1.046  -6.171  1.00  0.00     0.020 A 
ATOM     84  C   UNL     1      -6.756   1.788  -8.057  1.00  0.00     0.020 A 
ATOM     85  C   UNL     1      -7.975   1.417  -7.517  1.00  0.00     0.054 A 
BRANCH  85  86
ATOM     86  S   UNL     1      -9.475   1.575  -8.525  1.00  0.00     0.124 S 
ATOM     87  O   UNL     1      -9.693   0.205  -8.976  1.00  0.00    -0.237 OA
ATOM     88  O   UNL     1     -10.452   2.090  -7.568  1.00  0.00    -0.237 OA
ATOM     89  O   UNL     1      -9.085   2.524  -9.567  1.00  0.00    -0.744 OA
ENDBRANCH  85  86
ENDBRANCH  57  80
BRANCH  69  90
ATOM     90  C   UNL     1       0.359   2.507  -4.737  1.00  0.00    -0.014 A 
ATOM     91  C   UNL     1       0.584   1.322  -5.465  1.00  0.00     0.010 A 
ATOM     92  C   UNL     1       0.769   2.516  -3.385  1.00  0.00     0.010 A 
ATOM     93  C   UNL     1       1.182   0.199  -4.888  1.00  0.00     0.020 A 
ATOM     94  C   UNL     1       1.418   1.404  -2.808  1.00  0.00     0.020 A 
ATOM     95  C   UNL     1       1.608   0.245  -3.564  1.00  0.00     0.054 A 
BRANCH  95  96
ATOM     96  S   UNL     1       2.435  -1.225  -2.892  1.00  0.00     0.124 S 
ATOM     97  O   UNL     1       1.306  -2.112  -2.614  1.00  0.00    -0.237 OA
ATOM     98  O   UNL     1       3.309  -1.642  -3.986  1.00  0.00    -0.237 OA
ATOM     99  O   UNL     1       3.128  -0.725  -1.710  1.00  0.00    -0.744 OA
ENDBRANCH  95  96
ENDBRANCH  69  90
ENDBRANCH  43  44
ENDBRANCH  35  38
ENDBRANCH  33  34
ENDBRANCH  32  33
ENDBRANCH   1  32
TORSDOF 19
