REMARK SMILES CCNC(=O)c1ccc(N[C@@H]2COC[C@@]2(C)C(=O)NCCCNC(=O)c2ccc(-c3c4nc(c(-c5ccc(S(=O)(=O)[O-])cc5)c5ccc([nH]5)c(-c5ccc(S(=O)(=O)[O-])cc5)c5nc(c(-c6ccc(S(=O)(=O)[O-])cc6)c6ccc3[nH]6)C=C5)C=C4)cc2)nn1
REMARK SMILES IDX 20 1 19 2 17 3 18 4 15 6 11 7 12 8 13 9 14 10 16 11 10 12
REMARK SMILES IDX 9 14 6 15 7 16 87 17 8 18 86 19 4 20 3 21 5 23 2 24 1 25
REMARK SMILES IDX 21 26 22 27 23 28 24 29 25 31 26 32 27 33 85 34 28 35 84 36
REMARK SMILES IDX 29 37 30 38 31 39 78 40 32 41 83 42 77 43 79 44 33 45 82 46
REMARK SMILES IDX 76 47 75 48 34 50 64 51 45 52 63 53 46 54 49 55 62 56 80 57
REMARK SMILES IDX 47 58 48 59 61 61 81 62 50 63 35 64 36 65 44 66 37 67 43 68
REMARK SMILES IDX 38 69 39 70 40 71 41 72 42 73 65 74 66 75 74 76 67 77 73 78
REMARK SMILES IDX 68 79 69 80 70 81 71 82 72 83 51 84 52 85 60 86 53 87 59 88
REMARK SMILES IDX 54 89 55 90 56 91 57 92 58 93
REMARK H PARENT 19 5 10 13 3 22 23 30 79 49 49 60
REMARK Flexibility Score: inf
ROOT
ATOM      1  C   UNL     1      -8.075   2.944  -1.484  1.00  0.00     0.117 C 
ENDROOT
BRANCH   1   2
ATOM      2  N   UNL     1      -7.915   3.461  -2.829  1.00  0.00    -0.355 N 
ATOM      3  C   UNL     1      -7.216   3.104  -3.928  1.00  0.00     0.230 C 
ATOM      4  O   UNL     1      -7.480   3.789  -4.929  1.00  0.00    -0.274 OA
ATOM      5  H   UNL     1      -8.450   4.274  -2.979  1.00  0.00     0.163 HD
BRANCH   3   6
ATOM      6  C   UNL     1      -6.166   1.994  -4.054  1.00  0.00     0.092 C 
ATOM      7  C   UNL     1      -5.948   0.972  -2.943  1.00  0.00     0.124 C 
ATOM      8  C   UNL     1      -5.505  -0.289  -3.675  1.00  0.00     0.186 C 
ATOM      9  O   UNL     1      -6.206  -0.277  -4.928  1.00  0.00    -0.378 OA
ATOM     10  C   UNL     1      -6.689   1.057  -5.164  1.00  0.00     0.179 C 
ATOM     11  C   UNL     1      -4.870   2.669  -4.551  1.00  0.00     0.026 C 
BRANCH   7  12
ATOM     12  N   UNL     1      -5.152   1.413  -1.797  1.00  0.00    -0.362 N 
ATOM     13  H   UNL     1      -5.634   1.595  -0.958  1.00  0.00     0.162 HD
BRANCH  12  14
ATOM     14  C   UNL     1      -3.782   1.595  -1.791  1.00  0.00     0.149 A 
ATOM     15  C   UNL     1      -1.103   2.126  -1.915  1.00  0.00     0.150 A 
ATOM     16  C   UNL     1      -1.869   2.839  -1.012  1.00  0.00     0.040 A 
ATOM     17  N   UNL     1      -1.631   1.186  -2.718  1.00  0.00    -0.143 NA
ATOM     18  C   UNL     1      -3.232   2.550  -0.943  1.00  0.00     0.051 A 
ATOM     19  N   UNL     1      -2.981   0.934  -2.648  1.00  0.00    -0.132 NA
BRANCH  15  20
ATOM     20  C   UNL     1       0.343   2.387  -2.070  1.00  0.00     0.271 C 
ATOM     21  N   UNL     1       1.208   2.030  -1.062  1.00  0.00    -0.351 N 
ATOM     22  H   UNL     1       2.140   2.326  -1.175  1.00  0.00     0.163 HD
ATOM     23  O   UNL     1       0.766   2.937  -3.083  1.00  0.00    -0.267 OA
BRANCH  21  24
ATOM     24  C   UNL     1       0.929   1.275   0.147  1.00  0.00     0.113 C 
ATOM     25  C   UNL     1       1.360  -0.172  -0.001  1.00  0.00     0.027 C 
ENDBRANCH  21  24
ENDBRANCH  15  20
ENDBRANCH  12  14
ENDBRANCH   7  12
ENDBRANCH   3   6
ENDBRANCH   1   2
BRANCH   1  26
ATOM     26  C   UNL     1      -7.327   3.762  -0.439  1.00  0.00     0.042 C 
BRANCH  26  27
ATOM     27  C   UNL     1      -7.963   5.118  -0.144  1.00  0.00     0.118 C 
BRANCH  27  28
ATOM     28  N   UNL     1      -9.334   4.994   0.334  1.00  0.00    -0.352 N 
ATOM     29  C   UNL     1      -9.893   5.226   1.564  1.00  0.00     0.251 C 
ATOM     30  H   UNL     1      -9.973   4.688  -0.349  1.00  0.00     0.163 HD
ATOM     31  O   UNL     1     -11.018   4.784   1.789  1.00  0.00    -0.269 OA
BRANCH  29  32
ATOM     32  C   UNL     1      -9.182   5.993   2.611  1.00  0.00     0.039 A 
ATOM     33  C   UNL     1      -9.408   5.665   3.952  1.00  0.00     0.014 A 
ATOM     34  C   UNL     1      -8.369   7.085   2.296  1.00  0.00     0.014 A 
ATOM     35  C   UNL     1      -8.791   6.403   4.966  1.00  0.00     0.010 A 
ATOM     36  C   UNL     1      -7.687   7.765   3.303  1.00  0.00     0.010 A 
ATOM     37  C   UNL     1      -7.905   7.445   4.649  1.00  0.00    -0.014 A 
BRANCH  37  38
ATOM     38  C   UNL     1      -7.219   8.217   5.716  1.00  0.00     0.031 A 
ATOM     39  C   UNL     1      -7.486   9.690   5.885  1.00  0.00     0.074 A 
ATOM     40  C   UNL     1      -6.320   7.598   6.507  1.00  0.00     0.049 A 
ATOM     41  N   UNL     1      -6.966  10.528   6.745  1.00  0.00    -0.248 NA
ATOM     42  C   UNL     1      -8.441  10.308   4.949  1.00  0.00     0.031 C 
ATOM     43  C   UNL     1      -5.935   6.187   6.409  1.00  0.00     0.029 A 
ATOM     44  N   UNL     1      -5.566   8.075   7.549  1.00  0.00    -0.354 N 
ATOM     45  C   UNL     1      -7.514  11.771   6.443  1.00  0.00     0.074 A 
ATOM     46  C   UNL     1      -8.366  11.587   5.289  1.00  0.00     0.031 C 
ATOM     47  C   UNL     1      -5.045   5.906   7.374  1.00  0.00     0.029 A 
ATOM     48  C   UNL     1      -4.770   7.120   8.136  1.00  0.00     0.049 A 
ATOM     49  H   UNL     1      -5.592   9.012   7.848  1.00  0.00     0.167 HD
ATOM     50  C   UNL     1      -7.340  12.954   7.080  1.00  0.00     0.031 A 
ATOM     51  C   UNL     1      -3.917   7.208   9.174  1.00  0.00     0.031 A 
ATOM     52  C   UNL     1      -6.508  13.129   8.240  1.00  0.00     0.049 A 
ATOM     53  C   UNL     1      -3.762   8.525   9.882  1.00  0.00     0.074 A 
ATOM     54  C   UNL     1      -6.311  14.272   8.995  1.00  0.00     0.029 A 
ATOM     55  N   UNL     1      -5.736  12.132   8.816  1.00  0.00    -0.354 N 
ATOM     56  N   UNL     1      -4.338   9.673   9.619  1.00  0.00    -0.248 NA
ATOM     57  C   UNL     1      -2.856   8.552  11.037  1.00  0.00     0.031 C 
ATOM     58  C   UNL     1      -5.387  13.976  10.004  1.00  0.00     0.029 A 
ATOM     59  C   UNL     1      -5.048  12.636   9.907  1.00  0.00     0.049 A 
ATOM     60  H   UNL     1      -5.684  11.202   8.497  1.00  0.00     0.167 HD
ATOM     61  C   UNL     1      -3.880  10.556  10.590  1.00  0.00     0.074 A 
ATOM     62  C   UNL     1      -2.996   9.802  11.456  1.00  0.00     0.031 C 
ATOM     63  C   UNL     1      -4.165  11.872  10.752  1.00  0.00     0.031 A 
BRANCH  50  64
ATOM     64  C   UNL     1      -8.070  14.153   6.531  1.00  0.00    -0.014 A 
ATOM     65  C   UNL     1      -9.468  14.266   6.642  1.00  0.00     0.010 A 
ATOM     66  C   UNL     1      -7.347  15.198   5.926  1.00  0.00     0.010 A 
ATOM     67  C   UNL     1     -10.133  15.378   6.118  1.00  0.00     0.020 A 
ATOM     68  C   UNL     1      -8.006  16.325   5.426  1.00  0.00     0.020 A 
ATOM     69  C   UNL     1      -9.398  16.398   5.508  1.00  0.00     0.054 A 
BRANCH  69  70
ATOM     70  S   UNL     1     -10.286  17.838   4.853  1.00  0.00     0.124 S 
ATOM     71  O   UNL     1     -10.894  17.290   3.643  1.00  0.00    -0.237 OA
ATOM     72  O   UNL     1     -11.216  18.161   5.931  1.00  0.00    -0.237 OA
ATOM     73  O   UNL     1      -9.230  18.823   4.628  1.00  0.00    -0.744 OA
ENDBRANCH  69  70
ENDBRANCH  50  64
BRANCH  51  74
ATOM     74  C   UNL     1      -3.170   6.003   9.622  1.00  0.00    -0.014 A 
ATOM     75  C   UNL     1      -3.508   5.360  10.826  1.00  0.00     0.010 A 
ATOM     76  C   UNL     1      -2.131   5.476   8.833  1.00  0.00     0.010 A 
ATOM     77  C   UNL     1      -2.812   4.221  11.240  1.00  0.00     0.020 A 
ATOM     78  C   UNL     1      -1.450   4.323   9.231  1.00  0.00     0.020 A 
ATOM     79  C   UNL     1      -1.788   3.708  10.438  1.00  0.00     0.054 A 
BRANCH  79  80
ATOM     80  S   UNL     1      -0.939   2.192  10.961  1.00  0.00     0.124 S 
ATOM     81  O   UNL     1      -0.065   2.684  12.020  1.00  0.00    -0.237 OA
ATOM     82  O   UNL     1      -2.046   1.342  11.393  1.00  0.00    -0.237 OA
ATOM     83  O   UNL     1      -0.263   1.746   9.744  1.00  0.00    -0.744 OA
ENDBRANCH  79  80
ENDBRANCH  51  74
BRANCH  63  84
ATOM     84  C   UNL     1      -3.532  12.571  11.924  1.00  0.00    -0.014 A 
ATOM     85  C   UNL     1      -2.159  12.875  11.934  1.00  0.00     0.010 A 
ATOM     86  C   UNL     1      -4.329  12.953  13.018  1.00  0.00     0.010 A 
ATOM     87  C   UNL     1      -1.586  13.510  13.038  1.00  0.00     0.020 A 
ATOM     88  C   UNL     1      -3.765  13.613  14.111  1.00  0.00     0.020 A 
ATOM     89  C   UNL     1      -2.392  13.870  14.123  1.00  0.00     0.054 A 
BRANCH  89  90
ATOM     90  S   UNL     1      -1.630  14.711  15.537  1.00  0.00     0.124 S 
ATOM     91  O   UNL     1      -0.948  13.611  16.212  1.00  0.00    -0.237 OA
ATOM     92  O   UNL     1      -0.758  15.693  14.897  1.00  0.00    -0.237 OA
ATOM     93  O   UNL     1      -2.769  15.275  16.258  1.00  0.00    -0.744 OA
ENDBRANCH  89  90
ENDBRANCH  63  84
ENDBRANCH  37  38
ENDBRANCH  29  32
ENDBRANCH  27  28
ENDBRANCH  26  27
ENDBRANCH   1  26
TORSDOF 17
