REMARK SMILES CN1C(=O)C[C@@H](C(=O)NCCCNC(=O)c2ccc(-c3c4nc(c(-c5ccc(S(=O)(=O)[O-])cc5)c5ccc([nH]5)c(-c5ccc(S(=O)(=O)[O-])cc5)c5nc(c(-c6ccc(S(=O)(=O)[O-])cc6)c6ccc3[nH]6)C=C5)C=C4)cc2)C12CC[NH+](CCSc1ccccc1)CC2
REMARK SMILES IDX 10 1 9 2 7 3 8 4 6 6 1 7 2 8 3 9 76 10 4 11 5 12 77 13 90 14
REMARK SMILES IDX 78 15 89 16 79 17 80 19 81 20 82 21 83 22 84 23 88 24 85 25
REMARK SMILES IDX 87 26 86 27 11 28 12 29 13 30 14 31 15 33 16 34 17 35 75 36
REMARK SMILES IDX 18 37 74 38 19 39 20 40 21 41 68 42 22 43 73 44 67 45 69 46
REMARK SMILES IDX 23 47 72 48 66 49 65 50 24 52 54 53 35 54 53 55 36 56 39 57
REMARK SMILES IDX 52 58 70 59 37 60 38 61 51 63 71 64 40 65 25 66 26 67 34 68
REMARK SMILES IDX 27 69 33 70 28 71 29 72 30 73 31 74 32 75 55 76 56 77 64 78
REMARK SMILES IDX 57 79 63 80 58 81 59 82 60 83 61 84 62 85 41 86 42 87 50 88
REMARK SMILES IDX 43 89 49 90 44 91 45 92 46 93 47 94 48 95
REMARK H PARENT 9 5 79 18 13 32 69 51 39 62
REMARK Flexibility Score: inf
ROOT
ATOM      1  C   UNL     1      -3.029  -0.291   2.006  1.00  0.00     0.117 C 
ENDROOT
BRANCH   1   2
ATOM      2  N   UNL     1      -2.707  -0.252   3.419  1.00  0.00    -0.356 N 
ATOM      3  C   UNL     1      -1.582   0.084   4.082  1.00  0.00     0.226 C 
ATOM      4  O   UNL     1      -1.571  -0.109   5.302  1.00  0.00    -0.275 OA
ATOM      5  H   UNL     1      -3.450  -0.522   4.005  1.00  0.00     0.163 HD
BRANCH   3   6
ATOM      6  C   UNL     1      -0.375   0.691   3.420  1.00  0.00     0.114 C 
ATOM      7  C   UNL     1       0.667  -0.426  -0.030  1.00  0.00     0.147 C 
ATOM      8  N   UNL     1       0.181   0.210   1.188  1.00  0.00    -0.339 N 
ATOM      9  C   UNL     1      -0.375   1.487   1.146  1.00  0.00     0.223 C 
ATOM     10  C   UNL     1       0.564  -0.192   2.561  1.00  0.00     0.065 C 
ATOM     11  O   UNL     1      -0.595   2.154   0.157  1.00  0.00    -0.275 OA
ATOM     12  C   UNL     1      -0.666   1.929   2.559  1.00  0.00     0.116 C 
ATOM     13  C   UNL     1       0.620  -1.742   2.777  1.00  0.00     0.091 C 
ATOM     14  C   UNL     1       1.946   0.385   2.839  1.00  0.00     0.091 C 
ATOM     15  C   UNL     1       1.744  -2.339   3.674  1.00  0.00     0.264 C 
ATOM     16  C   UNL     1       2.496  -0.180   4.138  1.00  0.00     0.264 C 
ATOM     17  N   UNL     1       2.931  -1.518   3.902  1.00  0.00    -0.334 N 
ATOM     18  H   UNL     1       3.372  -1.958   4.710  1.00  0.00     0.348 HD
BRANCH  17  19
ATOM     19  C   UNL     1       4.100  -1.591   2.996  1.00  0.00     0.273 C 
BRANCH  19  20
ATOM     20  C   UNL     1       4.861  -0.310   2.377  1.00  0.00     0.136 C 
BRANCH  20  21
ATOM     21  S   UNL     1       5.591   1.180   3.330  1.00  0.00    -0.120 SA
BRANCH  21  22
ATOM     22  C   UNL     1       4.303   2.409   3.700  1.00  0.00     0.007 A 
ATOM     23  C   UNL     1       3.825   3.373   2.802  1.00  0.00     0.015 A 
ATOM     24  C   UNL     1       3.805   2.464   5.019  1.00  0.00     0.015 A 
ATOM     25  C   UNL     1       2.810   4.278   3.192  1.00  0.00     0.001 A 
ATOM     26  C   UNL     1       2.738   3.296   5.380  1.00  0.00     0.001 A 
ATOM     27  C   UNL     1       2.240   4.212   4.465  1.00  0.00     0.000 A 
ENDBRANCH  21  22
ENDBRANCH  20  21
ENDBRANCH  19  20
ENDBRANCH  17  19
ENDBRANCH   3   6
ENDBRANCH   1   2
BRANCH   1  28
ATOM     28  C   UNL     1      -2.687  -1.633   1.377  1.00  0.00     0.042 C 
BRANCH  28  29
ATOM     29  C   UNL     1      -3.336  -2.790   2.121  1.00  0.00     0.118 C 
BRANCH  29  30
ATOM     30  N   UNL     1      -4.784  -2.693   2.022  1.00  0.00    -0.352 N 
ATOM     31  C   UNL     1      -5.596  -3.357   1.139  1.00  0.00     0.251 C 
ATOM     32  H   UNL     1      -5.228  -2.086   2.657  1.00  0.00     0.163 HD
ATOM     33  O   UNL     1      -6.668  -2.871   0.798  1.00  0.00    -0.269 OA
BRANCH  31  34
ATOM     34  C   UNL     1      -5.155  -4.669   0.630  1.00  0.00     0.039 A 
ATOM     35  C   UNL     1      -5.378  -5.006  -0.705  1.00  0.00     0.014 A 
ATOM     36  C   UNL     1      -4.525  -5.569   1.497  1.00  0.00     0.014 A 
ATOM     37  C   UNL     1      -4.934  -6.241  -1.178  1.00  0.00     0.010 A 
ATOM     38  C   UNL     1      -4.003  -6.753   1.002  1.00  0.00     0.010 A 
ATOM     39  C   UNL     1      -4.222  -7.110  -0.334  1.00  0.00    -0.014 A 
BRANCH  39  40
ATOM     40  C   UNL     1      -3.698  -8.406  -0.823  1.00  0.00     0.031 A 
ATOM     41  C   UNL     1      -4.185  -9.692  -0.214  1.00  0.00     0.074 A 
ATOM     42  C   UNL     1      -2.725  -8.413  -1.754  1.00  0.00     0.049 A 
ATOM     43  N   UNL     1      -3.801 -10.917  -0.463  1.00  0.00    -0.248 NA
ATOM     44  C   UNL     1      -5.214  -9.587   0.834  1.00  0.00     0.031 C 
ATOM     45  C   UNL     1      -2.135  -7.221  -2.370  1.00  0.00     0.029 A 
ATOM     46  N   UNL     1      -2.052  -9.456  -2.335  1.00  0.00    -0.354 N 
ATOM     47  C   UNL     1      -4.522 -11.723   0.411  1.00  0.00     0.074 A 
ATOM     48  C   UNL     1      -5.325 -10.845   1.232  1.00  0.00     0.031 C 
ATOM     49  C   UNL     1      -1.208  -7.602  -3.262  1.00  0.00     0.029 A 
ATOM     50  C   UNL     1      -1.104  -9.058  -3.246  1.00  0.00     0.049 A 
ATOM     51  H   UNL     1      -2.231 -10.400  -2.120  1.00  0.00     0.167 HD
ATOM     52  C   UNL     1      -4.525 -13.073   0.509  1.00  0.00     0.031 A 
ATOM     53  C   UNL     1      -0.236  -9.782  -3.979  1.00  0.00     0.031 A 
ATOM     54  C   UNL     1      -3.724 -13.934  -0.319  1.00  0.00     0.049 A 
ATOM     55  C   UNL     1      -0.257 -11.278  -3.857  1.00  0.00     0.074 A 
ATOM     56  C   UNL     1      -3.707 -15.317  -0.360  1.00  0.00     0.029 A 
ATOM     57  N   UNL     1      -2.785 -13.495  -1.242  1.00  0.00    -0.354 N 
ATOM     58  N   UNL     1      -1.014 -12.030  -3.092  1.00  0.00    -0.248 NA
ATOM     59  C   UNL     1       0.685 -12.025  -4.699  1.00  0.00     0.031 C 
ATOM     60  C   UNL     1      -2.710 -15.713  -1.258  1.00  0.00     0.029 A 
ATOM     61  C   UNL     1      -2.153 -14.578  -1.827  1.00  0.00     0.049 A 
ATOM     62  H   UNL     1      -2.597 -12.551  -1.450  1.00  0.00     0.167 HD
ATOM     63  C   UNL     1      -0.647 -13.342  -3.369  1.00  0.00     0.074 A 
ATOM     64  C   UNL     1       0.381 -13.279  -4.390  1.00  0.00     0.031 C 
ATOM     65  C   UNL     1      -1.115 -14.493  -2.826  1.00  0.00     0.031 A 
BRANCH  52  66
ATOM     66  C   UNL     1      -5.406 -13.694   1.563  1.00  0.00    -0.014 A 
ATOM     67  C   UNL     1      -6.810 -13.628   1.481  1.00  0.00     0.010 A 
ATOM     68  C   UNL     1      -4.820 -14.373   2.648  1.00  0.00     0.010 A 
ATOM     69  C   UNL     1      -7.607 -14.178   2.488  1.00  0.00     0.020 A 
ATOM     70  C   UNL     1      -5.615 -14.953   3.641  1.00  0.00     0.020 A 
ATOM     71  C   UNL     1      -7.003 -14.833   3.566  1.00  0.00     0.054 A 
BRANCH  71  72
ATOM     72  S   UNL     1      -8.063 -15.541   4.856  1.00  0.00     0.124 S 
ATOM     73  O   UNL     1      -8.550 -14.342   5.535  1.00  0.00    -0.237 OA
ATOM     74  O   UNL     1      -9.062 -16.274   4.083  1.00  0.00    -0.237 OA
ATOM     75  O   UNL     1      -7.151 -16.371   5.638  1.00  0.00    -0.744 OA
ENDBRANCH  71  72
ENDBRANCH  52  66
BRANCH  53  76
ATOM     76  C   UNL     1       0.713  -9.085  -4.888  1.00  0.00    -0.014 A 
ATOM     77  C   UNL     1       0.544  -9.142  -6.282  1.00  0.00     0.010 A 
ATOM     78  C   UNL     1       1.758  -8.306  -4.356  1.00  0.00     0.010 A 
ATOM     79  C   UNL     1       1.402  -8.433  -7.128  1.00  0.00     0.020 A 
ATOM     80  C   UNL     1       2.599  -7.573  -5.197  1.00  0.00     0.020 A 
ATOM     81  C   UNL     1       2.418  -7.645  -6.579  1.00  0.00     0.054 A 
BRANCH  81  82
ATOM     82  S   UNL     1       3.461  -6.662  -7.692  1.00  0.00     0.124 S 
ATOM     83  O   UNL     1       4.283  -7.689  -8.324  1.00  0.00    -0.237 OA
ATOM     84  O   UNL     1       2.477  -6.017  -8.556  1.00  0.00    -0.237 OA
ATOM     85  O   UNL     1       4.170  -5.760  -6.787  1.00  0.00    -0.744 OA
ENDBRANCH  81  82
ENDBRANCH  53  76
BRANCH  65  86
ATOM     86  C   UNL     1      -0.518 -15.782  -3.325  1.00  0.00    -0.014 A 
ATOM     87  C   UNL     1       0.799 -16.147  -2.993  1.00  0.00     0.010 A 
ATOM     88  C   UNL     1      -1.303 -16.664  -4.089  1.00  0.00     0.010 A 
ATOM     89  C   UNL     1       1.330 -17.359  -3.442  1.00  0.00     0.020 A 
ATOM     90  C   UNL     1      -0.786 -17.891  -4.512  1.00  0.00     0.020 A 
ATOM     91  C   UNL     1       0.532 -18.224  -4.197  1.00  0.00     0.054 A 
BRANCH  91  92
ATOM     92  S   UNL     1       1.232 -19.811  -4.727  1.00  0.00     0.124 S 
ATOM     93  O   UNL     1       2.179 -19.396  -5.758  1.00  0.00    -0.237 OA
ATOM     94  O   UNL     1       1.827 -20.325  -3.496  1.00  0.00    -0.237 OA
ATOM     95  O   UNL     1       0.072 -20.557  -5.211  1.00  0.00    -0.744 OA
ENDBRANCH  91  92
ENDBRANCH  65  86
ENDBRANCH  39  40
ENDBRANCH  31  34
ENDBRANCH  29  30
ENDBRANCH  28  29
ENDBRANCH   1  28
TORSDOF 17
