REMARK SMILES CC(C)CN(C)c1cc2c(cc1Cl)C=C(C(=O)NCCCNC(=O)c1ccc(-c3c4nc(c(-c5ccc(S(=O)(=O)[O-])cc5)c5ccc([nH]5)c(-c5ccc(S(=O)(=O)[O-])cc5)c5nc(c(-c6ccc(S(=O)(=O)[O-])cc6)c6ccc3[nH]6)C=C5)C=C4)cc1)[C@H](C(F)(F)F)O2
REMARK SMILES IDX 20 1 19 2 18 3 16 4 17 5 15 7 7 8 8 9 12 10 9 11 11 12 13 13
REMARK SMILES IDX 10 14 90 15 14 16 85 17 5 18 6 19 4 20 2 21 1 22 3 23 86 24
REMARK SMILES IDX 87 25 88 26 89 27 21 28 22 29 23 30 24 32 25 33 26 34 84 35
REMARK SMILES IDX 27 36 83 37 28 38 29 39 30 40 77 41 31 42 82 43 76 44 78 45
REMARK SMILES IDX 32 46 81 47 75 48 74 49 33 51 63 52 44 53 62 54 45 55 48 56
REMARK SMILES IDX 61 57 79 58 46 59 47 60 60 62 80 63 49 64 34 65 35 66 43 67
REMARK SMILES IDX 36 68 42 69 37 70 38 71 39 72 40 73 41 74 64 75 65 76 73 77
REMARK SMILES IDX 66 78 72 79 67 80 68 81 69 82 70 83 71 84 50 85 51 86 59 87
REMARK SMILES IDX 52 88 58 89 53 90 54 91 55 92 56 93 57 94
REMARK H PARENT 18 6 22 31 78 50 48 61
REMARK Flexibility Score: inf
ROOT
ATOM      1  C   UNL     1      -4.155   8.905  -0.764  1.00  0.00     0.042 C 
ENDROOT
BRANCH   1   2
ATOM      2  C   UNL     1      -3.125   8.482  -1.805  1.00  0.00     0.118 C 
BRANCH   2   3
ATOM      3  N   UNL     1      -1.800   8.367  -1.218  1.00  0.00    -0.352 N 
ATOM      4  C   UNL     1      -0.973   7.351  -0.886  1.00  0.00     0.251 C 
ATOM      5  O   UNL     1       0.135   7.674  -0.449  1.00  0.00    -0.270 OA
ATOM      6  H   UNL     1      -1.409   9.246  -1.011  1.00  0.00     0.163 HD
BRANCH   4   7
ATOM      7  C   UNL     1      -1.308   5.910  -1.057  1.00  0.00     0.067 C 
ATOM      8  C   UNL     1      -0.834   0.918  -1.770  1.00  0.00     0.059 A 
ATOM      9  C   UNL     1      -1.897   1.784  -1.462  1.00  0.00     0.074 A 
ATOM     10  C   UNL     1       0.426   1.506  -2.015  1.00  0.00     0.065 A 
ATOM     11  C   UNL     1      -1.706   3.163  -1.356  1.00  0.00     0.130 A 
ATOM     12  C   UNL     1       0.631   2.879  -1.833  1.00  0.00     0.034 A 
ATOM     13  Cl  UNL     1       1.775   0.595  -2.606  1.00  0.00    -0.082 Cl
ATOM     14  C   UNL     1      -0.438   3.709  -1.497  1.00  0.00     0.019 A 
ATOM     15  O   UNL     1      -2.826   3.905  -1.135  1.00  0.00    -0.475 OA
ATOM     16  C   UNL     1      -0.243   5.136  -1.326  1.00  0.00     0.025 C 
ATOM     17  C   UNL     1      -2.687   5.331  -0.878  1.00  0.00     0.314 C 
BRANCH   8  18
ATOM     18  N   UNL     1      -1.040  -0.473  -1.800  1.00  0.00    -0.373 N 
ATOM     19  C   UNL     1      -2.119  -0.919  -2.681  1.00  0.00     0.143 C 
BRANCH  18  20
ATOM     20  C   UNL     1      -0.940  -1.172  -0.496  1.00  0.00     0.119 C 
BRANCH  20  21
ATOM     21  C   UNL     1       0.519  -1.408  -0.055  1.00  0.00     0.002 C 
ATOM     22  C   UNL     1       1.029  -0.306   0.880  1.00  0.00     0.009 C 
ATOM     23  C   UNL     1       0.681  -2.761   0.644  1.00  0.00     0.009 C 
ENDBRANCH  20  21
ENDBRANCH  18  20
ENDBRANCH   8  18
BRANCH  17  24
ATOM     24  C   UNL     1      -3.337   5.619   0.486  1.00  0.00     0.429 C 
ATOM     25  F   UNL     1      -3.277   4.559   1.322  1.00  0.00    -0.167 F 
ATOM     26  F   UNL     1      -2.776   6.664   1.132  1.00  0.00    -0.167 F 
ATOM     27  F   UNL     1      -4.650   5.921   0.313  1.00  0.00    -0.167 F 
ENDBRANCH  17  24
ENDBRANCH   4   7
ENDBRANCH   2   3
ENDBRANCH   1   2
BRANCH   1  28
ATOM     28  C   UNL     1      -4.002  10.360  -0.337  1.00  0.00     0.118 C 
BRANCH  28  29
ATOM     29  N   UNL     1      -4.487  11.281  -1.358  1.00  0.00    -0.352 N 
ATOM     30  C   UNL     1      -5.607  12.076  -1.363  1.00  0.00     0.251 C 
ATOM     31  H   UNL     1      -3.926  11.343  -2.166  1.00  0.00     0.163 HD
ATOM     32  O   UNL     1      -5.976  12.593  -2.419  1.00  0.00    -0.269 OA
BRANCH  30  33
ATOM     33  C   UNL     1      -6.379  12.290  -0.120  1.00  0.00     0.039 A 
ATOM     34  C   UNL     1      -5.726  12.475   1.098  1.00  0.00     0.014 A 
ATOM     35  C   UNL     1      -7.776  12.311  -0.170  1.00  0.00     0.014 A 
ATOM     36  C   UNL     1      -6.456  12.480   2.280  1.00  0.00     0.010 A 
ATOM     37  C   UNL     1      -8.512  12.435   1.014  1.00  0.00     0.010 A 
ATOM     38  C   UNL     1      -7.859  12.472   2.255  1.00  0.00    -0.014 A 
BRANCH  38  39
ATOM     39  C   UNL     1      -8.614  12.521   3.537  1.00  0.00     0.031 A 
ATOM     40  C   UNL     1      -9.538  11.399   3.933  1.00  0.00     0.074 A 
ATOM     41  C   UNL     1      -8.425  13.566   4.370  1.00  0.00     0.049 A 
ATOM     42  N   UNL     1     -10.267  11.283   5.014  1.00  0.00    -0.248 NA
ATOM     43  C   UNL     1      -9.667  10.264   3.004  1.00  0.00     0.031 C 
ATOM     44  C   UNL     1      -7.539  14.702   4.103  1.00  0.00     0.029 A 
ATOM     45  N   UNL     1      -8.936  13.833   5.616  1.00  0.00    -0.354 N 
ATOM     46  C   UNL     1     -10.952  10.080   4.886  1.00  0.00     0.074 A 
ATOM     47  C   UNL     1     -10.580   9.515   3.608  1.00  0.00     0.031 C 
ATOM     48  C   UNL     1      -7.518  15.506   5.174  1.00  0.00     0.029 A 
ATOM     49  C   UNL     1      -8.454  14.997   6.170  1.00  0.00     0.049 A 
ATOM     50  H   UNL     1      -9.585  13.248   6.069  1.00  0.00     0.167 HD
ATOM     51  C   UNL     1     -11.801   9.495   5.763  1.00  0.00     0.031 A 
ATOM     52  C   UNL     1      -8.739  15.606   7.339  1.00  0.00     0.031 A 
ATOM     53  C   UNL     1     -12.143  10.055   7.046  1.00  0.00     0.049 A 
ATOM     54  C   UNL     1      -9.720  14.959   8.274  1.00  0.00     0.074 A 
ATOM     55  C   UNL     1     -12.973   9.520   8.015  1.00  0.00     0.029 A 
ATOM     56  N   UNL     1     -11.676  11.263   7.543  1.00  0.00    -0.354 N 
ATOM     57  N   UNL     1     -10.346  13.814   8.139  1.00  0.00    -0.248 NA
ATOM     58  C   UNL     1     -10.034  15.677   9.516  1.00  0.00     0.031 C 
ATOM     59  C   UNL     1     -13.070  10.438   9.062  1.00  0.00     0.029 A 
ATOM     60  C   UNL     1     -12.230  11.506   8.789  1.00  0.00     0.049 A 
ATOM     61  H   UNL     1     -11.044  11.859   7.079  1.00  0.00     0.167 HD
ATOM     62  C   UNL     1     -11.120  13.668   9.284  1.00  0.00     0.074 A 
ATOM     63  C   UNL     1     -10.864  14.829  10.112  1.00  0.00     0.031 C 
ATOM     64  C   UNL     1     -11.969  12.664   9.610  1.00  0.00     0.031 A 
BRANCH  51  65
ATOM     65  C   UNL     1     -12.433   8.175   5.393  1.00  0.00    -0.014 A 
ATOM     66  C   UNL     1     -13.829   8.095   5.223  1.00  0.00     0.010 A 
ATOM     67  C   UNL     1     -11.675   6.990   5.360  1.00  0.00     0.010 A 
ATOM     68  C   UNL     1     -14.460   6.857   5.075  1.00  0.00     0.020 A 
ATOM     69  C   UNL     1     -12.299   5.752   5.179  1.00  0.00     0.020 A 
ATOM     70  C   UNL     1     -13.691   5.691   5.067  1.00  0.00     0.054 A 
BRANCH  70  71
ATOM     71  S   UNL     1     -14.533   4.089   4.930  1.00  0.00     0.124 S 
ATOM     72  O   UNL     1     -15.146   3.949   6.246  1.00  0.00    -0.237 OA
ATOM     73  O   UNL     1     -15.458   4.311   3.821  1.00  0.00    -0.237 OA
ATOM     74  O   UNL     1     -13.446   3.155   4.644  1.00  0.00    -0.744 OA
ENDBRANCH  70  71
ENDBRANCH  51  65
BRANCH  52  75
ATOM     75  C   UNL     1      -8.065  16.894   7.666  1.00  0.00    -0.014 A 
ATOM     76  C   UNL     1      -8.293  18.036   6.873  1.00  0.00     0.010 A 
ATOM     77  C   UNL     1      -7.114  16.963   8.699  1.00  0.00     0.010 A 
ATOM     78  C   UNL     1      -7.532  19.193   7.053  1.00  0.00     0.020 A 
ATOM     79  C   UNL     1      -6.376  18.134   8.908  1.00  0.00     0.020 A 
ATOM     80  C   UNL     1      -6.566  19.228   8.060  1.00  0.00     0.054 A 
BRANCH  80  81
ATOM     81  S   UNL     1      -5.539  20.714   8.226  1.00  0.00     0.124 S 
ATOM     82  O   UNL     1      -4.644  20.589   7.078  1.00  0.00    -0.237 OA
ATOM     83  O   UNL     1      -6.522  21.791   8.142  1.00  0.00    -0.237 OA
ATOM     84  O   UNL     1      -4.907  20.550   9.533  1.00  0.00    -0.744 OA
ENDBRANCH  80  81
ENDBRANCH  52  75
BRANCH  64  85
ATOM     85  C   UNL     1     -12.707  12.750  10.922  1.00  0.00    -0.014 A 
ATOM     86  C   UNL     1     -12.457  11.794  11.926  1.00  0.00     0.010 A 
ATOM     87  C   UNL     1     -13.750  13.675  11.102  1.00  0.00     0.010 A 
ATOM     88  C   UNL     1     -13.268  11.728  13.060  1.00  0.00     0.020 A 
ATOM     89  C   UNL     1     -14.542  13.634  12.253  1.00  0.00     0.020 A 
ATOM     90  C   UNL     1     -14.315  12.641  13.210  1.00  0.00     0.054 A 
BRANCH  90  91
ATOM     91  S   UNL     1     -15.394  12.500  14.661  1.00  0.00     0.124 S 
ATOM     92  O   UNL     1     -16.188  11.318  14.340  1.00  0.00    -0.237 OA
ATOM     93  O   UNL     1     -14.439  12.341  15.755  1.00  0.00    -0.237 OA
ATOM     94  O   UNL     1     -16.129  13.763  14.666  1.00  0.00    -0.744 OA
ENDBRANCH  90  91
ENDBRANCH  64  85
ENDBRANCH  38  39
ENDBRANCH  30  33
ENDBRANCH  28  29
ENDBRANCH   1  28
TORSDOF 17
