REMARK SMILES COc1ncccc1C(=O)N[C@@](C)(C(=O)NCCCNC(=O)c1ccc(-c2c3nc(c(-c4ccc(S(=O)(=O)[O-])cc4)c4ccc([nH]4)c(-c4ccc(S(=O)(=O)[O-])cc4)c4nc(c(-c5ccc(S(=O)(=O)[O-])cc5)c5ccc2[nH]5)C=C4)C=C3)cc1)C(F)(F)F
REMARK SMILES IDX 18 1 17 2 16 3 14 4 15 5 12 7 13 8 11 9 9 10 10 11 8 13 3 14
REMARK SMILES IDX 4 15 5 16 7 17 6 18 2 19 1 20 83 21 84 22 85 23 86 24 19 25
REMARK SMILES IDX 20 26 21 27 22 29 23 30 24 31 82 32 25 33 81 34 26 35 27 36
REMARK SMILES IDX 28 37 75 38 29 39 80 40 74 41 76 42 30 43 79 44 73 45 72 46
REMARK SMILES IDX 31 48 61 49 42 50 60 51 43 52 46 53 59 54 77 55 44 56 45 57
REMARK SMILES IDX 58 59 78 60 47 61 32 62 33 63 41 64 34 65 40 66 35 67 36 68
REMARK SMILES IDX 37 69 38 70 39 71 62 72 63 73 71 74 64 75 70 76 65 77 66 78
REMARK SMILES IDX 67 79 68 80 69 81 48 82 49 83 57 84 50 85 56 86 51 87 52 88
REMARK SMILES IDX 53 89 54 90 55 91
REMARK H PARENT 16 6 11 12 20 28 76 47 46 58
REMARK Flexibility Score: inf
ROOT
ATOM      1  C   UNL     1       7.905   0.257   0.881  1.00  0.00     0.042 C 
ENDROOT
BRANCH   1   2
ATOM      2  C   UNL     1       7.648  -1.180   0.451  1.00  0.00     0.117 C 
BRANCH   2   3
ATOM      3  N   UNL     1       7.483  -2.082   1.579  1.00  0.00    -0.354 N 
ATOM      4  C   UNL     1       6.585  -3.049   1.909  1.00  0.00     0.254 C 
ATOM      5  O   UNL     1       6.807  -3.586   2.999  1.00  0.00    -0.272 OA
ATOM      6  H   UNL     1       8.182  -1.966   2.262  1.00  0.00     0.163 HD
BRANCH   4   7
ATOM      7  C   UNL     1       5.318  -3.367   1.075  1.00  0.00     0.212 C 
ATOM      8  C   UNL     1       5.632  -3.635  -0.408  1.00  0.00     0.056 C 
BRANCH   7   9
ATOM      9  N   UNL     1       4.498  -2.110   1.238  1.00  0.00    -0.330 N 
ATOM     10  C   UNL     1       3.259  -1.560   1.400  1.00  0.00     0.257 C 
ATOM     11  O   UNL     1       3.315  -0.326   1.372  1.00  0.00    -0.269 OA
ATOM     12  H   UNL     1       5.135  -1.359   1.219  1.00  0.00     0.165 HD
BRANCH  10  13
ATOM     13  C   UNL     1       1.934  -2.210   1.608  1.00  0.00     0.101 A 
ATOM     14  C   UNL     1       0.747  -1.482   1.423  1.00  0.00     0.226 A 
ATOM     15  N   UNL     1      -0.509  -1.966   1.641  1.00  0.00    -0.221 NA
ATOM     16  C   UNL     1      -0.617  -3.229   2.081  1.00  0.00     0.115 A 
ATOM     17  C   UNL     1       1.752  -3.501   2.089  1.00  0.00     0.021 A 
ATOM     18  C   UNL     1       0.477  -4.031   2.314  1.00  0.00     0.021 A 
BRANCH  14  19
ATOM     19  O   UNL     1       0.744  -0.149   1.109  1.00  0.00    -0.480 OA
ATOM     20  C   UNL     1       0.630   0.017  -0.297  1.00  0.00     0.280 C 
ENDBRANCH  14  19
ENDBRANCH  10  13
ENDBRANCH   7   9
BRANCH   7  21
ATOM     21  C   UNL     1       4.834  -4.710   1.650  1.00  0.00     0.420 C 
ATOM     22  F   UNL     1       4.443  -4.653   2.939  1.00  0.00    -0.168 F 
ATOM     23  F   UNL     1       3.781  -5.180   0.927  1.00  0.00    -0.168 F 
ATOM     24  F   UNL     1       5.786  -5.674   1.556  1.00  0.00    -0.168 F 
ENDBRANCH   7  21
ENDBRANCH   4   7
ENDBRANCH   2   3
ENDBRANCH   1   2
BRANCH   1  25
ATOM     25  C   UNL     1       9.043   0.444   1.874  1.00  0.00     0.118 C 
BRANCH  25  26
ATOM     26  N   UNL     1      10.322  -0.051   1.385  1.00  0.00    -0.352 N 
ATOM     27  C   UNL     1      11.495   0.632   1.150  1.00  0.00     0.251 C 
ATOM     28  H   UNL     1      10.353  -1.016   1.195  1.00  0.00     0.163 HD
ATOM     29  O   UNL     1      12.420   0.072   0.580  1.00  0.00    -0.269 OA
BRANCH  27  30
ATOM     30  C   UNL     1      11.612   2.048   1.562  1.00  0.00     0.039 A 
ATOM     31  C   UNL     1      12.169   2.970   0.673  1.00  0.00     0.014 A 
ATOM     32  C   UNL     1      11.148   2.468   2.810  1.00  0.00     0.014 A 
ATOM     33  C   UNL     1      12.186   4.326   1.009  1.00  0.00     0.010 A 
ATOM     34  C   UNL     1      11.068   3.825   3.096  1.00  0.00     0.010 A 
ATOM     35  C   UNL     1      11.595   4.770   2.204  1.00  0.00    -0.014 A 
BRANCH  35  36
ATOM     36  C   UNL     1      11.527   6.214   2.545  1.00  0.00     0.031 A 
ATOM     37  C   UNL     1      12.203   6.728   3.789  1.00  0.00     0.074 A 
ATOM     38  C   UNL     1      10.806   7.051   1.771  1.00  0.00     0.049 A 
ATOM     39  N   UNL     1      12.222   7.942   4.275  1.00  0.00    -0.248 NA
ATOM     40  C   UNL     1      12.928   5.744   4.611  1.00  0.00     0.031 C 
ATOM     41  C   UNL     1      10.061   6.667   0.570  1.00  0.00     0.029 A 
ATOM     42  N   UNL     1      10.580   8.401   1.881  1.00  0.00    -0.354 N 
ATOM     43  C   UNL     1      12.941   7.863   5.463  1.00  0.00     0.074 A 
ATOM     44  C   UNL     1      13.285   6.473   5.657  1.00  0.00     0.031 C 
ATOM     45  C   UNL     1       9.496   7.760   0.033  1.00  0.00     0.029 A 
ATOM     46  C   UNL     1       9.797   8.914   0.873  1.00  0.00     0.049 A 
ATOM     47  H   UNL     1      10.944   8.950   2.612  1.00  0.00     0.167 HD
ATOM     48  C   UNL     1      13.305   8.859   6.304  1.00  0.00     0.031 A 
ATOM     49  C   UNL     1       9.368  10.171   0.650  1.00  0.00     0.031 A 
ATOM     50  C   UNL     1      12.969  10.243   6.101  1.00  0.00     0.049 A 
ATOM     51  C   UNL     1       9.779  11.262   1.601  1.00  0.00     0.074 A 
ATOM     52  C   UNL     1      13.339  11.338   6.860  1.00  0.00     0.029 A 
ATOM     53  N   UNL     1      12.181  10.721   5.064  1.00  0.00    -0.354 N 
ATOM     54  N   UNL     1      10.524  11.178   2.678  1.00  0.00    -0.248 NA
ATOM     55  C   UNL     1       9.303  12.619   1.300  1.00  0.00     0.031 C 
ATOM     56  C   UNL     1      12.726  12.472   6.316  1.00  0.00     0.029 A 
ATOM     57  C   UNL     1      12.031  12.092   5.179  1.00  0.00     0.049 A 
ATOM     58  H   UNL     1      11.787  10.167   4.352  1.00  0.00     0.167 HD
ATOM     59  C   UNL     1      10.629  12.476   3.167  1.00  0.00     0.074 A 
ATOM     60  C   UNL     1       9.885  13.325   2.260  1.00  0.00     0.031 C 
ATOM     61  C   UNL     1      11.285  12.924   4.267  1.00  0.00     0.031 A 
BRANCH  48  62
ATOM     62  C   UNL     1      14.106   8.482   7.524  1.00  0.00    -0.014 A 
ATOM     63  C   UNL     1      15.426   8.005   7.410  1.00  0.00     0.010 A 
ATOM     64  C   UNL     1      13.543   8.631   8.805  1.00  0.00     0.010 A 
ATOM     65  C   UNL     1      16.148   7.637   8.549  1.00  0.00     0.020 A 
ATOM     66  C   UNL     1      14.274   8.295   9.949  1.00  0.00     0.020 A 
ATOM     67  C   UNL     1      15.566   7.782   9.811  1.00  0.00     0.054 A 
BRANCH  67  68
ATOM     68  S   UNL     1      16.533   7.311  11.271  1.00  0.00     0.124 S 
ATOM     69  O   UNL     1      16.542   5.854  11.169  1.00  0.00    -0.237 OA
ATOM     70  O   UNL     1      17.816   7.965  11.028  1.00  0.00    -0.237 OA
ATOM     71  O   UNL     1      15.762   7.852  12.388  1.00  0.00    -0.744 OA
ENDBRANCH  67  68
ENDBRANCH  48  62
BRANCH  49  72
ATOM     72  C   UNL     1       8.523  10.469  -0.540  1.00  0.00    -0.014 A 
ATOM     73  C   UNL     1       9.038  11.216  -1.614  1.00  0.00     0.010 A 
ATOM     74  C   UNL     1       7.203   9.987  -0.617  1.00  0.00     0.010 A 
ATOM     75  C   UNL     1       8.247  11.490  -2.733  1.00  0.00     0.020 A 
ATOM     76  C   UNL     1       6.418  10.232  -1.748  1.00  0.00     0.020 A 
ATOM     77  C   UNL     1       6.943  10.991  -2.795  1.00  0.00     0.054 A 
BRANCH  77  78
ATOM     78  S   UNL     1       5.956  11.309  -4.285  1.00  0.00     0.124 S 
ATOM     79  O   UNL     1       5.659  12.732  -4.155  1.00  0.00    -0.237 OA
ATOM     80  O   UNL     1       6.881  10.950  -5.357  1.00  0.00    -0.237 OA
ATOM     81  O   UNL     1       4.811  10.413  -4.134  1.00  0.00    -0.744 OA
ENDBRANCH  77  78
ENDBRANCH  49  72
BRANCH  61  82
ATOM     82  C   UNL     1      11.260  14.405   4.535  1.00  0.00    -0.014 A 
ATOM     83  C   UNL     1      10.089  15.052   4.968  1.00  0.00     0.010 A 
ATOM     84  C   UNL     1      12.447  15.150   4.406  1.00  0.00     0.010 A 
ATOM     85  C   UNL     1      10.099  16.423   5.238  1.00  0.00     0.020 A 
ATOM     86  C   UNL     1      12.468  16.514   4.705  1.00  0.00     0.020 A 
ATOM     87  C   UNL     1      11.290  17.145   5.105  1.00  0.00     0.054 A 
BRANCH  87  88
ATOM     88  S   UNL     1      11.286  18.914   5.505  1.00  0.00     0.124 S 
ATOM     89  O   UNL     1      10.549  19.479   4.378  1.00  0.00    -0.237 OA
ATOM     90  O   UNL     1      10.592  18.950   6.791  1.00  0.00    -0.237 OA
ATOM     91  O   UNL     1      12.704  19.261   5.559  1.00  0.00    -0.744 OA
ENDBRANCH  87  88
ENDBRANCH  61  82
ENDBRANCH  35  36
ENDBRANCH  27  30
ENDBRANCH  25  26
ENDBRANCH   1  25
TORSDOF 17
