REMARK SMILES Cc1cc(C(=O)NCCCNC(=O)c2ccc(-c3c4nc(c(-c5ccc(S(=O)(=O)[O-])cc5)c5ccc([nH]5)c(-c5ccc(S(=O)(=O)[O-])cc5)c5nc(c(-c6ccc(S(=O)(=O)[O-])cc6)c6ccc3[nH]6)C=C5)C=C4)cc2)cc(C)c1OC[C@H]1C[N@@H+](C)CCO1
REMARK SMILES IDX 9 1 8 2 7 3 5 4 6 5 4 7 1 8 2 9 3 10 77 11 75 12 74 13 76 14
REMARK SMILES IDX 78 15 79 16 80 17 81 18 86 19 82 20 85 21 83 22 84 23 10 25
REMARK SMILES IDX 11 26 12 27 13 29 14 30 15 31 73 32 16 33 72 34 17 35 18 36
REMARK SMILES IDX 19 37 66 38 20 39 71 40 65 41 67 42 21 43 70 44 64 45 63 46
REMARK SMILES IDX 22 48 52 49 33 50 51 51 34 52 37 53 50 54 68 55 35 56 36 57
REMARK SMILES IDX 49 59 69 60 38 61 23 62 24 63 32 64 25 65 31 66 26 67 27 68
REMARK SMILES IDX 28 69 29 70 30 71 53 72 54 73 62 74 55 75 61 76 56 77 57 78
REMARK SMILES IDX 58 79 59 80 60 81 39 82 40 83 48 84 41 85 47 86 42 87 43 88
REMARK SMILES IDX 44 89 45 90 46 91
REMARK H PARENT 7 6 82 24 11 28 67 47 37 58
REMARK Flexibility Score: inf
ROOT
ATOM      1  C   UNL     1       9.540  -6.453   1.541  1.00  0.00     0.042 C 
ENDROOT
BRANCH   1   2
ATOM      2  C   UNL     1       8.252  -5.807   2.026  1.00  0.00     0.118 C 
BRANCH   2   3
ATOM      3  N   UNL     1       8.463  -4.545   2.718  1.00  0.00    -0.352 N 
ATOM      4  C   UNL     1       8.059  -3.265   2.438  1.00  0.00     0.251 C 
ATOM      5  O   UNL     1       8.469  -2.352   3.157  1.00  0.00    -0.269 OA
ATOM      6  H   UNL     1       8.997  -4.624   3.541  1.00  0.00     0.163 HD
BRANCH   4   7
ATOM      7  C   UNL     1       7.192  -2.937   1.281  1.00  0.00     0.040 A 
ATOM      8  C   UNL     1       7.211  -0.103  -1.186  1.00  0.00     0.048 C 
ATOM      9  C   UNL     1       6.718  -1.363  -0.546  1.00  0.00    -0.008 A 
ATOM     10  C   UNL     1       7.442  -1.742   0.608  1.00  0.00     0.021 A 
ATOM     11  C   UNL     1       5.682  -2.194  -1.005  1.00  0.00     0.125 A 
ATOM     12  C   UNL     1       5.454  -3.424  -0.343  1.00  0.00    -0.008 A 
ATOM     13  C   UNL     1       6.160  -3.748   0.830  1.00  0.00     0.021 A 
ATOM     14  C   UNL     1       4.575  -4.503  -0.928  1.00  0.00     0.048 C 
BRANCH  11  15
ATOM     15  O   UNL     1       4.881  -1.999  -2.094  1.00  0.00    -0.490 OA
BRANCH  15  16
ATOM     16  C   UNL     1       4.309  -0.728  -2.439  1.00  0.00     0.267 C 
BRANCH  16  17
ATOM     17  C   UNL     1       3.687   0.100  -1.296  1.00  0.00     0.210 C 
ATOM     18  C   UNL     1       4.208   1.550  -1.340  1.00  0.00     0.298 C 
ATOM     19  O   UNL     1       2.244   0.178  -1.454  1.00  0.00    -0.363 OA
ATOM     20  N   UNL     1       3.762   2.225  -0.112  1.00  0.00    -0.333 N 
ATOM     21  C   UNL     1       1.657   0.932  -0.373  1.00  0.00     0.222 C 
ATOM     22  C   UNL     1       4.429   3.502   0.080  1.00  0.00     0.332 C 
ATOM     23  C   UNL     1       2.296   2.328  -0.173  1.00  0.00     0.290 C 
ATOM     24  H   UNL     1       4.021   1.684   0.713  1.00  0.00     0.348 HD
ENDBRANCH  16  17
ENDBRANCH  15  16
ENDBRANCH  11  15
ENDBRANCH   4   7
ENDBRANCH   2   3
ENDBRANCH   1   2
BRANCH   1  25
ATOM     25  C   UNL     1      10.547  -6.759   2.638  1.00  0.00     0.118 C 
BRANCH  25  26
ATOM     26  N   UNL     1      10.011  -7.642   3.667  1.00  0.00    -0.352 N 
ATOM     27  C   UNL     1      10.223  -8.975   3.906  1.00  0.00     0.251 C 
ATOM     28  H   UNL     1       9.393  -7.207   4.298  1.00  0.00     0.163 HD
ATOM     29  O   UNL     1       9.484  -9.565   4.704  1.00  0.00    -0.269 OA
BRANCH  27  30
ATOM     30  C   UNL     1      11.299  -9.717   3.217  1.00  0.00     0.039 A 
ATOM     31  C   UNL     1      11.080 -11.044   2.835  1.00  0.00     0.014 A 
ATOM     32  C   UNL     1      12.541  -9.127   2.978  1.00  0.00     0.014 A 
ATOM     33  C   UNL     1      12.080 -11.749   2.160  1.00  0.00     0.010 A 
ATOM     34  C   UNL     1      13.489  -9.786   2.205  1.00  0.00     0.010 A 
ATOM     35  C   UNL     1      13.282 -11.114   1.807  1.00  0.00    -0.014 A 
BRANCH  35  36
ATOM     36  C   UNL     1      14.352 -11.823   1.060  1.00  0.00     0.031 A 
ATOM     37  C   UNL     1      15.719 -11.984   1.677  1.00  0.00     0.074 A 
ATOM     38  C   UNL     1      14.120 -12.258  -0.194  1.00  0.00     0.049 A 
ATOM     39  N   UNL     1      16.804 -12.500   1.159  1.00  0.00    -0.248 NA
ATOM     40  C   UNL     1      15.901 -11.464   3.044  1.00  0.00     0.031 C 
ATOM     41  C   UNL     1      12.856 -12.115  -0.923  1.00  0.00     0.029 A 
ATOM     42  N   UNL     1      14.941 -12.906  -1.082  1.00  0.00    -0.354 N 
ATOM     43  C   UNL     1      17.796 -12.339   2.120  1.00  0.00     0.074 A 
ATOM     44  C   UNL     1      17.202 -11.626   3.228  1.00  0.00     0.031 C 
ATOM     45  C   UNL     1      12.976 -12.691  -2.130  1.00  0.00     0.029 A 
ATOM     46  C   UNL     1      14.333 -13.206  -2.279  1.00  0.00     0.049 A 
ATOM     47  H   UNL     1      15.877 -13.136  -0.881  1.00  0.00     0.167 HD
ATOM     48  C   UNL     1      19.080 -12.770   2.097  1.00  0.00     0.031 A 
ATOM     49  C   UNL     1      14.815 -13.825  -3.374  1.00  0.00     0.031 A 
ATOM     50  C   UNL     1      19.659 -13.506   1.006  1.00  0.00     0.049 A 
ATOM     51  C   UNL     1      16.237 -14.316  -3.368  1.00  0.00     0.074 A 
ATOM     52  C   UNL     1      20.929 -14.044   0.907  1.00  0.00     0.029 A 
ATOM     53  N   UNL     1      18.999 -13.816  -0.174  1.00  0.00    -0.354 N 
ATOM     54  N   UNL     1      17.142 -14.207  -2.424  1.00  0.00    -0.248 NA
ATOM     55  C   UNL     1      16.697 -15.028  -4.567  1.00  0.00     0.031 C 
ATOM     56  C   UNL     1      21.053 -14.642  -0.351  1.00  0.00     0.029 A 
ATOM     57  C   UNL     1      19.841 -14.525  -1.013  1.00  0.00     0.049 A 
ATOM     58  H   UNL     1      18.070 -13.568  -0.384  1.00  0.00     0.167 HD
ATOM     59  C   UNL     1      18.269 -14.864  -2.904  1.00  0.00     0.074 A 
ATOM     60  C   UNL     1      17.926 -15.378  -4.215  1.00  0.00     0.031 C 
ATOM     61  C   UNL     1      19.479 -15.028  -2.314  1.00  0.00     0.031 A 
BRANCH  48  62
ATOM     62  C   UNL     1      19.942 -12.455   3.293  1.00  0.00    -0.014 A 
ATOM     63  C   UNL     1      19.706 -13.064   4.540  1.00  0.00     0.010 A 
ATOM     64  C   UNL     1      21.019 -11.560   3.165  1.00  0.00     0.010 A 
ATOM     65  C   UNL     1      20.498 -12.747   5.646  1.00  0.00     0.020 A 
ATOM     66  C   UNL     1      21.834 -11.264   4.262  1.00  0.00     0.020 A 
ATOM     67  C   UNL     1      21.556 -11.845   5.501  1.00  0.00     0.054 A 
BRANCH  67  68
ATOM     68  S   UNL     1      22.582 -11.468   6.949  1.00  0.00     0.124 S 
ATOM     69  O   UNL     1      21.689 -10.621   7.736  1.00  0.00    -0.237 OA
ATOM     70  O   UNL     1      22.847 -12.791   7.507  1.00  0.00    -0.237 OA
ATOM     71  O   UNL     1      23.745 -10.789   6.383  1.00  0.00    -0.744 OA
ENDBRANCH  67  68
ENDBRANCH  48  62
BRANCH  49  72
ATOM     72  C   UNL     1      13.933 -14.043  -4.554  1.00  0.00    -0.014 A 
ATOM     73  C   UNL     1      13.478 -15.335  -4.874  1.00  0.00     0.010 A 
ATOM     74  C   UNL     1      13.529 -12.959  -5.354  1.00  0.00     0.010 A 
ATOM     75  C   UNL     1      12.653 -15.542  -5.983  1.00  0.00     0.020 A 
ATOM     76  C   UNL     1      12.681 -13.158  -6.447  1.00  0.00     0.020 A 
ATOM     77  C   UNL     1      12.258 -14.451  -6.762  1.00  0.00     0.054 A 
BRANCH  77  78
ATOM     78  S   UNL     1      11.145 -14.736  -8.167  1.00  0.00     0.124 S 
ATOM     79  O   UNL     1      12.037 -15.357  -9.140  1.00  0.00    -0.237 OA
ATOM     80  O   UNL     1      10.127 -15.612  -7.590  1.00  0.00    -0.237 OA
ATOM     81  O   UNL     1      10.678 -13.395  -8.510  1.00  0.00    -0.744 OA
ENDBRANCH  77  78
ENDBRANCH  49  72
BRANCH  61  82
ATOM     82  C   UNL     1      20.508 -15.830  -3.065  1.00  0.00    -0.014 A 
ATOM     83  C   UNL     1      21.144 -15.317  -4.209  1.00  0.00     0.010 A 
ATOM     84  C   UNL     1      20.874 -17.103  -2.588  1.00  0.00     0.010 A 
ATOM     85  C   UNL     1      22.098 -16.080  -4.886  1.00  0.00     0.020 A 
ATOM     86  C   UNL     1      21.848 -17.856  -3.246  1.00  0.00     0.020 A 
ATOM     87  C   UNL     1      22.442 -17.346  -4.402  1.00  0.00     0.054 A 
BRANCH  87  88
ATOM     88  S   UNL     1      23.704 -18.305  -5.282  1.00  0.00     0.124 S 
ATOM     89  O   UNL     1      22.974 -18.754  -6.465  1.00  0.00    -0.237 OA
ATOM     90  O   UNL     1      24.748 -17.313  -5.527  1.00  0.00    -0.237 OA
ATOM     91  O   UNL     1      24.063 -19.357  -4.335  1.00  0.00    -0.744 OA
ENDBRANCH  87  88
ENDBRANCH  61  82
ENDBRANCH  35  36
ENDBRANCH  27  30
ENDBRANCH  25  26
ENDBRANCH   1  25
TORSDOF 16
