REMARK SMILES O=C(NCCCNC(=O)[C@]1(CCc2cccnc2)CCC[NH2+]C1)c1ccc(-c2c3nc(c(-c4ccc(S(=O)(=O)[O-])cc4)c4ccc([nH]4)c(-c4ccc(S(=O)(=O)[O-])cc4)c4nc(c(-c5ccc(S(=O)(=O)[O-])cc5)c5ccc2[nH]5)C=C4)C=C3)cc1
REMARK SMILES IDX 5 1 4 2 3 3 1 4 2 5 24 7 25 8 83 9 26 10 82 11 27 12 28 13
REMARK SMILES IDX 29 14 76 15 30 16 81 17 75 18 77 19 31 20 80 21 74 22 73 23
REMARK SMILES IDX 32 25 62 26 43 27 61 28 44 29 47 30 60 31 78 32 45 33 46 34
REMARK SMILES IDX 59 36 79 37 48 38 33 39 34 40 42 41 35 42 41 43 36 44 37 45
REMARK SMILES IDX 38 46 39 47 40 48 63 49 64 50 72 51 65 52 71 53 66 54 67 55
REMARK SMILES IDX 68 56 69 57 70 58 49 59 50 60 58 61 51 62 57 63 52 64 53 65
REMARK SMILES IDX 54 66 55 67 56 68 6 69 7 70 8 71 9 73 10 74 19 75 23 76
REMARK SMILES IDX 20 77 22 78 21 79 11 82 12 83 13 84 14 85 18 86 15 87 17 88
REMARK SMILES IDX 16 89
REMARK H PARENT 3 6 77 24 47 35 7 72 22 80 22 81
REMARK Flexibility Score: inf
ROOT
ATOM      1  C   UNL     1       5.406   0.497  -2.103  1.00  0.00     0.042 C 
ENDROOT
BRANCH   1   2
ATOM      2  C   UNL     1       4.883   0.570  -0.677  1.00  0.00     0.118 C 
BRANCH   2   3
ATOM      3  N   UNL     1       3.420   0.600  -0.593  1.00  0.00    -0.352 N 
ATOM      4  O   UNL     1       1.349  -0.183  -0.121  1.00  0.00    -0.269 OA
ATOM      5  C   UNL     1       2.563  -0.280   0.029  1.00  0.00     0.251 C 
ATOM      6  H   UNL     1       2.988   1.358  -1.048  1.00  0.00     0.163 HD
BRANCH   5   7
ATOM      7  C   UNL     1       3.144  -1.355   0.855  1.00  0.00     0.039 A 
ATOM      8  C   UNL     1       4.178  -1.039   1.734  1.00  0.00     0.014 A 
ATOM      9  C   UNL     1       2.747  -2.681   0.671  1.00  0.00     0.014 A 
ATOM     10  C   UNL     1       4.973  -2.056   2.228  1.00  0.00     0.010 A 
ATOM     11  C   UNL     1       3.467  -3.705   1.294  1.00  0.00     0.010 A 
ATOM     12  C   UNL     1       4.621  -3.403   2.031  1.00  0.00    -0.014 A 
BRANCH  12  13
ATOM     13  C   UNL     1       5.481  -4.444   2.653  1.00  0.00     0.031 A 
ATOM     14  C   UNL     1       6.212  -5.465   1.822  1.00  0.00     0.074 A 
ATOM     15  C   UNL     1       5.677  -4.380   3.986  1.00  0.00     0.049 A 
ATOM     16  N   UNL     1       7.046  -6.393   2.219  1.00  0.00    -0.248 NA
ATOM     17  C   UNL     1       5.978  -5.459   0.369  1.00  0.00     0.031 C 
ATOM     18  C   UNL     1       5.016  -3.429   4.888  1.00  0.00     0.029 A 
ATOM     19  N   UNL     1       6.526  -5.073   4.806  1.00  0.00    -0.354 N 
ATOM     20  C   UNL     1       7.407  -7.101   1.078  1.00  0.00     0.074 A 
ATOM     21  C   UNL     1       6.697  -6.501  -0.030  1.00  0.00     0.031 C 
ATOM     22  C   UNL     1       5.558  -3.529   6.108  1.00  0.00     0.029 A 
ATOM     23  C   UNL     1       6.531  -4.611   6.101  1.00  0.00     0.049 A 
ATOM     24  H   UNL     1       7.078  -5.829   4.499  1.00  0.00     0.167 HD
ATOM     25  C   UNL     1       8.251  -8.156   0.970  1.00  0.00     0.031 A 
ATOM     26  C   UNL     1       7.229  -5.019   7.175  1.00  0.00     0.031 A 
ATOM     27  C   UNL     1       8.968  -8.732   2.079  1.00  0.00     0.049 A 
ATOM     28  C   UNL     1       8.174  -6.170   7.019  1.00  0.00     0.074 A 
ATOM     29  C   UNL     1       9.835  -9.812   2.080  1.00  0.00     0.029 A 
ATOM     30  N   UNL     1       8.914  -8.264   3.384  1.00  0.00    -0.354 N 
ATOM     31  N   UNL     1       8.465  -6.849   5.935  1.00  0.00    -0.248 NA
ATOM     32  C   UNL     1       8.869  -6.621   8.229  1.00  0.00     0.031 C 
ATOM     33  C   UNL     1      10.281 -10.015   3.392  1.00  0.00     0.029 A 
ATOM     34  C   UNL     1       9.726  -9.036   4.199  1.00  0.00     0.049 A 
ATOM     35  H   UNL     1       8.377  -7.496   3.687  1.00  0.00     0.167 HD
ATOM     36  C   UNL     1       9.366  -7.825   6.337  1.00  0.00     0.074 A 
ATOM     37  C   UNL     1       9.606  -7.615   7.752  1.00  0.00     0.031 C 
ATOM     38  C   UNL     1       9.928  -8.819   5.607  1.00  0.00     0.031 A 
BRANCH  25  39
ATOM     39  C   UNL     1       8.430  -8.780  -0.389  1.00  0.00    -0.014 A 
ATOM     40  C   UNL     1       9.215  -8.162  -1.379  1.00  0.00     0.010 A 
ATOM     41  C   UNL     1       7.862 -10.040  -0.657  1.00  0.00     0.010 A 
ATOM     42  C   UNL     1       9.411  -8.782  -2.617  1.00  0.00     0.020 A 
ATOM     43  C   UNL     1       8.071 -10.673  -1.887  1.00  0.00     0.020 A 
ATOM     44  C   UNL     1       8.836 -10.033  -2.864  1.00  0.00     0.054 A 
BRANCH  44  45
ATOM     45  S   UNL     1       9.139 -10.835  -4.465  1.00  0.00     0.124 S 
ATOM     46  O   UNL     1       8.270 -10.068  -5.354  1.00  0.00    -0.237 OA
ATOM     47  O   UNL     1      10.572 -10.631  -4.661  1.00  0.00    -0.237 OA
ATOM     48  O   UNL     1       8.735 -12.220  -4.241  1.00  0.00    -0.744 OA
ENDBRANCH  44  45
ENDBRANCH  25  39
BRANCH  26  49
ATOM     49  C   UNL     1       7.010  -4.360   8.489  1.00  0.00    -0.014 A 
ATOM     50  C   UNL     1       8.002  -3.550   9.066  1.00  0.00     0.010 A 
ATOM     51  C   UNL     1       5.776  -4.510   9.149  1.00  0.00     0.010 A 
ATOM     52  C   UNL     1       7.766  -2.908  10.286  1.00  0.00     0.020 A 
ATOM     53  C   UNL     1       5.526  -3.846  10.350  1.00  0.00     0.020 A 
ATOM     54  C   UNL     1       6.528  -3.059  10.919  1.00  0.00     0.054 A 
BRANCH  54  55
ATOM     55  S   UNL     1       6.207  -2.170  12.467  1.00  0.00     0.124 S 
ATOM     56  O   UNL     1       6.824  -3.049  13.453  1.00  0.00    -0.237 OA
ATOM     57  O   UNL     1       6.878  -0.890  12.249  1.00  0.00    -0.237 OA
ATOM     58  O   UNL     1       4.748  -2.095  12.515  1.00  0.00    -0.744 OA
ENDBRANCH  54  55
ENDBRANCH  26  49
BRANCH  38  59
ATOM     59  C   UNL     1      10.846  -9.748   6.346  1.00  0.00    -0.014 A 
ATOM     60  C   UNL     1      10.328 -10.719   7.223  1.00  0.00     0.010 A 
ATOM     61  C   UNL     1      12.236  -9.644   6.171  1.00  0.00     0.010 A 
ATOM     62  C   UNL     1      11.191 -11.539   7.951  1.00  0.00     0.020 A 
ATOM     63  C   UNL     1      13.101 -10.479   6.883  1.00  0.00     0.020 A 
ATOM     64  C   UNL     1      12.572 -11.406   7.784  1.00  0.00     0.054 A 
BRANCH  64  65
ATOM     65  S   UNL     1      13.678 -12.479   8.740  1.00  0.00     0.124 S 
ATOM     66  O   UNL     1      13.682 -11.822  10.044  1.00  0.00    -0.237 OA
ATOM     67  O   UNL     1      12.999 -13.772   8.690  1.00  0.00    -0.237 OA
ATOM     68  O   UNL     1      14.938 -12.416   8.004  1.00  0.00    -0.744 OA
ENDBRANCH  64  65
ENDBRANCH  38  59
ENDBRANCH  12  13
ENDBRANCH   5   7
ENDBRANCH   2   3
ENDBRANCH   1   2
BRANCH   1  69
ATOM     69  C   UNL     1       4.981   1.686  -2.932  1.00  0.00     0.117 C 
BRANCH  69  70
ATOM     70  N   UNL     1       5.562   2.927  -2.463  1.00  0.00    -0.355 N 
ATOM     71  C   UNL     1       6.114   3.999  -3.082  1.00  0.00     0.231 C 
ATOM     72  H   UNL     1       5.553   3.010  -1.482  1.00  0.00     0.163 HD
ATOM     73  O   UNL     1       6.309   4.977  -2.351  1.00  0.00    -0.274 OA
BRANCH  71  74
ATOM     74  C   UNL     1       6.379   4.068  -4.598  1.00  0.00     0.098 C 
ATOM     75  C   UNL     1       7.065   2.819  -5.209  1.00  0.00     0.028 C 
ATOM     76  C   UNL     1       7.427   5.218  -4.831  1.00  0.00     0.277 C 
ATOM     77  C   UNL     1       8.407   2.533  -4.529  1.00  0.00     0.063 C 
ATOM     78  N   UNL     1       8.751   4.963  -4.255  1.00  0.00    -0.345 N 
ATOM     79  C   UNL     1       9.355   3.716  -4.701  1.00  0.00     0.260 C 
ATOM     80  H   UNL     1       9.369   5.731  -4.516  1.00  0.00     0.346 HD
ATOM     81  H   UNL     1       8.627   4.888  -3.245  1.00  0.00     0.346 HD
BRANCH  74  82
ATOM     82  C   UNL     1       5.082   4.491  -5.377  1.00  0.00     0.028 C 
BRANCH  82  83
ATOM     83  C   UNL     1       3.690   3.939  -4.995  1.00  0.00     0.038 C 
BRANCH  83  84
ATOM     84  C   UNL     1       3.033   4.394  -3.709  1.00  0.00    -0.030 A 
ATOM     85  C   UNL     1       2.071   3.582  -3.088  1.00  0.00     0.007 A 
ATOM     86  C   UNL     1       3.313   5.601  -3.077  1.00  0.00     0.114 A 
ATOM     87  C   UNL     1       1.536   3.936  -1.851  1.00  0.00     0.020 A 
ATOM     88  N   UNL     1       2.779   5.992  -1.894  1.00  0.00    -0.264 NA
ATOM     89  C   UNL     1       1.929   5.137  -1.293  1.00  0.00     0.111 A 
ENDBRANCH  83  84
ENDBRANCH  82  83
ENDBRANCH  74  82
ENDBRANCH  71  74
ENDBRANCH  69  70
ENDBRANCH   1  69
TORSDOF 16
