REMARK SMILES Cc1ccc(Cl)cc1NC(=O)N[C@@](C)(C(=O)NCCCNC(=O)c1ccc(-c2c3nc(c(-c4ccc(S(=O)(=O)[O-])cc4)c4ccc([nH]4)c(-c4ccc(S(=O)(=O)[O-])cc4)c4nc(c(-c5ccc(S(=O)(=O)[O-])cc5)c5ccc2[nH]5)C=C4)C=C3)cc1)C(F)(F)F
REMARK SMILES IDX 19 1 18 2 17 3 15 4 16 5 13 7 14 8 12 9 9 10 10 11 11 13
REMARK SMILES IDX 8 15 1 16 2 17 3 18 4 19 7 20 5 21 6 22 84 23 85 24 86 25
REMARK SMILES IDX 87 26 20 27 21 28 22 29 23 31 24 32 25 33 83 34 26 35 82 36
REMARK SMILES IDX 27 37 28 38 29 39 76 40 30 41 81 42 75 43 77 44 31 45 80 46
REMARK SMILES IDX 74 47 73 48 32 50 62 51 43 52 61 53 44 54 47 55 60 56 78 57
REMARK SMILES IDX 45 58 46 59 59 61 79 62 48 63 33 64 34 65 42 66 35 67 41 68
REMARK SMILES IDX 36 69 37 70 38 71 39 72 40 73 63 74 64 75 72 76 65 77 71 78
REMARK SMILES IDX 66 79 67 80 68 81 69 82 70 83 49 84 50 85 58 86 51 87 57 88
REMARK SMILES IDX 52 89 53 90 54 91 55 92 56 93
REMARK H PARENT 17 6 9 12 12 14 21 30 77 49 47 60
REMARK Flexibility Score: inf
ROOT
ATOM      1  C   UNL     1      -2.962   6.231  -0.772  1.00  0.00     0.042 C 
ENDROOT
BRANCH   1   2
ATOM      2  C   UNL     1      -3.174   4.902  -0.052  1.00  0.00     0.117 C 
BRANCH   2   3
ATOM      3  N   UNL     1      -3.078   3.781  -0.970  1.00  0.00    -0.354 N 
ATOM      4  C   UNL     1      -1.854   3.347  -1.415  1.00  0.00     0.255 C 
ATOM      5  O   UNL     1      -1.421   3.844  -2.453  1.00  0.00    -0.272 OA
ATOM      6  H   UNL     1      -3.897   3.328  -1.275  1.00  0.00     0.163 HD
BRANCH   4   7
ATOM      7  C   UNL     1      -1.040   2.375  -0.519  1.00  0.00     0.213 C 
ATOM      8  C   UNL     1      -1.947   1.763   0.565  1.00  0.00     0.056 C 
BRANCH   7   9
ATOM      9  N   UNL     1       0.040   3.207   0.103  1.00  0.00    -0.316 N 
ATOM     10  N   UNL     1       1.886   1.929   0.943  1.00  0.00    -0.308 N 
ATOM     11  C   UNL     1       1.216   3.065   0.715  1.00  0.00     0.320 C 
ATOM     12  H   UNL     1       2.838   2.095   1.127  1.00  0.00     0.171 HD
ATOM     13  O   UNL     1       1.801   4.118   0.997  1.00  0.00    -0.248 OA
ATOM     14  H   UNL     1      -0.192   4.162   0.038  1.00  0.00     0.166 HD
BRANCH  10  15
ATOM     15  C   UNL     1       1.577   0.568   0.985  1.00  0.00     0.047 A 
ATOM     16  C   UNL     1       3.826   0.004  -0.116  1.00  0.00     0.046 C 
ATOM     17  C   UNL     1       2.464  -0.363   0.409  1.00  0.00    -0.027 A 
ATOM     18  C   UNL     1       2.076  -1.713   0.324  1.00  0.00     0.007 A 
ATOM     19  C   UNL     1       0.859  -2.141   0.852  1.00  0.00     0.021 A 
ATOM     20  C   UNL     1       0.440   0.104   1.643  1.00  0.00     0.047 A 
ATOM     21  C   UNL     1       0.067  -1.237   1.548  1.00  0.00     0.043 A 
ATOM     22  Cl  UNL     1      -1.404  -1.771   2.267  1.00  0.00    -0.084 Cl
ENDBRANCH  10  15
ENDBRANCH   7   9
BRANCH   7  23
ATOM     23  C   UNL     1      -0.622   1.342  -1.597  1.00  0.00     0.420 C 
ATOM     24  F   UNL     1       0.301   1.815  -2.463  1.00  0.00    -0.168 F 
ATOM     25  F   UNL     1      -0.114   0.209  -1.075  1.00  0.00    -0.168 F 
ATOM     26  F   UNL     1      -1.700   0.936  -2.322  1.00  0.00    -0.168 F 
ENDBRANCH   7  23
ENDBRANCH   4   7
ENDBRANCH   2   3
ENDBRANCH   1   2
BRANCH   1  27
ATOM     27  C   UNL     1      -3.808   6.395  -2.031  1.00  0.00     0.118 C 
BRANCH  27  28
ATOM     28  N   UNL     1      -5.240   6.306  -1.766  1.00  0.00    -0.352 N 
ATOM     29  C   UNL     1      -6.215   7.232  -2.050  1.00  0.00     0.251 C 
ATOM     30  H   UNL     1      -5.546   5.478  -1.330  1.00  0.00     0.163 HD
ATOM     31  O   UNL     1      -7.358   7.090  -1.630  1.00  0.00    -0.269 OA
BRANCH  29  32
ATOM     32  C   UNL     1      -5.841   8.415  -2.844  1.00  0.00     0.039 A 
ATOM     33  C   UNL     1      -6.068   9.690  -2.322  1.00  0.00     0.014 A 
ATOM     34  C   UNL     1      -5.170   8.243  -4.057  1.00  0.00     0.014 A 
ATOM     35  C   UNL     1      -5.552  10.802  -2.990  1.00  0.00     0.010 A 
ATOM     36  C   UNL     1      -4.588   9.342  -4.671  1.00  0.00     0.010 A 
ATOM     37  C   UNL     1      -4.776  10.632  -4.147  1.00  0.00    -0.014 A 
BRANCH  37  38
ATOM     38  C   UNL     1      -4.169  11.778  -4.868  1.00  0.00     0.031 A 
ATOM     39  C   UNL     1      -4.573  12.031  -6.295  1.00  0.00     0.074 A 
ATOM     40  C   UNL     1      -3.191  12.507  -4.295  1.00  0.00     0.049 A 
ATOM     41  N   UNL     1      -4.035  12.831  -7.177  1.00  0.00    -0.248 NA
ATOM     42  C   UNL     1      -5.708  11.243  -6.809  1.00  0.00     0.031 C 
ATOM     43  C   UNL     1      -2.690  12.338  -2.928  1.00  0.00     0.029 A 
ATOM     44  N   UNL     1      -2.425  13.526  -4.803  1.00  0.00    -0.354 N 
ATOM     45  C   UNL     1      -4.731  12.607  -8.359  1.00  0.00     0.074 A 
ATOM     46  C   UNL     1      -5.704  11.571  -8.092  1.00  0.00     0.031 C 
ATOM     47  C   UNL     1      -1.710  13.230  -2.705  1.00  0.00     0.029 A 
ATOM     48  C   UNL     1      -1.480  14.000  -3.923  1.00  0.00     0.049 A 
ATOM     49  H   UNL     1      -2.541  13.885  -5.712  1.00  0.00     0.167 HD
ATOM     50  C   UNL     1      -4.583  13.219  -9.556  1.00  0.00     0.031 A 
ATOM     51  C   UNL     1      -0.524  14.936  -4.087  1.00  0.00     0.031 A 
ATOM     52  C   UNL     1      -3.646  14.281  -9.799  1.00  0.00     0.049 A 
ATOM     53  C   UNL     1      -0.401  15.629  -5.418  1.00  0.00     0.074 A 
ATOM     54  C   UNL     1      -3.458  15.013 -10.957  1.00  0.00     0.029 A 
ATOM     55  N   UNL     1      -2.753  14.773  -8.859  1.00  0.00    -0.354 N 
ATOM     56  N   UNL     1      -1.094  15.432  -6.514  1.00  0.00    -0.248 NA
ATOM     57  C   UNL     1       0.624  16.676  -5.533  1.00  0.00     0.031 C 
ATOM     58  C   UNL     1      -2.429  15.930 -10.727  1.00  0.00     0.029 A 
ATOM     59  C   UNL     1      -2.010  15.800  -9.411  1.00  0.00     0.049 A 
ATOM     60  H   UNL     1      -2.662  14.441  -7.937  1.00  0.00     0.167 HD
ATOM     61  C   UNL     1      -0.614  16.355  -7.436  1.00  0.00     0.074 A 
ATOM     62  C   UNL     1       0.426  17.112  -6.771  1.00  0.00     0.031 C 
ATOM     63  C   UNL     1      -1.004  16.561  -8.717  1.00  0.00     0.031 A 
BRANCH  50  64
ATOM     64  C   UNL     1      -5.457  12.756 -10.690  1.00  0.00    -0.014 A 
ATOM     65  C   UNL     1      -6.837  13.024 -10.699  1.00  0.00     0.010 A 
ATOM     66  C   UNL     1      -4.884  12.071 -11.777  1.00  0.00     0.010 A 
ATOM     67  C   UNL     1      -7.637  12.579 -11.753  1.00  0.00     0.020 A 
ATOM     68  C   UNL     1      -5.677  11.649 -12.848  1.00  0.00     0.020 A 
ATOM     69  C   UNL     1      -7.052  11.890 -12.820  1.00  0.00     0.054 A 
BRANCH  69  70
ATOM     70  S   UNL     1      -8.110  11.346 -14.188  1.00  0.00     0.124 S 
ATOM     71  O   UNL     1      -8.801  10.203 -13.597  1.00  0.00    -0.237 OA
ATOM     72  O   UNL     1      -8.942  12.520 -14.438  1.00  0.00    -0.237 OA
ATOM     73  O   UNL     1      -7.162  11.021 -15.251  1.00  0.00    -0.744 OA
ENDBRANCH  69  70
ENDBRANCH  50  64
BRANCH  51  74
ATOM     74  C   UNL     1       0.383  15.286  -2.959  1.00  0.00    -0.014 A 
ATOM     75  C   UNL     1       0.253  16.521  -2.300  1.00  0.00     0.010 A 
ATOM     76  C   UNL     1       1.379  14.387  -2.535  1.00  0.00     0.010 A 
ATOM     77  C   UNL     1       1.116  16.862  -1.254  1.00  0.00     0.020 A 
ATOM     78  C   UNL     1       2.228  14.714  -1.473  1.00  0.00     0.020 A 
ATOM     79  C   UNL     1       2.100  15.957  -0.848  1.00  0.00     0.054 A 
BRANCH  79  80
ATOM     80  S   UNL     1       3.184  16.404   0.537  1.00  0.00     0.124 S 
ATOM     81  O   UNL     1       4.092  17.362  -0.086  1.00  0.00    -0.237 OA
ATOM     82  O   UNL     1       2.245  16.961   1.507  1.00  0.00    -0.237 OA
ATOM     83  O   UNL     1       3.785  15.130   0.925  1.00  0.00    -0.744 OA
ENDBRANCH  79  80
ENDBRANCH  51  74
BRANCH  63  84
ATOM     84  C   UNL     1      -0.361  17.689  -9.475  1.00  0.00    -0.014 A 
ATOM     85  C   UNL     1       0.934  17.566 -10.006  1.00  0.00     0.010 A 
ATOM     86  C   UNL     1      -1.117  18.842  -9.756  1.00  0.00     0.010 A 
ATOM     87  C   UNL     1       1.464  18.583 -10.805  1.00  0.00     0.020 A 
ATOM     88  C   UNL     1      -0.599  19.850 -10.571  1.00  0.00     0.020 A 
ATOM     89  C   UNL     1       0.691  19.715 -11.088  1.00  0.00     0.054 A 
BRANCH  89  90
ATOM     90  S   UNL     1       1.365  20.977 -12.204  1.00  0.00     0.124 S 
ATOM     91  O   UNL     1       2.336  21.652 -11.348  1.00  0.00    -0.237 OA
ATOM     92  O   UNL     1       1.930  20.178 -13.288  1.00  0.00    -0.237 OA
ATOM     93  O   UNL     1       0.196  21.774 -12.571  1.00  0.00    -0.744 OA
ENDBRANCH  89  90
ENDBRANCH  63  84
ENDBRANCH  37  38
ENDBRANCH  29  32
ENDBRANCH  27  28
ENDBRANCH   1  27
TORSDOF 16
