REMARK SMILES O=C(NCCCNC(=O)c1ccccc1/C=C1/SC(=S)N(C2CCCCC2)C1=O)c1ccc(-c2c3nc(c(-c4ccc(S(=O)(=O)[O-])cc4)c4ccc([nH]4)c(-c4ccc(S(=O)(=O)[O-])cc4)c4nc(c(-c5ccc(S(=O)(=O)[O-])cc5)c5ccc2[nH]5)C=C4)C=C3)cc1
REMARK SMILES IDX 4 1 3 2 1 3 2 4 30 6 31 7 89 8 32 9 88 10 33 11 34 12 35 13
REMARK SMILES IDX 82 14 36 15 87 16 81 17 83 18 37 19 86 20 80 21 79 22 38 24
REMARK SMILES IDX 68 25 49 26 67 27 50 28 53 29 66 30 84 31 51 32 52 33 65 35
REMARK SMILES IDX 85 36 54 37 39 38 40 39 48 40 41 41 47 42 42 43 43 44 44 45
REMARK SMILES IDX 45 46 46 47 69 48 70 49 78 50 71 51 77 52 72 53 73 54 74 55
REMARK SMILES IDX 75 56 76 57 55 58 56 59 64 60 57 61 63 62 58 63 59 64 60 65
REMARK SMILES IDX 61 66 62 67 5 68 6 69 7 70 8 71 9 73 10 74 11 75 15 76 12 77
REMARK SMILES IDX 14 78 13 79 16 80 17 81 18 82 28 83 19 84 21 85 29 86 20 87
REMARK SMILES IDX 22 88 23 89 27 90 24 91 26 92 25 93
REMARK H PARENT 3 5 83 23 53 34 7 72
REMARK Flexibility Score: inf
ROOT
ATOM      1  C   UNL     1       4.622   1.279  -0.538  1.00  0.00     0.118 C 
ENDROOT
BRANCH   1   2
ATOM      2  N   UNL     1       3.176   1.110  -0.435  1.00  0.00    -0.352 N 
ATOM      3  O   UNL     1       1.213   0.034  -0.180  1.00  0.00    -0.269 OA
ATOM      4  C   UNL     1       2.434   0.019  -0.044  1.00  0.00     0.251 C 
ATOM      5  H   UNL     1       2.648   1.902  -0.686  1.00  0.00     0.163 HD
BRANCH   4   6
ATOM      6  C   UNL     1       3.106  -1.178   0.505  1.00  0.00     0.039 A 
ATOM      7  C   UNL     1       4.165  -1.044   1.400  1.00  0.00     0.014 A 
ATOM      8  C   UNL     1       2.680  -2.453   0.119  1.00  0.00     0.014 A 
ATOM      9  C   UNL     1       4.930  -2.151   1.732  1.00  0.00     0.010 A 
ATOM     10  C   UNL     1       3.373  -3.585   0.566  1.00  0.00     0.010 A 
ATOM     11  C   UNL     1       4.531  -3.441   1.343  1.00  0.00    -0.014 A 
BRANCH  11  12
ATOM     12  C   UNL     1       5.317  -4.601   1.839  1.00  0.00     0.031 A 
ATOM     13  C   UNL     1       6.032  -5.533   0.899  1.00  0.00     0.074 A 
ATOM     14  C   UNL     1       5.447  -4.752   3.174  1.00  0.00     0.049 A 
ATOM     15  N   UNL     1       6.818  -6.539   1.187  1.00  0.00    -0.248 NA
ATOM     16  C   UNL     1       5.840  -5.321  -0.545  1.00  0.00     0.031 C 
ATOM     17  C   UNL     1       4.788  -3.916   4.185  1.00  0.00     0.029 A 
ATOM     18  N   UNL     1       6.209  -5.619   3.913  1.00  0.00    -0.354 N 
ATOM     19  C   UNL     1       7.195  -7.095  -0.030  1.00  0.00     0.074 A 
ATOM     20  C   UNL     1       6.539  -6.324  -1.064  1.00  0.00     0.031 C 
ATOM     21  C   UNL     1       5.242  -4.252   5.400  1.00  0.00     0.029 A 
ATOM     22  C   UNL     1       6.157  -5.377   5.266  1.00  0.00     0.049 A 
ATOM     23  H   UNL     1       6.741  -6.345   3.514  1.00  0.00     0.167 HD
ATOM     24  C   UNL     1       8.015  -8.149  -0.263  1.00  0.00     0.031 A 
ATOM     25  C   UNL     1       6.767  -5.995   6.293  1.00  0.00     0.031 A 
ATOM     26  C   UNL     1       8.674  -8.905   0.771  1.00  0.00     0.049 A 
ATOM     27  C   UNL     1       7.671  -7.154   6.003  1.00  0.00     0.074 A 
ATOM     28  C   UNL     1       9.529  -9.987   0.635  1.00  0.00     0.029 A 
ATOM     29  N   UNL     1       8.561  -8.657   2.131  1.00  0.00    -0.354 N 
ATOM     30  N   UNL     1       8.009  -7.661   4.842  1.00  0.00    -0.248 NA
ATOM     31  C   UNL     1       8.268  -7.831   7.161  1.00  0.00     0.031 C 
ATOM     32  C   UNL     1       9.902 -10.415   1.915  1.00  0.00     0.029 A 
ATOM     33  C   UNL     1       9.317  -9.572   2.845  1.00  0.00     0.049 A 
ATOM     34  H   UNL     1       8.022  -7.936   2.530  1.00  0.00     0.167 HD
ATOM     35  C   UNL     1       8.854  -8.723   5.130  1.00  0.00     0.074 A 
ATOM     36  C   UNL     1       9.008  -8.759   6.571  1.00  0.00     0.031 C 
ATOM     37  C   UNL     1       9.441  -9.600   4.279  1.00  0.00     0.031 A 
BRANCH  24  38
ATOM     38  C   UNL     1       8.238  -8.566  -1.693  1.00  0.00    -0.014 A 
ATOM     39  C   UNL     1       9.071  -7.821  -2.545  1.00  0.00     0.010 A 
ATOM     40  C   UNL     1       7.666  -9.762  -2.167  1.00  0.00     0.010 A 
ATOM     41  C   UNL     1       9.312  -8.253  -3.854  1.00  0.00     0.020 A 
ATOM     42  C   UNL     1       7.921 -10.207  -3.468  1.00  0.00     0.020 A 
ATOM     43  C   UNL     1       8.735  -9.443  -4.307  1.00  0.00     0.054 A 
BRANCH  43  44
ATOM     44  S   UNL     1       9.099 -10.002  -5.995  1.00  0.00     0.124 S 
ATOM     45  O   UNL     1       8.293  -9.084  -6.796  1.00  0.00    -0.237 OA
ATOM     46  O   UNL     1      10.545  -9.814  -6.091  1.00  0.00    -0.237 OA
ATOM     47  O   UNL     1       8.653 -11.393  -6.004  1.00  0.00    -0.744 OA
ENDBRANCH  43  44
ENDBRANCH  24  38
BRANCH  25  48
ATOM     48  C   UNL     1       6.505  -5.548   7.687  1.00  0.00    -0.014 A 
ATOM     49  C   UNL     1       7.508  -4.917   8.442  1.00  0.00     0.010 A 
ATOM     50  C   UNL     1       5.232  -5.737   8.257  1.00  0.00     0.010 A 
ATOM     51  C   UNL     1       7.248  -4.500   9.751  1.00  0.00     0.020 A 
ATOM     52  C   UNL     1       4.960  -5.294   9.552  1.00  0.00     0.020 A 
ATOM     53  C   UNL     1       5.975  -4.693  10.298  1.00  0.00     0.054 A 
BRANCH  53  54
ATOM     54  S   UNL     1       5.636  -4.105  11.980  1.00  0.00     0.124 S 
ATOM     55  O   UNL     1       6.210  -5.172  12.793  1.00  0.00    -0.237 OA
ATOM     56  O   UNL     1       6.343  -2.826  12.021  1.00  0.00    -0.237 OA
ATOM     57  O   UNL     1       4.179  -4.001  12.014  1.00  0.00    -0.744 OA
ENDBRANCH  53  54
ENDBRANCH  25  48
BRANCH  37  58
ATOM     58  C   UNL     1      10.301 -10.665   4.899  1.00  0.00    -0.014 A 
ATOM     59  C   UNL     1       9.723 -11.746   5.588  1.00  0.00     0.010 A 
ATOM     60  C   UNL     1      11.700 -10.585   4.788  1.00  0.00     0.010 A 
ATOM     61  C   UNL     1      10.532 -12.707   6.196  1.00  0.00     0.020 A 
ATOM     62  C   UNL     1      12.512 -11.558   5.376  1.00  0.00     0.020 A 
ATOM     63  C   UNL     1      11.923 -12.602   6.093  1.00  0.00     0.054 A 
BRANCH  63  64
ATOM     64  S   UNL     1      12.957 -13.865   6.883  1.00  0.00     0.124 S 
ATOM     65  O   UNL     1      12.916 -13.456   8.284  1.00  0.00    -0.237 OA
ATOM     66  O   UNL     1      12.251 -15.105   6.568  1.00  0.00    -0.237 OA
ATOM     67  O   UNL     1      14.252 -13.709   6.224  1.00  0.00    -0.744 OA
ENDBRANCH  63  64
ENDBRANCH  37  58
ENDBRANCH  11  12
ENDBRANCH   4   6
ENDBRANCH   1   2
BRANCH   1  68
ATOM     68  C   UNL     1       5.122   1.338  -1.972  1.00  0.00     0.042 C 
BRANCH  68  69
ATOM     69  C   UNL     1       4.668   2.572  -2.729  1.00  0.00     0.118 C 
BRANCH  69  70
ATOM     70  N   UNL     1       5.106   3.807  -2.099  1.00  0.00    -0.352 N 
ATOM     71  C   UNL     1       5.792   4.868  -2.629  1.00  0.00     0.251 C 
ATOM     72  H   UNL     1       4.876   3.894  -1.145  1.00  0.00     0.163 HD
ATOM     73  O   UNL     1       6.172   5.766  -1.883  1.00  0.00    -0.269 OA
BRANCH  71  74
ATOM     74  C   UNL     1       6.084   4.934  -4.079  1.00  0.00     0.047 A 
ATOM     75  C   UNL     1       7.433   5.099  -4.427  1.00  0.00     0.014 A 
ATOM     76  C   UNL     1       5.088   4.874  -5.078  1.00  0.00    -0.012 A 
ATOM     77  C   UNL     1       7.807   5.148  -5.768  1.00  0.00     0.001 A 
ATOM     78  C   UNL     1       5.487   4.905  -6.421  1.00  0.00     0.009 A 
ATOM     79  C   UNL     1       6.837   5.041  -6.762  1.00  0.00     0.001 A 
BRANCH  76  80
ATOM     80  C   UNL     1       3.654   4.702  -4.794  1.00  0.00     0.030 C 
ATOM     81  C   UNL     1       2.899   5.500  -4.027  1.00  0.00     0.081 C 
ATOM     82  S   UNL     1       1.333   5.059  -3.480  1.00  0.00    -0.054 SA
ATOM     83  C   UNL     1       3.273   6.818  -3.455  1.00  0.00     0.266 C 
ATOM     84  C   UNL     1       1.277   6.373  -2.303  1.00  0.00     0.148 C 
ATOM     85  N   UNL     1       2.392   7.180  -2.442  1.00  0.00    -0.290 N 
ATOM     86  O   UNL     1       4.173   7.510  -3.912  1.00  0.00    -0.268 OA
ATOM     87  S   UNL     1      -0.022   6.503  -1.264  1.00  0.00    -0.052 S 
BRANCH  85  88
ATOM     88  C   UNL     1       2.655   8.465  -1.760  1.00  0.00     0.092 C 
ATOM     89  C   UNL     1       1.698   9.564  -2.245  1.00  0.00     0.025 C 
ATOM     90  C   UNL     1       2.744   8.389  -0.226  1.00  0.00     0.025 C 
ATOM     91  C   UNL     1       2.029  10.914  -1.618  1.00  0.00     0.002 C 
ATOM     92  C   UNL     1       3.062   9.760   0.376  1.00  0.00     0.002 C 
ATOM     93  C   UNL     1       2.075  10.826  -0.096  1.00  0.00     0.000 C 
ENDBRANCH  85  88
ENDBRANCH  76  80
ENDBRANCH  71  74
ENDBRANCH  69  70
ENDBRANCH  68  69
ENDBRANCH   1  68
TORSDOF 15
