REMARK SMILES C[NH2+][C@]1(C(=O)NCCCNC(=O)c2ccc(-c3c4nc(c(-c5ccc(S(=O)(=O)[O-])cc5)c5ccc([nH]5)c(-c5ccc(S(=O)(=O)[O-])cc5)c5nc(c(-c6ccc(S(=O)(=O)[O-])cc6)c6ccc3[nH]6)C=C5)C=C4)cc2)CCC[C@@H]1CCn1cc(C)cn1
REMARK SMILES IDX 8 1 7 2 6 3 4 4 5 5 3 7 73 8 76 9 74 10 75 11 2 12 1 13
REMARK SMILES IDX 77 16 78 17 79 18 80 19 84 20 81 21 83 22 82 23 9 24 10 25
REMARK SMILES IDX 11 26 12 28 13 29 14 30 72 31 15 32 71 33 16 34 17 35 18 36
REMARK SMILES IDX 65 37 19 38 70 39 64 40 66 41 20 42 69 43 63 44 62 45 21 47
REMARK SMILES IDX 51 48 32 49 50 50 33 51 36 52 49 53 67 54 34 55 35 56 48 58
REMARK SMILES IDX 68 59 37 60 22 61 23 62 31 63 24 64 30 65 25 66 26 67 27 68
REMARK SMILES IDX 28 69 29 70 52 71 53 72 61 73 54 74 60 75 55 76 56 77 57 78
REMARK SMILES IDX 58 79 59 80 38 81 39 82 47 83 40 84 46 85 41 86 42 87 43 88
REMARK SMILES IDX 44 89 45 90
REMARK H PARENT 6 6 2 14 2 15 10 27 66 46 36 57
REMARK Flexibility Score: inf
ROOT
ATOM      1  C   UNL     1       0.902   0.324  -2.328  1.00  0.00     0.042 C 
ENDROOT
BRANCH   1   2
ATOM      2  C   UNL     1       0.482  -0.915  -1.554  1.00  0.00     0.118 C 
BRANCH   2   3
ATOM      3  N   UNL     1       0.974  -0.899  -0.183  1.00  0.00    -0.351 N 
ATOM      4  C   UNL     1       0.355  -0.884   1.028  1.00  0.00     0.281 C 
ATOM      5  O   UNL     1       1.113  -0.786   2.003  1.00  0.00    -0.268 OA
ATOM      6  H   UNL     1       1.957  -0.900  -0.121  1.00  0.00     0.163 HD
BRANCH   4   7
ATOM      7  C   UNL     1      -1.212  -0.964   1.211  1.00  0.00     0.178 C 
ATOM      8  C   UNL     1      -1.887   0.237   0.519  1.00  0.00     0.079 C 
ATOM      9  C   UNL     1      -1.785  -2.199   0.473  1.00  0.00     0.062 C 
ATOM     10  C   UNL     1      -3.202  -0.272  -0.069  1.00  0.00     0.008 C 
ATOM     11  C   UNL     1      -3.193  -1.798   0.028  1.00  0.00     0.011 C 
BRANCH   7  12
ATOM     12  N   UNL     1      -1.464  -0.932   2.677  1.00  0.00    -0.336 N 
ATOM     13  C   UNL     1      -2.814  -1.033   3.183  1.00  0.00     0.331 C 
ATOM     14  H   UNL     1      -0.940  -1.707   3.083  1.00  0.00     0.346 HD
ATOM     15  H   UNL     1      -1.187   0.013   2.941  1.00  0.00     0.346 HD
ENDBRANCH   7  12
BRANCH   9  16
ATOM     16  C   UNL     1      -1.697  -3.542   1.215  1.00  0.00     0.034 C 
BRANCH  16  17
ATOM     17  C   UNL     1      -1.765  -4.752   0.277  1.00  0.00     0.144 C 
BRANCH  17  18
ATOM     18  N   UNL     1      -0.596  -4.891  -0.574  1.00  0.00    -0.272 N 
ATOM     19  C   UNL     1       0.633  -5.358  -0.205  1.00  0.00     0.112 A 
ATOM     20  N   UNL     1      -0.666  -4.555  -1.876  1.00  0.00    -0.181 NA
ATOM     21  C   UNL     1       1.419  -5.329  -1.338  1.00  0.00    -0.013 A 
ATOM     22  C   UNL     1       0.557  -4.824  -2.338  1.00  0.00     0.138 A 
ATOM     23  C   UNL     1       2.834  -5.733  -1.487  1.00  0.00     0.048 C 
ENDBRANCH  17  18
ENDBRANCH  16  17
ENDBRANCH   9  16
ENDBRANCH   4   7
ENDBRANCH   2   3
ENDBRANCH   1   2
BRANCH   1  24
ATOM     24  C   UNL     1       2.404   0.441  -2.534  1.00  0.00     0.118 C 
BRANCH  24  25
ATOM     25  N   UNL     1       2.941  -0.626  -3.367  1.00  0.00    -0.352 N 
ATOM     26  C   UNL     1       3.518  -0.569  -4.614  1.00  0.00     0.251 C 
ATOM     27  H   UNL     1       2.882  -1.528  -2.977  1.00  0.00     0.163 HD
ATOM     28  O   UNL     1       3.726  -1.608  -5.232  1.00  0.00    -0.269 OA
BRANCH  26  29
ATOM     29  C   UNL     1       3.866   0.738  -5.215  1.00  0.00     0.039 A 
ATOM     30  C   UNL     1       3.618   0.949  -6.574  1.00  0.00     0.014 A 
ATOM     31  C   UNL     1       4.445   1.751  -4.448  1.00  0.00     0.014 A 
ATOM     32  C   UNL     1       3.887   2.197  -7.142  1.00  0.00     0.010 A 
ATOM     33  C   UNL     1       4.619   3.021  -4.990  1.00  0.00     0.010 A 
ATOM     34  C   UNL     1       4.354   3.256  -6.346  1.00  0.00    -0.014 A 
BRANCH  34  35
ATOM     35  C   UNL     1       4.587   4.611  -6.911  1.00  0.00     0.031 A 
ATOM     36  C   UNL     1       5.969   5.211  -6.886  1.00  0.00     0.074 A 
ATOM     37  C   UNL     1       3.548   5.327  -7.384  1.00  0.00     0.049 A 
ATOM     38  N   UNL     1       6.359   6.400  -7.270  1.00  0.00    -0.248 NA
ATOM     39  C   UNL     1       7.048   4.378  -6.330  1.00  0.00     0.031 C 
ATOM     40  C   UNL     1       2.155   4.875  -7.427  1.00  0.00     0.029 A 
ATOM     41  N   UNL     1       3.501   6.592  -7.916  1.00  0.00    -0.354 N 
ATOM     42  C   UNL     1       7.718   6.463  -6.984  1.00  0.00     0.074 A 
ATOM     43  C   UNL     1       8.074   5.217  -6.344  1.00  0.00     0.031 C 
ATOM     44  C   UNL     1       1.398   5.834  -7.985  1.00  0.00     0.029 A 
ATOM     45  C   UNL     1       2.239   6.986  -8.296  1.00  0.00     0.049 A 
ATOM     46  H   UNL     1       4.296   7.164  -8.015  1.00  0.00     0.167 HD
ATOM     47  C   UNL     1       8.596   7.460  -7.247  1.00  0.00     0.031 A 
ATOM     48  C   UNL     1       1.804   8.145  -8.828  1.00  0.00     0.031 A 
ATOM     49  C   UNL     1       8.240   8.694  -7.895  1.00  0.00     0.049 A 
ATOM     50  C   UNL     1       2.796   9.243  -9.099  1.00  0.00     0.074 A 
ATOM     51  C   UNL     1       9.066   9.742  -8.262  1.00  0.00     0.029 A 
ATOM     52  N   UNL     1       6.953   9.050  -8.270  1.00  0.00    -0.354 N 
ATOM     53  N   UNL     1       4.090   9.257  -8.884  1.00  0.00    -0.248 NA
ATOM     54  C   UNL     1       2.270  10.479  -9.694  1.00  0.00     0.031 C 
ATOM     55  C   UNL     1       8.271  10.757  -8.803  1.00  0.00     0.029 A 
ATOM     56  C   UNL     1       6.958  10.313  -8.837  1.00  0.00     0.049 A 
ATOM     57  H   UNL     1       6.154   8.488  -8.149  1.00  0.00     0.167 HD
ATOM     58  C   UNL     1       4.537  10.489  -9.349  1.00  0.00     0.074 A 
ATOM     59  C   UNL     1       3.378  11.186  -9.867  1.00  0.00     0.031 C 
ATOM     60  C   UNL     1       5.795  10.995  -9.349  1.00  0.00     0.031 A 
BRANCH  47  61
ATOM     61  C   UNL     1      10.029   7.258  -6.823  1.00  0.00    -0.014 A 
ATOM     62  C   UNL     1      10.847   6.298  -7.447  1.00  0.00     0.010 A 
ATOM     63  C   UNL     1      10.576   8.065  -5.809  1.00  0.00     0.010 A 
ATOM     64  C   UNL     1      12.169   6.117  -7.032  1.00  0.00     0.020 A 
ATOM     65  C   UNL     1      11.908   7.909  -5.413  1.00  0.00     0.020 A 
ATOM     66  C   UNL     1      12.691   6.922  -6.015  1.00  0.00     0.054 A 
BRANCH  66  67
ATOM     67  S   UNL     1      14.415   6.675  -5.511  1.00  0.00     0.124 S 
ATOM     68  O   UNL     1      14.341   5.399  -4.803  1.00  0.00    -0.237 OA
ATOM     69  O   UNL     1      15.121   6.644  -6.789  1.00  0.00    -0.237 OA
ATOM     70  O   UNL     1      14.701   7.836  -4.672  1.00  0.00    -0.744 OA
ENDBRANCH  66  67
ENDBRANCH  47  61
BRANCH  48  71
ATOM     71  C   UNL     1       0.361   8.319  -9.155  1.00  0.00    -0.014 A 
ATOM     72  C   UNL     1      -0.065   8.384 -10.493  1.00  0.00     0.010 A 
ATOM     73  C   UNL     1      -0.598   8.408  -8.129  1.00  0.00     0.010 A 
ATOM     74  C   UNL     1      -1.418   8.554 -10.800  1.00  0.00     0.020 A 
ATOM     75  C   UNL     1      -1.956   8.546  -8.432  1.00  0.00     0.020 A 
ATOM     76  C   UNL     1      -2.356   8.630  -9.767  1.00  0.00     0.054 A 
BRANCH  76  77
ATOM     77  S   UNL     1      -4.112   8.800 -10.191  1.00  0.00     0.124 S 
ATOM     78  O   UNL     1      -4.178  10.177 -10.669  1.00  0.00    -0.237 OA
ATOM     79  O   UNL     1      -4.291   7.766 -11.207  1.00  0.00    -0.237 OA
ATOM     80  O   UNL     1      -4.795   8.543  -8.925  1.00  0.00    -0.744 OA
ENDBRANCH  76  77
ENDBRANCH  48  71
BRANCH  60  81
ATOM     81  C   UNL     1       5.997  12.355  -9.965  1.00  0.00    -0.014 A 
ATOM     82  C   UNL     1       5.528  13.522  -9.336  1.00  0.00     0.010 A 
ATOM     83  C   UNL     1       6.722  12.469 -11.166  1.00  0.00     0.010 A 
ATOM     84  C   UNL     1       5.751  14.774  -9.916  1.00  0.00     0.020 A 
ATOM     85  C   UNL     1       6.975  13.720 -11.731  1.00  0.00     0.020 A 
ATOM     86  C   UNL     1       6.474  14.865 -11.109  1.00  0.00     0.054 A 
BRANCH  86  87
ATOM     87  S   UNL     1       6.789  16.506 -11.816  1.00  0.00     0.124 S 
ATOM     88  O   UNL     1       5.470  16.877 -12.321  1.00  0.00    -0.237 OA
ATOM     89  O   UNL     1       7.257  17.267 -10.661  1.00  0.00    -0.237 OA
ATOM     90  O   UNL     1       7.800  16.254 -12.841  1.00  0.00    -0.744 OA
ENDBRANCH  86  87
ENDBRANCH  60  81
ENDBRANCH  34  35
ENDBRANCH  26  29
ENDBRANCH  24  25
ENDBRANCH   1  24
TORSDOF 17
