REMARK SMILES COC(=O)c1ccc(C[N@@H+](CC(=O)NCCCNC(=O)c2ccc(-c3c4nc(c(-c5ccc(S(=O)(=O)[O-])cc5)c5ccc([nH]5)c(-c5ccc(S(=O)(=O)[O-])cc5)c5nc(c(-c6ccc(S(=O)(=O)[O-])cc6)c6ccc3[nH]6)C=C5)C=C4)cc2)C(C)(C)C)cc1
REMARK SMILES IDX 15 1 14 2 12 3 13 4 11 6 10 7 9 9 8 10 5 11 6 12 86 13 7 14
REMARK SMILES IDX 85 15 3 16 4 17 2 18 1 19 81 20 82 21 83 22 84 23 16 24
REMARK SMILES IDX 17 25 18 26 19 27 20 29 21 30 22 31 80 32 23 33 79 34 24 35
REMARK SMILES IDX 25 36 26 37 73 38 27 39 78 40 72 41 74 42 28 43 77 44 71 45
REMARK SMILES IDX 70 46 29 48 59 49 40 50 58 51 41 52 44 53 57 54 75 55 42 56
REMARK SMILES IDX 43 57 56 59 76 60 45 61 30 62 31 63 39 64 32 65 38 66 33 67
REMARK SMILES IDX 34 68 35 69 36 70 37 71 60 72 61 73 69 74 62 75 68 76 63 77
REMARK SMILES IDX 64 78 65 79 66 80 67 81 46 82 47 83 55 84 48 85 54 86 49 87
REMARK SMILES IDX 50 88 51 89 52 90 53 91
REMARK H PARENT 14 5 10 8 18 28 74 47 44 58
REMARK Flexibility Score: inf
ROOT
ATOM      1  C   UNL     1      -2.191   8.389  -4.127  1.00  0.00     0.118 C 
ENDROOT
BRANCH   1   2
ATOM      2  N   UNL     1      -2.782   9.343  -3.200  1.00  0.00    -0.351 N 
ATOM      3  C   UNL     1      -2.283  10.022  -2.126  1.00  0.00     0.275 C 
ATOM      4  O   UNL     1      -3.026  10.889  -1.647  1.00  0.00    -0.269 OA
ATOM      5  H   UNL     1      -3.730   9.538  -3.385  1.00  0.00     0.163 HD
BRANCH   3   6
ATOM      6  C   UNL     1      -0.869   9.814  -1.548  1.00  0.00     0.364 C 
BRANCH   6   7
ATOM      7  N   UNL     1      -0.635   8.634  -0.645  1.00  0.00    -0.319 N 
ATOM      8  H   UNL     1       0.206   8.768  -0.083  1.00  0.00     0.349 HD
BRANCH   7   9
ATOM      9  C   UNL     1      -0.367   7.470  -1.491  1.00  0.00     0.299 C 
BRANCH   9  10
ATOM     10  C   UNL     1       0.058   6.132  -0.951  1.00  0.00     0.006 A 
ATOM     11  C   UNL     1       0.844   3.563  -0.134  1.00  0.00     0.060 A 
ATOM     12  C   UNL     1       1.750   4.632  -0.087  1.00  0.00     0.016 A 
ATOM     13  C   UNL     1      -0.458   3.775  -0.594  1.00  0.00     0.016 A 
ATOM     14  C   UNL     1       1.362   5.910  -0.499  1.00  0.00     0.010 A 
ATOM     15  C   UNL     1      -0.842   5.049  -1.004  1.00  0.00     0.010 A 
BRANCH  11  16
ATOM     16  C   UNL     1       1.289   2.233   0.339  1.00  0.00     0.337 C 
ATOM     17  O   UNL     1       2.205   2.081   1.136  1.00  0.00    -0.246 OA
BRANCH  16  18
ATOM     18  O   UNL     1       0.568   1.260  -0.266  1.00  0.00    -0.465 OA
ATOM     19  C   UNL     1       0.952  -0.071   0.092  1.00  0.00     0.282 C 
ENDBRANCH  16  18
ENDBRANCH  11  16
ENDBRANCH   9  10
ENDBRANCH   7   9
BRANCH   7  20
ATOM     20  C   UNL     1      -1.539   8.512   0.540  1.00  0.00     0.090 C 
ATOM     21  C   UNL     1      -3.023   8.229   0.217  1.00  0.00     0.078 C 
ATOM     22  C   UNL     1      -1.086   7.399   1.519  1.00  0.00     0.078 C 
ATOM     23  C   UNL     1      -1.458   9.816   1.377  1.00  0.00     0.078 C 
ENDBRANCH   7  20
ENDBRANCH   6   7
ENDBRANCH   3   6
ENDBRANCH   1   2
BRANCH   1  24
ATOM     24  C   UNL     1      -2.714   6.965  -3.915  1.00  0.00     0.042 C 
BRANCH  24  25
ATOM     25  C   UNL     1      -4.111   6.684  -4.431  1.00  0.00     0.118 C 
BRANCH  25  26
ATOM     26  N   UNL     1      -4.137   6.421  -5.852  1.00  0.00    -0.352 N 
ATOM     27  C   UNL     1      -4.282   5.246  -6.550  1.00  0.00     0.251 C 
ATOM     28  H   UNL     1      -4.032   7.220  -6.417  1.00  0.00     0.163 HD
ATOM     29  O   UNL     1      -4.051   5.265  -7.759  1.00  0.00    -0.269 OA
BRANCH  27  30
ATOM     30  C   UNL     1      -4.691   3.969  -5.903  1.00  0.00     0.039 A 
ATOM     31  C   UNL     1      -4.252   2.768  -6.475  1.00  0.00     0.014 A 
ATOM     32  C   UNL     1      -5.569   3.911  -4.818  1.00  0.00     0.014 A 
ATOM     33  C   UNL     1      -4.683   1.538  -5.965  1.00  0.00     0.010 A 
ATOM     34  C   UNL     1      -5.902   2.688  -4.234  1.00  0.00     0.010 A 
ATOM     35  C   UNL     1      -5.509   1.484  -4.832  1.00  0.00    -0.014 A 
BRANCH  35  36
ATOM     36  C   UNL     1      -6.048   0.190  -4.329  1.00  0.00     0.031 A 
ATOM     37  C   UNL     1      -7.541  -0.052  -4.324  1.00  0.00     0.074 A 
ATOM     38  C   UNL     1      -5.214  -0.762  -3.868  1.00  0.00     0.049 A 
ATOM     39  N   UNL     1      -8.207  -1.103  -3.917  1.00  0.00    -0.248 NA
ATOM     40  C   UNL     1      -8.399   1.039  -4.816  1.00  0.00     0.031 C 
ATOM     41  C   UNL     1      -3.756  -0.647  -3.789  1.00  0.00     0.029 A 
ATOM     42  N   UNL     1      -5.473  -2.021  -3.384  1.00  0.00    -0.354 N 
ATOM     43  C   UNL     1      -9.553  -0.790  -4.085  1.00  0.00     0.074 A 
ATOM     44  C   UNL     1      -9.612   0.570  -4.569  1.00  0.00     0.031 C 
ATOM     45  C   UNL     1      -3.248  -1.801  -3.324  1.00  0.00     0.029 A 
ATOM     46  C   UNL     1      -4.343  -2.722  -3.033  1.00  0.00     0.049 A 
ATOM     47  H   UNL     1      -6.383  -2.388  -3.296  1.00  0.00     0.167 HD
ATOM     48  C   UNL     1     -10.643  -1.569  -3.885  1.00  0.00     0.031 A 
ATOM     49  C   UNL     1      -4.201  -3.966  -2.534  1.00  0.00     0.031 A 
ATOM     50  C   UNL     1     -10.584  -2.930  -3.425  1.00  0.00     0.049 A 
ATOM     51  C   UNL     1      -5.426  -4.813  -2.314  1.00  0.00     0.074 A 
ATOM     52  C   UNL     1     -11.626  -3.821  -3.237  1.00  0.00     0.029 A 
ATOM     53  N   UNL     1      -9.418  -3.600  -3.085  1.00  0.00    -0.354 N 
ATOM     54  N   UNL     1      -6.685  -4.515  -2.532  1.00  0.00    -0.248 NA
ATOM     55  C   UNL     1      -5.209  -6.171  -1.796  1.00  0.00     0.031 C 
ATOM     56  C   UNL     1     -11.096  -5.011  -2.731  1.00  0.00     0.029 A 
ATOM     57  C   UNL     1      -9.717  -4.886  -2.670  1.00  0.00     0.049 A 
ATOM     58  H   UNL     1      -8.512  -3.217  -3.133  1.00  0.00     0.167 HD
ATOM     59  C   UNL     1      -7.407  -5.662  -2.214  1.00  0.00     0.074 A 
ATOM     60  C   UNL     1      -6.442  -6.660  -1.799  1.00  0.00     0.031 C 
ATOM     61  C   UNL     1      -8.746  -5.870  -2.265  1.00  0.00     0.031 A 
BRANCH  48  62
ATOM     62  C   UNL     1     -11.997  -0.962  -4.160  1.00  0.00    -0.014 A 
ATOM     63  C   UNL     1     -12.400  -0.639  -5.469  1.00  0.00     0.010 A 
ATOM     64  C   UNL     1     -12.894  -0.743  -3.098  1.00  0.00     0.010 A 
ATOM     65  C   UNL     1     -13.652  -0.065  -5.705  1.00  0.00     0.020 A 
ATOM     66  C   UNL     1     -14.161  -0.200  -3.334  1.00  0.00     0.020 A 
ATOM     67  C   UNL     1     -14.524   0.152  -4.635  1.00  0.00     0.054 A 
BRANCH  67  68
ATOM     68  S   UNL     1     -16.151   0.880  -4.974  1.00  0.00     0.124 S 
ATOM     69  O   UNL     1     -15.801   2.262  -5.295  1.00  0.00    -0.237 OA
ATOM     70  O   UNL     1     -16.632   0.078  -6.096  1.00  0.00    -0.237 OA
ATOM     71  O   UNL     1     -16.881   0.698  -3.723  1.00  0.00    -0.744 OA
ENDBRANCH  67  68
ENDBRANCH  48  62
BRANCH  49  72
ATOM     72  C   UNL     1      -2.842  -4.495  -2.228  1.00  0.00    -0.014 A 
ATOM     73  C   UNL     1      -2.284  -5.531  -2.998  1.00  0.00     0.010 A 
ATOM     74  C   UNL     1      -2.095  -3.956  -1.165  1.00  0.00     0.010 A 
ATOM     75  C   UNL     1      -1.014  -6.032  -2.698  1.00  0.00     0.020 A 
ATOM     76  C   UNL     1      -0.812  -4.433  -0.882  1.00  0.00     0.020 A 
ATOM     77  C   UNL     1      -0.285  -5.477  -1.643  1.00  0.00     0.054 A 
BRANCH  77  78
ATOM     78  S   UNL     1       1.383  -6.106  -1.303  1.00  0.00     0.124 S 
ATOM     79  O   UNL     1       1.100  -7.409  -0.709  1.00  0.00    -0.237 OA
ATOM     80  O   UNL     1       1.986  -6.132  -2.633  1.00  0.00    -0.237 OA
ATOM     81  O   UNL     1       1.942  -5.108  -0.394  1.00  0.00    -0.744 OA
ENDBRANCH  77  78
ENDBRANCH  49  72
BRANCH  61  82
ATOM     82  C   UNL     1      -9.250  -7.246  -1.914  1.00  0.00    -0.014 A 
ATOM     83  C   UNL     1      -9.221  -7.726  -0.593  1.00  0.00     0.010 A 
ATOM     84  C   UNL     1      -9.813  -8.050  -2.923  1.00  0.00     0.010 A 
ATOM     85  C   UNL     1      -9.711  -9.001  -0.295  1.00  0.00     0.020 A 
ATOM     86  C   UNL     1     -10.333  -9.310  -2.624  1.00  0.00     0.020 A 
ATOM     87  C   UNL     1     -10.263  -9.785  -1.313  1.00  0.00     0.054 A 
BRANCH  87  88
ATOM     88  S   UNL     1     -10.924 -11.421  -0.894  1.00  0.00     0.124 S 
ATOM     89  O   UNL     1      -9.705 -12.189  -0.656  1.00  0.00    -0.237 OA
ATOM     90  O   UNL     1     -11.734 -11.145   0.290  1.00  0.00    -0.237 OA
ATOM     91  O   UNL     1     -11.681 -11.805  -2.083  1.00  0.00    -0.744 OA
ENDBRANCH  87  88
ENDBRANCH  61  82
ENDBRANCH  35  36
ENDBRANCH  27  30
ENDBRANCH  25  26
ENDBRANCH  24  25
ENDBRANCH   1  24
TORSDOF 19
