REMARK SMILES Cc1ccc(NC(=O)C[C@H]([NH2+]Cc2cccnc2)C(=O)NCCCNC(=O)c2ccc(-c3c4nc(c(-c5ccc(S(=O)(=O)[O-])cc5)c5ccc([nH]5)c(-c5ccc(S(=O)(=O)[O-])cc5)c5nc(c(-c6ccc(S(=O)(=O)[O-])cc6)c6ccc3[nH]6)C=C5)C=C4)cc2)cc1Cl
REMARK SMILES IDX 23 1 22 2 21 3 19 4 20 5 10 7 9 8 7 9 6 10 8 12 5 13 1 14
REMARK SMILES IDX 2 15 3 16 89 17 4 18 88 19 90 20 11 21 12 24 13 25 14 26
REMARK SMILES IDX 18 27 15 28 17 29 16 30 24 31 25 32 26 33 27 35 28 36 29 37
REMARK SMILES IDX 87 38 30 39 86 40 31 41 32 42 33 43 80 44 34 45 85 46 79 47
REMARK SMILES IDX 81 48 35 49 84 50 78 51 77 52 36 54 66 55 47 56 65 57 48 58
REMARK SMILES IDX 51 59 64 60 82 61 49 62 50 63 63 65 83 66 52 67 37 68 38 69
REMARK SMILES IDX 46 70 39 71 45 72 40 73 41 74 42 75 43 76 44 77 67 78 68 79
REMARK SMILES IDX 76 80 69 81 75 82 70 83 71 84 72 85 73 86 74 87 53 88 54 89
REMARK SMILES IDX 62 90 55 91 61 92 56 93 57 94 58 95 59 96 60 97
REMARK H PARENT 21 6 6 11 11 22 11 23 25 34 81 53 51 64
REMARK Flexibility Score: inf
ROOT
ATOM      1  C   UNL     1       2.846  -2.584   1.395  1.00  0.00     0.042 C 
ENDROOT
BRANCH   1   2
ATOM      2  C   UNL     1       2.607  -1.962   0.018  1.00  0.00     0.118 C 
BRANCH   2   3
ATOM      3  N   UNL     1       2.183  -2.953  -0.981  1.00  0.00    -0.351 N 
ATOM      4  C   UNL     1       1.025  -3.338  -1.582  1.00  0.00     0.278 C 
ATOM      5  O   UNL     1       1.146  -4.281  -2.383  1.00  0.00    -0.268 OA
ATOM      6  H   UNL     1       2.946  -3.485  -1.303  1.00  0.00     0.163 HD
BRANCH   4   7
ATOM      7  C   UNL     1      -0.418  -2.776  -1.335  1.00  0.00     0.282 C 
BRANCH   7   8
ATOM      8  C   UNL     1      -0.517  -1.381  -0.765  1.00  0.00     0.175 C 
BRANCH   8   9
ATOM      9  C   UNL     1      -0.693  -0.911   0.671  1.00  0.00     0.230 C 
ATOM     10  N   UNL     1      -0.622  -1.524   1.867  1.00  0.00    -0.326 N 
ATOM     11  H   UNL     1      -0.813  -0.874   2.581  1.00  0.00     0.169 HD
ATOM     12  O   UNL     1      -0.947   0.309   0.777  1.00  0.00    -0.274 OA
BRANCH  10  13
ATOM     13  C   UNL     1      -0.366  -2.784   2.434  1.00  0.00     0.042 A 
ATOM     14  C   UNL     1       0.252  -6.586   4.450  1.00  0.00     0.046 C 
ATOM     15  C   UNL     1       0.072  -5.270   3.757  1.00  0.00    -0.032 A 
ATOM     16  C   UNL     1      -0.320  -4.132   4.471  1.00  0.00     0.007 A 
ATOM     17  C   UNL     1       0.262  -5.140   2.386  1.00  0.00     0.046 A 
ATOM     18  C   UNL     1      -0.538  -2.909   3.817  1.00  0.00     0.026 A 
ATOM     19  C   UNL     1       0.072  -3.905   1.761  1.00  0.00     0.047 A 
ATOM     20  Cl  UNL     1       0.756  -6.469   1.394  1.00  0.00    -0.084 Cl
ENDBRANCH  10  13
ENDBRANCH   8   9
ENDBRANCH   7   8
BRANCH   7  21
ATOM     21  N   UNL     1      -1.279  -3.843  -0.795  1.00  0.00    -0.332 N 
ATOM     22  H   UNL     1      -0.886  -4.114   0.106  1.00  0.00     0.347 HD
ATOM     23  H   UNL     1      -1.276  -4.551  -1.529  1.00  0.00     0.347 HD
BRANCH  21  24
ATOM     24  C   UNL     1      -2.693  -3.574  -0.579  1.00  0.00     0.299 C 
BRANCH  24  25
ATOM     25  C   UNL     1      -3.163  -4.215   0.706  1.00  0.00     0.024 A 
ATOM     26  C   UNL     1      -3.097  -5.597   0.923  1.00  0.00     0.013 A 
ATOM     27  C   UNL     1      -3.625  -3.438   1.766  1.00  0.00     0.120 A 
ATOM     28  C   UNL     1      -3.445  -6.124   2.166  1.00  0.00     0.021 A 
ATOM     29  N   UNL     1      -3.989  -3.922   2.978  1.00  0.00    -0.264 NA
ATOM     30  C   UNL     1      -3.870  -5.254   3.155  1.00  0.00     0.111 A 
ENDBRANCH  24  25
ENDBRANCH  21  24
ENDBRANCH   7  21
ENDBRANCH   4   7
ENDBRANCH   2   3
ENDBRANCH   1   2
BRANCH   1  31
ATOM     31  C   UNL     1       4.268  -2.565   1.937  1.00  0.00     0.118 C 
BRANCH  31  32
ATOM     32  N   UNL     1       4.663  -1.273   2.465  1.00  0.00    -0.352 N 
ATOM     33  C   UNL     1       5.009  -0.852   3.729  1.00  0.00     0.251 C 
ATOM     34  H   UNL     1       4.688  -0.558   1.788  1.00  0.00     0.163 HD
ATOM     35  O   UNL     1       5.164   0.360   3.890  1.00  0.00    -0.269 OA
BRANCH  33  36
ATOM     36  C   UNL     1       5.192  -1.764   4.898  1.00  0.00     0.039 A 
ATOM     37  C   UNL     1       5.024  -1.220   6.181  1.00  0.00     0.014 A 
ATOM     38  C   UNL     1       5.607  -3.093   4.798  1.00  0.00     0.014 A 
ATOM     39  C   UNL     1       5.247  -1.995   7.329  1.00  0.00     0.010 A 
ATOM     40  C   UNL     1       5.727  -3.897   5.940  1.00  0.00     0.010 A 
ATOM     41  C   UNL     1       5.582  -3.353   7.223  1.00  0.00    -0.014 A 
BRANCH  41  42
ATOM     42  C   UNL     1       5.829  -4.184   8.439  1.00  0.00     0.031 A 
ATOM     43  C   UNL     1       7.179  -4.822   8.678  1.00  0.00     0.074 A 
ATOM     44  C   UNL     1       4.837  -4.388   9.331  1.00  0.00     0.049 A 
ATOM     45  N   UNL     1       7.577  -5.567   9.681  1.00  0.00    -0.248 NA
ATOM     46  C   UNL     1       8.208  -4.621   7.645  1.00  0.00     0.031 C 
ATOM     47  C   UNL     1       3.469  -3.878   9.209  1.00  0.00     0.029 A 
ATOM     48  N   UNL     1       4.828  -5.072  10.524  1.00  0.00    -0.354 N 
ATOM     49  C   UNL     1       8.887  -5.937   9.388  1.00  0.00     0.074 A 
ATOM     50  C   UNL     1       9.198  -5.381   8.090  1.00  0.00     0.031 C 
ATOM     51  C   UNL     1       2.769  -4.229  10.300  1.00  0.00     0.029 A 
ATOM     52  C   UNL     1       3.622  -5.016  11.185  1.00  0.00     0.049 A 
ATOM     53  H   UNL     1       5.610  -5.557  10.872  1.00  0.00     0.167 HD
ATOM     54  C   UNL     1       9.765  -6.651  10.136  1.00  0.00     0.031 A 
ATOM     55  C   UNL     1       3.244  -5.527  12.373  1.00  0.00     0.031 A 
ATOM     56  C   UNL     1       9.472  -7.184  11.441  1.00  0.00     0.049 A 
ATOM     57  C   UNL     1       4.244  -6.286  13.203  1.00  0.00     0.074 A 
ATOM     58  C   UNL     1      10.312  -7.872  12.300  1.00  0.00     0.029 A 
ATOM     59  N   UNL     1       8.246  -7.083  12.080  1.00  0.00    -0.354 N 
ATOM     60  N   UNL     1       5.495  -6.572  12.929  1.00  0.00    -0.248 NA
ATOM     61  C   UNL     1       3.786  -6.771  14.512  1.00  0.00     0.031 C 
ATOM     62  C   UNL     1       9.582  -8.223  13.441  1.00  0.00     0.029 A 
ATOM     63  C   UNL     1       8.303  -7.706  13.316  1.00  0.00     0.049 A 
ATOM     64  H   UNL     1       7.451  -6.635  11.710  1.00  0.00     0.167 HD
ATOM     65  C   UNL     1       5.980  -7.247  14.044  1.00  0.00     0.074 A 
ATOM     66  C   UNL     1       4.894  -7.308  15.002  1.00  0.00     0.031 C 
ATOM     67  C   UNL     1       7.214  -7.768  14.258  1.00  0.00     0.031 A 
BRANCH  54  68
ATOM     68  C   UNL     1      11.136  -6.896   9.557  1.00  0.00    -0.014 A 
ATOM     69  C   UNL     1      12.062  -5.846   9.410  1.00  0.00     0.010 A 
ATOM     70  C   UNL     1      11.520  -8.198   9.188  1.00  0.00     0.010 A 
ATOM     71  C   UNL     1      13.324  -6.084   8.860  1.00  0.00     0.020 A 
ATOM     72  C   UNL     1      12.794  -8.446   8.665  1.00  0.00     0.020 A 
ATOM     73  C   UNL     1      13.681  -7.382   8.485  1.00  0.00     0.054 A 
BRANCH  73  74
ATOM     74  S   UNL     1      15.331  -7.669   7.787  1.00  0.00     0.124 S 
ATOM     75  O   UNL     1      15.190  -7.103   6.445  1.00  0.00    -0.237 OA
ATOM     76  O   UNL     1      16.198  -6.915   8.694  1.00  0.00    -0.237 OA
ATOM     77  O   UNL     1      15.486  -9.115   7.841  1.00  0.00    -0.744 OA
ENDBRANCH  73  74
ENDBRANCH  54  68
BRANCH  55  78
ATOM     78  C   UNL     1       1.858  -5.305  12.870  1.00  0.00    -0.014 A 
ATOM     79  C   UNL     1       1.617  -4.433  13.947  1.00  0.00     0.010 A 
ATOM     80  C   UNL     1       0.770  -5.956  12.261  1.00  0.00     0.010 A 
ATOM     81  C   UNL     1       0.316  -4.230  14.418  1.00  0.00     0.020 A 
ATOM     82  C   UNL     1      -0.535  -5.734  12.711  1.00  0.00     0.020 A 
ATOM     83  C   UNL     1      -0.752  -4.880  13.795  1.00  0.00     0.054 A 
BRANCH  83  84
ATOM     84  S   UNL     1      -2.438  -4.560  14.384  1.00  0.00     0.124 S 
ATOM     85  O   UNL     1      -2.478  -5.327  15.625  1.00  0.00    -0.237 OA
ATOM     86  O   UNL     1      -2.449  -3.107  14.537  1.00  0.00    -0.237 OA
ATOM     87  O   UNL     1      -3.279  -5.070  13.303  1.00  0.00    -0.744 OA
ENDBRANCH  83  84
ENDBRANCH  55  78
BRANCH  67  88
ATOM     88  C   UNL     1       7.465  -8.417  15.593  1.00  0.00    -0.014 A 
ATOM     89  C   UNL     1       6.875  -9.648  15.931  1.00  0.00     0.010 A 
ATOM     90  C   UNL     1       8.316  -7.788  16.520  1.00  0.00     0.010 A 
ATOM     91  C   UNL     1       7.088 -10.211  17.193  1.00  0.00     0.020 A 
ATOM     92  C   UNL     1       8.555  -8.362  17.771  1.00  0.00     0.020 A 
ATOM     93  C   UNL     1       7.920  -9.559  18.108  1.00  0.00     0.054 A 
BRANCH  93  94
ATOM     94  S   UNL     1       8.183 -10.307  19.740  1.00  0.00     0.124 S 
ATOM     95  O   UNL     1       6.931  -9.992  20.422  1.00  0.00    -0.237 OA
ATOM     96  O   UNL     1       8.386 -11.717  19.419  1.00  0.00    -0.237 OA
ATOM     97  O   UNL     1       9.364  -9.614  20.251  1.00  0.00    -0.744 OA
ENDBRANCH  93  94
ENDBRANCH  67  88
ENDBRANCH  41  42
ENDBRANCH  33  36
ENDBRANCH  31  32
ENDBRANCH   1  31
TORSDOF 19
