REMARK SMILES Cc1cc(C(=O)N[C@H]2C=C[C@H](C(=O)NCCCNC(=O)c3ccc(-c4c5nc(c(-c6ccc(S(=O)(=O)[O-])cc6)c6ccc([nH]6)c(-c6ccc(S(=O)(=O)[O-])cc6)c6nc(c(-c7ccc(S(=O)(=O)[O-])cc7)c7ccc4[nH]7)C=C6)C=C5)cc3)C2)ccc1F
REMARK SMILES IDX 16 1 15 2 14 3 12 4 13 5 11 7 8 8 9 9 81 10 10 11 7 12 5 13
REMARK SMILES IDX 6 14 4 16 1 17 2 18 3 19 84 20 83 21 85 22 82 23 17 24 18 25
REMARK SMILES IDX 19 26 20 28 21 29 22 30 80 31 23 32 79 33 24 34 25 35 26 36
REMARK SMILES IDX 73 37 27 38 78 39 72 40 74 41 28 42 77 43 71 44 70 45 29 47
REMARK SMILES IDX 59 48 40 49 58 50 41 51 44 52 57 53 75 54 42 55 43 56 56 58
REMARK SMILES IDX 76 59 45 60 30 61 31 62 39 63 32 64 38 65 33 66 34 67 35 68
REMARK SMILES IDX 36 69 37 70 60 71 61 72 69 73 62 74 68 75 63 76 64 77 65 78
REMARK SMILES IDX 66 79 67 80 46 81 47 82 55 83 48 84 54 85 49 86 50 87 51 88
REMARK SMILES IDX 52 89 53 90
REMARK H PARENT 14 6 7 15 18 27 74 46 44 57
REMARK Flexibility Score: inf
ROOT
ATOM      1  C   UNL     1       0.487   8.182   1.496  1.00  0.00     0.042 C 
ENDROOT
BRANCH   1   2
ATOM      2  C   UNL     1      -0.044   7.107   0.558  1.00  0.00     0.117 C 
BRANCH   2   3
ATOM      3  N   UNL     1       0.470   5.798   0.907  1.00  0.00    -0.356 N 
ATOM      4  C   UNL     1      -0.056   4.743   1.568  1.00  0.00     0.227 C 
ATOM      5  O   UNL     1       0.733   3.814   1.786  1.00  0.00    -0.274 OA
ATOM      6  H   UNL     1       1.393   5.646   0.599  1.00  0.00     0.163 HD
BRANCH   4   7
ATOM      7  C   UNL     1      -1.522   4.639   2.047  1.00  0.00     0.103 C 
ATOM      8  C   UNL     1      -2.541   3.386   0.269  1.00  0.00     0.106 C 
ATOM      9  C   UNL     1      -3.201   4.721   0.390  1.00  0.00    -0.006 C 
ATOM     10  C   UNL     1      -2.008   3.217   1.693  1.00  0.00     0.047 C 
ATOM     11  C   UNL     1      -2.612   5.425   1.367  1.00  0.00    -0.016 C 
BRANCH   8  12
ATOM     12  N   UNL     1      -3.451   2.362  -0.160  1.00  0.00    -0.346 N 
ATOM     13  C   UNL     1      -3.212   1.044  -0.473  1.00  0.00     0.251 C 
ATOM     14  O   UNL     1      -4.170   0.344  -0.805  1.00  0.00    -0.269 OA
ATOM     15  H   UNL     1      -4.390   2.647  -0.241  1.00  0.00     0.164 HD
BRANCH  13  16
ATOM     16  C   UNL     1      -1.863   0.408  -0.357  1.00  0.00     0.040 A 
ATOM     17  C   UNL     1       1.863   1.216  -0.424  1.00  0.00     0.047 C 
ATOM     18  C   UNL     1       0.580   0.445  -0.332  1.00  0.00    -0.015 A 
ATOM     19  C   UNL     1      -0.651   1.067  -0.594  1.00  0.00     0.020 A 
ATOM     20  C   UNL     1       0.585  -0.896   0.044  1.00  0.00     0.126 A 
ATOM     21  C   UNL     1      -0.604  -1.602   0.193  1.00  0.00     0.040 A 
ATOM     22  F   UNL     1       1.748  -1.525   0.264  1.00  0.00    -0.207 F 
ATOM     23  C   UNL     1      -1.825  -0.947   0.009  1.00  0.00     0.017 A 
ENDBRANCH  13  16
ENDBRANCH   8  12
ENDBRANCH   4   7
ENDBRANCH   2   3
ENDBRANCH   1   2
BRANCH   1  24
ATOM     24  C   UNL     1       1.990   8.412   1.365  1.00  0.00     0.118 C 
BRANCH  24  25
ATOM     25  N   UNL     1       2.361   8.916   0.048  1.00  0.00    -0.352 N 
ATOM     26  C   UNL     1       2.846  10.143  -0.326  1.00  0.00     0.251 C 
ATOM     27  H   UNL     1       2.244   8.275  -0.689  1.00  0.00     0.163 HD
ATOM     28  O   UNL     1       2.861  10.442  -1.522  1.00  0.00    -0.269 OA
BRANCH  26  29
ATOM     29  C   UNL     1       3.343  11.102   0.682  1.00  0.00     0.039 A 
ATOM     30  C   UNL     1       3.091  12.466   0.508  1.00  0.00     0.014 A 
ATOM     31  C   UNL     1       4.101  10.669   1.773  1.00  0.00     0.014 A 
ATOM     32  C   UNL     1       3.561  13.386   1.449  1.00  0.00     0.010 A 
ATOM     33  C   UNL     1       4.485  11.573   2.757  1.00  0.00     0.010 A 
ATOM     34  C   UNL     1       4.243  12.944   2.594  1.00  0.00    -0.014 A 
BRANCH  34  35
ATOM     35  C   UNL     1       4.754  13.900   3.609  1.00  0.00     0.031 A 
ATOM     36  C   UNL     1       6.235  13.999   3.870  1.00  0.00     0.074 A 
ATOM     37  C   UNL     1       3.890  14.629   4.341  1.00  0.00     0.049 A 
ATOM     38  N   UNL     1       6.872  14.724   4.754  1.00  0.00    -0.248 NA
ATOM     39  C   UNL     1       7.112  13.143   3.053  1.00  0.00     0.031 C 
ATOM     40  C   UNL     1       2.431  14.588   4.220  1.00  0.00     0.029 A 
ATOM     41  N   UNL     1       4.115  15.543   5.339  1.00  0.00    -0.354 N 
ATOM     42  C   UNL     1       8.216  14.391   4.617  1.00  0.00     0.074 A 
ATOM     43  C   UNL     1       8.294  13.358   3.609  1.00  0.00     0.031 C 
ATOM     44  C   UNL     1       1.894  15.458   5.090  1.00  0.00     0.029 A 
ATOM     45  C   UNL     1       2.964  16.091   5.854  1.00  0.00     0.049 A 
ATOM     46  H   UNL     1       5.015  15.784   5.656  1.00  0.00     0.167 HD
ATOM     47  C   UNL     1       9.292  14.912   5.255  1.00  0.00     0.031 A 
ATOM     48  C   UNL     1       2.789  17.001   6.832  1.00  0.00     0.031 A 
ATOM     49  C   UNL     1       9.210  15.952   6.246  1.00  0.00     0.049 A 
ATOM     50  C   UNL     1       3.995  17.590   7.509  1.00  0.00     0.074 A 
ATOM     51  C   UNL     1      10.241  16.591   6.912  1.00  0.00     0.029 A 
ATOM     52  N   UNL     1       8.027  16.506   6.713  1.00  0.00    -0.354 N 
ATOM     53  N   UNL     1       5.263  17.307   7.324  1.00  0.00    -0.248 NA
ATOM     54  C   UNL     1       3.748  18.635   8.510  1.00  0.00     0.031 C 
ATOM     55  C   UNL     1       9.678  17.500   7.816  1.00  0.00     0.029 A 
ATOM     56  C   UNL     1       8.300  17.470   7.668  1.00  0.00     0.049 A 
ATOM     57  H   UNL     1       7.126  16.251   6.410  1.00  0.00     0.167 HD
ATOM     58  C   UNL     1       5.968  18.163   8.163  1.00  0.00     0.074 A 
ATOM     59  C   UNL     1       4.984  18.979   8.847  1.00  0.00     0.031 C 
ATOM     60  C   UNL     1       7.308  18.270   8.344  1.00  0.00     0.031 A 
BRANCH  47  61
ATOM     61  C   UNL     1      10.644  14.347   4.899  1.00  0.00    -0.014 A 
ATOM     62  C   UNL     1      11.206  14.545   3.624  1.00  0.00     0.010 A 
ATOM     63  C   UNL     1      11.361  13.599   5.851  1.00  0.00     0.010 A 
ATOM     64  C   UNL     1      12.422  13.947   3.284  1.00  0.00     0.020 A 
ATOM     65  C   UNL     1      12.595  13.028   5.526  1.00  0.00     0.020 A 
ATOM     66  C   UNL     1      13.104  13.184   4.235  1.00  0.00     0.054 A 
BRANCH  66  67
ATOM     67  S   UNL     1      14.672  12.403   3.763  1.00  0.00     0.124 S 
ATOM     68  O   UNL     1      14.216  11.300   2.921  1.00  0.00    -0.237 OA
ATOM     69  O   UNL     1      15.370  13.479   3.063  1.00  0.00    -0.237 OA
ATOM     70  O   UNL     1      15.262  12.009   5.040  1.00  0.00    -0.744 OA
ENDBRANCH  66  67
ENDBRANCH  47  61
BRANCH  48  71
ATOM     71  C   UNL     1       1.411  17.436   7.189  1.00  0.00    -0.014 A 
ATOM     72  C   UNL     1       0.943  18.705   6.809  1.00  0.00     0.010 A 
ATOM     73  C   UNL     1       0.542  16.560   7.865  1.00  0.00     0.010 A 
ATOM     74  C   UNL     1      -0.368  19.093   7.099  1.00  0.00     0.020 A 
ATOM     75  C   UNL     1      -0.778  16.934   8.134  1.00  0.00     0.020 A 
ATOM     76  C   UNL     1      -1.223  18.202   7.754  1.00  0.00     0.054 A 
BRANCH  76  77
ATOM     77  S   UNL     1      -2.945  18.695   8.042  1.00  0.00     0.124 S 
ATOM     78  O   UNL     1      -2.807  19.671   9.118  1.00  0.00    -0.237 OA
ATOM     79  O   UNL     1      -3.340  19.235   6.743  1.00  0.00    -0.237 OA
ATOM     80  O   UNL     1      -3.602  17.442   8.412  1.00  0.00    -0.744 OA
ENDBRANCH  76  77
ENDBRANCH  48  71
BRANCH  60  81
ATOM     81  C   UNL     1       7.795  19.337   9.289  1.00  0.00    -0.014 A 
ATOM     82  C   UNL     1       7.620  19.224  10.679  1.00  0.00     0.010 A 
ATOM     83  C   UNL     1       8.476  20.455   8.772  1.00  0.00     0.010 A 
ATOM     84  C   UNL     1       8.080  20.231  11.532  1.00  0.00     0.020 A 
ATOM     85  C   UNL     1       8.964  21.448   9.623  1.00  0.00     0.020 A 
ATOM     86  C   UNL     1       8.746  21.339  10.998  1.00  0.00     0.054 A 
BRANCH  86  87
ATOM     87  S   UNL     1       9.356  22.621  12.126  1.00  0.00     0.124 S 
ATOM     88  O   UNL     1       8.123  23.310  12.498  1.00  0.00    -0.237 OA
ATOM     89  O   UNL     1       9.985  21.841  13.189  1.00  0.00    -0.237 OA
ATOM     90  O   UNL     1      10.280  23.397  11.302  1.00  0.00    -0.744 OA
ENDBRANCH  86  87
ENDBRANCH  60  81
ENDBRANCH  34  35
ENDBRANCH  26  29
ENDBRANCH  24  25
ENDBRANCH   1  24
TORSDOF 15
