REMARK SMILES Cc1ccc(Br)cc1S(=O)(=O)N[C@H]1C=C[C@H](C(=O)NCCCNC(=O)c2ccc(-c3c4nc(c(-c5ccc(S(=O)(=O)[O-])cc5)c5ccc([nH]5)c(-c5ccc(S(=O)(=O)[O-])cc5)c5nc(c(-c6ccc(S(=O)(=O)[O-])cc6)c6ccc3[nH]6)C=C5)C=C4)cc2)C1
REMARK SMILES IDX 21 1 20 2 19 3 17 4 18 5 16 7 13 8 14 9 86 10 15 11 12 12
REMARK SMILES IDX 9 14 10 15 11 16 8 17 1 18 2 19 3 20 4 21 7 22 5 23 6 24
REMARK SMILES IDX 22 25 23 26 24 27 25 29 26 30 27 31 85 32 28 33 84 34 29 35
REMARK SMILES IDX 30 36 31 37 78 38 32 39 83 40 77 41 79 42 33 43 82 44 76 45
REMARK SMILES IDX 75 46 34 48 64 49 45 50 63 51 46 52 49 53 62 54 80 55 47 56
REMARK SMILES IDX 48 57 61 59 81 60 50 61 35 62 36 63 44 64 37 65 43 66 38 67
REMARK SMILES IDX 39 68 40 69 41 70 42 71 65 72 66 73 74 74 67 75 73 76 68 77
REMARK SMILES IDX 69 78 70 79 71 80 72 81 51 82 52 83 60 84 53 85 59 86 54 87
REMARK SMILES IDX 55 88 56 89 57 90 58 91
REMARK H PARENT 19 6 12 13 23 28 79 47 49 58
REMARK Flexibility Score: inf
ROOT
ATOM      1  C   UNL     1       3.393   1.323  -4.536  1.00  0.00     0.042 C 
ENDROOT
BRANCH   1   2
ATOM      2  C   UNL     1       3.244   0.005  -3.789  1.00  0.00     0.117 C 
BRANCH   2   3
ATOM      3  N   UNL     1       4.358  -0.893  -4.044  1.00  0.00    -0.356 N 
ATOM      4  C   UNL     1       5.531  -1.169  -3.427  1.00  0.00     0.226 C 
ATOM      5  O   UNL     1       6.299  -1.912  -4.054  1.00  0.00    -0.274 OA
ATOM      6  H   UNL     1       4.230  -1.427  -4.861  1.00  0.00     0.163 HD
BRANCH   4   7
ATOM      7  C   UNL     1       5.980  -0.636  -2.063  1.00  0.00     0.103 C 
ATOM      8  C   UNL     1       4.999   1.410  -1.176  1.00  0.00     0.093 C 
ATOM      9  C   UNL     1       6.405   1.637  -1.627  1.00  0.00    -0.011 C 
ATOM     10  C   UNL     1       4.965  -0.120  -1.059  1.00  0.00     0.042 C 
ATOM     11  C   UNL     1       6.927   0.524  -2.161  1.00  0.00    -0.016 C 
BRANCH   8  12
ATOM     12  N   UNL     1       4.754   2.012   0.119  1.00  0.00    -0.204 NA
ATOM     13  H   UNL     1       4.975   1.307   0.823  1.00  0.00     0.142 HD
BRANCH  12  14
ATOM     14  S   UNL     1       3.216   2.594   0.470  1.00  0.00     0.241 S 
ATOM     15  O   UNL     1       2.792   3.360  -0.685  1.00  0.00    -0.207 OA
ATOM     16  O   UNL     1       3.273   3.175   1.788  1.00  0.00    -0.207 OA
BRANCH  14  17
ATOM     17  C   UNL     1       2.182   1.142   0.573  1.00  0.00     0.086 A 
ATOM     18  C   UNL     1       3.711  -0.111   2.238  1.00  0.00     0.046 C 
ATOM     19  C   UNL     1       2.528  -0.002   1.318  1.00  0.00    -0.031 A 
ATOM     20  C   UNL     1       1.690  -1.131   1.228  1.00  0.00     0.006 A 
ATOM     21  C   UNL     1       0.517  -1.108   0.472  1.00  0.00     0.016 A 
ATOM     22  C   UNL     1       0.987   1.171  -0.169  1.00  0.00     0.037 A 
ATOM     23  C   UNL     1       0.159   0.052  -0.204  1.00  0.00     0.019 A 
ATOM     24  Br  UNL     1      -1.464   0.109  -1.169  1.00  0.00    -0.051 Br
ENDBRANCH  14  17
ENDBRANCH  12  14
ENDBRANCH   8  12
ENDBRANCH   4   7
ENDBRANCH   2   3
ENDBRANCH   1   2
BRANCH   1  25
ATOM     25  C   UNL     1       3.229   1.173  -6.043  1.00  0.00     0.118 C 
BRANCH  25  26
ATOM     26  N   UNL     1       1.870   0.798  -6.415  1.00  0.00    -0.352 N 
ATOM     27  C   UNL     1       0.935   1.488  -7.147  1.00  0.00     0.251 C 
ATOM     28  H   UNL     1       1.578  -0.085  -6.092  1.00  0.00     0.163 HD
ATOM     29  O   UNL     1      -0.229   1.096  -7.164  1.00  0.00    -0.269 OA
BRANCH  27  30
ATOM     30  C   UNL     1       1.325   2.697  -7.903  1.00  0.00     0.039 A 
ATOM     31  C   UNL     1       0.469   3.801  -7.912  1.00  0.00     0.014 A 
ATOM     32  C   UNL     1       2.522   2.732  -8.623  1.00  0.00     0.014 A 
ATOM     33  C   UNL     1       0.843   4.961  -8.595  1.00  0.00     0.010 A 
ATOM     34  C   UNL     1       2.933   3.915  -9.225  1.00  0.00     0.010 A 
ATOM     35  C   UNL     1       2.093   5.038  -9.231  1.00  0.00    -0.014 A 
BRANCH  35  36
ATOM     36  C   UNL     1       2.536   6.265  -9.938  1.00  0.00     0.031 A 
ATOM     37  C   UNL     1       2.817   6.215 -11.418  1.00  0.00     0.074 A 
ATOM     38  C   UNL     1       2.767   7.396  -9.242  1.00  0.00     0.049 A 
ATOM     39  N   UNL     1       3.320   7.140 -12.195  1.00  0.00    -0.248 NA
ATOM     40  C   UNL     1       2.531   4.945 -12.106  1.00  0.00     0.031 C 
ATOM     41  C   UNL     1       2.580   7.558  -7.797  1.00  0.00     0.029 A 
ATOM     42  N   UNL     1       3.219   8.623  -9.656  1.00  0.00    -0.354 N 
ATOM     43  C   UNL     1       3.449   6.551 -13.448  1.00  0.00     0.074 A 
ATOM     44  C   UNL     1       3.010   5.179 -13.318  1.00  0.00     0.031 C 
ATOM     45  C   UNL     1       2.886   8.819  -7.453  1.00  0.00     0.029 A 
ATOM     46  C   UNL     1       3.327   9.543  -8.641  1.00  0.00     0.049 A 
ATOM     47  H   UNL     1       3.445   8.825 -10.593  1.00  0.00     0.167 HD
ATOM     48  C   UNL     1       3.875   7.106 -14.607  1.00  0.00     0.031 A 
ATOM     49  C   UNL     1       3.738  10.825  -8.664  1.00  0.00     0.031 A 
ATOM     50  C   UNL     1       4.265   8.483 -14.741  1.00  0.00     0.049 A 
ATOM     51  C   UNL     1       4.163  11.434  -9.971  1.00  0.00     0.074 A 
ATOM     52  C   UNL     1       4.640   9.165 -15.885  1.00  0.00     0.029 A 
ATOM     53  N   UNL     1       4.318   9.393 -13.696  1.00  0.00    -0.354 N 
ATOM     54  N   UNL     1       4.227  10.876 -11.156  1.00  0.00    -0.248 NA
ATOM     55  C   UNL     1       4.560  12.849  -9.945  1.00  0.00     0.031 C 
ATOM     56  C   UNL     1       4.949  10.482 -15.526  1.00  0.00     0.029 A 
ATOM     57  C   UNL     1       4.728  10.629 -14.166  1.00  0.00     0.049 A 
ATOM     58  H   UNL     1       4.096   9.190 -12.758  1.00  0.00     0.167 HD
ATOM     59  C   UNL     1       4.649  11.877 -12.022  1.00  0.00     0.074 A 
ATOM     60  C   UNL     1       4.812  13.078 -11.227  1.00  0.00     0.031 C 
ATOM     61  C   UNL     1       4.880  11.810 -13.357  1.00  0.00     0.031 A 
BRANCH  48  62
ATOM     62  C   UNL     1       3.939   6.217 -15.820  1.00  0.00    -0.014 A 
ATOM     63  C   UNL     1       2.767   5.760 -16.449  1.00  0.00     0.010 A 
ATOM     64  C   UNL     1       5.189   5.845 -16.349  1.00  0.00     0.010 A 
ATOM     65  C   UNL     1       2.842   4.907 -17.554  1.00  0.00     0.020 A 
ATOM     66  C   UNL     1       5.268   5.014 -17.470  1.00  0.00     0.020 A 
ATOM     67  C   UNL     1       4.093   4.534 -18.053  1.00  0.00     0.054 A 
BRANCH  67  68
ATOM     68  S   UNL     1       4.165   3.433 -19.493  1.00  0.00     0.124 S 
ATOM     69  O   UNL     1       3.858   2.136 -18.894  1.00  0.00    -0.237 OA
ATOM     70  O   UNL     1       3.132   3.980 -20.369  1.00  0.00    -0.237 OA
ATOM     71  O   UNL     1       5.535   3.587 -19.978  1.00  0.00    -0.744 OA
ENDBRANCH  67  68
ENDBRANCH  48  62
BRANCH  49  72
ATOM     72  C   UNL     1       3.735  11.628  -7.411  1.00  0.00    -0.014 A 
ATOM     73  C   UNL     1       2.758  12.619  -7.210  1.00  0.00     0.010 A 
ATOM     74  C   UNL     1       4.691  11.394  -6.407  1.00  0.00     0.010 A 
ATOM     75  C   UNL     1       2.746  13.373  -6.033  1.00  0.00     0.020 A 
ATOM     76  C   UNL     1       4.669  12.131  -5.219  1.00  0.00     0.020 A 
ATOM     77  C   UNL     1       3.702  13.124  -5.045  1.00  0.00     0.054 A 
BRANCH  77  78
ATOM     78  S   UNL     1       3.636  14.078  -3.502  1.00  0.00     0.124 S 
ATOM     79  O   UNL     1       4.202  15.359  -3.913  1.00  0.00    -0.237 OA
ATOM     80  O   UNL     1       2.208  14.086  -3.194  1.00  0.00    -0.237 OA
ATOM     81  O   UNL     1       4.459  13.295  -2.583  1.00  0.00    -0.744 OA
ENDBRANCH  77  78
ENDBRANCH  49  72
BRANCH  61  82
ATOM     82  C   UNL     1       5.303  13.077 -14.046  1.00  0.00    -0.014 A 
ATOM     83  C   UNL     1       6.609  13.576 -13.908  1.00  0.00     0.010 A 
ATOM     84  C   UNL     1       4.394  13.745 -14.886  1.00  0.00     0.010 A 
ATOM     85  C   UNL     1       6.992  14.740 -14.579  1.00  0.00     0.020 A 
ATOM     86  C   UNL     1       4.780  14.896 -15.576  1.00  0.00     0.020 A 
ATOM     87  C   UNL     1       6.074  15.394 -15.407  1.00  0.00     0.054 A 
BRANCH  87  88
ATOM     88  S   UNL     1       6.606  16.878 -16.305  1.00  0.00     0.124 S 
ATOM     89  O   UNL     1       6.572  17.894 -15.258  1.00  0.00    -0.237 OA
ATOM     90  O   UNL     1       7.938  16.508 -16.779  1.00  0.00    -0.237 OA
ATOM     91  O   UNL     1       5.599  17.026 -17.353  1.00  0.00    -0.744 OA
ENDBRANCH  87  88
ENDBRANCH  61  82
ENDBRANCH  35  36
ENDBRANCH  27  30
ENDBRANCH  25  26
ENDBRANCH   1  25
TORSDOF 16
