REMARK SMILES O=C(C[N@H+]1CCC[C@@H]1C(=O)NCCCNC(=O)c1ccc(-c2c3nc(c(-c4ccc(S(=O)(=O)[O-])cc4)c4ccc([nH]4)c(-c4ccc(S(=O)(=O)[O-])cc4)c4nc(c(-c5ccc(S(=O)(=O)[O-])cc5)c5ccc2[nH]5)C=C4)C=C3)cc1)NCc1ccc(Cl)cc1
REMARK SMILES IDX 12 1 11 2 9 3 10 4 8 6 4 7 5 8 6 10 7 11 3 12 2 13 1 14
REMARK SMILES IDX 78 15 79 17 80 18 81 19 86 20 82 21 85 22 83 23 84 24 13 25
REMARK SMILES IDX 14 26 15 27 16 28 17 30 18 31 19 32 77 33 20 34 76 35 21 36
REMARK SMILES IDX 22 37 23 38 70 39 24 40 75 41 69 42 71 43 25 44 74 45 68 46
REMARK SMILES IDX 67 47 26 49 56 50 37 51 55 52 38 53 41 54 54 55 72 56 39 57
REMARK SMILES IDX 40 58 53 60 73 61 42 62 27 63 28 64 36 65 29 66 35 67 30 68
REMARK SMILES IDX 31 69 32 70 33 71 34 72 57 73 58 74 66 75 59 76 65 77 60 78
REMARK SMILES IDX 61 79 62 80 63 81 64 82 43 83 44 84 52 85 45 86 51 87 46 88
REMARK SMILES IDX 47 89 48 90 49 91 50 92
REMARK H PARENT 11 5 4 9 78 16 15 29 71 48 41 59
REMARK Flexibility Score: inf
ROOT
ATOM      1  C   UNL     1       1.416   2.437   0.329  1.00  0.00     0.118 C 
ENDROOT
BRANCH   1   2
ATOM      2  N   UNL     1       1.677   3.155  -0.891  1.00  0.00    -0.351 N 
ATOM      3  C   UNL     1       2.772   3.044  -1.692  1.00  0.00     0.278 C 
ATOM      4  O   UNL     1       2.693   3.526  -2.828  1.00  0.00    -0.268 OA
ATOM      5  H   UNL     1       0.988   3.797  -1.177  1.00  0.00     0.163 HD
BRANCH   3   6
ATOM      6  C   UNL     1       4.090   2.425  -1.210  1.00  0.00     0.274 C 
ATOM      7  N   UNL     1       4.096   1.030  -0.765  1.00  0.00    -0.317 N 
ATOM      8  C   UNL     1       5.327   0.800  -0.049  1.00  0.00     0.263 C 
ATOM      9  H   UNL     1       3.196   0.846  -0.323  1.00  0.00     0.349 HD
ATOM     10  C   UNL     1       5.224   1.980   0.906  1.00  0.00     0.068 C 
ATOM     11  C   UNL     1       4.701   3.123   0.021  1.00  0.00     0.081 C 
BRANCH   7  12
ATOM     12  C   UNL     1       3.241  -0.041  -1.229  1.00  0.00     0.364 C 
BRANCH  12  13
ATOM     13  C   UNL     1       2.248  -0.489  -0.114  1.00  0.00     0.275 C 
ATOM     14  O   UNL     1       1.072  -0.746  -0.365  1.00  0.00    -0.268 OA
ATOM     15  N   UNL     1       2.750  -0.550   1.169  1.00  0.00    -0.347 N 
ATOM     16  H   UNL     1       3.729  -0.566   1.278  1.00  0.00     0.164 HD
BRANCH  15  17
ATOM     17  C   UNL     1       1.937  -0.592   2.367  1.00  0.00     0.151 C 
BRANCH  17  18
ATOM     18  C   UNL     1       2.283  -1.772   3.237  1.00  0.00    -0.029 A 
ATOM     19  C   UNL     1       2.286  -3.064   2.693  1.00  0.00     0.007 A 
ATOM     20  C   UNL     1       2.545  -1.612   4.608  1.00  0.00     0.007 A 
ATOM     21  C   UNL     1       2.558  -4.173   3.494  1.00  0.00     0.021 A 
ATOM     22  C   UNL     1       2.813  -2.724   5.412  1.00  0.00     0.021 A 
ATOM     23  C   UNL     1       2.819  -3.999   4.851  1.00  0.00     0.041 A 
ATOM     24  Cl  UNL     1       3.141  -5.372   5.836  1.00  0.00    -0.084 Cl
ENDBRANCH  17  18
ENDBRANCH  15  17
ENDBRANCH  12  13
ENDBRANCH   7  12
ENDBRANCH   3   6
ENDBRANCH   1   2
BRANCH   1  25
ATOM     25  C   UNL     1       0.961   3.283   1.492  1.00  0.00     0.042 C 
BRANCH  25  26
ATOM     26  C   UNL     1      -0.454   3.803   1.349  1.00  0.00     0.118 C 
BRANCH  26  27
ATOM     27  N   UNL     1      -1.451   2.743   1.232  1.00  0.00    -0.352 N 
ATOM     28  C   UNL     1      -2.537   2.446   2.016  1.00  0.00     0.251 C 
ATOM     29  H   UNL     1      -1.323   2.142   0.463  1.00  0.00     0.163 HD
ATOM     30  O   UNL     1      -3.171   1.413   1.807  1.00  0.00    -0.269 OA
BRANCH  28  31
ATOM     31  C   UNL     1      -2.927   3.336   3.129  1.00  0.00     0.039 A 
ATOM     32  C   UNL     1      -3.395   2.768   4.316  1.00  0.00     0.014 A 
ATOM     33  C   UNL     1      -2.830   4.724   3.014  1.00  0.00     0.014 A 
ATOM     34  C   UNL     1      -3.693   3.590   5.403  1.00  0.00     0.010 A 
ATOM     35  C   UNL     1      -2.998   5.527   4.134  1.00  0.00     0.010 A 
ATOM     36  C   UNL     1      -3.454   4.973   5.335  1.00  0.00    -0.014 A 
BRANCH  36  37
ATOM     37  C   UNL     1      -3.704   5.853   6.504  1.00  0.00     0.031 A 
ATOM     38  C   UNL     1      -4.711   6.971   6.408  1.00  0.00     0.074 A 
ATOM     39  C   UNL     1      -3.004   5.661   7.640  1.00  0.00     0.049 A 
ATOM     40  N   UNL     1      -5.072   7.832   7.324  1.00  0.00    -0.248 NA
ATOM     41  C   UNL     1      -5.379   7.167   5.109  1.00  0.00     0.031 C 
ATOM     42  C   UNL     1      -1.960   4.649   7.835  1.00  0.00     0.029 A 
ATOM     43  N   UNL     1      -3.072   6.300   8.852  1.00  0.00    -0.354 N 
ATOM     44  C   UNL     1      -6.000   8.668   6.712  1.00  0.00     0.074 A 
ATOM     45  C   UNL     1      -6.089   8.262   5.328  1.00  0.00     0.031 C 
ATOM     46  C   UNL     1      -1.531   4.698   9.106  1.00  0.00     0.029 A 
ATOM     47  C   UNL     1      -2.233   5.769   9.803  1.00  0.00     0.049 A 
ATOM     48  H   UNL     1      -3.666   7.066   9.024  1.00  0.00     0.167 HD
ATOM     49  C   UNL     1      -6.741   9.661   7.258  1.00  0.00     0.031 A 
ATOM     50  C   UNL     1      -2.059   6.101  11.097  1.00  0.00     0.031 A 
ATOM     51  C   UNL     1      -6.658  10.053   8.639  1.00  0.00     0.049 A 
ATOM     52  C   UNL     1      -2.892   7.211  11.678  1.00  0.00     0.074 A 
ATOM     53  C   UNL     1      -7.390  11.021   9.305  1.00  0.00     0.029 A 
ATOM     54  N   UNL     1      -5.797   9.492   9.569  1.00  0.00    -0.354 N 
ATOM     55  N   UNL     1      -3.807   7.949  11.095  1.00  0.00    -0.248 NA
ATOM     56  C   UNL     1      -2.681   7.517  13.098  1.00  0.00     0.031 C 
ATOM     57  C   UNL     1      -6.934  11.079  10.626  1.00  0.00     0.029 A 
ATOM     58  C   UNL     1      -5.967  10.102  10.800  1.00  0.00     0.049 A 
ATOM     59  H   UNL     1      -5.158   8.766   9.382  1.00  0.00     0.167 HD
ATOM     60  C   UNL     1      -4.307   8.784  12.089  1.00  0.00     0.074 A 
ATOM     61  C   UNL     1      -3.608   8.439  13.311  1.00  0.00     0.031 C 
ATOM     62  C   UNL     1      -5.258   9.748  12.003  1.00  0.00     0.031 A 
BRANCH  49  63
ATOM     63  C   UNL     1      -7.715  10.379   6.360  1.00  0.00    -0.014 A 
ATOM     64  C   UNL     1      -8.857   9.724   5.861  1.00  0.00     0.010 A 
ATOM     65  C   UNL     1      -7.516  11.735   6.047  1.00  0.00     0.010 A 
ATOM     66  C   UNL     1      -9.762  10.401   5.039  1.00  0.00     0.020 A 
ATOM     67  C   UNL     1      -8.436  12.425   5.251  1.00  0.00     0.020 A 
ATOM     68  C   UNL     1      -9.546  11.749   4.742  1.00  0.00     0.054 A 
BRANCH  68  69
ATOM     69  S   UNL     1     -10.762  12.613   3.709  1.00  0.00     0.124 S 
ATOM     70  O   UNL     1     -10.521  12.016   2.397  1.00  0.00    -0.237 OA
ATOM     71  O   UNL     1     -12.029  12.253   4.340  1.00  0.00    -0.237 OA
ATOM     72  O   UNL     1     -10.385  14.019   3.832  1.00  0.00    -0.744 OA
ENDBRANCH  68  69
ENDBRANCH  49  63
BRANCH  50  73
ATOM     73  C   UNL     1      -1.081   5.359  11.941  1.00  0.00    -0.014 A 
ATOM     74  C   UNL     1      -1.521   4.545  13.001  1.00  0.00     0.010 A 
ATOM     75  C   UNL     1       0.300   5.477  11.701  1.00  0.00     0.010 A 
ATOM     76  C   UNL     1      -0.600   3.898  13.829  1.00  0.00     0.020 A 
ATOM     77  C   UNL     1       1.224   4.804  12.506  1.00  0.00     0.020 A 
ATOM     78  C   UNL     1       0.768   4.035  13.578  1.00  0.00     0.054 A 
BRANCH  78  79
ATOM     79  S   UNL     1       1.947   3.173  14.654  1.00  0.00     0.124 S 
ATOM     80  O   UNL     1       1.875   3.964  15.878  1.00  0.00    -0.237 OA
ATOM     81  O   UNL     1       1.380   1.829  14.731  1.00  0.00    -0.237 OA
ATOM     82  O   UNL     1       3.208   3.266  13.920  1.00  0.00    -0.744 OA
ENDBRANCH  78  79
ENDBRANCH  50  73
BRANCH  62  83
ATOM     83  C   UNL     1      -5.626  10.461  13.278  1.00  0.00    -0.014 A 
ATOM     84  C   UNL     1      -4.726  11.331  13.919  1.00  0.00     0.010 A 
ATOM     85  C   UNL     1      -6.899  10.254  13.841  1.00  0.00     0.010 A 
ATOM     86  C   UNL     1      -5.068  11.929  15.134  1.00  0.00     0.020 A 
ATOM     87  C   UNL     1      -7.258  10.879  15.036  1.00  0.00     0.020 A 
ATOM     88  C   UNL     1      -6.329  11.692  15.689  1.00  0.00     0.054 A 
BRANCH  88  89
ATOM     89  S   UNL     1      -6.747  12.471  17.272  1.00  0.00     0.124 S 
ATOM     90  O   UNL     1      -5.959  11.681  18.215  1.00  0.00    -0.237 OA
ATOM     91  O   UNL     1      -6.300  13.848  17.079  1.00  0.00    -0.237 OA
ATOM     92  O   UNL     1      -8.194  12.299  17.372  1.00  0.00    -0.744 OA
ENDBRANCH  88  89
ENDBRANCH  62  83
ENDBRANCH  36  37
ENDBRANCH  28  31
ENDBRANCH  26  27
ENDBRANCH  25  26
ENDBRANCH   1  25
TORSDOF 17
