REMARK SMILES CC(=C/C(=O)NCCCNC(=O)c1ccc(-c2c3nc(c(-c4ccc(S(=O)(=O)[O-])cc4)c4ccc([nH]4)c(-c4ccc(S(=O)(=O)[O-])cc4)c4nc(c(-c5ccc(S(=O)(=O)[O-])cc5)c5ccc2[nH]5)C=C4)C=C3)cc1)/C=C/c1ccc2ccccc2c1
REMARK SMILES IDX 8 1 7 2 6 3 4 4 5 5 3 7 1 8 2 9 73 10 74 11 75 12 76 13
REMARK SMILES IDX 84 14 77 15 83 16 78 17 82 18 79 19 81 20 80 21 9 22 10 23
REMARK SMILES IDX 11 24 12 26 13 27 14 28 72 29 15 30 71 31 16 32 17 33 18 34
REMARK SMILES IDX 65 35 19 36 70 37 64 38 66 39 20 40 69 41 63 42 62 43 21 45
REMARK SMILES IDX 51 46 32 47 50 48 33 49 36 50 49 51 67 52 34 53 35 54 48 56
REMARK SMILES IDX 68 57 37 58 22 59 23 60 31 61 24 62 30 63 25 64 26 65 27 66
REMARK SMILES IDX 28 67 29 68 52 69 53 70 61 71 54 72 60 73 55 74 56 75 57 76
REMARK SMILES IDX 58 77 59 78 38 79 39 80 47 81 40 82 46 83 41 84 42 85 43 86
REMARK SMILES IDX 44 87 45 88
REMARK H PARENT 6 6 10 25 66 44 36 55
REMARK Flexibility Score: inf
ROOT
ATOM      1  C   UNL     1       1.570   5.428  -0.012  1.00  0.00     0.042 C 
ENDROOT
BRANCH   1   2
ATOM      2  C   UNL     1       0.574   4.332   0.274  1.00  0.00     0.118 C 
BRANCH   2   3
ATOM      3  N   UNL     1      -0.420   4.063  -0.735  1.00  0.00    -0.352 N 
ATOM      4  C   UNL     1      -0.887   2.862  -1.171  1.00  0.00     0.244 C 
ATOM      5  O   UNL     1      -1.774   2.854  -2.028  1.00  0.00    -0.270 OA
ATOM      6  H   UNL     1      -0.814   4.856  -1.166  1.00  0.00     0.163 HD
BRANCH   4   7
ATOM      7  C   UNL     1      -0.295   1.546  -0.773  1.00  0.00     0.074 C 
ATOM      8  C   UNL     1       0.823  -0.402   0.239  1.00  0.00     0.044 C 
ATOM      9  C   UNL     1       0.258   0.999   0.332  1.00  0.00    -0.046 C 
BRANCH   9  10
ATOM     10  C   UNL     1       0.428   1.675   1.618  1.00  0.00     0.004 C 
ATOM     11  C   UNL     1       1.632   1.722   2.222  1.00  0.00     0.008 C 
BRANCH  11  12
ATOM     12  C   UNL     1       2.101   2.700   3.226  1.00  0.00    -0.025 A 
ATOM     13  C   UNL     1       3.484   2.938   3.264  1.00  0.00     0.009 A 
ATOM     14  C   UNL     1       1.280   3.433   4.093  1.00  0.00     0.016 A 
ATOM     15  C   UNL     1       4.039   3.878   4.135  1.00  0.00     0.009 A 
ATOM     16  C   UNL     1       1.828   4.383   4.991  1.00  0.00    -0.018 A 
ATOM     17  C   UNL     1       3.225   4.601   5.008  1.00  0.00    -0.018 A 
ATOM     18  C   UNL     1       1.028   5.124   5.879  1.00  0.00     0.009 A 
ATOM     19  C   UNL     1       3.783   5.533   5.897  1.00  0.00     0.009 A 
ATOM     20  C   UNL     1       1.597   6.042   6.768  1.00  0.00     0.001 A 
ATOM     21  C   UNL     1       2.973   6.245   6.779  1.00  0.00     0.001 A 
ENDBRANCH  11  12
ENDBRANCH   9  10
ENDBRANCH   4   7
ENDBRANCH   2   3
ENDBRANCH   1   2
BRANCH   1  22
ATOM     22  C   UNL     1       1.059   6.844   0.150  1.00  0.00     0.118 C 
BRANCH  22  23
ATOM     23  N   UNL     1       0.546   7.159   1.479  1.00  0.00    -0.352 N 
ATOM     24  C   UNL     1       1.026   7.963   2.494  1.00  0.00     0.251 C 
ATOM     25  H   UNL     1      -0.305   6.713   1.693  1.00  0.00     0.163 HD
ATOM     26  O   UNL     1       0.409   8.023   3.548  1.00  0.00    -0.269 OA
BRANCH  24  27
ATOM     27  C   UNL     1       2.285   8.728   2.329  1.00  0.00     0.039 A 
ATOM     28  C   UNL     1       3.161   8.848   3.415  1.00  0.00     0.014 A 
ATOM     29  C   UNL     1       2.610   9.335   1.119  1.00  0.00     0.014 A 
ATOM     30  C   UNL     1       4.396   9.487   3.249  1.00  0.00     0.010 A 
ATOM     31  C   UNL     1       3.885   9.842   0.915  1.00  0.00     0.010 A 
ATOM     32  C   UNL     1       4.788   9.943   1.982  1.00  0.00    -0.014 A 
BRANCH  32  33
ATOM     33  C   UNL     1       6.105  10.583   1.734  1.00  0.00     0.031 A 
ATOM     34  C   UNL     1       6.151  11.996   1.208  1.00  0.00     0.074 A 
ATOM     35  C   UNL     1       7.243   9.877   1.889  1.00  0.00     0.049 A 
ATOM     36  N   UNL     1       7.178  12.692   0.794  1.00  0.00    -0.248 NA
ATOM     37  C   UNL     1       4.864  12.705   1.096  1.00  0.00     0.031 C 
ATOM     38  C   UNL     1       7.328   8.489   2.355  1.00  0.00     0.029 A 
ATOM     39  N   UNL     1       8.550  10.227   1.660  1.00  0.00    -0.354 N 
ATOM     40  C   UNL     1       6.657  13.903   0.352  1.00  0.00     0.074 A 
ATOM     41  C   UNL     1       5.220  13.822   0.483  1.00  0.00     0.031 C 
ATOM     42  C   UNL     1       8.619   8.119   2.405  1.00  0.00     0.029 A 
ATOM     43  C   UNL     1       9.449   9.222   1.933  1.00  0.00     0.049 A 
ATOM     44  H   UNL     1       8.819  11.115   1.330  1.00  0.00     0.167 HD
ATOM     45  C   UNL     1       7.314  15.000  -0.093  1.00  0.00     0.031 A 
ATOM     46  C   UNL     1      10.790   9.194   1.808  1.00  0.00     0.031 A 
ATOM     47  C   UNL     1       8.744  15.084  -0.198  1.00  0.00     0.049 A 
ATOM     48  C   UNL     1      11.500  10.421   1.299  1.00  0.00     0.074 A 
ATOM     49  C   UNL     1       9.517  16.159  -0.597  1.00  0.00     0.029 A 
ATOM     50  N   UNL     1       9.618  14.052   0.111  1.00  0.00    -0.354 N 
ATOM     51  N   UNL     1      10.992  11.573   0.930  1.00  0.00    -0.248 NA
ATOM     52  C   UNL     1      12.964  10.347   1.200  1.00  0.00     0.031 C 
ATOM     53  C   UNL     1      10.858  15.763  -0.569  1.00  0.00     0.029 A 
ATOM     54  C   UNL     1      10.922  14.460  -0.100  1.00  0.00     0.049 A 
ATOM     55  H   UNL     1       9.349  13.161   0.432  1.00  0.00     0.167 HD
ATOM     56  C   UNL     1      12.078  12.372   0.588  1.00  0.00     0.074 A 
ATOM     57  C   UNL     1      13.268  11.576   0.805  1.00  0.00     0.031 C 
ATOM     58  C   UNL     1      12.091  13.651   0.136  1.00  0.00     0.031 A 
BRANCH  45  59
ATOM     59  C   UNL     1       6.483  16.193  -0.487  1.00  0.00    -0.014 A 
ATOM     60  C   UNL     1       5.782  16.936   0.480  1.00  0.00     0.010 A 
ATOM     61  C   UNL     1       6.412  16.587  -1.835  1.00  0.00     0.010 A 
ATOM     62  C   UNL     1       4.986  18.020   0.102  1.00  0.00     0.020 A 
ATOM     63  C   UNL     1       5.641  17.691  -2.215  1.00  0.00     0.020 A 
ATOM     64  C   UNL     1       4.918  18.388  -1.245  1.00  0.00     0.054 A 
BRANCH  64  65
ATOM     65  S   UNL     1       3.888  19.809  -1.704  1.00  0.00     0.124 S 
ATOM     66  O   UNL     1       2.541  19.263  -1.560  1.00  0.00    -0.237 OA
ATOM     67  O   UNL     1       4.268  20.813  -0.714  1.00  0.00    -0.237 OA
ATOM     68  O   UNL     1       4.297  20.104  -3.075  1.00  0.00    -0.744 OA
ENDBRANCH  64  65
ENDBRANCH  45  59
BRANCH  46  69
ATOM     69  C   UNL     1      11.557   7.975   2.193  1.00  0.00    -0.014 A 
ATOM     70  C   UNL     1      12.385   7.986   3.330  1.00  0.00     0.010 A 
ATOM     71  C   UNL     1      11.471   6.800   1.424  1.00  0.00     0.010 A 
ATOM     72  C   UNL     1      13.134   6.857   3.675  1.00  0.00     0.020 A 
ATOM     73  C   UNL     1      12.197   5.660   1.782  1.00  0.00     0.020 A 
ATOM     74  C   UNL     1      13.037   5.701   2.897  1.00  0.00     0.054 A 
BRANCH  74  75
ATOM     75  S   UNL     1      13.993   4.236   3.382  1.00  0.00     0.124 S 
ATOM     76  O   UNL     1      15.348   4.618   2.998  1.00  0.00    -0.237 OA
ATOM     77  O   UNL     1      13.740   4.156   4.818  1.00  0.00    -0.237 OA
ATOM     78  O   UNL     1      13.395   3.162   2.591  1.00  0.00    -0.744 OA
ENDBRANCH  74  75
ENDBRANCH  46  69
BRANCH  58  79
ATOM     79  C   UNL     1      13.432  14.286  -0.107  1.00  0.00    -0.014 A 
ATOM     80  C   UNL     1      14.222  13.923  -1.211  1.00  0.00     0.010 A 
ATOM     81  C   UNL     1      13.876  15.310   0.750  1.00  0.00     0.010 A 
ATOM     82  C   UNL     1      15.447  14.556  -1.439  1.00  0.00     0.020 A 
ATOM     83  C   UNL     1      15.085  15.964   0.510  1.00  0.00     0.020 A 
ATOM     84  C   UNL     1      15.870  15.573  -0.577  1.00  0.00     0.054 A 
BRANCH  84  85
ATOM     85  S   UNL     1      17.438  16.415  -0.924  1.00  0.00     0.124 S 
ATOM     86  O   UNL     1      18.418  15.409  -0.525  1.00  0.00    -0.237 OA
ATOM     87  O   UNL     1      17.352  16.673  -2.360  1.00  0.00    -0.237 OA
ATOM     88  O   UNL     1      17.387  17.606  -0.079  1.00  0.00    -0.744 OA
ENDBRANCH  84  85
ENDBRANCH  58  79
ENDBRANCH  32  33
ENDBRANCH  24  27
ENDBRANCH  22  23
ENDBRANCH   1  22
TORSDOF 15
