REMARK SMILES C[C@H](NC(=O)c1c(C(=O)NCCCNC(=O)c2ccc(-c3c4nc(c(-c5ccc(S(=O)(=O)[O-])cc5)c5ccc([nH]5)c(-c5ccc(S(=O)(=O)[O-])cc5)c5nc(c(-c6ccc(S(=O)(=O)[O-])cc6)c6ccc3[nH]6)C=C5)C=C4)cc2)cnn1C)[C@]12C[C@H]3C[C@H](C[C@H](C3)C1)C2
REMARK SMILES IDX 12 1 11 2 10 3 8 4 9 5 7 7 6 8 79 9 77 10 78 11 80 12 4 13
REMARK SMILES IDX 3 14 5 16 2 17 1 18 81 19 82 20 89 21 90 22 83 23 87 24
REMARK SMILES IDX 85 25 84 26 88 27 86 28 13 29 14 30 15 31 16 33 17 34 18 35
REMARK SMILES IDX 76 36 19 37 75 38 20 39 21 40 22 41 69 42 23 43 74 44 68 45
REMARK SMILES IDX 70 46 24 47 73 48 67 49 66 50 25 52 55 53 36 54 54 55 37 56
REMARK SMILES IDX 40 57 53 58 71 59 38 60 39 61 52 63 72 64 41 65 26 66 27 67
REMARK SMILES IDX 35 68 28 69 34 70 29 71 30 72 31 73 32 74 33 75 56 76 57 77
REMARK SMILES IDX 65 78 58 79 64 80 59 81 60 82 61 83 62 84 63 85 42 86 43 87
REMARK SMILES IDX 51 88 44 89 50 90 45 91 46 92 47 93 48 94 49 95
REMARK H PARENT 10 6 3 15 14 32 70 51 40 62
REMARK Flexibility Score: inf
ROOT
ATOM      1  C   UNL     1      -1.000  -0.417  -3.438  1.00  0.00     0.042 C 
ENDROOT
BRANCH   1   2
ATOM      2  C   UNL     1       0.222   0.445  -3.104  1.00  0.00     0.118 C 
BRANCH   2   3
ATOM      3  N   UNL     1      -0.083   1.855  -3.251  1.00  0.00    -0.352 N 
ATOM      4  C   UNL     1       0.262   3.018  -2.628  1.00  0.00     0.255 C 
ATOM      5  O   UNL     1      -0.257   4.017  -3.142  1.00  0.00    -0.269 OA
ATOM      6  H   UNL     1      -0.702   2.016  -3.999  1.00  0.00     0.163 HD
BRANCH   4   7
ATOM      7  C   UNL     1       1.176   3.200  -1.507  1.00  0.00     0.090 A 
ATOM      8  C   UNL     1       1.870   2.396  -0.603  1.00  0.00     0.138 A 
ATOM      9  N   UNL     1       2.721   3.250   0.068  1.00  0.00    -0.262 N 
ATOM     10  C   UNL     1       1.560   4.519  -1.113  1.00  0.00     0.149 A 
ATOM     11  N   UNL     1       2.476   4.549  -0.151  1.00  0.00    -0.180 NA
ATOM     12  C   UNL     1       3.847   2.912   0.911  1.00  0.00     0.174 C 
BRANCH   8  13
ATOM     13  C   UNL     1       1.976   0.982  -0.448  1.00  0.00     0.270 C 
ATOM     14  N   UNL     1       1.358   0.343   0.592  1.00  0.00    -0.348 N 
ATOM     15  H   UNL     1       1.528  -0.626   0.572  1.00  0.00     0.164 HD
ATOM     16  O   UNL     1       2.673   0.302  -1.199  1.00  0.00    -0.267 OA
BRANCH  14  17
ATOM     17  C   UNL     1       0.505   0.721   1.735  1.00  0.00     0.085 C 
ATOM     18  C   UNL     1       1.050   1.875   2.574  1.00  0.00     0.031 C 
BRANCH  17  19
ATOM     19  C   UNL     1      -1.048   0.758   1.478  1.00  0.00    -0.009 C 
ATOM     20  C   UNL     1      -1.758   0.024   2.661  1.00  0.00     0.012 C 
ATOM     21  C   UNL     1      -1.451   0.023   0.177  1.00  0.00     0.012 C 
ATOM     22  C   UNL     1      -1.634   2.196   1.404  1.00  0.00     0.012 C 
ATOM     23  C   UNL     1      -3.283  -0.011   2.475  1.00  0.00    -0.010 C 
ATOM     24  C   UNL     1      -2.976  -0.016  -0.015  1.00  0.00    -0.010 C 
ATOM     25  C   UNL     1      -3.165   2.165   1.216  1.00  0.00    -0.010 C 
ATOM     26  C   UNL     1      -3.811   1.429   2.402  1.00  0.00     0.007 C 
ATOM     27  C   UNL     1      -3.617  -0.748   1.170  1.00  0.00     0.007 C 
ATOM     28  C   UNL     1      -3.508   1.423  -0.083  1.00  0.00     0.007 C 
ENDBRANCH  17  19
ENDBRANCH  14  17
ENDBRANCH   8  13
ENDBRANCH   4   7
ENDBRANCH   2   3
ENDBRANCH   1   2
BRANCH   1  29
ATOM     29  C   UNL     1      -1.283  -0.516  -4.934  1.00  0.00     0.118 C 
BRANCH  29  30
ATOM     30  N   UNL     1      -0.739  -1.718  -5.540  1.00  0.00    -0.352 N 
ATOM     31  C   UNL     1      -1.123  -3.035  -5.471  1.00  0.00     0.251 C 
ATOM     32  H   UNL     1       0.052  -1.560  -6.105  1.00  0.00     0.163 HD
ATOM     33  O   UNL     1      -0.397  -3.877  -5.999  1.00  0.00    -0.269 OA
BRANCH  31  34
ATOM     34  C   UNL     1      -2.341  -3.488  -4.747  1.00  0.00     0.039 A 
ATOM     35  C   UNL     1      -2.274  -4.711  -4.064  1.00  0.00     0.014 A 
ATOM     36  C   UNL     1      -3.562  -2.811  -4.794  1.00  0.00     0.014 A 
ATOM     37  C   UNL     1      -3.397  -5.228  -3.407  1.00  0.00     0.010 A 
ATOM     38  C   UNL     1      -4.671  -3.299  -4.091  1.00  0.00     0.010 A 
ATOM     39  C   UNL     1      -4.604  -4.516  -3.396  1.00  0.00    -0.014 A 
BRANCH  39  40
ATOM     40  C   UNL     1      -5.804  -5.031  -2.682  1.00  0.00     0.031 A 
ATOM     41  C   UNL     1      -7.043  -5.420  -3.447  1.00  0.00     0.074 A 
ATOM     42  C   UNL     1      -5.812  -5.104  -1.337  1.00  0.00     0.049 A 
ATOM     43  N   UNL     1      -8.225  -5.749  -2.989  1.00  0.00    -0.248 NA
ATOM     44  C   UNL     1      -6.945  -5.423  -4.915  1.00  0.00     0.031 C 
ATOM     45  C   UNL     1      -4.693  -4.756  -0.459  1.00  0.00     0.029 A 
ATOM     46  N   UNL     1      -6.807  -5.488  -0.471  1.00  0.00    -0.354 N 
ATOM     47  C   UNL     1      -9.025  -5.945  -4.107  1.00  0.00     0.074 A 
ATOM     48  C   UNL     1      -8.191  -5.709  -5.268  1.00  0.00     0.031 C 
ATOM     49  C   UNL     1      -5.057  -4.964   0.817  1.00  0.00     0.029 A 
ATOM     50  C   UNL     1      -6.445  -5.417   0.852  1.00  0.00     0.049 A 
ATOM     51  H   UNL     1      -7.696  -5.787  -0.771  1.00  0.00     0.167 HD
ATOM     52  C   UNL     1     -10.336  -6.284  -4.169  1.00  0.00     0.031 A 
ATOM     53  C   UNL     1      -7.150  -5.664   1.972  1.00  0.00     0.031 A 
ATOM     54  C   UNL     1     -11.164  -6.579  -3.032  1.00  0.00     0.049 A 
ATOM     55  C   UNL     1      -8.594  -6.064   1.880  1.00  0.00     0.074 A 
ATOM     56  C   UNL     1     -12.485  -6.995  -3.013  1.00  0.00     0.029 A 
ATOM     57  N   UNL     1     -10.752  -6.497  -1.713  1.00  0.00    -0.354 N 
ATOM     58  N   UNL     1      -9.330  -6.239   0.811  1.00  0.00    -0.248 NA
ATOM     59  C   UNL     1      -9.304  -6.280   3.149  1.00  0.00     0.031 C 
ATOM     60  C   UNL     1     -12.877  -7.149  -1.677  1.00  0.00     0.029 A 
ATOM     61  C   UNL     1     -11.795  -6.840  -0.869  1.00  0.00     0.049 A 
ATOM     62  H   UNL     1      -9.850  -6.234  -1.418  1.00  0.00     0.167 HD
ATOM     63  C   UNL     1     -10.594  -6.580   1.278  1.00  0.00     0.074 A 
ATOM     64  C   UNL     1     -10.520  -6.600   2.724  1.00  0.00     0.031 C 
ATOM     65  C   UNL     1     -11.715  -6.846   0.567  1.00  0.00     0.031 A 
BRANCH  52  66
ATOM     66  C   UNL     1     -10.965  -6.328  -5.531  1.00  0.00    -0.014 A 
ATOM     67  C   UNL     1     -10.830  -7.457  -6.357  1.00  0.00     0.010 A 
ATOM     68  C   UNL     1     -11.718  -5.228  -5.979  1.00  0.00     0.010 A 
ATOM     69  C   UNL     1     -11.411  -7.470  -7.629  1.00  0.00     0.020 A 
ATOM     70  C   UNL     1     -12.308  -5.243  -7.245  1.00  0.00     0.020 A 
ATOM     71  C   UNL     1     -12.134  -6.357  -8.070  1.00  0.00     0.054 A 
BRANCH  71  72
ATOM     72  S   UNL     1     -12.885  -6.380  -9.721  1.00  0.00     0.124 S 
ATOM     73  O   UNL     1     -11.788  -5.894 -10.554  1.00  0.00    -0.237 OA
ATOM     74  O   UNL     1     -13.236  -7.786  -9.907  1.00  0.00    -0.237 OA
ATOM     75  O   UNL     1     -14.021  -5.472  -9.590  1.00  0.00    -0.744 OA
ENDBRANCH  71  72
ENDBRANCH  52  66
BRANCH  53  76
ATOM     76  C   UNL     1      -6.492  -5.515   3.292  1.00  0.00    -0.014 A 
ATOM     77  C   UNL     1      -5.983  -6.644   3.956  1.00  0.00     0.010 A 
ATOM     78  C   UNL     1      -6.334  -4.242   3.866  1.00  0.00     0.010 A 
ATOM     79  C   UNL     1      -5.317  -6.502   5.176  1.00  0.00     0.020 A 
ATOM     80  C   UNL     1      -5.659  -4.097   5.080  1.00  0.00     0.020 A 
ATOM     81  C   UNL     1      -5.157  -5.228   5.729  1.00  0.00     0.054 A 
BRANCH  81  82
ATOM     82  S   UNL     1      -4.209  -5.028   7.263  1.00  0.00     0.124 S 
ATOM     83  O   UNL     1      -5.255  -5.100   8.277  1.00  0.00    -0.237 OA
ATOM     84  O   UNL     1      -3.281  -6.156   7.228  1.00  0.00    -0.237 OA
ATOM     85  O   UNL     1      -3.584  -3.718   7.092  1.00  0.00    -0.744 OA
ENDBRANCH  81  82
ENDBRANCH  53  76
BRANCH  65  86
ATOM     86  C   UNL     1     -12.956  -7.176   1.343  1.00  0.00    -0.014 A 
ATOM     87  C   UNL     1     -13.779  -6.148   1.835  1.00  0.00     0.010 A 
ATOM     88  C   UNL     1     -13.326  -8.516   1.547  1.00  0.00     0.010 A 
ATOM     89  C   UNL     1     -14.947  -6.456   2.537  1.00  0.00     0.020 A 
ATOM     90  C   UNL     1     -14.497  -8.827   2.243  1.00  0.00     0.020 A 
ATOM     91  C   UNL     1     -15.295  -7.795   2.743  1.00  0.00     0.054 A 
BRANCH  91  92
ATOM     92  S   UNL     1     -16.836  -8.188   3.619  1.00  0.00     0.124 S 
ATOM     93  O   UNL     1     -16.402  -8.180   5.013  1.00  0.00    -0.237 OA
ATOM     94  O   UNL     1     -17.726  -7.096   3.232  1.00  0.00    -0.237 OA
ATOM     95  O   UNL     1     -17.203  -9.498   3.085  1.00  0.00    -0.744 OA
ENDBRANCH  91  92
ENDBRANCH  65  86
ENDBRANCH  39  40
ENDBRANCH  31  34
ENDBRANCH  29  30
ENDBRANCH   1  29
TORSDOF 16
