REMARK SMILES COc1ccc(-c2nc(NCC(=O)NCCCNC(=O)c3ccc(-c4c5nc(c(-c6ccc(S(=O)(=O)[O-])cc6)c6ccc([nH]6)c(-c6ccc(S(=O)(=O)[O-])cc6)c6nc(c(-c7ccc(S(=O)(=O)[O-])cc7)c7ccc4[nH]7)C=C6)C=C5)cc3)sc2-c2ccc(OC)cc2)cc1
REMARK SMILES IDX 15 1 14 2 12 3 13 4 11 6 10 7 9 9 7 10 8 11 82 12 81 13 6 14
REMARK SMILES IDX 3 15 4 16 92 17 5 18 91 19 2 20 1 21 83 22 84 23 90 24 85 25
REMARK SMILES IDX 89 26 86 27 87 28 88 29 16 30 17 31 18 32 19 33 20 35 21 36
REMARK SMILES IDX 22 37 80 38 23 39 79 40 24 41 25 42 26 43 73 44 27 45 78 46
REMARK SMILES IDX 72 47 74 48 28 49 77 50 71 51 70 52 29 54 59 55 40 56 58 57
REMARK SMILES IDX 41 58 44 59 57 60 75 61 42 62 43 63 56 65 76 66 45 67 30 68
REMARK SMILES IDX 31 69 39 70 32 71 38 72 33 73 34 74 35 75 36 76 37 77 60 78
REMARK SMILES IDX 61 79 69 80 62 81 68 82 63 83 64 84 65 85 66 86 67 87 46 88
REMARK SMILES IDX 47 89 55 90 48 91 54 92 49 93 50 94 51 95 52 96 53 97
REMARK H PARENT 14 5 10 8 18 34 74 53 44 64
REMARK Flexibility Score: inf
ROOT
ATOM      1  C   UNL     1       5.092   9.626   0.201  1.00  0.00     0.117 C 
ENDROOT
BRANCH   1   2
ATOM      2  N   UNL     1       5.780  10.375  -0.834  1.00  0.00    -0.355 N 
ATOM      3  C   UNL     1       5.337  10.706  -2.084  1.00  0.00     0.239 C 
ATOM      4  O   UNL     1       6.098  11.328  -2.829  1.00  0.00    -0.273 OA
ATOM      5  H   UNL     1       6.686  10.685  -0.605  1.00  0.00     0.163 HD
BRANCH   3   6
ATOM      6  C   UNL     1       3.907  10.354  -2.512  1.00  0.00     0.215 C 
BRANCH   6   7
ATOM      7  N   UNL     1       3.724   8.920  -2.650  1.00  0.00    -0.352 N 
ATOM      8  H   UNL     1       4.362   8.440  -3.226  1.00  0.00     0.163 HD
BRANCH   7   9
ATOM      9  C   UNL     1       2.757   8.187  -2.059  1.00  0.00     0.184 A 
ATOM     10  C   UNL     1       1.718   6.345  -1.387  1.00  0.00     0.091 A 
ATOM     11  N   UNL     1       2.738   6.878  -2.159  1.00  0.00    -0.220 NA
ATOM     12  C   UNL     1       1.006   7.265  -0.630  1.00  0.00     0.064 A 
ATOM     13  S   UNL     1       1.486   8.841  -1.092  1.00  0.00    -0.096 S 
BRANCH  10  14
ATOM     14  C   UNL     1       1.444   4.915  -1.356  1.00  0.00     0.002 A 
ATOM     15  C   UNL     1       0.821   2.189  -1.093  1.00  0.00     0.118 A 
ATOM     16  C   UNL     1      -0.149   3.095  -1.522  1.00  0.00     0.047 A 
ATOM     17  C   UNL     1       2.119   2.638  -0.843  1.00  0.00     0.047 A 
ATOM     18  C   UNL     1       0.156   4.450  -1.649  1.00  0.00     0.014 A 
ATOM     19  C   UNL     1       2.433   3.999  -0.982  1.00  0.00     0.014 A 
BRANCH  15  20
ATOM     20  O   UNL     1       0.388   0.897  -1.000  1.00  0.00    -0.497 OA
ATOM     21  C   UNL     1       1.075   0.060  -0.070  1.00  0.00     0.278 C 
ENDBRANCH  15  20
ENDBRANCH  10  14
BRANCH  12  22
ATOM     22  C   UNL     1       0.016   7.072   0.434  1.00  0.00    -0.006 A 
ATOM     23  C   UNL     1      -1.222   7.722   0.420  1.00  0.00     0.013 A 
ATOM     24  C   UNL     1       0.303   6.199   1.494  1.00  0.00     0.013 A 
ATOM     25  C   UNL     1      -2.153   7.487   1.438  1.00  0.00     0.047 A 
ATOM     26  C   UNL     1      -0.631   5.959   2.505  1.00  0.00     0.047 A 
ATOM     27  C   UNL     1      -1.869   6.596   2.476  1.00  0.00     0.118 A 
BRANCH  27  28
ATOM     28  O   UNL     1      -2.871   6.440   3.394  1.00  0.00    -0.497 OA
ATOM     29  C   UNL     1      -2.693   5.402   4.351  1.00  0.00     0.278 C 
ENDBRANCH  27  28
ENDBRANCH  12  22
ENDBRANCH   7   9
ENDBRANCH   6   7
ENDBRANCH   3   6
ENDBRANCH   1   2
BRANCH   1  30
ATOM     30  C   UNL     1       5.586   8.186   0.295  1.00  0.00     0.042 C 
BRANCH  30  31
ATOM     31  C   UNL     1       6.988   8.063   0.887  1.00  0.00     0.118 C 
BRANCH  31  32
ATOM     32  N   UNL     1       7.046   8.511   2.274  1.00  0.00    -0.352 N 
ATOM     33  C   UNL     1       7.473   7.855   3.399  1.00  0.00     0.251 C 
ATOM     34  H   UNL     1       6.730   9.431   2.426  1.00  0.00     0.163 HD
ATOM     35  O   UNL     1       7.249   8.352   4.505  1.00  0.00    -0.269 OA
BRANCH  33  36
ATOM     36  C   UNL     1       8.178   6.561   3.302  1.00  0.00     0.039 A 
ATOM     37  C   UNL     1       7.875   5.557   4.227  1.00  0.00     0.014 A 
ATOM     38  C   UNL     1       9.156   6.341   2.328  1.00  0.00     0.014 A 
ATOM     39  C   UNL     1       8.505   4.314   4.134  1.00  0.00     0.010 A 
ATOM     40  C   UNL     1       9.728   5.078   2.191  1.00  0.00     0.010 A 
ATOM     41  C   UNL     1       9.409   4.051   3.092  1.00  0.00    -0.014 A 
BRANCH  41  42
ATOM     42  C   UNL     1      10.012   2.705   2.917  1.00  0.00     0.031 A 
ATOM     43  C   UNL     1      11.499   2.512   3.037  1.00  0.00     0.074 A 
ATOM     44  C   UNL     1       9.221   1.664   2.585  1.00  0.00     0.049 A 
ATOM     45  N   UNL     1      12.205   1.424   2.862  1.00  0.00    -0.248 NA
ATOM     46  C   UNL     1      12.301   3.699   3.374  1.00  0.00     0.031 C 
ATOM     47  C   UNL     1       7.769   1.730   2.400  1.00  0.00     0.029 A 
ATOM     48  N   UNL     1       9.527   0.350   2.337  1.00  0.00    -0.354 N 
ATOM     49  C   UNL     1      13.531   1.796   3.052  1.00  0.00     0.074 A 
ATOM     50  C   UNL     1      13.535   3.220   3.308  1.00  0.00     0.031 C 
ATOM     51  C   UNL     1       7.309   0.506   2.093  1.00  0.00     0.029 A 
ATOM     52  C   UNL     1       8.434  -0.420   2.014  1.00  0.00     0.049 A 
ATOM     53  H   UNL     1      10.443  -0.009   2.385  1.00  0.00     0.167 HD
ATOM     54  C   UNL     1      14.642   1.022   3.031  1.00  0.00     0.031 A 
ATOM     55  C   UNL     1       8.345  -1.722   1.679  1.00  0.00     0.031 A 
ATOM     56  C   UNL     1      14.632  -0.396   2.778  1.00  0.00     0.049 A 
ATOM     57  C   UNL     1       9.594  -2.558   1.647  1.00  0.00     0.074 A 
ATOM     58  C   UNL     1      15.699  -1.278   2.791  1.00  0.00     0.029 A 
ATOM     59  N   UNL     1      13.504  -1.138   2.462  1.00  0.00    -0.354 N 
ATOM     60  N   UNL     1      10.830  -2.201   1.898  1.00  0.00    -0.248 NA
ATOM     61  C   UNL     1       9.433  -3.977   1.299  1.00  0.00     0.031 C 
ATOM     62  C   UNL     1      15.225  -2.542   2.425  1.00  0.00     0.029 A 
ATOM     63  C   UNL     1      13.853  -2.462   2.249  1.00  0.00     0.049 A 
ATOM     64  H   UNL     1      12.591  -0.777   2.398  1.00  0.00     0.167 HD
ATOM     65  C   UNL     1      11.592  -3.356   1.764  1.00  0.00     0.074 A 
ATOM     66  C   UNL     1      10.674  -4.425   1.427  1.00  0.00     0.031 C 
ATOM     67  C   UNL     1      12.931  -3.516   1.910  1.00  0.00     0.031 A 
BRANCH  54  68
ATOM     68  C   UNL     1      15.968   1.695   3.278  1.00  0.00    -0.014 A 
ATOM     69  C   UNL     1      16.299   2.206   4.546  1.00  0.00     0.010 A 
ATOM     70  C   UNL     1      16.915   1.777   2.241  1.00  0.00     0.010 A 
ATOM     71  C   UNL     1      17.534   2.825   4.760  1.00  0.00     0.020 A 
ATOM     72  C   UNL     1      18.163   2.368   2.459  1.00  0.00     0.020 A 
ATOM     73  C   UNL     1      18.457   2.904   3.714  1.00  0.00     0.054 A 
BRANCH  73  74
ATOM     74  S   UNL     1      20.060   3.693   4.028  1.00  0.00     0.124 S 
ATOM     75  O   UNL     1      19.686   5.102   4.132  1.00  0.00    -0.237 OA
ATOM     76  O   UNL     1      20.487   3.064   5.275  1.00  0.00    -0.237 OA
ATOM     77  O   UNL     1      20.855   3.345   2.853  1.00  0.00    -0.744 OA
ENDBRANCH  73  74
ENDBRANCH  54  68
BRANCH  55  78
ATOM     78  C   UNL     1       7.017  -2.314   1.361  1.00  0.00    -0.014 A 
ATOM     79  C   UNL     1       6.413  -3.230   2.239  1.00  0.00     0.010 A 
ATOM     80  C   UNL     1       6.337  -1.943   0.186  1.00  0.00     0.010 A 
ATOM     81  C   UNL     1       5.159  -3.772   1.945  1.00  0.00     0.020 A 
ATOM     82  C   UNL     1       5.070  -2.459  -0.097  1.00  0.00     0.020 A 
ATOM     83  C   UNL     1       4.492  -3.377   0.782  1.00  0.00     0.054 A 
BRANCH  83  84
ATOM     84  S   UNL     1       2.829  -4.024   0.464  1.00  0.00     0.124 S 
ATOM     85  O   UNL     1       3.108  -5.395   0.051  1.00  0.00    -0.237 OA
ATOM     86  O   UNL     1       2.178  -3.869   1.762  1.00  0.00    -0.237 OA
ATOM     87  O   UNL     1       2.318  -3.140  -0.582  1.00  0.00    -0.744 OA
ENDBRANCH  83  84
ENDBRANCH  55  78
BRANCH  67  88
ATOM     88  C   UNL     1      13.485  -4.906   1.738  1.00  0.00    -0.014 A 
ATOM     89  C   UNL     1      13.549  -5.518   0.474  1.00  0.00     0.010 A 
ATOM     90  C   UNL     1      13.999  -5.589   2.856  1.00  0.00     0.010 A 
ATOM     91  C   UNL     1      14.087  -6.801   0.336  1.00  0.00     0.020 A 
ATOM     92  C   UNL     1      14.565  -6.859   2.718  1.00  0.00     0.020 A 
ATOM     93  C   UNL     1      14.592  -7.463   1.460  1.00  0.00     0.054 A 
BRANCH  93  94
ATOM     94  S   UNL     1      15.323  -9.109   1.247  1.00  0.00     0.124 S 
ATOM     95  O   UNL     1      14.143  -9.937   1.015  1.00  0.00    -0.237 OA
ATOM     96  O   UNL     1      16.198  -8.924   0.092  1.00  0.00    -0.237 OA
ATOM     97  O   UNL     1      16.013  -9.348   2.513  1.00  0.00    -0.744 OA
ENDBRANCH  93  94
ENDBRANCH  67  88
ENDBRANCH  41  42
ENDBRANCH  33  36
ENDBRANCH  31  32
ENDBRANCH  30  31
ENDBRANCH   1  30
TORSDOF 19
