REMARK SMILES O=C(NCCCNC(=O)[C@H]1C[C@H](O)CN1S(=O)(=O)c1ccc2c(c1)OCCO2)c1ccc(-c2c3nc(c(-c4ccc(S(=O)(=O)[O-])cc4)c4ccc([nH]4)c(-c4ccc(S(=O)(=O)[O-])cc4)c4nc(c(-c5ccc(S(=O)(=O)[O-])cc5)c5ccc2[nH]5)C=C4)C=C3)cc1
REMARK SMILES IDX 4 1 3 2 1 3 2 4 29 6 30 7 88 8 31 9 87 10 32 11 33 12 34 13
REMARK SMILES IDX 81 14 35 15 86 16 80 17 82 18 36 19 85 20 79 21 78 22 37 24
REMARK SMILES IDX 67 25 48 26 66 27 49 28 52 29 65 30 83 31 50 32 51 33 64 35
REMARK SMILES IDX 84 36 53 37 38 38 39 39 47 40 40 41 46 42 41 43 42 44 43 45
REMARK SMILES IDX 44 46 45 47 68 48 69 49 77 50 70 51 76 52 71 53 72 54 73 55
REMARK SMILES IDX 74 56 75 57 54 58 55 59 63 60 56 61 62 62 57 63 58 64 59 65
REMARK SMILES IDX 60 66 61 67 5 68 6 69 7 70 8 71 9 73 10 74 11 75 15 76 12 77
REMARK SMILES IDX 14 78 16 79 17 80 18 81 19 82 20 83 24 84 21 85 23 86 22 87
REMARK SMILES IDX 25 88 28 89 26 90 27 91 13 92
REMARK H PARENT 3 5 82 23 52 34 7 72 13 93
REMARK Flexibility Score: inf
ROOT
ATOM      1  C   UNL     1       4.666   0.959  -0.531  1.00  0.00     0.118 C 
ENDROOT
BRANCH   1   2
ATOM      2  N   UNL     1       3.215   0.863  -0.351  1.00  0.00    -0.352 N 
ATOM      3  O   UNL     1       1.244  -0.077   0.236  1.00  0.00    -0.269 OA
ATOM      4  C   UNL     1       2.468  -0.076   0.324  1.00  0.00     0.251 C 
ATOM      5  H   UNL     1       2.694   1.581  -0.778  1.00  0.00     0.163 HD
BRANCH   4   6
ATOM      6  C   UNL     1       3.160  -1.099   1.130  1.00  0.00     0.039 A 
ATOM      7  C   UNL     1       4.254  -0.731   1.908  1.00  0.00     0.014 A 
ATOM      8  C   UNL     1       2.749  -2.434   1.075  1.00  0.00     0.014 A 
ATOM      9  C   UNL     1       5.070  -1.712   2.438  1.00  0.00     0.010 A 
ATOM     10  C   UNL     1       3.495  -3.413   1.740  1.00  0.00     0.010 A 
ATOM     11  C   UNL     1       4.685  -3.063   2.392  1.00  0.00    -0.014 A 
BRANCH  11  12
ATOM     12  C   UNL     1       5.533  -4.043   3.116  1.00  0.00     0.031 A 
ATOM     13  C   UNL     1       6.248  -5.153   2.399  1.00  0.00     0.074 A 
ATOM     14  C   UNL     1       5.737  -3.830   4.432  1.00  0.00     0.049 A 
ATOM     15  N   UNL     1       7.104  -6.016   2.885  1.00  0.00    -0.248 NA
ATOM     16  C   UNL     1       5.966  -5.333   0.966  1.00  0.00     0.031 C 
ATOM     17  C   UNL     1       5.077  -2.784   5.226  1.00  0.00     0.029 A 
ATOM     18  N   UNL     1       6.598  -4.418   5.318  1.00  0.00    -0.354 N 
ATOM     19  C   UNL     1       7.439  -6.859   1.832  1.00  0.00     0.074 A 
ATOM     20  C   UNL     1       6.688  -6.410   0.679  1.00  0.00     0.031 C 
ATOM     21  C   UNL     1       5.639  -2.731   6.440  1.00  0.00     0.029 A 
ATOM     22  C   UNL     1       6.628  -3.794   6.544  1.00  0.00     0.049 A 
ATOM     23  H   UNL     1       7.141  -5.210   5.100  1.00  0.00     0.167 HD
ATOM     24  C   UNL     1       8.291  -7.912   1.833  1.00  0.00     0.031 A 
ATOM     25  C   UNL     1       7.365  -4.050   7.639  1.00  0.00     0.031 A 
ATOM     26  C   UNL     1       9.039  -8.340   2.988  1.00  0.00     0.049 A 
ATOM     27  C   UNL     1       8.327  -5.196   7.598  1.00  0.00     0.074 A 
ATOM     28  C   UNL     1       9.914  -9.407   3.103  1.00  0.00     0.029 A 
ATOM     29  N   UNL     1       9.013  -7.712   4.225  1.00  0.00    -0.354 N 
ATOM     30  N   UNL     1       8.602  -5.998   6.597  1.00  0.00    -0.248 NA
ATOM     31  C   UNL     1       9.065  -5.482   8.833  1.00  0.00     0.031 C 
ATOM     32  C   UNL     1      10.394  -9.440   4.418  1.00  0.00     0.029 A 
ATOM     33  C   UNL     1       9.851  -8.369   5.109  1.00  0.00     0.049 A 
ATOM     34  H   UNL     1       8.476  -6.915   4.441  1.00  0.00     0.167 HD
ATOM     35  C   UNL     1       9.530  -6.904   7.090  1.00  0.00     0.074 A 
ATOM     36  C   UNL     1       9.807  -6.516   8.460  1.00  0.00     0.031 C 
ATOM     37  C   UNL     1      10.087  -7.975   6.474  1.00  0.00     0.031 A 
BRANCH  24  38
ATOM     38  C   UNL     1       8.442  -8.695   0.556  1.00  0.00    -0.014 A 
ATOM     39  C   UNL     1       9.192  -8.192  -0.521  1.00  0.00     0.010 A 
ATOM     40  C   UNL     1       7.875  -9.979   0.455  1.00  0.00     0.010 A 
ATOM     41  C   UNL     1       9.353  -8.949  -1.686  1.00  0.00     0.020 A 
ATOM     42  C   UNL     1       8.051 -10.748  -0.701  1.00  0.00     0.020 A 
ATOM     43  C   UNL     1       8.779 -10.222  -1.770  1.00  0.00     0.054 A 
BRANCH  43  44
ATOM     44  S   UNL     1       9.034 -11.199  -3.278  1.00  0.00     0.124 S 
ATOM     45  O   UNL     1       8.124 -10.545  -4.216  1.00  0.00    -0.237 OA
ATOM     46  O   UNL     1      10.456 -11.008  -3.549  1.00  0.00    -0.237 OA
ATOM     47  O   UNL     1       8.654 -12.553  -2.882  1.00  0.00    -0.744 OA
ENDBRANCH  43  44
ENDBRANCH  24  38
BRANCH  25  48
ATOM     48  C   UNL     1       7.178  -3.227   8.862  1.00  0.00    -0.014 A 
ATOM     49  C   UNL     1       8.175  -2.338   9.296  1.00  0.00     0.010 A 
ATOM     50  C   UNL     1       5.967  -3.301   9.576  1.00  0.00     0.010 A 
ATOM     51  C   UNL     1       7.968  -1.544  10.429  1.00  0.00     0.020 A 
ATOM     52  C   UNL     1       5.745  -2.488  10.688  1.00  0.00     0.020 A 
ATOM     53  C   UNL     1       6.753  -1.624  11.117  1.00  0.00     0.054 A 
BRANCH  53  54
ATOM     54  S   UNL     1       6.468  -0.542  12.544  1.00  0.00     0.124 S 
ATOM     55  O   UNL     1       7.125  -1.280  13.617  1.00  0.00    -0.237 OA
ATOM     56  O   UNL     1       7.117   0.703  12.142  1.00  0.00    -0.237 OA
ATOM     57  O   UNL     1       5.010  -0.474  12.628  1.00  0.00    -0.744 OA
ENDBRANCH  53  54
ENDBRANCH  25  48
BRANCH  37  58
ATOM     58  C   UNL     1      11.036  -8.795   7.297  1.00  0.00    -0.014 A 
ATOM     59  C   UNL     1      10.553  -9.654   8.301  1.00  0.00     0.010 A 
ATOM     60  C   UNL     1      12.420  -8.701   7.072  1.00  0.00     0.010 A 
ATOM     61  C   UNL     1      11.444 -10.370   9.102  1.00  0.00     0.020 A 
ATOM     62  C   UNL     1      13.313  -9.433   7.857  1.00  0.00     0.020 A 
ATOM     63  C   UNL     1      12.819 -10.246   8.881  1.00  0.00     0.054 A 
BRANCH  63  64
ATOM     64  S   UNL     1      13.963 -11.184   9.931  1.00  0.00     0.124 S 
ATOM     65  O   UNL     1      13.999 -10.367  11.141  1.00  0.00    -0.237 OA
ATOM     66  O   UNL     1      13.296 -12.477  10.064  1.00  0.00    -0.237 OA
ATOM     67  O   UNL     1      15.200 -11.206   9.155  1.00  0.00    -0.744 OA
ENDBRANCH  63  64
ENDBRANCH  37  58
ENDBRANCH  11  12
ENDBRANCH   4   6
ENDBRANCH   1   2
BRANCH   1  68
ATOM     68  C   UNL     1       5.087   0.897  -1.989  1.00  0.00     0.042 C 
BRANCH  68  69
ATOM     69  C   UNL     1       4.637   2.123  -2.749  1.00  0.00     0.117 C 
BRANCH  69  70
ATOM     70  N   UNL     1       5.527   3.254  -2.618  1.00  0.00    -0.355 N 
ATOM     71  C   UNL     1       6.037   4.075  -3.578  1.00  0.00     0.238 C 
ATOM     72  H   UNL     1       5.807   3.463  -1.698  1.00  0.00     0.163 HD
ATOM     73  O   UNL     1       6.659   5.068  -3.184  1.00  0.00    -0.273 OA
BRANCH  71  74
ATOM     74  C   UNL     1       5.976   3.748  -5.067  1.00  0.00     0.165 C 
ATOM     75  C   UNL     1       6.793   2.490  -5.392  1.00  0.00     0.063 C 
ATOM     76  N   UNL     1       4.698   3.642  -5.832  1.00  0.00    -0.183 NA
ATOM     77  C   UNL     1       5.839   1.526  -6.066  1.00  0.00     0.131 C 
ATOM     78  C   UNL     1       4.716   2.397  -6.622  1.00  0.00     0.135 C 
BRANCH  76  79
ATOM     79  S   UNL     1       3.291   4.285  -5.163  1.00  0.00     0.244 S 
ATOM     80  O   UNL     1       2.731   3.330  -4.234  1.00  0.00    -0.207 OA
ATOM     81  O   UNL     1       3.585   5.631  -4.752  1.00  0.00    -0.207 OA
BRANCH  79  82
ATOM     82  C   UNL     1       2.075   4.360  -6.456  1.00  0.00     0.086 A 
ATOM     83  C   UNL     1       1.544   5.591  -6.852  1.00  0.00     0.026 A 
ATOM     84  C   UNL     1       1.457   3.167  -6.850  1.00  0.00     0.072 A 
ATOM     85  C   UNL     1       0.395   5.618  -7.649  1.00  0.00     0.052 A 
ATOM     86  C   UNL     1       0.353   3.200  -7.687  1.00  0.00     0.162 A 
ATOM     87  C   UNL     1      -0.207   4.425  -8.054  1.00  0.00     0.161 A 
ATOM     88  O   UNL     1      -0.151   1.985  -8.070  1.00  0.00    -0.486 OA
ATOM     89  O   UNL     1      -1.364   4.519  -8.787  1.00  0.00    -0.486 OA
ATOM     90  C   UNL     1      -1.084   2.135  -9.145  1.00  0.00     0.271 C 
ATOM     91  C   UNL     1      -2.055   3.261  -8.830  1.00  0.00     0.271 C 
ENDBRANCH  79  82
ENDBRANCH  76  79
BRANCH  77  92
ATOM     92  O   UNL     1       6.500   0.814  -7.104  1.00  0.00    -0.392 OA
ATOM     93  H   UNL     1       6.860   1.444  -7.749  1.00  0.00     0.211 HD
ENDBRANCH  77  92
ENDBRANCH  71  74
ENDBRANCH  69  70
ENDBRANCH  68  69
ENDBRANCH   1  68
TORSDOF 16
