REMARK SMILES O=C(NCCCNC(=O)c1ccc(CNC(=O)c2cccnc2)o1)c1ccc(-c2c3nc(c(-c4ccc(S(=O)(=O)[O-])cc4)c4ccc([nH]4)c(-c4ccc(S(=O)(=O)[O-])cc4)c4nc(c(-c5ccc(S(=O)(=O)[O-])cc5)c5ccc2[nH]5)C=C4)C=C3)cc1
REMARK SMILES IDX 5 1 4 2 3 3 1 4 2 5 25 7 26 8 84 9 27 10 83 11 28 12 29 13
REMARK SMILES IDX 30 14 77 15 31 16 82 17 76 18 78 19 32 20 81 21 75 22 74 23
REMARK SMILES IDX 33 25 63 26 44 27 62 28 45 29 48 30 61 31 79 32 46 33 47 34
REMARK SMILES IDX 60 36 80 37 49 38 34 39 35 40 43 41 36 42 42 43 37 44 38 45
REMARK SMILES IDX 39 46 40 47 41 48 64 49 65 50 73 51 66 52 72 53 67 54 68 55
REMARK SMILES IDX 69 56 70 57 71 58 50 59 51 60 59 61 52 62 58 63 53 64 54 65
REMARK SMILES IDX 55 66 56 67 57 68 6 69 7 70 8 71 9 73 10 74 11 75 24 76
REMARK SMILES IDX 12 77 13 78 14 79 15 80 16 81 17 83 18 84 19 85 23 86 20 87
REMARK SMILES IDX 22 88 21 89
REMARK H PARENT 3 6 78 24 48 35 7 72 15 82
REMARK Flexibility Score: inf
ROOT
ATOM      1  C   UNL     1       4.818   2.024  -1.538  1.00  0.00     0.042 C 
ENDROOT
BRANCH   1   2
ATOM      2  C   UNL     1       4.521   1.414  -0.173  1.00  0.00     0.118 C 
BRANCH   2   3
ATOM      3  N   UNL     1       3.098   1.174   0.033  1.00  0.00    -0.352 N 
ATOM      4  O   UNL     1       1.174   0.020   0.118  1.00  0.00    -0.269 OA
ATOM      5  C   UNL     1       2.402  -0.003   0.161  1.00  0.00     0.251 C 
ATOM      6  H   UNL     1       2.547   1.988   0.090  1.00  0.00     0.163 HD
BRANCH   5   7
ATOM      7  C   UNL     1       3.113  -1.290   0.335  1.00  0.00     0.039 A 
ATOM      8  C   UNL     1       4.234  -1.386   1.159  1.00  0.00     0.014 A 
ATOM      9  C   UNL     1       2.616  -2.435  -0.299  1.00  0.00     0.014 A 
ATOM     10  C   UNL     1       4.942  -2.581   1.234  1.00  0.00     0.010 A 
ATOM     11  C   UNL     1       3.276  -3.659  -0.148  1.00  0.00     0.010 A 
ATOM     12  C   UNL     1       4.462  -3.737   0.598  1.00  0.00    -0.014 A 
BRANCH  12  13
ATOM     13  C   UNL     1       5.179  -5.023   0.795  1.00  0.00     0.031 A 
ATOM     14  C   UNL     1       5.846  -5.731  -0.352  1.00  0.00     0.074 A 
ATOM     15  C   UNL     1       5.255  -5.533   2.041  1.00  0.00     0.049 A 
ATOM     16  N   UNL     1       6.549  -6.835  -0.336  1.00  0.00    -0.248 NA
ATOM     17  C   UNL     1       5.703  -5.131  -1.688  1.00  0.00     0.031 C 
ATOM     18  C   UNL     1       4.637  -4.942   3.232  1.00  0.00     0.029 A 
ATOM     19  N   UNL     1       5.901  -6.643   2.520  1.00  0.00    -0.354 N 
ATOM     20  C   UNL     1       6.918  -7.074  -1.655  1.00  0.00     0.074 A 
ATOM     21  C   UNL     1       6.341  -6.011  -2.450  1.00  0.00     0.031 C 
ATOM     22  C   UNL     1       4.979  -5.663   4.309  1.00  0.00     0.029 A 
ATOM     23  C   UNL     1       5.786  -6.799   3.881  1.00  0.00     0.049 A 
ATOM     24  H   UNL     1       6.398  -7.268   1.945  1.00  0.00     0.167 HD
ATOM     25  C   UNL     1       7.671  -8.083  -2.155  1.00  0.00     0.031 A 
ATOM     26  C   UNL     1       6.265  -7.755   4.699  1.00  0.00     0.031 A 
ATOM     27  C   UNL     1       8.244  -9.138  -1.359  1.00  0.00     0.049 A 
ATOM     28  C   UNL     1       7.081  -8.870   4.116  1.00  0.00     0.074 A 
ATOM     29  C   UNL     1       9.045 -10.189  -1.771  1.00  0.00     0.029 A 
ATOM     30  N   UNL     1       8.075  -9.280   0.011  1.00  0.00    -0.354 N 
ATOM     31  N   UNL     1       7.442  -9.059   2.869  1.00  0.00    -0.248 NA
ATOM     32  C   UNL     1       7.553  -9.902   5.048  1.00  0.00     0.031 C 
ATOM     33  C   UNL     1       9.323 -10.992  -0.658  1.00  0.00     0.029 A 
ATOM     34  C   UNL     1       8.737 -10.413   0.455  1.00  0.00     0.049 A 
ATOM     35  H   UNL     1       7.560  -8.666   0.583  1.00  0.00     0.167 HD
ATOM     36  C   UNL     1       8.193 -10.227   2.868  1.00  0.00     0.074 A 
ATOM     37  C   UNL     1       8.254 -10.688   4.241  1.00  0.00     0.031 C 
ATOM     38  C   UNL     1       8.777 -10.863   1.823  1.00  0.00     0.031 A 
BRANCH  25  39
ATOM     39  C   UNL     1       7.904  -8.111  -3.643  1.00  0.00    -0.014 A 
ATOM     40  C   UNL     1       8.778  -7.198  -4.260  1.00  0.00     0.010 A 
ATOM     41  C   UNL     1       7.279  -9.097  -4.429  1.00  0.00     0.010 A 
ATOM     42  C   UNL     1       8.995  -7.248  -5.640  1.00  0.00     0.020 A 
ATOM     43  C   UNL     1       7.511  -9.164  -5.806  1.00  0.00     0.020 A 
ATOM     44  C   UNL     1       8.355  -8.228  -6.406  1.00  0.00     0.054 A 
BRANCH  44  45
ATOM     45  S   UNL     1       8.667  -8.280  -8.193  1.00  0.00     0.124 S 
ATOM     46  O   UNL     1       7.894  -7.133  -8.665  1.00  0.00    -0.237 OA
ATOM     47  O   UNL     1      10.118  -8.132  -8.271  1.00  0.00    -0.237 OA
ATOM     48  O   UNL     1       8.154  -9.586  -8.597  1.00  0.00    -0.744 OA
ENDBRANCH  44  45
ENDBRANCH  25  39
BRANCH  26  49
ATOM     49  C   UNL     1       5.966  -7.695   6.154  1.00  0.00    -0.014 A 
ATOM     50  C   UNL     1       6.974  -7.385   7.082  1.00  0.00     0.010 A 
ATOM     51  C   UNL     1       4.654  -7.916   6.614  1.00  0.00     0.010 A 
ATOM     52  C   UNL     1       6.678  -7.306   8.446  1.00  0.00     0.020 A 
ATOM     53  C   UNL     1       4.349  -7.811   7.972  1.00  0.00     0.020 A 
ATOM     54  C   UNL     1       5.366  -7.518   8.882  1.00  0.00     0.054 A 
BRANCH  54  55
ATOM     55  S   UNL     1       4.988  -7.350  10.648  1.00  0.00     0.124 S 
ATOM     56  O   UNL     1       5.498  -8.607  11.187  1.00  0.00    -0.237 OA
ATOM     57  O   UNL     1       5.735  -6.151  11.021  1.00  0.00    -0.237 OA
ATOM     58  O   UNL     1       3.535  -7.200  10.672  1.00  0.00    -0.744 OA
ENDBRANCH  54  55
ENDBRANCH  26  49
BRANCH  38  59
ATOM     59  C   UNL     1       9.544 -12.120   2.131  1.00  0.00    -0.014 A 
ATOM     60  C   UNL     1       8.877 -13.316   2.447  1.00  0.00     0.010 A 
ATOM     61  C   UNL     1      10.949 -12.109   2.071  1.00  0.00     0.010 A 
ATOM     62  C   UNL     1       9.604 -14.475   2.732  1.00  0.00     0.020 A 
ATOM     63  C   UNL     1      11.678 -13.272   2.331  1.00  0.00     0.020 A 
ATOM     64  C   UNL     1      11.001 -14.444   2.675  1.00  0.00     0.054 A 
BRANCH  64  65
ATOM     65  S   UNL     1      11.924 -15.968   3.014  1.00  0.00     0.124 S 
ATOM     66  O   UNL     1      11.841 -16.055   4.469  1.00  0.00    -0.237 OA
ATOM     67  O   UNL     1      11.163 -16.976   2.280  1.00  0.00    -0.237 OA
ATOM     68  O   UNL     1      13.256 -15.691   2.480  1.00  0.00    -0.744 OA
ENDBRANCH  64  65
ENDBRANCH  38  59
ENDBRANCH  12  13
ENDBRANCH   5   7
ENDBRANCH   2   3
ENDBRANCH   1   2
BRANCH   1  69
ATOM     69  C   UNL     1       4.230   3.417  -1.732  1.00  0.00     0.118 C 
BRANCH  69  70
ATOM     70  N   UNL     1       4.840   4.397  -0.847  1.00  0.00    -0.349 N 
ATOM     71  C   UNL     1       5.735   5.397  -1.150  1.00  0.00     0.286 C 
ATOM     72  H   UNL     1       4.576   4.335   0.099  1.00  0.00     0.163 HD
ATOM     73  O   UNL     1       6.299   5.963  -0.213  1.00  0.00    -0.266 OA
BRANCH  71  74
ATOM     74  C   UNL     1       5.955   5.731  -2.537  1.00  0.00     0.191 A 
ATOM     75  C   UNL     1       5.088   6.035  -3.571  1.00  0.00     0.056 A 
ATOM     76  O   UNL     1       7.240   5.776  -2.997  1.00  0.00    -0.454 OA
ATOM     77  C   UNL     1       5.881   6.231  -4.727  1.00  0.00     0.048 A 
ATOM     78  C   UNL     1       7.188   6.050  -4.330  1.00  0.00     0.124 A 
BRANCH  78  79
ATOM     79  C   UNL     1       8.482   6.039  -5.050  1.00  0.00     0.191 C 
BRANCH  79  80
ATOM     80  N   UNL     1       9.223   7.243  -4.737  1.00  0.00    -0.345 N 
ATOM     81  C   UNL     1      10.533   7.366  -4.353  1.00  0.00     0.253 C 
ATOM     82  H   UNL     1       8.719   8.085  -4.810  1.00  0.00     0.164 HD
ATOM     83  O   UNL     1      10.977   8.456  -4.004  1.00  0.00    -0.269 OA
BRANCH  81  84
ATOM     84  C   UNL     1      11.418   6.189  -4.339  1.00  0.00     0.058 A 
ATOM     85  C   UNL     1      11.548   5.325  -5.427  1.00  0.00     0.017 A 
ATOM     86  C   UNL     1      12.175   5.939  -3.204  1.00  0.00     0.124 A 
ATOM     87  C   UNL     1      12.377   4.211  -5.312  1.00  0.00     0.021 A 
ATOM     88  N   UNL     1      12.997   4.869  -3.072  1.00  0.00    -0.264 NA
ATOM     89  C   UNL     1      13.067   4.023  -4.124  1.00  0.00     0.111 A 
ENDBRANCH  81  84
ENDBRANCH  79  80
ENDBRANCH  78  79
ENDBRANCH  71  74
ENDBRANCH  69  70
ENDBRANCH   1  69
TORSDOF 16
