REMARK SMILES O=C(CNC(=O)N1CC(NCCCNC(=O)c2ccc(-c3c4nc(c(-c5ccc(S(=O)(=O)[O-])cc5)c5ccc([nH]5)c(-c5ccc(S(=O)(=O)[O-])cc5)c5nc(c(-c6ccc(S(=O)(=O)[O-])cc6)c6ccc3[nH]6)C=C5)C=C4)cc2)=[NH+]c2ccccc21)N[C@H](C(=O)[O-])c1ccccc1
REMARK SMILES IDX 11 1 10 2 7 3 8 4 83 5 9 6 78 7 82 8 77 9 79 10 81 11 80 14
REMARK SMILES IDX 5 15 4 16 6 18 3 19 2 20 1 21 84 22 85 24 89 25 90 26 94 27
REMARK SMILES IDX 91 28 93 29 92 30 86 31 87 32 88 33 12 34 13 35 14 36 15 37
REMARK SMILES IDX 16 39 17 40 18 41 76 42 19 43 75 44 20 45 21 46 22 47 69 48
REMARK SMILES IDX 23 49 74 50 68 51 70 52 24 53 73 54 67 55 66 56 25 58 55 59
REMARK SMILES IDX 36 60 54 61 37 62 40 63 53 64 71 65 38 66 39 67 52 69 72 70
REMARK SMILES IDX 41 71 26 72 27 73 35 74 28 75 34 76 29 77 30 78 31 79 32 80
REMARK SMILES IDX 33 81 56 82 57 83 65 84 58 85 64 86 59 87 60 88 61 89 62 90
REMARK SMILES IDX 63 91 42 92 43 93 51 94 44 95 50 96 45 97 46 98 47 99 48 100
REMARK SMILES IDX 49 101
REMARK H PARENT 10 12 77 13 4 17 84 23 14 38 70 57 40 68
REMARK Flexibility Score: inf
ROOT
ATOM      1  C   UNL     1       2.431   6.861  -0.982  1.00  0.00     0.235 C 
ENDROOT
BRANCH   1   2
ATOM      2  N   UNL     1       3.744   6.340  -1.277  1.00  0.00    -0.277 N 
ATOM      3  N   UNL     1       3.837   5.030  -4.762  1.00  0.00    -0.278 N 
ATOM      4  C   UNL     1       3.400   5.985  -3.760  1.00  0.00     0.255 C 
ATOM      5  C   UNL     1       5.241   4.828  -4.857  1.00  0.00     0.093 A 
ATOM      6  C   UNL     1       4.246   5.923  -2.484  1.00  0.00     0.268 C 
ATOM      7  C   UNL     1       6.027   5.075  -3.716  1.00  0.00     0.148 A 
ATOM      8  C   UNL     1       5.850   4.366  -6.034  1.00  0.00     0.031 A 
ATOM      9  N   UNL     1       5.489   5.527  -2.497  1.00  0.00    -0.241 N 
ATOM     10  C   UNL     1       7.394   4.780  -3.756  1.00  0.00     0.054 A 
ATOM     11  C   UNL     1       7.216   4.086  -6.060  1.00  0.00     0.002 A 
ATOM     12  H   UNL     1       4.360   6.275  -0.512  1.00  0.00     0.304 HD
ATOM     13  H   UNL     1       6.035   5.543  -1.678  1.00  0.00     0.312 HD
ATOM     14  C   UNL     1       7.986   4.280  -4.916  1.00  0.00     0.005 A 
BRANCH   3  15
ATOM     15  C   UNL     1       2.873   4.495  -5.584  1.00  0.00     0.323 C 
ATOM     16  N   UNL     1       2.986   3.196  -5.971  1.00  0.00    -0.329 N 
ATOM     17  H   UNL     1       2.508   2.939  -6.793  1.00  0.00     0.165 HD
ATOM     18  O   UNL     1       1.866   5.123  -5.917  1.00  0.00    -0.248 OA
BRANCH  16  19
ATOM     19  C   UNL     1       3.737   2.146  -5.302  1.00  0.00     0.218 C 
BRANCH  19  20
ATOM     20  C   UNL     1       2.793   1.117  -4.689  1.00  0.00     0.240 C 
ATOM     21  O   UNL     1       1.927   0.560  -5.358  1.00  0.00    -0.273 OA
ATOM     22  N   UNL     1       3.075   0.883  -3.372  1.00  0.00    -0.342 N 
ATOM     23  H   UNL     1       3.703   1.506  -2.940  1.00  0.00     0.164 HD
BRANCH  22  24
ATOM     24  C   UNL     1       2.540  -0.203  -2.527  1.00  0.00     0.158 C 
BRANCH  24  25
ATOM     25  C   UNL     1       2.840  -1.575  -3.122  1.00  0.00    -0.020 A 
ATOM     26  C   UNL     1       1.919  -2.620  -2.971  1.00  0.00     0.006 A 
ATOM     27  C   UNL     1       4.009  -1.819  -3.864  1.00  0.00     0.006 A 
ATOM     28  C   UNL     1       2.132  -3.853  -3.593  1.00  0.00     0.000 A 
ATOM     29  C   UNL     1       4.213  -3.043  -4.503  1.00  0.00     0.000 A 
ATOM     30  C   UNL     1       3.269  -4.058  -4.374  1.00  0.00     0.000 A 
ENDBRANCH  24  25
BRANCH  24  31
ATOM     31  C   UNL     1       3.111  -0.054  -1.066  1.00  0.00     0.068 C 
ATOM     32  O   UNL     1       4.334  -0.353  -0.912  1.00  0.00    -0.548 OA
ATOM     33  O   UNL     1       2.340   0.542  -0.254  1.00  0.00    -0.548 OA
ENDBRANCH  24  31
ENDBRANCH  22  24
ENDBRANCH  19  20
ENDBRANCH  16  19
ENDBRANCH   3  15
ENDBRANCH   1   2
BRANCH   1  34
ATOM     34  C   UNL     1       1.585   5.854  -0.211  1.00  0.00     0.067 C 
BRANCH  34  35
ATOM     35  C   UNL     1       2.091   5.549   1.197  1.00  0.00     0.120 C 
BRANCH  35  36
ATOM     36  N   UNL     1       2.126   6.731   2.057  1.00  0.00    -0.352 N 
ATOM     37  C   UNL     1       1.494   6.984   3.249  1.00  0.00     0.251 C 
ATOM     38  H   UNL     1       2.695   7.464   1.728  1.00  0.00     0.163 HD
ATOM     39  O   UNL     1       1.532   8.122   3.721  1.00  0.00    -0.269 OA
BRANCH  37  40
ATOM     40  C   UNL     1       0.751   5.919   3.958  1.00  0.00     0.039 A 
ATOM     41  C   UNL     1      -0.476   6.231   4.553  1.00  0.00     0.014 A 
ATOM     42  C   UNL     1       1.263   4.624   4.060  1.00  0.00     0.014 A 
ATOM     43  C   UNL     1      -1.222   5.228   5.179  1.00  0.00     0.010 A 
ATOM     44  C   UNL     1       0.484   3.610   4.612  1.00  0.00     0.010 A 
ATOM     45  C   UNL     1      -0.767   3.898   5.176  1.00  0.00    -0.014 A 
BRANCH  45  46
ATOM     46  C   UNL     1      -1.588   2.794   5.740  1.00  0.00     0.031 A 
ATOM     47  C   UNL     1      -1.084   1.998   6.914  1.00  0.00     0.074 A 
ATOM     48  C   UNL     1      -2.754   2.462   5.149  1.00  0.00     0.049 A 
ATOM     49  N   UNL     1      -1.619   0.954   7.496  1.00  0.00    -0.248 NA
ATOM     50  C   UNL     1       0.196   2.423   7.506  1.00  0.00     0.031 C 
ATOM     51  C   UNL     1      -3.336   3.133   3.985  1.00  0.00     0.029 A 
ATOM     52  N   UNL     1      -3.652   1.463   5.436  1.00  0.00    -0.354 N 
ATOM     53  C   UNL     1      -0.735   0.587   8.504  1.00  0.00     0.074 A 
ATOM     54  C   UNL     1       0.389   1.494   8.432  1.00  0.00     0.031 C 
ATOM     55  C   UNL     1      -4.497   2.538   3.667  1.00  0.00     0.029 A 
ATOM     56  C   UNL     1      -4.718   1.412   4.567  1.00  0.00     0.049 A 
ATOM     57  H   UNL     1      -3.544   0.842   6.192  1.00  0.00     0.167 HD
ATOM     58  C   UNL     1      -0.854  -0.406   9.418  1.00  0.00     0.031 A 
ATOM     59  C   UNL     1      -5.745   0.543   4.488  1.00  0.00     0.031 A 
ATOM     60  C   UNL     1      -1.967  -1.319   9.474  1.00  0.00     0.049 A 
ATOM     61  C   UNL     1      -5.831  -0.582   5.485  1.00  0.00     0.074 A 
ATOM     62  C   UNL     1      -2.200  -2.335  10.384  1.00  0.00     0.029 A 
ATOM     63  N   UNL     1      -3.025  -1.336   8.577  1.00  0.00    -0.354 N 
ATOM     64  N   UNL     1      -5.028  -0.865   6.484  1.00  0.00    -0.248 NA
ATOM     65  C   UNL     1      -6.971  -1.500   5.354  1.00  0.00     0.031 C 
ATOM     66  C   UNL     1      -3.370  -3.000  10.007  1.00  0.00     0.029 A 
ATOM     67  C   UNL     1      -3.905  -2.356   8.902  1.00  0.00     0.049 A 
ATOM     68  H   UNL     1      -3.135  -0.715   7.821  1.00  0.00     0.167 HD
ATOM     69  C   UNL     1      -5.581  -1.974   7.114  1.00  0.00     0.074 A 
ATOM     70  C   UNL     1      -6.797  -2.298   6.399  1.00  0.00     0.031 C 
ATOM     71  C   UNL     1      -5.122  -2.660   8.191  1.00  0.00     0.031 A 
BRANCH  58  72
ATOM     72  C   UNL     1       0.251  -0.557  10.434  1.00  0.00    -0.014 A 
ATOM     73  C   UNL     1       0.448   0.411  11.436  1.00  0.00     0.010 A 
ATOM     74  C   UNL     1       1.071  -1.700  10.421  1.00  0.00     0.010 A 
ATOM     75  C   UNL     1       1.464   0.257  12.383  1.00  0.00     0.020 A 
ATOM     76  C   UNL     1       2.071  -1.873  11.385  1.00  0.00     0.020 A 
ATOM     77  C   UNL     1       2.269  -0.886  12.353  1.00  0.00     0.054 A 
BRANCH  77  78
ATOM     78  S   UNL     1       3.551  -1.075  13.623  1.00  0.00     0.124 S 
ATOM     79  O   UNL     1       4.525  -0.060  13.229  1.00  0.00    -0.237 OA
ATOM     80  O   UNL     1       2.823  -0.796  14.858  1.00  0.00    -0.237 OA
ATOM     81  O   UNL     1       3.997  -2.458  13.469  1.00  0.00    -0.744 OA
ENDBRANCH  77  78
ENDBRANCH  58  72
BRANCH  59  82
ATOM     82  C   UNL     1      -6.782   0.703   3.428  1.00  0.00    -0.014 A 
ATOM     83  C   UNL     1      -8.098   1.063   3.767  1.00  0.00     0.010 A 
ATOM     84  C   UNL     1      -6.464   0.490   2.073  1.00  0.00     0.010 A 
ATOM     85  C   UNL     1      -9.081   1.177   2.779  1.00  0.00     0.020 A 
ATOM     86  C   UNL     1      -7.437   0.635   1.078  1.00  0.00     0.020 A 
ATOM     87  C   UNL     1      -8.745   0.962   1.440  1.00  0.00     0.054 A 
BRANCH  87  88
ATOM     88  S   UNL     1     -10.037   1.143   0.179  1.00  0.00     0.124 S 
ATOM     89  O   UNL     1     -10.866  -0.035   0.420  1.00  0.00    -0.237 OA
ATOM     90  O   UNL     1     -10.647   2.423   0.531  1.00  0.00    -0.237 OA
ATOM     91  O   UNL     1      -9.297   1.140  -1.080  1.00  0.00    -0.744 OA
ENDBRANCH  87  88
ENDBRANCH  59  82
BRANCH  71  92
ATOM     92  C   UNL     1      -5.965  -3.799   8.706  1.00  0.00    -0.014 A 
ATOM     93  C   UNL     1      -6.080  -5.010   7.999  1.00  0.00     0.010 A 
ATOM     94  C   UNL     1      -6.598  -3.676   9.957  1.00  0.00     0.010 A 
ATOM     95  C   UNL     1      -6.832  -6.066   8.523  1.00  0.00     0.020 A 
ATOM     96  C   UNL     1      -7.325  -4.740  10.498  1.00  0.00     0.020 A 
ATOM     97  C   UNL     1      -7.447  -5.926   9.772  1.00  0.00     0.054 A 
BRANCH  97  98
ATOM     98  S   UNL     1      -8.367  -7.331  10.458  1.00  0.00     0.124 S 
ATOM     99  O   UNL     1      -9.557  -7.362   9.612  1.00  0.00    -0.237 OA
ATOM    100  O   UNL     1      -7.439  -8.444  10.277  1.00  0.00    -0.237 OA
ATOM    101  O   UNL     1      -8.605  -6.948  11.848  1.00  0.00    -0.744 OA
ENDBRANCH  97  98
ENDBRANCH  71  92
ENDBRANCH  45  46
ENDBRANCH  37  40
ENDBRANCH  35  36
ENDBRANCH  34  35
ENDBRANCH   1  34
TORSDOF 18
