REMARK SMILES Cc1nc(C(=O)NCCCNC(=O)c2ccc(-c3c4nc(c(-c5ccc(S(=O)(=O)[O-])cc5)c5ccc([nH]5)c(-c5ccc(S(=O)(=O)[O-])cc5)c5nc(c(-c6ccc(S(=O)(=O)[O-])cc6)c6ccc3[nH]6)C=C5)C=C4)cc2)nn1-c1cccc(C(F)(F)F)c1
REMARK SMILES IDX 9 1 8 2 7 3 5 4 6 5 4 7 1 8 2 9 3 10 75 11 74 12 76 13 77 14
REMARK SMILES IDX 85 15 78 16 80 17 79 18 81 19 82 20 83 21 84 22 10 23 11 24
REMARK SMILES IDX 12 25 13 27 14 28 15 29 73 30 16 31 72 32 17 33 18 34 19 35
REMARK SMILES IDX 66 36 20 37 71 38 65 39 67 40 21 41 70 42 64 43 63 44 22 46
REMARK SMILES IDX 52 47 33 48 51 49 34 50 37 51 50 52 68 53 35 54 36 55 49 57
REMARK SMILES IDX 69 58 38 59 23 60 24 61 32 62 25 63 31 64 26 65 27 66 28 67
REMARK SMILES IDX 29 68 30 69 53 70 54 71 62 72 55 73 61 74 56 75 57 76 58 77
REMARK SMILES IDX 59 78 60 79 39 80 40 81 48 82 41 83 47 84 42 85 43 86 44 87
REMARK SMILES IDX 45 88 46 89
REMARK H PARENT 7 6 11 26 67 45 37 56
REMARK Flexibility Score: inf
ROOT
ATOM      1  C   UNL     1       1.243   6.802  -1.454  1.00  0.00     0.042 C 
ENDROOT
BRANCH   1   2
ATOM      2  C   UNL     1      -0.063   6.297  -0.833  1.00  0.00     0.118 C 
BRANCH   2   3
ATOM      3  N   UNL     1      -0.916   5.593  -1.783  1.00  0.00    -0.349 N 
ATOM      4  C   UNL     1      -1.115   4.239  -2.002  1.00  0.00     0.290 C 
ATOM      5  O   UNL     1      -1.896   3.929  -2.904  1.00  0.00    -0.266 OA
ATOM      6  H   UNL     1      -1.441   6.182  -2.371  1.00  0.00     0.163 HD
BRANCH   4   7
ATOM      7  C   UNL     1      -0.389   3.225  -1.206  1.00  0.00     0.239 A 
ATOM      8  C   UNL     1       0.854  -0.056  -0.506  1.00  0.00     0.090 C 
ATOM      9  C   UNL     1       0.553   1.383  -0.687  1.00  0.00     0.130 A 
ATOM     10  N   UNL     1      -0.258   1.902  -1.587  1.00  0.00    -0.207 NA
ATOM     11  N   UNL     1       0.973   2.389   0.159  1.00  0.00    -0.217 N 
ATOM     12  N   UNL     1       0.202   3.474  -0.027  1.00  0.00    -0.140 NA
BRANCH  11  13
ATOM     13  C   UNL     1       2.091   2.492   1.019  1.00  0.00     0.067 A 
ATOM     14  C   UNL     1       2.032   3.390   2.096  1.00  0.00     0.028 A 
ATOM     15  C   UNL     1       3.291   1.842   0.715  1.00  0.00     0.041 A 
ATOM     16  C   UNL     1       3.155   3.608   2.889  1.00  0.00     0.003 A 
ATOM     17  C   UNL     1       4.441   2.097   1.482  1.00  0.00     0.058 A 
ATOM     18  C   UNL     1       4.354   2.967   2.582  1.00  0.00     0.013 A 
BRANCH  17  19
ATOM     19  C   UNL     1       5.774   1.491   1.113  1.00  0.00     0.416 C 
ATOM     20  F   UNL     1       6.743   2.431   0.936  1.00  0.00    -0.166 F 
ATOM     21  F   UNL     1       6.242   0.646   2.073  1.00  0.00    -0.166 F 
ATOM     22  F   UNL     1       5.740   0.766  -0.039  1.00  0.00    -0.166 F 
ENDBRANCH  17  19
ENDBRANCH  11  13
ENDBRANCH   4   7
ENDBRANCH   2   3
ENDBRANCH   1   2
BRANCH   1  23
ATOM     23  C   UNL     1       1.060   8.162  -2.113  1.00  0.00     0.118 C 
BRANCH  23  24
ATOM     24  N   UNL     1       0.799   9.225  -1.136  1.00  0.00    -0.352 N 
ATOM     25  C   UNL     1       0.518  10.563  -1.361  1.00  0.00     0.251 C 
ATOM     26  H   UNL     1       0.828   8.950  -0.191  1.00  0.00     0.163 HD
ATOM     27  O   UNL     1       0.611  11.378  -0.462  1.00  0.00    -0.269 OA
BRANCH  25  28
ATOM     28  C   UNL     1       0.129  10.974  -2.723  1.00  0.00     0.039 A 
ATOM     29  C   UNL     1       0.690  12.104  -3.323  1.00  0.00     0.014 A 
ATOM     30  C   UNL     1      -0.751  10.159  -3.424  1.00  0.00     0.014 A 
ATOM     31  C   UNL     1       0.444  12.341  -4.676  1.00  0.00     0.010 A 
ATOM     32  C   UNL     1      -0.863  10.304  -4.784  1.00  0.00     0.010 A 
ATOM     33  C   UNL     1      -0.306  11.416  -5.415  1.00  0.00    -0.014 A 
BRANCH  33  34
ATOM     34  C   UNL     1      -0.450  11.543  -6.865  1.00  0.00     0.031 A 
ATOM     35  C   UNL     1       0.809  11.663  -7.655  1.00  0.00     0.074 A 
ATOM     36  C   UNL     1      -1.621  11.322  -7.501  1.00  0.00     0.049 A 
ATOM     37  N   UNL     1       1.186  12.659  -8.387  1.00  0.00    -0.248 NA
ATOM     38  C   UNL     1       1.805  10.583  -7.569  1.00  0.00     0.031 C 
ATOM     39  C   UNL     1      -2.905  10.901  -6.924  1.00  0.00     0.029 A 
ATOM     40  N   UNL     1      -1.869  11.285  -8.838  1.00  0.00    -0.354 N 
ATOM     41  C   UNL     1       2.379  12.276  -8.997  1.00  0.00     0.074 A 
ATOM     42  C   UNL     1       2.780  11.049  -8.354  1.00  0.00     0.031 C 
ATOM     43  C   UNL     1      -3.691  10.395  -7.897  1.00  0.00     0.029 A 
ATOM     44  C   UNL     1      -3.050  10.636  -9.176  1.00  0.00     0.049 A 
ATOM     45  H   UNL     1      -1.266  11.682  -9.507  1.00  0.00     0.167 HD
ATOM     46  C   UNL     1       2.854  12.898 -10.114  1.00  0.00     0.031 A 
ATOM     47  C   UNL     1      -3.469  10.295 -10.417  1.00  0.00     0.031 A 
ATOM     48  C   UNL     1       2.122  14.101 -10.410  1.00  0.00     0.049 A 
ATOM     49  C   UNL     1      -2.749  11.171 -11.373  1.00  0.00     0.074 A 
ATOM     50  C   UNL     1       1.901  15.294  -9.752  1.00  0.00     0.029 A 
ATOM     51  N   UNL     1       1.154  14.018 -11.385  1.00  0.00    -0.354 N 
ATOM     52  N   UNL     1      -2.930  12.461 -11.429  1.00  0.00    -0.248 NA
ATOM     53  C   UNL     1      -1.512  10.693 -11.971  1.00  0.00     0.031 C 
ATOM     54  C   UNL     1       0.543  15.622 -10.037  1.00  0.00     0.029 A 
ATOM     55  C   UNL     1       0.035  14.648 -10.900  1.00  0.00     0.049 A 
ATOM     56  H   UNL     1       1.247  13.588 -12.265  1.00  0.00     0.167 HD
ATOM     57  C   UNL     1      -1.666  12.988 -11.648  1.00  0.00     0.074 A 
ATOM     58  C   UNL     1      -0.862  11.854 -12.101  1.00  0.00     0.031 C 
ATOM     59  C   UNL     1      -1.323  14.223 -11.173  1.00  0.00     0.031 A 
BRANCH  46  60
ATOM     60  C   UNL     1       3.756  12.263 -11.143  1.00  0.00    -0.014 A 
ATOM     61  C   UNL     1       4.304  13.068 -12.164  1.00  0.00     0.010 A 
ATOM     62  C   UNL     1       3.867  10.867 -11.298  1.00  0.00     0.010 A 
ATOM     63  C   UNL     1       4.876  12.503 -13.312  1.00  0.00     0.020 A 
ATOM     64  C   UNL     1       4.473  10.294 -12.419  1.00  0.00     0.020 A 
ATOM     65  C   UNL     1       4.941  11.116 -13.438  1.00  0.00     0.054 A 
BRANCH  65  66
ATOM     66  S   UNL     1       5.572  10.393 -14.974  1.00  0.00     0.124 S 
ATOM     67  O   UNL     1       4.541  10.780 -15.933  1.00  0.00    -0.237 OA
ATOM     68  O   UNL     1       6.862  11.060 -15.126  1.00  0.00    -0.237 OA
ATOM     69  O   UNL     1       5.646   8.965 -14.676  1.00  0.00    -0.744 OA
ENDBRANCH  65  66
ENDBRANCH  46  60
BRANCH  47  70
ATOM     70  C   UNL     1      -4.272   9.119 -10.821  1.00  0.00    -0.014 A 
ATOM     71  C   UNL     1      -4.862   9.048 -12.094  1.00  0.00     0.010 A 
ATOM     72  C   UNL     1      -4.237   7.940 -10.046  1.00  0.00     0.010 A 
ATOM     73  C   UNL     1      -5.334   7.827 -12.603  1.00  0.00     0.020 A 
ATOM     74  C   UNL     1      -4.714   6.721 -10.542  1.00  0.00     0.020 A 
ATOM     75  C   UNL     1      -5.234   6.665 -11.832  1.00  0.00     0.054 A 
BRANCH  75  76
ATOM     76  S   UNL     1      -5.653   5.062 -12.576  1.00  0.00     0.124 S 
ATOM     77  O   UNL     1      -7.109   5.130 -12.665  1.00  0.00    -0.237 OA
ATOM     78  O   UNL     1      -4.939   5.107 -13.849  1.00  0.00    -0.237 OA
ATOM     79  O   UNL     1      -5.134   4.090 -11.616  1.00  0.00    -0.744 OA
ENDBRANCH  75  76
ENDBRANCH  47  70
BRANCH  59  80
ATOM     80  C   UNL     1      -2.424  15.118 -10.643  1.00  0.00    -0.014 A 
ATOM     81  C   UNL     1      -3.253  14.770  -9.557  1.00  0.00     0.010 A 
ATOM     82  C   UNL     1      -2.519  16.421 -11.162  1.00  0.00     0.010 A 
ATOM     83  C   UNL     1      -4.173  15.688  -9.030  1.00  0.00     0.020 A 
ATOM     84  C   UNL     1      -3.419  17.348 -10.628  1.00  0.00     0.020 A 
ATOM     85  C   UNL     1      -4.250  16.974  -9.572  1.00  0.00     0.054 A 
BRANCH  85  86
ATOM     86  S   UNL     1      -5.408  18.174  -8.856  1.00  0.00     0.124 S 
ATOM     87  O   UNL     1      -6.706  17.649  -9.270  1.00  0.00    -0.237 OA
ATOM     88  O   UNL     1      -5.123  18.090  -7.425  1.00  0.00    -0.237 OA
ATOM     89  O   UNL     1      -5.026  19.441  -9.479  1.00  0.00    -0.744 OA
ENDBRANCH  85  86
ENDBRANCH  59  80
ENDBRANCH  33  34
ENDBRANCH  25  28
ENDBRANCH  23  24
ENDBRANCH   1  23
TORSDOF 15
