REMARK SMILES COC(=O)c1ccc2c(c1)=N[C@H](c1cn(CCC(=O)NCCCNC(=O)c3ccc(-c4c5nc(c(-c6ccc(S(=O)(=O)[O-])cc6)c6ccc([nH]6)c(-c6ccc(S(=O)(=O)[O-])cc6)c6nc(c(-c7ccc(S(=O)(=O)[O-])cc7)c7ccc4[nH]7)C=C6)C=C5)cc3)c3ccccc13)N=2
REMARK SMILES IDX 21 1 20 2 18 3 19 4 17 6 16 7 15 8 13 9 14 10 92 11 87 12
REMARK SMILES IDX 91 13 88 14 90 15 89 16 12 17 5 18 6 19 10 20 7 21 9 22 8 23
REMARK SMILES IDX 11 24 93 25 3 26 4 27 2 28 1 29 22 30 23 31 24 32 25 33
REMARK SMILES IDX 26 35 27 36 28 37 86 38 29 39 85 40 30 41 31 42 32 43 79 44
REMARK SMILES IDX 33 45 84 46 78 47 80 48 34 49 83 50 77 51 76 52 35 54 65 55
REMARK SMILES IDX 46 56 64 57 47 58 50 59 63 60 81 61 48 62 49 63 62 65 82 66
REMARK SMILES IDX 51 67 36 68 37 69 45 70 38 71 44 72 39 73 40 74 41 75 42 76
REMARK SMILES IDX 43 77 66 78 67 79 75 80 68 81 74 82 69 83 70 84 71 85 72 86
REMARK SMILES IDX 73 87 52 88 53 89 61 90 54 91 60 92 55 93 56 94 57 95 58 96
REMARK SMILES IDX 59 97
REMARK H PARENT 20 5 24 34 80 53 50 64
REMARK Flexibility Score: inf
ROOT
ATOM      1  C   UNL     1      -2.894 -10.388   5.436  1.00  0.00     0.117 C 
ENDROOT
BRANCH   1   2
ATOM      2  N   UNL     1      -2.878 -11.321   4.305  1.00  0.00    -0.356 N 
ATOM      3  C   UNL     1      -1.934 -12.158   3.778  1.00  0.00     0.221 C 
ATOM      4  O   UNL     1      -2.313 -12.938   2.896  1.00  0.00    -0.275 OA
ATOM      5  H   UNL     1      -3.735 -11.352   3.820  1.00  0.00     0.163 HD
BRANCH   3   6
ATOM      6  C   UNL     1      -0.496 -12.221   4.264  1.00  0.00     0.122 C 
BRANCH   6   7
ATOM      7  C   UNL     1       0.533 -12.120   3.104  1.00  0.00     0.132 C 
BRANCH   7   8
ATOM      8  N   UNL     1       0.923 -10.746   2.747  1.00  0.00    -0.347 N 
ATOM      9  C   UNL     1       0.258  -8.889   3.719  1.00  0.00     0.024 A 
ATOM     10  C   UNL     1       1.246  -9.878   3.759  1.00  0.00     0.094 A 
ATOM     11  C   UNL     1      -0.706  -9.368   2.737  1.00  0.00     0.007 A 
ATOM     12  C   UNL     1       0.212  -9.954   1.862  1.00  0.00     0.048 A 
ATOM     13  C   UNL     1      -1.859  -8.908   2.084  1.00  0.00     0.011 A 
ATOM     14  C   UNL     1       0.466  -9.282   0.649  1.00  0.00     0.027 A 
ATOM     15  C   UNL     1      -1.781  -8.410   0.791  1.00  0.00     0.001 A 
ATOM     16  C   UNL     1      -0.557  -8.451   0.151  1.00  0.00     0.002 A 
BRANCH   9  17
ATOM     17  C   UNL     1       0.508  -7.583   4.406  1.00  0.00     0.255 C 
ATOM     18  C   UNL     1       1.120  -3.822   2.070  1.00  0.00     0.062 A 
ATOM     19  C   UNL     1       0.069  -3.392   2.980  1.00  0.00     0.018 A 
ATOM     20  C   UNL     1       1.793  -4.966   2.285  1.00  0.00     0.046 A 
ATOM     21  C   UNL     1      -0.502  -4.195   3.887  1.00  0.00     0.031 A 
ATOM     22  C   UNL     1       1.239  -5.877   3.290  1.00  0.00     0.087 A 
ATOM     23  C   UNL     1      -0.057  -5.578   3.918  1.00  0.00     0.086 A 
ATOM     24  N   UNL     1       1.681  -7.016   3.669  1.00  0.00    -0.252 NA
ATOM     25  N   UNL     1      -0.615  -6.616   4.439  1.00  0.00    -0.252 NA
BRANCH  18  26
ATOM     26  C   UNL     1       1.537  -2.993   0.904  1.00  0.00     0.337 C 
ATOM     27  O   UNL     1       2.575  -3.169   0.262  1.00  0.00    -0.246 OA
BRANCH  26  28
ATOM     28  O   UNL     1       0.596  -2.058   0.627  1.00  0.00    -0.465 OA
ATOM     29  C   UNL     1       0.957  -1.070  -0.343  1.00  0.00     0.282 C 
ENDBRANCH  26  28
ENDBRANCH  18  26
ENDBRANCH   9  17
ENDBRANCH   7   8
ENDBRANCH   6   7
ENDBRANCH   3   6
ENDBRANCH   1   2
BRANCH   1  30
ATOM     30  C   UNL     1      -3.241  -8.901   5.147  1.00  0.00     0.042 C 
BRANCH  30  31
ATOM     31  C   UNL     1      -4.264  -8.557   4.056  1.00  0.00     0.118 C 
BRANCH  31  32
ATOM     32  N   UNL     1      -5.567  -8.088   4.472  1.00  0.00    -0.352 N 
ATOM     33  C   UNL     1      -6.173  -6.855   4.433  1.00  0.00     0.251 C 
ATOM     34  H   UNL     1      -6.133  -8.793   4.862  1.00  0.00     0.163 HD
ATOM     35  O   UNL     1      -7.398  -6.833   4.574  1.00  0.00    -0.269 OA
BRANCH  33  36
ATOM     36  C   UNL     1      -5.454  -5.555   4.367  1.00  0.00     0.039 A 
ATOM     37  C   UNL     1      -4.395  -5.227   3.525  1.00  0.00     0.014 A 
ATOM     38  C   UNL     1      -5.954  -4.559   5.220  1.00  0.00     0.014 A 
ATOM     39  C   UNL     1      -3.736  -3.997   3.686  1.00  0.00     0.010 A 
ATOM     40  C   UNL     1      -5.295  -3.341   5.374  1.00  0.00     0.010 A 
ATOM     41  C   UNL     1      -4.091  -3.111   4.714  1.00  0.00    -0.014 A 
BRANCH  41  42
ATOM     42  C   UNL     1      -3.182  -2.012   5.148  1.00  0.00     0.031 A 
ATOM     43  C   UNL     1      -2.646  -1.058   4.119  1.00  0.00     0.074 A 
ATOM     44  C   UNL     1      -2.879  -1.823   6.461  1.00  0.00     0.049 A 
ATOM     45  N   UNL     1      -1.446  -0.560   4.026  1.00  0.00    -0.248 NA
ATOM     46  C   UNL     1      -3.542  -0.643   3.029  1.00  0.00     0.031 C 
ATOM     47  C   UNL     1      -3.408  -2.564   7.615  1.00  0.00     0.029 A 
ATOM     48  N   UNL     1      -2.134  -0.842   7.067  1.00  0.00    -0.354 N 
ATOM     49  C   UNL     1      -1.461   0.318   2.942  1.00  0.00     0.074 A 
ATOM     50  C   UNL     1      -2.756   0.167   2.321  1.00  0.00     0.031 C 
ATOM     51  C   UNL     1      -3.227  -1.842   8.739  1.00  0.00     0.029 A 
ATOM     52  C   UNL     1      -2.450  -0.663   8.417  1.00  0.00     0.049 A 
ATOM     53  H   UNL     1      -1.445  -0.318   6.598  1.00  0.00     0.167 HD
ATOM     54  C   UNL     1      -0.474   1.218   2.663  1.00  0.00     0.031 A 
ATOM     55  C   UNL     1      -2.206   0.421   9.203  1.00  0.00     0.031 A 
ATOM     56  C   UNL     1       0.797   0.889   3.238  1.00  0.00     0.049 A 
ATOM     57  C   UNL     1      -1.080   1.157   8.593  1.00  0.00     0.074 A 
ATOM     58  C   UNL     1       1.790  -0.036   2.998  1.00  0.00     0.029 A 
ATOM     59  N   UNL     1       1.175   1.489   4.408  1.00  0.00    -0.354 N 
ATOM     60  N   UNL     1       0.141   0.709   8.537  1.00  0.00    -0.248 NA
ATOM     61  C   UNL     1      -1.415   2.223   7.665  1.00  0.00     0.031 C 
ATOM     62  C   UNL     1       2.314  -0.356   4.276  1.00  0.00     0.029 A 
ATOM     63  C   UNL     1       1.726   0.510   5.194  1.00  0.00     0.049 A 
ATOM     64  H   UNL     1       1.070   2.440   4.641  1.00  0.00     0.167 HD
ATOM     65  C   UNL     1       0.596   1.115   7.295  1.00  0.00     0.074 A 
ATOM     66  C   UNL     1      -0.387   2.093   6.829  1.00  0.00     0.031 C 
ATOM     67  C   UNL     1       1.579   0.443   6.630  1.00  0.00     0.031 A 
BRANCH  54  68
ATOM     68  C   UNL     1      -0.756   2.559   2.037  1.00  0.00    -0.014 A 
ATOM     69  C   UNL     1      -2.039   3.143   2.088  1.00  0.00     0.010 A 
ATOM     70  C   UNL     1       0.304   3.380   1.602  1.00  0.00     0.010 A 
ATOM     71  C   UNL     1      -2.273   4.459   1.692  1.00  0.00     0.020 A 
ATOM     72  C   UNL     1       0.087   4.720   1.243  1.00  0.00     0.020 A 
ATOM     73  C   UNL     1      -1.204   5.246   1.283  1.00  0.00     0.054 A 
BRANCH  73  74
ATOM     74  S   UNL     1      -1.535   6.981   0.889  1.00  0.00     0.124 S 
ATOM     75  O   UNL     1      -2.305   6.865  -0.347  1.00  0.00    -0.237 OA
ATOM     76  O   UNL     1      -2.283   7.431   2.059  1.00  0.00    -0.237 OA
ATOM     77  O   UNL     1      -0.201   7.559   0.743  1.00  0.00    -0.744 OA
ENDBRANCH  73  74
ENDBRANCH  54  68
BRANCH  55  78
ATOM     78  C   UNL     1      -3.239   1.136  10.020  1.00  0.00    -0.014 A 
ATOM     79  C   UNL     1      -4.609   0.869   9.831  1.00  0.00     0.010 A 
ATOM     80  C   UNL     1      -2.897   2.309  10.730  1.00  0.00     0.010 A 
ATOM     81  C   UNL     1      -5.593   1.778  10.226  1.00  0.00     0.020 A 
ATOM     82  C   UNL     1      -3.882   3.234  11.121  1.00  0.00     0.020 A 
ATOM     83  C   UNL     1      -5.220   2.979  10.823  1.00  0.00     0.054 A 
BRANCH  83  84
ATOM     84  S   UNL     1      -6.510   4.227  11.087  1.00  0.00     0.124 S 
ATOM     85  O   UNL     1      -6.854   4.596   9.716  1.00  0.00    -0.237 OA
ATOM     86  O   UNL     1      -7.534   3.475  11.808  1.00  0.00    -0.237 OA
ATOM     87  O   UNL     1      -5.837   5.263  11.865  1.00  0.00    -0.744 OA
ENDBRANCH  83  84
ENDBRANCH  55  78
BRANCH  67  88
ATOM     88  C   UNL     1       2.404  -0.617   7.338  1.00  0.00    -0.014 A 
ATOM     89  C   UNL     1       3.797  -0.596   7.124  1.00  0.00     0.010 A 
ATOM     90  C   UNL     1       1.859  -1.720   8.026  1.00  0.00     0.010 A 
ATOM     91  C   UNL     1       4.614  -1.651   7.534  1.00  0.00     0.020 A 
ATOM     92  C   UNL     1       2.681  -2.771   8.473  1.00  0.00     0.020 A 
ATOM     93  C   UNL     1       4.051  -2.739   8.200  1.00  0.00     0.054 A 
BRANCH  93  94
ATOM     94  S   UNL     1       5.148  -4.101   8.681  1.00  0.00     0.124 S 
ATOM     95  O   UNL     1       5.476  -4.704   7.391  1.00  0.00    -0.237 OA
ATOM     96  O   UNL     1       6.252  -3.406   9.341  1.00  0.00    -0.237 OA
ATOM     97  O   UNL     1       4.324  -4.926   9.561  1.00  0.00    -0.744 OA
ENDBRANCH  93  94
ENDBRANCH  67  88
ENDBRANCH  41  42
ENDBRANCH  33  36
ENDBRANCH  31  32
ENDBRANCH  30  31
ENDBRANCH   1  30
TORSDOF 18
