REMARK SMILES Cc1ccc(C(=O)NC2(CC(=O)NCCCNC(=O)c3ccc(-c4c5nc(c(-c6ccc(S(=O)(=O)[O-])cc6)c6ccc([nH]6)c(-c6ccc(S(=O)(=O)[O-])cc6)c6nc(c(-c7ccc(S(=O)(=O)[O-])cc7)c7ccc4[nH]7)C=C6)C=C5)cc3)CCC2)cc1
REMARK SMILES IDX 15 1 14 2 13 3 11 4 12 5 10 7 9 8 80 9 82 10 81 11 8 12 6 13
REMARK SMILES IDX 7 14 5 16 1 17 2 18 3 19 84 20 4 21 83 22 16 23 17 24 18 25
REMARK SMILES IDX 19 27 20 28 21 29 79 30 22 31 78 32 23 33 24 34 25 35 72 36
REMARK SMILES IDX 26 37 77 38 71 39 73 40 27 41 76 42 70 43 69 44 28 46 58 47
REMARK SMILES IDX 39 48 57 49 40 50 43 51 56 52 74 53 41 54 42 55 55 57 75 58
REMARK SMILES IDX 44 59 29 60 30 61 38 62 31 63 37 64 32 65 33 66 34 67 35 68
REMARK SMILES IDX 36 69 59 70 60 71 68 72 61 73 67 74 62 75 63 76 64 77 65 78
REMARK SMILES IDX 66 79 45 80 46 81 54 82 47 83 53 84 48 85 49 86 50 87 51 88
REMARK SMILES IDX 52 89
REMARK H PARENT 13 6 8 15 17 26 73 45 43 56
REMARK Flexibility Score: inf
ROOT
ATOM      1  C   UNL     1      -0.512   2.045   2.631  1.00  0.00     0.042 C 
ENDROOT
BRANCH   1   2
ATOM      2  C   UNL     1       0.351   1.788   1.408  1.00  0.00     0.117 C 
BRANCH   2   3
ATOM      3  N   UNL     1      -0.324   0.674   0.324  1.00  0.00    -0.356 N 
ATOM      4  C   UNL     1      -1.377   0.688  -1.347  1.00  0.00     0.222 C 
ATOM      5  O   UNL     1      -1.398  -0.117  -2.320  1.00  0.00    -0.275 OA
ATOM      6  H   UNL     1      -0.137  -0.249   0.611  1.00  0.00     0.163 HD
BRANCH   4   7
ATOM      7  C   UNL     1      -2.706   1.968  -1.741  1.00  0.00     0.128 C 
BRANCH   7   8
ATOM      8  C   UNL     1      -3.769   2.607  -0.629  1.00  0.00     0.049 C 
ATOM      9  C   UNL     1      -4.549   3.890  -1.091  1.00  0.00     0.029 C 
ATOM     10  C   UNL     1      -3.675   3.502   0.798  1.00  0.00     0.029 C 
ATOM     11  C   UNL     1      -3.748   4.743  -0.060  1.00  0.00     0.005 C 
BRANCH   8  12
ATOM     12  N   UNL     1      -4.509   1.460  -0.125  1.00  0.00    -0.346 N 
ATOM     13  C   UNL     1      -3.783   0.604   0.659  1.00  0.00     0.251 C 
ATOM     14  O   UNL     1      -4.293  -0.306   1.292  1.00  0.00    -0.269 OA
ATOM     15  H   UNL     1      -5.460   1.311  -0.333  1.00  0.00     0.164 HD
BRANCH  13  16
ATOM     16  C   UNL     1      -2.295   0.757   0.486  1.00  0.00     0.039 A 
ATOM     17  C   UNL     1       2.329   0.158  -1.267  1.00  0.00     0.044 C 
ATOM     18  C   UNL     1       0.824   0.341  -1.346  1.00  0.00    -0.051 A 
ATOM     19  C   UNL     1      -0.108  -1.104  -0.790  1.00  0.00     0.004 A 
ATOM     20  C   UNL     1       0.205   2.021  -1.101  1.00  0.00     0.004 A 
ATOM     21  C   UNL     1      -1.652  -0.894   0.104  1.00  0.00     0.014 A 
ATOM     22  C   UNL     1      -1.327   2.271  -0.100  1.00  0.00     0.014 A 
ENDBRANCH  13  16
ENDBRANCH   8  12
ENDBRANCH   7   8
ENDBRANCH   4   7
ENDBRANCH   2   3
ENDBRANCH   1   2
BRANCH   1  23
ATOM     23  C   UNL     1      -0.014   1.171   3.725  1.00  0.00     0.118 C 
BRANCH  23  24
ATOM     24  N   UNL     1       1.152   1.751   4.366  1.00  0.00    -0.352 N 
ATOM     25  C   UNL     1       1.523   1.520   5.678  1.00  0.00     0.251 C 
ATOM     26  H   UNL     1       1.718   2.350   3.829  1.00  0.00     0.163 HD
ATOM     27  O   UNL     1       1.935   2.387   6.433  1.00  0.00    -0.269 OA
BRANCH  25  28
ATOM     28  C   UNL     1       1.553   0.092   6.058  1.00  0.00     0.039 A 
ATOM     29  C   UNL     1       2.824  -0.497   6.081  1.00  0.00     0.014 A 
ATOM     30  C   UNL     1       0.415  -0.645   5.767  1.00  0.00     0.014 A 
ATOM     31  C   UNL     1       2.972  -1.773   5.570  1.00  0.00     0.010 A 
ATOM     32  C   UNL     1       0.599  -1.756   4.998  1.00  0.00     0.010 A 
ATOM     33  C   UNL     1       1.877  -2.317   4.915  1.00  0.00    -0.014 A 
BRANCH  33  34
ATOM     34  C   UNL     1       1.821  -3.637   4.345  1.00  0.00     0.031 A 
ATOM     35  C   UNL     1       1.349  -4.641   5.326  1.00  0.00     0.074 A 
ATOM     36  C   UNL     1       1.929  -3.720   3.000  1.00  0.00     0.049 A 
ATOM     37  N   UNL     1       1.629  -5.889   5.298  1.00  0.00    -0.248 NA
ATOM     38  C   UNL     1       0.574  -4.289   6.536  1.00  0.00     0.031 C 
ATOM     39  C   UNL     1       1.520  -4.774   2.082  1.00  0.00     0.029 A 
ATOM     40  N   UNL     1       2.644  -2.839   2.181  1.00  0.00    -0.354 N 
ATOM     41  C   UNL     1       0.708  -6.496   6.131  1.00  0.00     0.074 A 
ATOM     42  C   UNL     1       0.233  -5.482   7.022  1.00  0.00     0.031 C 
ATOM     43  C   UNL     1       2.229  -4.657   0.938  1.00  0.00     0.029 A 
ATOM     44  C   UNL     1       3.207  -3.593   1.136  1.00  0.00     0.049 A 
ATOM     45  H   UNL     1       2.736  -1.867   2.313  1.00  0.00     0.167 HD
ATOM     46  C   UNL     1       0.241  -7.722   5.781  1.00  0.00     0.031 A 
ATOM     47  C   UNL     1       4.566  -3.780   1.117  1.00  0.00     0.031 A 
ATOM     48  C   UNL     1       0.886  -8.136   4.540  1.00  0.00     0.049 A 
ATOM     49  C   UNL     1       4.929  -5.201   1.496  1.00  0.00     0.074 A 
ATOM     50  C   UNL     1       0.480  -8.053   3.219  1.00  0.00     0.029 A 
ATOM     51  N   UNL     1       2.264  -8.267   4.529  1.00  0.00    -0.354 N 
ATOM     52  N   UNL     1       4.189  -5.968   2.252  1.00  0.00    -0.248 NA
ATOM     53  C   UNL     1       6.120  -5.883   0.998  1.00  0.00     0.031 C 
ATOM     54  C   UNL     1       1.649  -8.077   2.411  1.00  0.00     0.029 A 
ATOM     55  C   UNL     1       2.752  -8.165   3.244  1.00  0.00     0.049 A 
ATOM     56  H   UNL     1       2.819  -8.411   5.330  1.00  0.00     0.167 HD
ATOM     57  C   UNL     1       4.752  -7.213   2.326  1.00  0.00     0.074 A 
ATOM     58  C   UNL     1       5.962  -7.108   1.530  1.00  0.00     0.031 C 
ATOM     59  C   UNL     1       4.186  -8.246   3.018  1.00  0.00     0.031 A 
BRANCH  46  60
ATOM     60  C   UNL     1      -0.987  -8.393   6.332  1.00  0.00    -0.014 A 
ATOM     61  C   UNL     1      -1.607  -9.368   5.525  1.00  0.00     0.010 A 
ATOM     62  C   UNL     1      -1.568  -8.154   7.592  1.00  0.00     0.010 A 
ATOM     63  C   UNL     1      -2.743 -10.065   5.934  1.00  0.00     0.020 A 
ATOM     64  C   UNL     1      -2.722  -8.843   8.013  1.00  0.00     0.020 A 
ATOM     65  C   UNL     1      -3.294  -9.803   7.181  1.00  0.00     0.054 A 
BRANCH  65  66
ATOM     66  S   UNL     1      -4.727 -10.782   7.693  1.00  0.00     0.124 S 
ATOM     67  O   UNL     1      -5.706 -10.472   6.654  1.00  0.00    -0.237 OA
ATOM     68  O   UNL     1      -4.198 -12.143   7.671  1.00  0.00    -0.237 OA
ATOM     69  O   UNL     1      -5.048 -10.262   9.021  1.00  0.00    -0.744 OA
ENDBRANCH  65  66
ENDBRANCH  46  60
BRANCH  47  70
ATOM     70  C   UNL     1       5.312  -2.553   1.559  1.00  0.00    -0.014 A 
ATOM     71  C   UNL     1       5.316  -1.445   0.682  1.00  0.00     0.010 A 
ATOM     72  C   UNL     1       5.534  -2.324   2.929  1.00  0.00     0.010 A 
ATOM     73  C   UNL     1       5.311  -0.137   1.185  1.00  0.00     0.020 A 
ATOM     74  C   UNL     1       5.539  -1.013   3.432  1.00  0.00     0.020 A 
ATOM     75  C   UNL     1       5.344   0.064   2.564  1.00  0.00     0.054 A 
BRANCH  75  76
ATOM     76  S   UNL     1       4.932   1.715   3.208  1.00  0.00     0.124 S 
ATOM     77  O   UNL     1       5.971   2.549   2.614  1.00  0.00    -0.237 OA
ATOM     78  O   UNL     1       3.578   1.927   2.687  1.00  0.00    -0.237 OA
ATOM     79  O   UNL     1       5.009   1.547   4.654  1.00  0.00    -0.744 OA
ENDBRANCH  75  76
ENDBRANCH  47  70
BRANCH  59  80
ATOM     80  C   UNL     1       4.916  -9.478   3.498  1.00  0.00    -0.014 A 
ATOM     81  C   UNL     1       6.310  -9.609   3.488  1.00  0.00     0.010 A 
ATOM     82  C   UNL     1       4.186 -10.526   4.116  1.00  0.00     0.010 A 
ATOM     83  C   UNL     1       6.933 -10.768   3.958  1.00  0.00     0.020 A 
ATOM     84  C   UNL     1       4.800 -11.646   4.670  1.00  0.00     0.020 A 
ATOM     85  C   UNL     1       6.172 -11.783   4.537  1.00  0.00     0.054 A 
BRANCH  85  86
ATOM     86  S   UNL     1       6.999 -13.279   5.107  1.00  0.00     0.124 S 
ATOM     87  O   UNL     1       7.297 -13.949   3.843  1.00  0.00    -0.237 OA
ATOM     88  O   UNL     1       8.156 -12.749   5.825  1.00  0.00    -0.237 OA
ATOM     89  O   UNL     1       5.998 -13.935   5.943  1.00  0.00    -0.744 OA
ENDBRANCH  85  86
ENDBRANCH  59  80
ENDBRANCH  33  34
ENDBRANCH  25  28
ENDBRANCH  23  24
ENDBRANCH   1  23
TORSDOF 16
