REMARK SMILES O=C(NCCCNC(=O)[C@@H]1CC=CC[C@H]1C(=O)N1CC[NH+](Cc2ccc3c(c2)OCO3)CC1)c1ccc(-c2c3nc(c(-c4ccc(S(=O)(=O)[O-])cc4)c4ccc([nH]4)c(-c4ccc(S(=O)(=O)[O-])cc4)c4nc(c(-c5ccc(S(=O)(=O)[O-])cc5)c5ccc2[nH]5)C=C4)C=C3)cc1
REMARK SMILES IDX 5 1 4 2 3 3 1 4 2 5 34 7 35 8 93 9 36 10 92 11 37 12 38 13
REMARK SMILES IDX 39 14 86 15 40 16 91 17 85 18 87 19 41 20 90 21 84 22 83 23
REMARK SMILES IDX 42 25 72 26 53 27 71 28 54 29 57 30 70 31 88 32 55 33 56 34
REMARK SMILES IDX 69 36 89 37 58 38 43 39 44 40 52 41 45 42 51 43 46 44 47 45
REMARK SMILES IDX 48 46 49 47 50 48 73 49 74 50 82 51 75 52 81 53 76 54 77 55
REMARK SMILES IDX 78 56 79 57 80 58 59 59 60 60 68 61 61 62 67 63 62 64 63 65
REMARK SMILES IDX 64 66 65 67 66 68 6 69 7 70 8 71 9 73 10 74 11 75 15 76
REMARK SMILES IDX 12 77 14 78 13 79 16 80 17 81 18 82 19 83 33 84 20 85 32 86
REMARK SMILES IDX 21 87 22 89 23 90 24 91 28 92 25 93 27 94 26 95 29 96 31 97
REMARK SMILES IDX 30 98
REMARK H PARENT 3 6 87 24 57 35 7 72 21 88
REMARK Flexibility Score: inf
ROOT
ATOM      1  C   UNL     1       6.000   8.338   0.588  1.00  0.00     0.042 C 
ENDROOT
BRANCH   1   2
ATOM      2  C   UNL     1       4.853   9.320   0.779  1.00  0.00     0.118 C 
BRANCH   2   3
ATOM      3  N   UNL     1       5.347  10.689   0.791  1.00  0.00    -0.352 N 
ATOM      4  O   UNL     1       5.981  12.612  -0.183  1.00  0.00    -0.269 OA
ATOM      5  C   UNL     1       5.210  11.647  -0.178  1.00  0.00     0.251 C 
ATOM      6  H   UNL     1       5.842  10.960   1.597  1.00  0.00     0.163 HD
BRANCH   5   7
ATOM      7  C   UNL     1       4.139  11.550  -1.196  1.00  0.00     0.039 A 
ATOM      8  C   UNL     1       2.846  11.153  -0.838  1.00  0.00     0.014 A 
ATOM      9  C   UNL     1       4.399  11.977  -2.503  1.00  0.00     0.014 A 
ATOM     10  C   UNL     1       1.827  11.145  -1.788  1.00  0.00     0.010 A 
ATOM     11  C   UNL     1       3.364  12.023  -3.442  1.00  0.00     0.010 A 
ATOM     12  C   UNL     1       2.067  11.623  -3.086  1.00  0.00    -0.014 A 
BRANCH  12  13
ATOM     13  C   UNL     1       0.922  11.868  -3.999  1.00  0.00     0.031 A 
ATOM     14  C   UNL     1       0.725  11.062  -5.249  1.00  0.00     0.074 A 
ATOM     15  C   UNL     1       0.074  12.871  -3.693  1.00  0.00     0.049 A 
ATOM     16  N   UNL     1      -0.212  11.178  -6.155  1.00  0.00    -0.248 NA
ATOM     17  C   UNL     1       1.700   9.996  -5.525  1.00  0.00     0.031 C 
ATOM     18  C   UNL     1       0.189  13.742  -2.517  1.00  0.00     0.029 A 
ATOM     19  N   UNL     1      -1.043  13.337  -4.338  1.00  0.00    -0.354 N 
ATOM     20  C   UNL     1       0.066  10.216  -7.118  1.00  0.00     0.074 A 
ATOM     21  C   UNL     1       1.267   9.530  -6.692  1.00  0.00     0.031 C 
ATOM     22  C   UNL     1      -0.823  14.622  -2.518  1.00  0.00     0.029 A 
ATOM     23  C   UNL     1      -1.626  14.417  -3.717  1.00  0.00     0.049 A 
ATOM     24  H   UNL     1      -1.394  12.936  -5.165  1.00  0.00     0.167 HD
ATOM     25  C   UNL     1      -0.621   9.938  -8.252  1.00  0.00     0.031 A 
ATOM     26  C   UNL     1      -2.671  15.183  -4.083  1.00  0.00     0.031 A 
ATOM     27  C   UNL     1      -1.820  10.624  -8.662  1.00  0.00     0.049 A 
ATOM     28  C   UNL     1      -3.390  14.867  -5.363  1.00  0.00     0.074 A 
ATOM     29  C   UNL     1      -2.631  10.355  -9.751  1.00  0.00     0.029 A 
ATOM     30  N   UNL     1      -2.369  11.722  -8.017  1.00  0.00    -0.354 N 
ATOM     31  N   UNL     1      -3.165  13.893  -6.211  1.00  0.00    -0.248 NA
ATOM     32  C   UNL     1      -4.498  15.755  -5.739  1.00  0.00     0.031 C 
ATOM     33  C   UNL     1      -3.635  11.328  -9.800  1.00  0.00     0.029 A 
ATOM     34  C   UNL     1      -3.479  12.172  -8.712  1.00  0.00     0.049 A 
ATOM     35  H   UNL     1      -2.021  12.122  -7.188  1.00  0.00     0.167 HD
ATOM     36  C   UNL     1      -4.105  14.050  -7.221  1.00  0.00     0.074 A 
ATOM     37  C   UNL     1      -4.920  15.193  -6.863  1.00  0.00     0.031 C 
ATOM     38  C   UNL     1      -4.271  13.318  -8.349  1.00  0.00     0.031 A 
BRANCH  25  39
ATOM     39  C   UNL     1      -0.097   8.856  -9.157  1.00  0.00    -0.014 A 
ATOM     40  C   UNL     1      -0.261   7.497  -8.837  1.00  0.00     0.010 A 
ATOM     41  C   UNL     1       0.465   9.204 -10.400  1.00  0.00     0.010 A 
ATOM     42  C   UNL     1       0.136   6.506  -9.740  1.00  0.00     0.020 A 
ATOM     43  C   UNL     1       0.847   8.217 -11.312  1.00  0.00     0.020 A 
ATOM     44  C   UNL     1       0.685   6.872 -10.974  1.00  0.00     0.054 A 
BRANCH  44  45
ATOM     45  S   UNL     1       1.130   5.565 -12.152  1.00  0.00     0.124 S 
ATOM     46  O   UNL     1       2.331   5.003 -11.539  1.00  0.00    -0.237 OA
ATOM     47  O   UNL     1      -0.047   4.701 -12.132  1.00  0.00    -0.237 OA
ATOM     48  O   UNL     1       1.350   6.285 -13.404  1.00  0.00    -0.744 OA
ENDBRANCH  44  45
ENDBRANCH  25  39
BRANCH  26  49
ATOM     49  C   UNL     1      -3.061  16.356  -3.256  1.00  0.00    -0.014 A 
ATOM     50  C   UNL     1      -4.271  16.365  -2.541  1.00  0.00     0.010 A 
ATOM     51  C   UNL     1      -2.215  17.479  -3.185  1.00  0.00     0.010 A 
ATOM     52  C   UNL     1      -4.640  17.487  -1.793  1.00  0.00     0.020 A 
ATOM     53  C   UNL     1      -2.567  18.589  -2.415  1.00  0.00     0.020 A 
ATOM     54  C   UNL     1      -3.787  18.593  -1.738  1.00  0.00     0.054 A 
BRANCH  54  55
ATOM     55  S   UNL     1      -4.271  20.030  -0.741  1.00  0.00     0.124 S 
ATOM     56  O   UNL     1      -5.249  20.681  -1.606  1.00  0.00    -0.237 OA
ATOM     57  O   UNL     1      -4.807  19.413   0.469  1.00  0.00    -0.237 OA
ATOM     58  O   UNL     1      -3.014  20.754  -0.557  1.00  0.00    -0.744 OA
ENDBRANCH  54  55
ENDBRANCH  26  49
BRANCH  38  59
ATOM     59  C   UNL     1      -5.375  13.735  -9.280  1.00  0.00    -0.014 A 
ATOM     60  C   UNL     1      -5.239  14.877 -10.089  1.00  0.00     0.010 A 
ATOM     61  C   UNL     1      -6.537  12.950  -9.387  1.00  0.00     0.010 A 
ATOM     62  C   UNL     1      -6.255  15.239 -10.975  1.00  0.00     0.020 A 
ATOM     63  C   UNL     1      -7.545  13.296 -10.290  1.00  0.00     0.020 A 
ATOM     64  C   UNL     1      -7.402  14.445 -11.071  1.00  0.00     0.054 A 
BRANCH  64  65
ATOM     65  S   UNL     1      -8.684  14.905 -12.269  1.00  0.00     0.124 S 
ATOM     66  O   UNL     1      -9.320  16.043 -11.612  1.00  0.00    -0.237 OA
ATOM     67  O   UNL     1      -7.908  15.223 -13.465  1.00  0.00    -0.237 OA
ATOM     68  O   UNL     1      -9.509  13.703 -12.371  1.00  0.00    -0.744 OA
ENDBRANCH  64  65
ENDBRANCH  38  59
ENDBRANCH  12  13
ENDBRANCH   5   7
ENDBRANCH   2   3
ENDBRANCH   1   2
BRANCH   1  69
ATOM     69  C   UNL     1       6.832   8.087   1.842  1.00  0.00     0.117 C 
BRANCH  69  70
ATOM     70  N   UNL     1       6.061   7.617   2.984  1.00  0.00    -0.356 N 
ATOM     71  C   UNL     1       5.875   6.391   3.534  1.00  0.00     0.224 C 
ATOM     72  H   UNL     1       5.575   8.335   3.452  1.00  0.00     0.163 HD
ATOM     73  O   UNL     1       5.160   6.326   4.540  1.00  0.00    -0.275 OA
BRANCH  71  74
ATOM     74  C   UNL     1       6.514   5.123   2.991  1.00  0.00     0.095 C 
ATOM     75  C   UNL     1       8.039   5.115   3.175  1.00  0.00     0.041 C 
ATOM     76  C   UNL     1       6.074   4.770   1.571  1.00  0.00     0.095 C 
ATOM     77  C   UNL     1       8.719   4.010   2.418  1.00  0.00    -0.030 C 
ATOM     78  C   UNL     1       6.670   3.436   1.097  1.00  0.00     0.041 C 
ATOM     79  C   UNL     1       8.104   3.253   1.498  1.00  0.00    -0.030 C 
BRANCH  76  80
ATOM     80  C   UNL     1       4.561   4.792   1.336  1.00  0.00     0.227 C 
ATOM     81  O   UNL     1       4.036   5.720   0.719  1.00  0.00    -0.275 OA
ATOM     82  N   UNL     1       3.828   3.680   1.733  1.00  0.00    -0.331 N 
ATOM     83  C   UNL     1       2.796   3.262   0.788  1.00  0.00     0.181 C 
ATOM     84  C   UNL     1       3.427   3.579   3.135  1.00  0.00     0.181 C 
ATOM     85  C   UNL     1       2.117   1.933   1.163  1.00  0.00     0.284 C 
ATOM     86  C   UNL     1       2.748   2.241   3.483  1.00  0.00     0.284 C 
ATOM     87  N   UNL     1       1.696   1.791   2.563  1.00  0.00    -0.328 N 
ATOM     88  H   UNL     1       1.589   0.790   2.726  1.00  0.00     0.348 HD
BRANCH  87  89
ATOM     89  C   UNL     1       0.333   2.242   2.872  1.00  0.00     0.299 C 
BRANCH  89  90
ATOM     90  C   UNL     1       0.075   3.732   2.882  1.00  0.00     0.010 A 
ATOM     91  C   UNL     1      -0.262   4.410   1.687  1.00  0.00     0.013 A 
ATOM     92  C   UNL     1       0.209   4.466   4.073  1.00  0.00     0.060 A 
ATOM     93  C   UNL     1      -0.365   5.804   1.652  1.00  0.00     0.051 A 
ATOM     94  C   UNL     1       0.099   5.839   4.008  1.00  0.00     0.166 A 
ATOM     95  C   UNL     1      -0.163   6.491   2.827  1.00  0.00     0.165 A 
ATOM     96  O   UNL     1       0.266   6.697   5.050  1.00  0.00    -0.454 OA
ATOM     97  O   UNL     1      -0.181   7.842   2.973  1.00  0.00    -0.454 OA
ATOM     98  C   UNL     1       0.136   7.966   4.373  1.00  0.00     0.468 C 
ENDBRANCH  89  90
ENDBRANCH  87  89
ENDBRANCH  76  80
ENDBRANCH  71  74
ENDBRANCH  69  70
ENDBRANCH   1  69
TORSDOF 16
