REMARK SMILES O=C(N[C@]1(C(=O)NCCCNC(=O)c2ccc(-c3c4nc(c(-c5ccc(S(=O)(=O)[O-])cc5)c5ccc([nH]5)c(-c5ccc(S(=O)(=O)[O-])cc5)c5nc(c(-c6ccc(S(=O)(=O)[O-])cc6)c6ccc3[nH]6)C=C5)C=C4)cc2)CC[C@H](c2ccccc2)CC1)OCC1c2ccccc2-c2ccccc21
REMARK SMILES IDX 8 1 7 2 5 3 6 4 4 6 74 7 84 8 75 9 83 10 76 11 3 12 1 13
REMARK SMILES IDX 2 14 85 16 86 17 87 18 88 19 99 20 89 21 93 22 94 23 98 24
REMARK SMILES IDX 90 25 92 26 95 27 97 28 91 29 96 30 77 31 78 32 82 33 79 34
REMARK SMILES IDX 81 35 80 36 9 37 10 38 11 39 12 40 13 42 14 43 15 44 73 45
REMARK SMILES IDX 16 46 72 47 17 48 18 49 19 50 66 51 20 52 71 53 65 54 67 55
REMARK SMILES IDX 21 56 70 57 64 58 63 59 22 61 52 62 33 63 51 64 34 65 37 66
REMARK SMILES IDX 50 67 68 68 35 69 36 70 49 72 69 73 38 74 23 75 24 76 32 77
REMARK SMILES IDX 25 78 31 79 26 80 27 81 28 82 29 83 30 84 53 85 54 86 62 87
REMARK SMILES IDX 55 88 61 89 56 90 57 91 58 92 59 93 60 94 39 95 40 96 48 97
REMARK SMILES IDX 41 98 47 99 42 100 43 101 44 102 45 103 46 104
REMARK H PARENT 7 5 3 15 11 41 67 60 37 71
REMARK Flexibility Score: inf
ROOT
ATOM      1  C   UNL     1       7.610  -1.540  -3.087  1.00  0.00     0.117 C 
ENDROOT
BRANCH   1   2
ATOM      2  N   UNL     1       6.227  -1.925  -3.202  1.00  0.00    -0.354 N 
ATOM      3  C   UNL     1       5.087  -1.296  -2.818  1.00  0.00     0.245 C 
ATOM      4  O   UNL     1       4.059  -1.745  -3.350  1.00  0.00    -0.272 OA
ATOM      5  H   UNL     1       6.083  -2.797  -3.635  1.00  0.00     0.163 HD
BRANCH   3   6
ATOM      6  C   UNL     1       5.022  -0.049  -1.858  1.00  0.00     0.122 C 
ATOM      7  C   UNL     1       5.305   1.310  -2.554  1.00  0.00     0.039 C 
ATOM      8  C   UNL     1       5.845  -0.129  -0.589  1.00  0.00     0.039 C 
ATOM      9  C   UNL     1       6.728   1.909  -2.553  1.00  0.00     0.011 C 
ATOM     10  C   UNL     1       7.231   0.508  -0.489  1.00  0.00     0.011 C 
ATOM     11  C   UNL     1       7.598   1.779  -1.282  1.00  0.00     0.019 C 
BRANCH   6  12
ATOM     12  N   UNL     1       3.525  -0.025  -1.528  1.00  0.00    -0.307 N 
ATOM     13  O   UNL     1       1.504  -0.239  -0.572  1.00  0.00    -0.225 OA
ATOM     14  C   UNL     1       2.694  -0.505  -0.543  1.00  0.00     0.408 C 
ATOM     15  H   UNL     1       3.018   0.471  -2.211  1.00  0.00     0.168 HD
BRANCH  14  16
ATOM     16  O   UNL     1       3.274  -1.215   0.463  1.00  0.00    -0.449 OA
BRANCH  16  17
ATOM     17  C   UNL     1       2.761  -0.957   1.838  1.00  0.00     0.248 C 
BRANCH  17  18
ATOM     18  C   UNL     1       3.928  -0.317   2.608  1.00  0.00     0.088 C 
ATOM     19  C   UNL     1       5.303  -0.890   2.895  1.00  0.00    -0.029 A 
ATOM     20  C   UNL     1       3.992   1.114   3.201  1.00  0.00    -0.029 A 
ATOM     21  C   UNL     1       5.770  -2.191   2.850  1.00  0.00     0.005 A 
ATOM     22  C   UNL     1       6.177   0.231   2.984  1.00  0.00    -0.014 A 
ATOM     23  C   UNL     1       5.337   1.456   2.934  1.00  0.00    -0.014 A 
ATOM     24  C   UNL     1       2.939   2.025   3.115  1.00  0.00     0.005 A 
ATOM     25  C   UNL     1       7.154  -2.381   2.817  1.00  0.00     0.000 A 
ATOM     26  C   UNL     1       7.550   0.028   2.967  1.00  0.00     0.009 A 
ATOM     27  C   UNL     1       5.438   2.501   2.034  1.00  0.00     0.009 A 
ATOM     28  C   UNL     1       3.137   3.171   2.357  1.00  0.00     0.000 A 
ATOM     29  C   UNL     1       8.034  -1.285   2.848  1.00  0.00     0.001 A 
ATOM     30  C   UNL     1       4.357   3.343   1.718  1.00  0.00     0.001 A 
ENDBRANCH  17  18
ENDBRANCH  16  17
ENDBRANCH  14  16
ENDBRANCH   6  12
BRANCH  11  31
ATOM     31  C   UNL     1       7.809   3.004  -0.361  1.00  0.00    -0.045 A 
ATOM     32  C   UNL     1       7.177   4.240  -0.550  1.00  0.00     0.004 A 
ATOM     33  C   UNL     1       8.586   2.862   0.820  1.00  0.00     0.004 A 
ATOM     34  C   UNL     1       7.146   5.200   0.477  1.00  0.00     0.000 A 
ATOM     35  C   UNL     1       8.504   3.793   1.868  1.00  0.00     0.000 A 
ATOM     36  C   UNL     1       7.748   4.948   1.708  1.00  0.00     0.000 A 
ENDBRANCH  11  31
ENDBRANCH   3   6
ENDBRANCH   1   2
BRANCH   1  37
ATOM     37  C   UNL     1       8.348  -2.281  -1.985  1.00  0.00     0.042 C 
BRANCH  37  38
ATOM     38  C   UNL     1       9.289  -3.344  -2.502  1.00  0.00     0.118 C 
BRANCH  38  39
ATOM     39  N   UNL     1      10.390  -2.729  -3.239  1.00  0.00    -0.352 N 
ATOM     40  C   UNL     1      11.711  -2.551  -2.915  1.00  0.00     0.251 C 
ATOM     41  H   UNL     1      10.140  -2.380  -4.124  1.00  0.00     0.163 HD
ATOM     42  O   UNL     1      12.347  -1.695  -3.528  1.00  0.00    -0.269 OA
BRANCH  40  43
ATOM     43  C   UNL     1      12.377  -3.365  -1.871  1.00  0.00     0.039 A 
ATOM     44  C   UNL     1      13.561  -2.887  -1.298  1.00  0.00     0.014 A 
ATOM     45  C   UNL     1      11.907  -4.626  -1.504  1.00  0.00     0.014 A 
ATOM     46  C   UNL     1      14.247  -3.668  -0.367  1.00  0.00     0.010 A 
ATOM     47  C   UNL     1      12.498  -5.328  -0.463  1.00  0.00     0.010 A 
ATOM     48  C   UNL     1      13.708  -4.887   0.075  1.00  0.00    -0.014 A 
BRANCH  48  49
ATOM     49  C   UNL     1      14.430  -5.737   1.053  1.00  0.00     0.031 A 
ATOM     50  C   UNL     1      14.847  -7.138   0.681  1.00  0.00     0.074 A 
ATOM     51  C   UNL     1      14.691  -5.244   2.278  1.00  0.00     0.049 A 
ATOM     52  N   UNL     1      15.522  -8.009   1.387  1.00  0.00    -0.248 NA
ATOM     53  C   UNL     1      14.428  -7.645  -0.639  1.00  0.00     0.031 C 
ATOM     54  C   UNL     1      14.271  -3.928   2.768  1.00  0.00     0.029 A 
ATOM     55  N   UNL     1      15.388  -5.781   3.328  1.00  0.00    -0.354 N 
ATOM     56  C   UNL     1      15.594  -9.158   0.605  1.00  0.00     0.074 A 
ATOM     57  C   UNL     1      14.831  -8.905  -0.594  1.00  0.00     0.031 C 
ATOM     58  C   UNL     1      14.777  -3.734   3.996  1.00  0.00     0.029 A 
ATOM     59  C   UNL     1      15.514  -4.926   4.397  1.00  0.00     0.049 A 
ATOM     60  H   UNL     1      15.762  -6.692   3.318  1.00  0.00     0.167 HD
ATOM     61  C   UNL     1      16.265 -10.309   0.846  1.00  0.00     0.031 A 
ATOM     62  C   UNL     1      16.162  -5.082   5.566  1.00  0.00     0.031 A 
ATOM     63  C   UNL     1      17.035 -10.543   2.038  1.00  0.00     0.049 A 
ATOM     64  C   UNL     1      16.914  -6.361   5.805  1.00  0.00     0.074 A 
ATOM     65  C   UNL     1      17.801 -11.647   2.366  1.00  0.00     0.029 A 
ATOM     66  N   UNL     1      17.137  -9.653   3.097  1.00  0.00    -0.354 N 
ATOM     67  N   UNL     1      17.035  -7.405   5.018  1.00  0.00    -0.248 NA
ATOM     68  C   UNL     1      17.630  -6.476   7.080  1.00  0.00     0.031 C 
ATOM     69  C   UNL     1      18.316 -11.450   3.652  1.00  0.00     0.029 A 
ATOM     70  C   UNL     1      17.930 -10.194   4.095  1.00  0.00     0.049 A 
ATOM     71  H   UNL     1      16.708  -8.768   3.135  1.00  0.00     0.167 HD
ATOM     72  C   UNL     1      17.857  -8.296   5.698  1.00  0.00     0.074 A 
ATOM     73  C   UNL     1      18.228  -7.650   6.942  1.00  0.00     0.031 C 
ATOM     74  C   UNL     1      18.265  -9.538   5.333  1.00  0.00     0.031 A 
BRANCH  61  75
ATOM     75  C   UNL     1      16.194 -11.395  -0.200  1.00  0.00    -0.014 A 
ATOM     76  C   UNL     1      16.790 -11.230  -1.465  1.00  0.00     0.010 A 
ATOM     77  C   UNL     1      15.553 -12.611   0.096  1.00  0.00     0.010 A 
ATOM     78  C   UNL     1      16.709 -12.241  -2.426  1.00  0.00     0.020 A 
ATOM     79  C   UNL     1      15.498 -13.639  -0.852  1.00  0.00     0.020 A 
ATOM     80  C   UNL     1      16.063 -13.441  -2.113  1.00  0.00     0.054 A 
BRANCH  80  81
ATOM     81  S   UNL     1      16.001 -14.746  -3.371  1.00  0.00     0.124 S 
ATOM     82  O   UNL     1      15.065 -14.185  -4.342  1.00  0.00    -0.237 OA
ATOM     83  O   UNL     1      17.390 -14.828  -3.814  1.00  0.00    -0.237 OA
ATOM     84  O   UNL     1      15.513 -15.912  -2.638  1.00  0.00    -0.744 OA
ENDBRANCH  80  81
ENDBRANCH  61  75
BRANCH  62  85
ATOM     85  C   UNL     1      16.147  -3.987   6.575  1.00  0.00    -0.014 A 
ATOM     86  C   UNL     1      17.316  -3.265   6.872  1.00  0.00     0.010 A 
ATOM     87  C   UNL     1      14.948  -3.643   7.228  1.00  0.00     0.010 A 
ATOM     88  C   UNL     1      17.292  -2.235   7.818  1.00  0.00     0.020 A 
ATOM     89  C   UNL     1      14.912  -2.593   8.148  1.00  0.00     0.020 A 
ATOM     90  C   UNL     1      16.088  -1.904   8.447  1.00  0.00     0.054 A 
BRANCH  90  91
ATOM     91  S   UNL     1      16.071  -0.532   9.635  1.00  0.00     0.124 S 
ATOM     92  O   UNL     1      16.785  -1.105  10.771  1.00  0.00    -0.237 OA
ATOM     93  O   UNL     1      16.775   0.521   8.908  1.00  0.00    -0.237 OA
ATOM     94  O   UNL     1      14.647  -0.285   9.850  1.00  0.00    -0.744 OA
ENDBRANCH  90  91
ENDBRANCH  62  85
BRANCH  74  95
ATOM     95  C   UNL     1      19.169 -10.264   6.293  1.00  0.00    -0.014 A 
ATOM     96  C   UNL     1      18.696 -10.723   7.535  1.00  0.00     0.010 A 
ATOM     97  C   UNL     1      20.509 -10.504   5.937  1.00  0.00     0.010 A 
ATOM     98  C   UNL     1      19.562 -11.354   8.430  1.00  0.00     0.020 A 
ATOM     99  C   UNL     1      21.369 -11.168   6.814  1.00  0.00     0.020 A 
ATOM    100  C   UNL     1      20.895 -11.567   8.066  1.00  0.00     0.054 A 
BRANCH 100 101
ATOM    101  S   UNL     1      21.998 -12.390   9.245  1.00  0.00     0.124 S 
ATOM    102  O   UNL     1      22.202 -11.347  10.246  1.00  0.00    -0.237 OA
ATOM    103  O   UNL     1      21.203 -13.535   9.681  1.00  0.00    -0.237 OA
ATOM    104  O   UNL     1      23.174 -12.724   8.444  1.00  0.00    -0.744 OA
ENDBRANCH 100 101
ENDBRANCH  74  95
ENDBRANCH  48  49
ENDBRANCH  40  43
ENDBRANCH  38  39
ENDBRANCH  37  38
ENDBRANCH   1  37
TORSDOF 18
