REMARK SMILES Cc1ccc(Oc2cc(C(=O)NCCCNC(=O)c3ccc(-c4c5nc(c(-c6ccc(S(=O)(=O)[O-])cc6)c6ccc([nH]6)c(-c6ccc(S(=O)(=O)[O-])cc6)c6nc(c(-c7ccc(S(=O)(=O)[O-])cc7)c7ccc4[nH]7)C=C6)C=C5)cc3)nc3ccccc23)cc1
REMARK SMILES IDX 14 1 13 2 12 3 10 4 11 5 9 7 7 8 8 9 85 10 80 11 84 12 79 13
REMARK SMILES IDX 81 14 83 15 82 16 6 17 5 18 1 19 2 20 3 21 87 22 4 23 86 24
REMARK SMILES IDX 15 25 16 26 17 27 18 29 19 30 20 31 78 32 21 33 77 34 22 35
REMARK SMILES IDX 23 36 24 37 71 38 25 39 76 40 70 41 72 42 26 43 75 44 69 45
REMARK SMILES IDX 68 46 27 48 57 49 38 50 56 51 39 52 42 53 55 54 73 55 40 56
REMARK SMILES IDX 41 57 54 59 74 60 43 61 28 62 29 63 37 64 30 65 36 66 31 67
REMARK SMILES IDX 32 68 33 69 34 70 35 71 58 72 59 73 67 74 60 75 66 76 61 77
REMARK SMILES IDX 62 78 63 79 64 80 65 81 44 82 45 83 53 84 46 85 52 86 47 87
REMARK SMILES IDX 48 88 49 89 50 90 51 91
REMARK H PARENT 12 6 16 28 72 47 42 58
REMARK Flexibility Score: inf
ROOT
ATOM      1  C   UNL     1      -7.279   5.819   0.021  1.00  0.00     0.042 C 
ENDROOT
BRANCH   1   2
ATOM      2  C   UNL     1      -6.443   5.680   1.292  1.00  0.00     0.118 C 
BRANCH   2   3
ATOM      3  N   UNL     1      -6.754   4.468   2.040  1.00  0.00    -0.351 N 
ATOM      4  C   UNL     1      -6.244   3.193   1.911  1.00  0.00     0.270 C 
ATOM      5  O   UNL     1      -6.560   2.340   2.743  1.00  0.00    -0.268 OA
ATOM      6  H   UNL     1      -7.432   4.575   2.746  1.00  0.00     0.163 HD
BRANCH   4   7
ATOM      7  C   UNL     1      -5.310   2.807   0.799  1.00  0.00     0.132 A 
ATOM      8  C   UNL     1      -3.785   1.262  -0.168  1.00  0.00     0.139 A 
ATOM      9  C   UNL     1      -4.634   1.603   0.880  1.00  0.00     0.082 A 
ATOM     10  C   UNL     1      -3.678   2.082  -1.314  1.00  0.00     0.043 A 
ATOM     11  C   UNL     1      -4.401   3.288  -1.285  1.00  0.00     0.075 A 
ATOM     12  C   UNL     1      -2.896   1.780  -2.456  1.00  0.00     0.014 A 
ATOM     13  N   UNL     1      -5.186   3.641  -0.260  1.00  0.00    -0.242 NA
ATOM     14  C   UNL     1      -4.297   4.161  -2.358  1.00  0.00     0.029 A 
ATOM     15  C   UNL     1      -2.800   2.677  -3.519  1.00  0.00     0.001 A 
ATOM     16  C   UNL     1      -3.499   3.874  -3.467  1.00  0.00     0.002 A 
BRANCH   8  17
ATOM     17  O   UNL     1      -3.108   0.068  -0.036  1.00  0.00    -0.457 OA
BRANCH  17  18
ATOM     18  C   UNL     1      -1.732   0.103   0.075  1.00  0.00     0.127 A 
ATOM     19  C   UNL     1       2.572  -0.122   0.103  1.00  0.00     0.044 C 
ATOM     20  C   UNL     1       1.075  -0.043   0.112  1.00  0.00    -0.051 A 
ATOM     21  C   UNL     1       0.308  -1.195  -0.093  1.00  0.00     0.007 A 
ATOM     22  C   UNL     1       0.424   1.173   0.348  1.00  0.00     0.007 A 
ATOM     23  C   UNL     1      -1.087  -1.121  -0.113  1.00  0.00     0.047 A 
ATOM     24  C   UNL     1      -0.972   1.245   0.342  1.00  0.00     0.047 A 
ENDBRANCH  17  18
ENDBRANCH   8  17
ENDBRANCH   4   7
ENDBRANCH   2   3
ENDBRANCH   1   2
BRANCH   1  25
ATOM     25  C   UNL     1      -8.670   6.369   0.303  1.00  0.00     0.118 C 
BRANCH  25  26
ATOM     26  N   UNL     1      -8.854   7.737  -0.160  1.00  0.00    -0.352 N 
ATOM     27  C   UNL     1     -10.033   8.460  -0.201  1.00  0.00     0.251 C 
ATOM     28  H   UNL     1      -8.046   8.202  -0.479  1.00  0.00     0.163 HD
ATOM     29  O   UNL     1     -10.159   9.473  -0.861  1.00  0.00    -0.269 OA
BRANCH  27  30
ATOM     30  C   UNL     1     -11.100   8.023   0.724  1.00  0.00     0.039 A 
ATOM     31  C   UNL     1     -11.345   8.841   1.834  1.00  0.00     0.014 A 
ATOM     32  C   UNL     1     -11.618   6.734   0.647  1.00  0.00     0.014 A 
ATOM     33  C   UNL     1     -11.980   8.307   2.951  1.00  0.00     0.010 A 
ATOM     34  C   UNL     1     -12.170   6.182   1.788  1.00  0.00     0.010 A 
ATOM     35  C   UNL     1     -12.312   6.954   2.953  1.00  0.00    -0.014 A 
BRANCH  35  36
ATOM     36  C   UNL     1     -12.753   6.228   4.140  1.00  0.00     0.031 A 
ATOM     37  C   UNL     1     -14.172   5.823   4.274  1.00  0.00     0.074 A 
ATOM     38  C   UNL     1     -11.854   5.823   5.064  1.00  0.00     0.049 A 
ATOM     39  N   UNL     1     -14.742   5.479   5.383  1.00  0.00    -0.248 NA
ATOM     40  C   UNL     1     -15.092   5.847   3.142  1.00  0.00     0.031 C 
ATOM     41  C   UNL     1     -12.054   4.791   6.078  1.00  0.00     0.029 A 
ATOM     42  N   UNL     1     -10.645   6.420   5.425  1.00  0.00    -0.354 N 
ATOM     43  C   UNL     1     -15.969   4.938   5.063  1.00  0.00     0.074 A 
ATOM     44  C   UNL     1     -16.181   5.292   3.679  1.00  0.00     0.031 C 
ATOM     45  C   UNL     1     -11.202   5.014   7.089  1.00  0.00     0.029 A 
ATOM     46  C   UNL     1     -10.542   6.281   6.819  1.00  0.00     0.049 A 
ATOM     47  H   UNL     1      -9.995   6.852   4.824  1.00  0.00     0.167 HD
ATOM     48  C   UNL     1     -16.601   4.115   5.950  1.00  0.00     0.031 A 
ATOM     49  C   UNL     1     -10.454   7.323   7.697  1.00  0.00     0.031 A 
ATOM     50  C   UNL     1     -15.918   4.081   7.242  1.00  0.00     0.049 A 
ATOM     51  C   UNL     1     -11.537   7.307   8.753  1.00  0.00     0.074 A 
ATOM     52  C   UNL     1     -15.064   3.167   7.838  1.00  0.00     0.029 A 
ATOM     53  N   UNL     1     -15.859   5.236   8.014  1.00  0.00    -0.354 N 
ATOM     54  N   UNL     1     -12.616   6.579   8.674  1.00  0.00    -0.248 NA
ATOM     55  C   UNL     1     -11.521   8.144   9.951  1.00  0.00     0.031 C 
ATOM     56  C   UNL     1     -14.421   3.813   8.927  1.00  0.00     0.029 A 
ATOM     57  C   UNL     1     -14.907   5.107   9.007  1.00  0.00     0.049 A 
ATOM     58  H   UNL     1     -16.418   6.034   7.873  1.00  0.00     0.167 HD
ATOM     59  C   UNL     1     -13.422   6.829   9.751  1.00  0.00     0.074 A 
ATOM     60  C   UNL     1     -12.688   7.809  10.531  1.00  0.00     0.031 C 
ATOM     61  C   UNL     1     -14.631   6.217   9.907  1.00  0.00     0.031 A 
BRANCH  48  62
ATOM     62  C   UNL     1     -17.662   3.107   5.541  1.00  0.00    -0.014 A 
ATOM     63  C   UNL     1     -17.845   1.937   6.309  1.00  0.00     0.010 A 
ATOM     64  C   UNL     1     -18.448   3.202   4.378  1.00  0.00     0.010 A 
ATOM     65  C   UNL     1     -18.671   0.882   5.883  1.00  0.00     0.020 A 
ATOM     66  C   UNL     1     -19.250   2.146   3.920  1.00  0.00     0.020 A 
ATOM     67  C   UNL     1     -19.345   0.981   4.669  1.00  0.00     0.054 A 
BRANCH  67  68
ATOM     68  S   UNL     1     -20.328  -0.420   4.076  1.00  0.00     0.124 S 
ATOM     69  O   UNL     1     -19.348  -1.504   4.046  1.00  0.00    -0.237 OA
ATOM     70  O   UNL     1     -21.363  -0.533   5.099  1.00  0.00    -0.237 OA
ATOM     71  O   UNL     1     -20.799   0.018   2.763  1.00  0.00    -0.744 OA
ENDBRANCH  67  68
ENDBRANCH  48  62
BRANCH  49  72
ATOM     72  C   UNL     1      -9.834   8.551   7.130  1.00  0.00    -0.014 A 
ATOM     73  C   UNL     1      -8.454   8.502   6.840  1.00  0.00     0.010 A 
ATOM     74  C   UNL     1     -10.634   9.514   6.490  1.00  0.00     0.010 A 
ATOM     75  C   UNL     1      -7.924   9.262   5.797  1.00  0.00     0.020 A 
ATOM     76  C   UNL     1     -10.100  10.284   5.447  1.00  0.00     0.020 A 
ATOM     77  C   UNL     1      -8.769  10.095   5.063  1.00  0.00     0.054 A 
BRANCH  77  78
ATOM     78  S   UNL     1      -8.151  10.755   3.485  1.00  0.00     0.124 S 
ATOM     79  O   UNL     1      -6.951  11.477   3.894  1.00  0.00    -0.237 OA
ATOM     80  O   UNL     1      -7.918   9.531   2.719  1.00  0.00    -0.237 OA
ATOM     81  O   UNL     1      -9.255  11.585   3.013  1.00  0.00    -0.744 OA
ENDBRANCH  77  78
ENDBRANCH  49  72
BRANCH  61  82
ATOM     82  C   UNL     1     -15.646   6.552  10.968  1.00  0.00    -0.014 A 
ATOM     83  C   UNL     1     -15.803   7.833  11.519  1.00  0.00     0.010 A 
ATOM     84  C   UNL     1     -16.587   5.565  11.345  1.00  0.00     0.010 A 
ATOM     85  C   UNL     1     -16.816   8.103  12.451  1.00  0.00     0.020 A 
ATOM     86  C   UNL     1     -17.623   5.833  12.243  1.00  0.00     0.020 A 
ATOM     87  C   UNL     1     -17.717   7.099  12.811  1.00  0.00     0.054 A 
BRANCH  87  88
ATOM     88  S   UNL     1     -19.063   7.468  13.966  1.00  0.00     0.124 S 
ATOM     89  O   UNL     1     -18.445   7.168  15.255  1.00  0.00    -0.237 OA
ATOM     90  O   UNL     1     -19.333   8.883  13.718  1.00  0.00    -0.237 OA
ATOM     91  O   UNL     1     -20.127   6.558  13.552  1.00  0.00    -0.744 OA
ENDBRANCH  87  88
ENDBRANCH  61  82
ENDBRANCH  35  36
ENDBRANCH  27  30
ENDBRANCH  25  26
ENDBRANCH   1  25
TORSDOF 15
