REMARK SMILES CC(C)[C@H]1CC[C@@H](C)C/C1=C(\F)C(=O)NCCCNC(=O)c1ccc(-c2c3nc(c(-c4ccc(S(=O)(=O)[O-])cc4)c4ccc([nH]4)c(-c4ccc(S(=O)(=O)[O-])cc4)c4nc(c(-c5ccc(S(=O)(=O)[O-])cc5)c5ccc2[nH]5)C=C4)C=C3)cc1
REMARK SMILES IDX 18 1 17 2 16 3 15 4 13 5 14 6 11 8 4 9 5 10 10 11 6 12 9 13
REMARK SMILES IDX 7 14 12 15 8 16 2 17 1 18 3 19 19 20 20 21 21 23 22 24 23 25
REMARK SMILES IDX 81 26 24 27 80 28 25 29 26 30 27 31 74 32 28 33 79 34 73 35
REMARK SMILES IDX 75 36 29 37 78 38 72 39 71 40 30 42 60 43 41 44 59 45 42 46
REMARK SMILES IDX 45 47 58 48 76 49 43 50 44 51 57 53 77 54 46 55 31 56 32 57
REMARK SMILES IDX 40 58 33 59 39 60 34 61 35 62 36 63 37 64 38 65 61 66 62 67
REMARK SMILES IDX 70 68 63 69 69 70 64 71 65 72 66 73 67 74 68 75 47 76 48 77
REMARK SMILES IDX 56 78 49 79 55 80 50 81 51 82 52 83 53 84 54 85
REMARK H PARENT 15 7 19 22 75 41 45 52
REMARK Flexibility Score: inf
ROOT
ATOM      1  C   UNL     1      -5.897   5.534  -0.488  1.00  0.00     0.118 C 
ENDROOT
BRANCH   1   2
ATOM      2  C   UNL     1      -5.397   5.040  -1.842  1.00  0.00     0.042 C 
BRANCH   2   3
ATOM      3  C   UNL     1      -3.901   5.179  -2.094  1.00  0.00     0.118 C 
BRANCH   3   4
ATOM      4  N   UNL     1      -3.063   4.616  -1.050  1.00  0.00    -0.350 N 
ATOM      5  C   UNL     1      -2.022   3.734  -1.111  1.00  0.00     0.279 C 
ATOM      6  O   UNL     1      -1.241   3.722  -0.164  1.00  0.00    -0.267 OA
ATOM      7  H   UNL     1      -3.282   4.924  -0.141  1.00  0.00     0.163 HD
BRANCH   5   8
ATOM      8  C   UNL     1      -1.820   2.876  -2.310  1.00  0.00     0.187 C 
ATOM      9  C   UNL     1      -1.051   0.504  -1.375  1.00  0.00     0.021 C 
ATOM     10  C   UNL     1      -1.576  -0.897  -1.828  1.00  0.00     0.009 C 
ATOM     11  C   UNL     1      -1.393   1.595  -2.422  1.00  0.00    -0.025 C 
ATOM     12  C   UNL     1      -1.240  -1.272  -3.265  1.00  0.00     0.004 C 
ATOM     13  C   UNL     1      -1.082   1.137  -3.855  1.00  0.00     0.038 C 
ATOM     14  C   UNL     1      -1.700  -0.206  -4.250  1.00  0.00    -0.010 C 
ATOM     15  F   UNL     1      -1.982   3.580  -3.457  1.00  0.00    -0.201 F 
ATOM     16  C   UNL     1      -3.225  -0.143  -4.363  1.00  0.00     0.008 C 
BRANCH   9  17
ATOM     17  C   UNL     1      -1.404   0.597   0.149  1.00  0.00    -0.010 C 
ATOM     18  C   UNL     1      -0.285   1.227   0.983  1.00  0.00     0.008 C 
ATOM     19  C   UNL     1      -2.806   1.108   0.488  1.00  0.00     0.008 C 
ENDBRANCH   9  17
ENDBRANCH   5   8
ENDBRANCH   3   4
ENDBRANCH   2   3
ENDBRANCH   1   2
BRANCH   1  20
ATOM     20  N   UNL     1      -5.570   6.925  -0.211  1.00  0.00    -0.352 N 
ATOM     21  C   UNL     1      -6.372   8.027  -0.029  1.00  0.00     0.251 C 
ATOM     22  H   UNL     1      -4.605   7.109  -0.141  1.00  0.00     0.163 HD
ATOM     23  O   UNL     1      -5.849   9.133   0.075  1.00  0.00    -0.269 OA
BRANCH  21  24
ATOM     24  C   UNL     1      -7.848   7.908   0.010  1.00  0.00     0.039 A 
ATOM     25  C   UNL     1      -8.615   8.874  -0.650  1.00  0.00     0.014 A 
ATOM     26  C   UNL     1      -8.486   6.881   0.709  1.00  0.00     0.014 A 
ATOM     27  C   UNL     1     -10.008   8.762  -0.678  1.00  0.00     0.010 A 
ATOM     28  C   UNL     1      -9.868   6.723   0.609  1.00  0.00     0.010 A 
ATOM     29  C   UNL     1     -10.646   7.660  -0.088  1.00  0.00    -0.014 A 
BRANCH  29  30
ATOM     30  C   UNL     1     -12.117   7.463  -0.203  1.00  0.00     0.031 A 
ATOM     31  C   UNL     1     -12.986   7.440   1.027  1.00  0.00     0.074 A 
ATOM     32  C   UNL     1     -12.665   7.236  -1.415  1.00  0.00     0.049 A 
ATOM     33  N   UNL     1     -14.273   7.222   1.124  1.00  0.00    -0.248 NA
ATOM     34  C   UNL     1     -12.318   7.669   2.318  1.00  0.00     0.031 C 
ATOM     35  C   UNL     1     -11.932   7.194  -2.683  1.00  0.00     0.029 A 
ATOM     36  N   UNL     1     -13.967   6.991  -1.780  1.00  0.00    -0.354 N 
ATOM     37  C   UNL     1     -14.565   7.269   2.483  1.00  0.00     0.074 A 
ATOM     38  C   UNL     1     -13.312   7.486   3.174  1.00  0.00     0.031 C 
ATOM     39  C   UNL     1     -12.796   6.969  -3.685  1.00  0.00     0.029 A 
ATOM     40  C   UNL     1     -14.136   6.802  -3.132  1.00  0.00     0.049 A 
ATOM     41  H   UNL     1     -14.709   6.954  -1.134  1.00  0.00     0.167 HD
ATOM     42  C   UNL     1     -15.767   7.161   3.099  1.00  0.00     0.031 A 
ATOM     43  C   UNL     1     -15.241   6.516  -3.849  1.00  0.00     0.031 A 
ATOM     44  C   UNL     1     -17.012   6.948   2.409  1.00  0.00     0.049 A 
ATOM     45  C   UNL     1     -16.561   6.377  -3.141  1.00  0.00     0.074 A 
ATOM     46  C   UNL     1     -18.289   6.878   2.939  1.00  0.00     0.029 A 
ATOM     47  N   UNL     1     -17.139   6.763   1.040  1.00  0.00    -0.354 N 
ATOM     48  N   UNL     1     -16.825   6.493  -1.861  1.00  0.00    -0.248 NA
ATOM     49  C   UNL     1     -17.733   6.080  -3.975  1.00  0.00     0.031 C 
ATOM     50  C   UNL     1     -19.179   6.589   1.901  1.00  0.00     0.029 A 
ATOM     51  C   UNL     1     -18.468   6.548   0.712  1.00  0.00     0.049 A 
ATOM     52  H   UNL     1     -16.394   6.780   0.396  1.00  0.00     0.167 HD
ATOM     53  C   UNL     1     -18.199   6.312  -1.741  1.00  0.00     0.074 A 
ATOM     54  C   UNL     1     -18.710   6.095  -3.079  1.00  0.00     0.031 C 
ATOM     55  C   UNL     1     -18.967   6.329  -0.623  1.00  0.00     0.031 A 
BRANCH  42  56
ATOM     56  C   UNL     1     -15.790   7.256   4.605  1.00  0.00    -0.014 A 
ATOM     57  C   UNL     1     -15.495   8.463   5.265  1.00  0.00     0.010 A 
ATOM     58  C   UNL     1     -16.145   6.131   5.371  1.00  0.00     0.010 A 
ATOM     59  C   UNL     1     -15.504   8.530   6.661  1.00  0.00     0.020 A 
ATOM     60  C   UNL     1     -16.188   6.201   6.767  1.00  0.00     0.020 A 
ATOM     61  C   UNL     1     -15.848   7.396   7.403  1.00  0.00     0.054 A 
BRANCH  61  62
ATOM     62  S   UNL     1     -15.862   7.516   9.213  1.00  0.00     0.124 S 
ATOM     63  O   UNL     1     -14.436   7.598   9.520  1.00  0.00    -0.237 OA
ATOM     64  O   UNL     1     -16.626   8.738   9.447  1.00  0.00    -0.237 OA
ATOM     65  O   UNL     1     -16.520   6.282   9.638  1.00  0.00    -0.744 OA
ENDBRANCH  61  62
ENDBRANCH  42  56
BRANCH  43  66
ATOM     66  C   UNL     1     -15.145   6.356  -5.327  1.00  0.00    -0.014 A 
ATOM     67  C   UNL     1     -15.711   7.313  -6.188  1.00  0.00     0.010 A 
ATOM     68  C   UNL     1     -14.469   5.254  -5.883  1.00  0.00     0.010 A 
ATOM     69  C   UNL     1     -15.616   7.164  -7.575  1.00  0.00     0.020 A 
ATOM     70  C   UNL     1     -14.345   5.117  -7.269  1.00  0.00     0.020 A 
ATOM     71  C   UNL     1     -14.929   6.069  -8.107  1.00  0.00     0.054 A 
BRANCH  71  72
ATOM     72  S   UNL     1     -14.767   5.929  -9.908  1.00  0.00     0.124 S 
ATOM     73  O   UNL     1     -16.125   5.578 -10.309  1.00  0.00    -0.237 OA
ATOM     74  O   UNL     1     -14.320   7.267 -10.288  1.00  0.00    -0.237 OA
ATOM     75  O   UNL     1     -13.770   4.875 -10.082  1.00  0.00    -0.744 OA
ENDBRANCH  71  72
ENDBRANCH  43  66
BRANCH  55  76
ATOM     76  C   UNL     1     -20.452   6.141  -0.796  1.00  0.00    -0.014 A 
ATOM     77  C   UNL     1     -20.998   4.897  -1.160  1.00  0.00     0.010 A 
ATOM     78  C   UNL     1     -21.320   7.219  -0.535  1.00  0.00     0.010 A 
ATOM     79  C   UNL     1     -22.381   4.743  -1.291  1.00  0.00     0.020 A 
ATOM     80  C   UNL     1     -22.704   7.060  -0.634  1.00  0.00     0.020 A 
ATOM     81  C   UNL     1     -23.226   5.826  -1.025  1.00  0.00     0.054 A 
BRANCH  81  82
ATOM     82  S   UNL     1     -25.018   5.587  -1.158  1.00  0.00     0.124 S 
ATOM     83  O   UNL     1     -25.206   5.490  -2.603  1.00  0.00    -0.237 OA
ATOM     84  O   UNL     1     -25.232   4.349  -0.412  1.00  0.00    -0.237 OA
ATOM     85  O   UNL     1     -25.576   6.786  -0.537  1.00  0.00    -0.744 OA
ENDBRANCH  81  82
ENDBRANCH  55  76
ENDBRANCH  29  30
ENDBRANCH  21  24
ENDBRANCH   1  20
TORSDOF 14
