REMARK SMILES CCC[C@H](NC(=O)Cn1cccc1C(=O)NCCCNC(=O)c1ccc(-c2c3nc(c(-c4ccc(S(=O)(=O)[O-])cc4)c4ccc([nH]4)c(-c4ccc(S(=O)(=O)[O-])cc4)c4nc(c(-c5ccc(S(=O)(=O)[O-])cc5)c5ccc2[nH]5)C=C4)C=C3)cc1)c1cccs1
REMARK SMILES IDX 17 1 16 2 14 3 15 4 13 6 9 7 10 8 11 9 12 10 8 11 6 12 5 13
REMARK SMILES IDX 7 15 4 16 3 17 2 18 1 19 83 20 84 21 87 22 85 23 86 24 18 25
REMARK SMILES IDX 19 26 20 27 21 28 22 30 23 31 24 32 82 33 25 34 81 35 26 36
REMARK SMILES IDX 27 37 28 38 75 39 29 40 80 41 74 42 76 43 30 44 79 45 73 46
REMARK SMILES IDX 72 47 31 49 61 50 42 51 60 52 43 53 46 54 59 55 77 56 44 57
REMARK SMILES IDX 45 58 58 60 78 61 47 62 32 63 33 64 41 65 34 66 40 67 35 68
REMARK SMILES IDX 36 69 37 70 38 71 39 72 62 73 63 74 71 75 64 76 70 77 65 78
REMARK SMILES IDX 66 79 67 80 68 81 69 82 48 83 49 84 57 85 50 86 56 87 51 88
REMARK SMILES IDX 52 89 53 90 54 91 55 92
REMARK H PARENT 16 5 5 14 20 29 76 48 46 59
REMARK Flexibility Score: inf
ROOT
ATOM      1  C   UNL     1       0.729  -0.939   3.169  1.00  0.00     0.118 C 
ENDROOT
BRANCH   1   2
ATOM      2  N   UNL     1       0.600   0.257   4.032  1.00  0.00    -0.351 N 
ATOM      3  C   UNL     1      -0.312   0.500   5.049  1.00  0.00     0.267 C 
ATOM      4  O   UNL     1       0.076   0.296   6.198  1.00  0.00    -0.268 OA
ATOM      5  H   UNL     1       1.250   0.976   3.861  1.00  0.00     0.163 HD
BRANCH   3   6
ATOM      6  C   UNL     1      -1.494   1.337   4.786  1.00  0.00     0.107 A 
ATOM      7  N   UNL     1      -2.500   1.255   3.830  1.00  0.00    -0.334 N 
ATOM      8  C   UNL     1      -3.433   2.257   4.025  1.00  0.00     0.087 A 
ATOM      9  C   UNL     1      -2.990   3.069   5.036  1.00  0.00     0.020 A 
ATOM     10  C   UNL     1      -1.787   2.499   5.507  1.00  0.00     0.033 A 
BRANCH   7  11
ATOM     11  C   UNL     1      -2.568   0.374   2.670  1.00  0.00     0.222 C 
BRANCH  11  12
ATOM     12  C   UNL     1      -1.577   0.750   1.586  1.00  0.00     0.240 C 
ATOM     13  N   UNL     1      -0.657   1.691   1.970  1.00  0.00    -0.347 N 
ATOM     14  H   UNL     1      -0.172   1.525   2.811  1.00  0.00     0.164 HD
ATOM     15  O   UNL     1      -1.665   0.310   0.443  1.00  0.00    -0.273 OA
BRANCH  13  16
ATOM     16  C   UNL     1      -0.334   2.899   1.258  1.00  0.00     0.122 C 
BRANCH  16  17
ATOM     17  C   UNL     1      -1.670   3.548   0.837  1.00  0.00     0.030 C 
BRANCH  17  18
ATOM     18  C   UNL     1      -1.620   4.205  -0.531  1.00  0.00    -0.001 C 
ATOM     19  C   UNL     1      -1.193   3.231  -1.622  1.00  0.00     0.004 C 
ENDBRANCH  17  18
ENDBRANCH  16  17
BRANCH  16  20
ATOM     20  C   UNL     1       0.480   3.789   2.204  1.00  0.00     0.027 A 
ATOM     21  C   UNL     1       0.371   5.148   2.451  1.00  0.00     0.017 A 
ATOM     22  S   UNL     1       1.777   3.136   3.142  1.00  0.00    -0.147 S 
ATOM     23  C   UNL     1       1.243   5.606   3.482  1.00  0.00     0.012 A 
ATOM     24  C   UNL     1       2.026   4.595   3.985  1.00  0.00     0.065 A 
ENDBRANCH  16  20
ENDBRANCH  13  16
ENDBRANCH  11  12
ENDBRANCH   7  11
ENDBRANCH   3   6
ENDBRANCH   1   2
BRANCH   1  25
ATOM     25  C   UNL     1       1.237  -0.596   1.748  1.00  0.00     0.042 C 
BRANCH  25  26
ATOM     26  C   UNL     1       2.550  -1.203   1.294  1.00  0.00     0.118 C 
BRANCH  26  27
ATOM     27  N   UNL     1       2.492  -2.642   1.095  1.00  0.00    -0.352 N 
ATOM     28  C   UNL     1       3.515  -3.463   0.648  1.00  0.00     0.251 C 
ATOM     29  H   UNL     1       1.634  -3.080   1.300  1.00  0.00     0.163 HD
ATOM     30  O   UNL     1       3.271  -4.548   0.161  1.00  0.00    -0.269 OA
BRANCH  28  31
ATOM     31  C   UNL     1       4.908  -2.972   0.747  1.00  0.00     0.039 A 
ATOM     32  C   UNL     1       5.811  -3.222  -0.290  1.00  0.00     0.014 A 
ATOM     33  C   UNL     1       5.298  -2.250   1.878  1.00  0.00     0.014 A 
ATOM     34  C   UNL     1       7.086  -2.674  -0.213  1.00  0.00     0.010 A 
ATOM     35  C   UNL     1       6.509  -1.599   1.900  1.00  0.00     0.010 A 
ATOM     36  C   UNL     1       7.413  -1.846   0.873  1.00  0.00    -0.014 A 
BRANCH  36  37
ATOM     37  C   UNL     1       8.739  -1.218   0.941  1.00  0.00     0.031 A 
ATOM     38  C   UNL     1       8.865  -0.107  -0.102  1.00  0.00     0.074 A 
ATOM     39  C   UNL     1       9.597  -1.783   1.847  1.00  0.00     0.049 A 
ATOM     40  N   UNL     1       9.818   0.112  -0.948  1.00  0.00    -0.248 NA
ATOM     41  C   UNL     1       7.709   0.796  -0.359  1.00  0.00     0.031 C 
ATOM     42  C   UNL     1       9.221  -2.833   2.832  1.00  0.00     0.029 A 
ATOM     43  N   UNL     1      10.927  -1.616   2.151  1.00  0.00    -0.354 N 
ATOM     44  C   UNL     1       9.482   1.262  -1.697  1.00  0.00     0.074 A 
ATOM     45  C   UNL     1       8.108   1.541  -1.398  1.00  0.00     0.031 C 
ATOM     46  C   UNL     1      10.291  -3.254   3.537  1.00  0.00     0.029 A 
ATOM     47  C   UNL     1      11.465  -2.551   3.075  1.00  0.00     0.049 A 
ATOM     48  H   UNL     1      11.470  -0.896   1.755  1.00  0.00     0.167 HD
ATOM     49  C   UNL     1      10.420   1.999  -2.369  1.00  0.00     0.031 A 
ATOM     50  C   UNL     1      12.774  -2.801   3.383  1.00  0.00     0.031 A 
ATOM     51  C   UNL     1      11.712   1.450  -2.101  1.00  0.00     0.049 A 
ATOM     52  C   UNL     1      13.544  -1.827   2.595  1.00  0.00     0.074 A 
ATOM     53  C   UNL     1      12.324   0.286  -2.489  1.00  0.00     0.029 A 
ATOM     54  N   UNL     1      12.334   1.940  -0.972  1.00  0.00    -0.354 N 
ATOM     55  N   UNL     1      13.612  -0.555   2.837  1.00  0.00    -0.248 NA
ATOM     56  C   UNL     1      14.188  -2.283   1.355  1.00  0.00     0.031 C 
ATOM     57  C   UNL     1      12.923  -0.158  -1.290  1.00  0.00     0.029 A 
ATOM     58  C   UNL     1      12.906   0.868  -0.336  1.00  0.00     0.049 A 
ATOM     59  H   UNL     1      12.361   2.879  -0.677  1.00  0.00     0.167 HD
ATOM     60  C   UNL     1      13.930  -0.042   1.605  1.00  0.00     0.074 A 
ATOM     61  C   UNL     1      14.581  -1.108   0.870  1.00  0.00     0.031 C 
ATOM     62  C   UNL     1      13.175   0.961   1.080  1.00  0.00     0.031 A 
BRANCH  49  63
ATOM     63  C   UNL     1      10.399   3.362  -3.011  1.00  0.00    -0.014 A 
ATOM     64  C   UNL     1      11.543   3.721  -3.776  1.00  0.00     0.010 A 
ATOM     65  C   UNL     1       9.511   4.388  -2.667  1.00  0.00     0.010 A 
ATOM     66  C   UNL     1      11.864   5.050  -4.053  1.00  0.00     0.020 A 
ATOM     67  C   UNL     1       9.808   5.729  -2.978  1.00  0.00     0.020 A 
ATOM     68  C   UNL     1      11.007   6.053  -3.620  1.00  0.00     0.054 A 
BRANCH  68  69
ATOM     69  S   UNL     1      11.523   7.775  -3.854  1.00  0.00     0.124 S 
ATOM     70  O   UNL     1      12.639   7.893  -2.921  1.00  0.00    -0.237 OA
ATOM     71  O   UNL     1      11.886   7.806  -5.270  1.00  0.00    -0.237 OA
ATOM     72  O   UNL     1      10.329   8.541  -3.508  1.00  0.00    -0.744 OA
ENDBRANCH  68  69
ENDBRANCH  49  63
BRANCH  50  73
ATOM     73  C   UNL     1      13.572  -3.869   4.093  1.00  0.00    -0.014 A 
ATOM     74  C   UNL     1      13.069  -4.904   4.891  1.00  0.00     0.010 A 
ATOM     75  C   UNL     1      14.973  -3.910   3.847  1.00  0.00     0.010 A 
ATOM     76  C   UNL     1      13.890  -5.996   5.271  1.00  0.00     0.020 A 
ATOM     77  C   UNL     1      15.781  -5.001   4.168  1.00  0.00     0.020 A 
ATOM     78  C   UNL     1      15.225  -6.062   4.855  1.00  0.00     0.054 A 
BRANCH  78  79
ATOM     79  S   UNL     1      16.204  -7.577   5.070  1.00  0.00     0.124 S 
ATOM     80  O   UNL     1      16.681  -7.451   6.443  1.00  0.00    -0.237 OA
ATOM     81  O   UNL     1      15.221  -8.632   4.835  1.00  0.00    -0.237 OA
ATOM     82  O   UNL     1      17.235  -7.465   4.038  1.00  0.00    -0.744 OA
ENDBRANCH  78  79
ENDBRANCH  50  73
BRANCH  62  83
ATOM     83  C   UNL     1      12.408   1.806   2.100  1.00  0.00    -0.014 A 
ATOM     84  C   UNL     1      13.111   2.394   3.172  1.00  0.00     0.010 A 
ATOM     85  C   UNL     1      11.005   1.951   2.107  1.00  0.00     0.010 A 
ATOM     86  C   UNL     1      12.454   3.070   4.212  1.00  0.00     0.020 A 
ATOM     87  C   UNL     1      10.333   2.632   3.147  1.00  0.00     0.020 A 
ATOM     88  C   UNL     1      11.066   3.188   4.197  1.00  0.00     0.054 A 
BRANCH  88  89
ATOM     89  S   UNL     1      10.254   4.075   5.563  1.00  0.00     0.124 S 
ATOM     90  O   UNL     1      10.638   3.290   6.734  1.00  0.00    -0.237 OA
ATOM     91  O   UNL     1      10.855   5.403   5.479  1.00  0.00    -0.237 OA
ATOM     92  O   UNL     1       8.832   4.018   5.225  1.00  0.00    -0.744 OA
ENDBRANCH  88  89
ENDBRANCH  62  83
ENDBRANCH  36  37
ENDBRANCH  28  31
ENDBRANCH  26  27
ENDBRANCH  25  26
ENDBRANCH   1  25
TORSDOF 19
