REMARK SMILES O=C(Cn1cnc(-c2ccccc2)c1-c1ccccc1)NCCCNC(=O)c1ccc(-c2c3nc(c(-c4ccc(S(=O)(=O)[O-])cc4)c4ccc([nH]4)c(-c4ccc(S(=O)(=O)[O-])cc4)c4nc(c(-c5ccc(S(=O)(=O)[O-])cc5)c5ccc2[nH]5)C=C4)C=C3)cc1
REMARK SMILES IDX 23 1 22 2 21 3 1 4 2 5 3 7 4 8 5 9 14 10 6 11 7 12 15 13
REMARK SMILES IDX 16 14 20 15 17 16 19 17 18 18 8 19 9 20 13 21 10 22 12 23
REMARK SMILES IDX 11 24 24 25 25 26 26 27 27 29 28 30 29 31 87 32 30 33 86 34
REMARK SMILES IDX 31 35 32 36 33 37 80 38 34 39 85 40 79 41 81 42 35 43 84 44
REMARK SMILES IDX 78 45 77 46 36 48 66 49 47 50 65 51 48 52 51 53 64 54 82 55
REMARK SMILES IDX 49 56 50 57 63 59 83 60 52 61 37 62 38 63 46 64 39 65 45 66
REMARK SMILES IDX 40 67 41 68 42 69 43 70 44 71 67 72 68 73 76 74 69 75 75 76
REMARK SMILES IDX 70 77 71 78 72 79 73 80 74 81 53 82 54 83 62 84 55 85 61 86
REMARK SMILES IDX 56 87 57 88 58 89 59 90 60 91
REMARK H PARENT 21 6 25 28 81 47 51 58
REMARK Flexibility Score: inf
ROOT
ATOM      1  C   UNL     1       1.960  -1.008   3.326  1.00  0.00     0.042 C 
ENDROOT
BRANCH   1   2
ATOM      2  C   UNL     1       1.850   0.273   2.490  1.00  0.00     0.117 C 
BRANCH   2   3
ATOM      3  N   UNL     1       2.535   0.222   1.202  1.00  0.00    -0.354 N 
ATOM      4  O   UNL     1       0.627   0.293  -0.071  1.00  0.00    -0.273 OA
ATOM      5  C   UNL     1       1.855   0.295  -0.000  1.00  0.00     0.239 C 
ATOM      6  H   UNL     1       3.515   0.131   1.189  1.00  0.00     0.163 HD
BRANCH   5   7
ATOM      7  C   UNL     1       2.711   0.321  -1.253  1.00  0.00     0.223 C 
BRANCH   7   8
ATOM      8  N   UNL     1       3.591   1.478  -1.347  1.00  0.00    -0.321 N 
ATOM      9  C   UNL     1       3.219   2.788  -1.234  1.00  0.00     0.201 A 
ATOM     10  C   UNL     1       4.952   1.456  -1.554  1.00  0.00     0.076 A 
ATOM     11  N   UNL     1       4.258   3.596  -1.276  1.00  0.00    -0.236 NA
ATOM     12  C   UNL     1       5.347   2.782  -1.488  1.00  0.00     0.096 A 
BRANCH  10  13
ATOM     13  C   UNL     1       5.732   0.241  -1.530  1.00  0.00     0.000 A 
ATOM     14  C   UNL     1       6.397  -0.051  -0.347  1.00  0.00     0.010 A 
ATOM     15  C   UNL     1       5.753  -0.657  -2.602  1.00  0.00     0.010 A 
ATOM     16  C   UNL     1       6.994  -1.280  -0.215  1.00  0.00     0.001 A 
ATOM     17  C   UNL     1       6.386  -1.889  -2.458  1.00  0.00     0.001 A 
ATOM     18  C   UNL     1       6.965  -2.214  -1.240  1.00  0.00     0.000 A 
ENDBRANCH  10  13
BRANCH  12  19
ATOM     19  C   UNL     1       6.730   3.236  -1.526  1.00  0.00     0.002 A 
ATOM     20  C   UNL     1       7.235   4.052  -0.506  1.00  0.00     0.010 A 
ATOM     21  C   UNL     1       7.600   2.803  -2.539  1.00  0.00     0.010 A 
ATOM     22  C   UNL     1       8.588   4.413  -0.493  1.00  0.00     0.001 A 
ATOM     23  C   UNL     1       8.948   3.168  -2.528  1.00  0.00     0.001 A 
ATOM     24  C   UNL     1       9.442   3.971  -1.503  1.00  0.00     0.000 A 
ENDBRANCH  12  19
ENDBRANCH   7   8
ENDBRANCH   5   7
ENDBRANCH   2   3
ENDBRANCH   1   2
BRANCH   1  25
ATOM     25  C   UNL     1       3.372  -1.300   3.812  1.00  0.00     0.118 C 
BRANCH  25  26
ATOM     26  N   UNL     1       3.884  -0.361   4.821  1.00  0.00    -0.352 N 
ATOM     27  C   UNL     1       5.093  -0.394   5.516  1.00  0.00     0.251 C 
ATOM     28  H   UNL     1       3.292   0.395   5.035  1.00  0.00     0.163 HD
ATOM     29  O   UNL     1       5.217   0.234   6.557  1.00  0.00    -0.269 OA
BRANCH  27  30
ATOM     30  C   UNL     1       6.224  -1.191   4.977  1.00  0.00     0.039 A 
ATOM     31  C   UNL     1       7.204  -1.796   5.774  1.00  0.00     0.014 A 
ATOM     32  C   UNL     1       6.282  -1.348   3.606  1.00  0.00     0.014 A 
ATOM     33  C   UNL     1       8.199  -2.574   5.158  1.00  0.00     0.010 A 
ATOM     34  C   UNL     1       7.040  -2.346   3.069  1.00  0.00     0.010 A 
ATOM     35  C   UNL     1       8.109  -2.838   3.786  1.00  0.00    -0.014 A 
BRANCH  35  36
ATOM     36  C   UNL     1       8.950  -3.759   3.032  1.00  0.00     0.031 A 
ATOM     37  C   UNL     1       8.885  -5.139   3.529  1.00  0.00     0.074 A 
ATOM     38  C   UNL     1       9.573  -3.459   1.867  1.00  0.00     0.049 A 
ATOM     39  N   UNL     1       9.769  -5.641   4.319  1.00  0.00    -0.248 NA
ATOM     40  C   UNL     1       7.704  -5.984   3.331  1.00  0.00     0.031 C 
ATOM     41  C   UNL     1       9.745  -2.159   1.214  1.00  0.00     0.029 A 
ATOM     42  N   UNL     1      10.143  -4.311   0.964  1.00  0.00    -0.354 N 
ATOM     43  C   UNL     1       9.417  -6.962   4.489  1.00  0.00     0.074 A 
ATOM     44  C   UNL     1       8.042  -7.058   4.056  1.00  0.00     0.031 C 
ATOM     45  C   UNL     1      10.204  -2.327  -0.053  1.00  0.00     0.029 A 
ATOM     46  C   UNL     1      10.482  -3.741  -0.264  1.00  0.00     0.049 A 
ATOM     47  H   UNL     1      10.303  -5.261   1.166  1.00  0.00     0.167 HD
ATOM     48  C   UNL     1      10.383  -7.893   4.714  1.00  0.00     0.031 A 
ATOM     49  C   UNL     1      11.225  -4.271  -1.279  1.00  0.00     0.031 A 
ATOM     50  C   UNL     1      11.675  -7.268   4.911  1.00  0.00     0.049 A 
ATOM     51  C   UNL     1      12.132  -5.240  -0.618  1.00  0.00     0.074 A 
ATOM     52  C   UNL     1      12.190  -6.362   5.819  1.00  0.00     0.029 A 
ATOM     53  N   UNL     1      12.509  -7.222   3.813  1.00  0.00    -0.354 N 
ATOM     54  N   UNL     1      13.097  -4.851   0.166  1.00  0.00    -0.248 NA
ATOM     55  C   UNL     1      11.672  -6.606  -0.415  1.00  0.00     0.031 C 
ATOM     56  C   UNL     1      13.016  -5.492   5.047  1.00  0.00     0.029 A 
ATOM     57  C   UNL     1      13.040  -5.960   3.732  1.00  0.00     0.049 A 
ATOM     58  H   UNL     1      12.692  -7.967   3.196  1.00  0.00     0.167 HD
ATOM     59  C   UNL     1      13.032  -5.715   1.248  1.00  0.00     0.074 A 
ATOM     60  C   UNL     1      12.207  -6.835   0.790  1.00  0.00     0.031 C 
ATOM     61  C   UNL     1      13.426  -5.317   2.493  1.00  0.00     0.031 A 
BRANCH  48  62
ATOM     62  C   UNL     1      10.271  -9.344   4.348  1.00  0.00    -0.014 A 
ATOM     63  C   UNL     1      11.334 -10.197   4.706  1.00  0.00     0.010 A 
ATOM     64  C   UNL     1       9.307  -9.849   3.455  1.00  0.00     0.010 A 
ATOM     65  C   UNL     1      11.467 -11.466   4.137  1.00  0.00     0.020 A 
ATOM     66  C   UNL     1       9.409 -11.130   2.912  1.00  0.00     0.020 A 
ATOM     67  C   UNL     1      10.507 -11.918   3.232  1.00  0.00     0.054 A 
BRANCH  67  68
ATOM     68  S   UNL     1      10.743 -13.523   2.437  1.00  0.00     0.124 S 
ATOM     69  O   UNL     1      11.941 -13.288   1.637  1.00  0.00    -0.237 OA
ATOM     70  O   UNL     1      10.908 -14.412   3.583  1.00  0.00    -0.237 OA
ATOM     71  O   UNL     1       9.508 -13.712   1.679  1.00  0.00    -0.744 OA
ENDBRANCH  67  68
ENDBRANCH  48  62
BRANCH  49  72
ATOM     72  C   UNL     1      10.789  -4.449  -2.701  1.00  0.00    -0.014 A 
ATOM     73  C   UNL     1      11.652  -4.968  -3.688  1.00  0.00     0.010 A 
ATOM     74  C   UNL     1       9.437  -4.320  -3.057  1.00  0.00     0.010 A 
ATOM     75  C   UNL     1      11.163  -5.391  -4.944  1.00  0.00     0.020 A 
ATOM     76  C   UNL     1       8.938  -4.726  -4.302  1.00  0.00     0.020 A 
ATOM     77  C   UNL     1       9.800  -5.286  -5.236  1.00  0.00     0.054 A 
BRANCH  77  78
ATOM     78  S   UNL     1       9.134  -5.984  -6.779  1.00  0.00     0.124 S 
ATOM     79  O   UNL     1       9.704  -5.103  -7.795  1.00  0.00    -0.237 OA
ATOM     80  O   UNL     1       9.652  -7.348  -6.760  1.00  0.00    -0.237 OA
ATOM     81  O   UNL     1       7.686  -5.873  -6.608  1.00  0.00    -0.744 OA
ENDBRANCH  77  78
ENDBRANCH  49  72
BRANCH  61  82
ATOM     82  C   UNL     1      14.163  -4.000   2.618  1.00  0.00    -0.014 A 
ATOM     83  C   UNL     1      13.601  -2.747   2.296  1.00  0.00     0.010 A 
ATOM     84  C   UNL     1      15.429  -4.025   3.224  1.00  0.00     0.010 A 
ATOM     85  C   UNL     1      14.299  -1.556   2.555  1.00  0.00     0.020 A 
ATOM     86  C   UNL     1      16.122  -2.845   3.501  1.00  0.00     0.020 A 
ATOM     87  C   UNL     1      15.559  -1.615   3.157  1.00  0.00     0.054 A 
BRANCH  87  88
ATOM     88  S   UNL     1      16.450  -0.077   3.525  1.00  0.00     0.124 S 
ATOM     89  O   UNL     1      16.774   0.428   2.194  1.00  0.00    -0.237 OA
ATOM     90  O   UNL     1      15.461   0.701   4.269  1.00  0.00    -0.237 OA
ATOM     91  O   UNL     1      17.598  -0.520   4.315  1.00  0.00    -0.744 OA
ENDBRANCH  87  88
ENDBRANCH  61  82
ENDBRANCH  35  36
ENDBRANCH  27  30
ENDBRANCH  25  26
ENDBRANCH   1  25
TORSDOF 16
