REMARK SMILES C[C@@H](CC(=O)NCCCNC(=O)c1ccc(-c2c3nc(c(-c4ccc(S(=O)(=O)[O-])cc4)c4ccc([nH]4)c(-c4ccc(S(=O)(=O)[O-])cc4)c4nc(c(-c5ccc(S(=O)(=O)[O-])cc5)c5ccc2[nH]5)C=C4)C=C3)cc1)N1C(=O)CCCC1=O
REMARK SMILES IDX 8 1 7 2 6 3 4 4 5 5 3 7 2 8 1 9 73 10 74 11 79 12 75 13
REMARK SMILES IDX 76 14 78 15 80 16 77 17 9 18 10 19 11 20 12 22 13 23 14 24
REMARK SMILES IDX 72 25 15 26 71 27 16 28 17 29 18 30 65 31 19 32 70 33 64 34
REMARK SMILES IDX 66 35 20 36 69 37 63 38 62 39 21 41 51 42 32 43 50 44 33 45
REMARK SMILES IDX 36 46 49 47 67 48 34 49 35 50 48 52 68 53 37 54 22 55 23 56
REMARK SMILES IDX 31 57 24 58 30 59 25 60 26 61 27 62 28 63 29 64 52 65 53 66
REMARK SMILES IDX 61 67 54 68 60 69 55 70 56 71 57 72 58 73 59 74 38 75 39 76
REMARK SMILES IDX 47 77 40 78 46 79 41 80 42 81 43 82 44 83 45 84
REMARK H PARENT 6 6 10 21 66 40 36 51
REMARK Flexibility Score: inf
ROOT
ATOM      1  C   UNL     1       1.596  -2.565   0.258  1.00  0.00     0.042 C 
ENDROOT
BRANCH   1   2
ATOM      2  C   UNL     1       2.195  -2.128  -1.078  1.00  0.00     0.117 C 
BRANCH   2   3
ATOM      3  N   UNL     1       1.200  -2.010  -2.130  1.00  0.00    -0.356 N 
ATOM      4  C   UNL     1       0.597  -0.916  -2.666  1.00  0.00     0.222 C 
ATOM      5  O   UNL     1      -0.303  -1.086  -3.494  1.00  0.00    -0.275 OA
ATOM      6  H   UNL     1       0.915  -2.867  -2.521  1.00  0.00     0.163 HD
BRANCH   4   7
ATOM      7  C   UNL     1       1.060   0.480  -2.325  1.00  0.00     0.125 C 
BRANCH   7   8
ATOM      8  C   UNL     1       0.324   1.270  -1.226  1.00  0.00     0.099 C 
ATOM      9  C   UNL     1       0.894   1.091   0.184  1.00  0.00     0.032 C 
BRANCH   8  10
ATOM     10  N   UNL     1      -1.155   1.221  -1.253  1.00  0.00    -0.279 N 
ATOM     11  C   UNL     1      -1.800   0.023  -0.930  1.00  0.00     0.229 C 
ATOM     12  C   UNL     1      -1.825   2.429  -1.473  1.00  0.00     0.229 C 
ATOM     13  O   UNL     1      -1.215  -0.966  -0.484  1.00  0.00    -0.274 OA
ATOM     14  C   UNL     1      -3.308  -0.020  -1.037  1.00  0.00     0.101 C 
ATOM     15  C   UNL     1      -3.333   2.394  -1.409  1.00  0.00     0.101 C 
ATOM     16  O   UNL     1      -1.256   3.510  -1.637  1.00  0.00    -0.274 OA
ATOM     17  C   UNL     1      -3.856   1.075  -1.921  1.00  0.00     0.020 C 
ENDBRANCH   8  10
ENDBRANCH   7   8
ENDBRANCH   4   7
ENDBRANCH   2   3
ENDBRANCH   1   2
BRANCH   1  18
ATOM     18  C   UNL     1       0.895  -3.919   0.236  1.00  0.00     0.118 C 
BRANCH  18  19
ATOM     19  N   UNL     1       1.841  -5.022   0.278  1.00  0.00    -0.352 N 
ATOM     20  C   UNL     1       2.088  -5.932   1.277  1.00  0.00     0.251 C 
ATOM     21  H   UNL     1       2.388  -5.135  -0.533  1.00  0.00     0.163 HD
ATOM     22  O   UNL     1       3.098  -6.633   1.205  1.00  0.00    -0.269 OA
BRANCH  20  23
ATOM     23  C   UNL     1       1.175  -6.079   2.438  1.00  0.00     0.039 A 
ATOM     24  C   UNL     1       1.728  -6.320   3.700  1.00  0.00     0.014 A 
ATOM     25  C   UNL     1      -0.215  -6.057   2.290  1.00  0.00     0.014 A 
ATOM     26  C   UNL     1       0.896  -6.497   4.811  1.00  0.00     0.010 A 
ATOM     27  C   UNL     1      -1.043  -6.165   3.410  1.00  0.00     0.010 A 
ATOM     28  C   UNL     1      -0.499  -6.404   4.681  1.00  0.00    -0.014 A 
BRANCH  28  29
ATOM     29  C   UNL     1      -1.397  -6.578   5.856  1.00  0.00     0.031 A 
ATOM     30  C   UNL     1      -2.360  -7.738   5.912  1.00  0.00     0.074 A 
ATOM     31  C   UNL     1      -1.393  -5.666   6.849  1.00  0.00     0.049 A 
ATOM     32  N   UNL     1      -3.257  -8.022   6.822  1.00  0.00    -0.248 NA
ATOM     33  C   UNL     1      -2.328  -8.688   4.788  1.00  0.00     0.031 C 
ATOM     34  C   UNL     1      -0.549  -4.469   6.899  1.00  0.00     0.029 A 
ATOM     35  N   UNL     1      -2.133  -5.597   8.004  1.00  0.00    -0.354 N 
ATOM     36  C   UNL     1      -3.917  -9.158   6.366  1.00  0.00     0.074 A 
ATOM     37  C   UNL     1      -3.337  -9.497   5.085  1.00  0.00     0.031 C 
ATOM     38  C   UNL     1      -0.813  -3.792   8.029  1.00  0.00     0.029 A 
ATOM     39  C   UNL     1      -1.861  -4.487   8.770  1.00  0.00     0.049 A 
ATOM     40  H   UNL     1      -2.797  -6.278   8.260  1.00  0.00     0.167 HD
ATOM     41  C   UNL     1      -4.907  -9.864   6.963  1.00  0.00     0.031 A 
ATOM     42  C   UNL     1      -2.400  -4.067   9.932  1.00  0.00     0.031 A 
ATOM     43  C   UNL     1      -5.456  -9.557   8.257  1.00  0.00     0.049 A 
ATOM     44  C   UNL     1      -3.467  -4.894  10.595  1.00  0.00     0.074 A 
ATOM     45  C   UNL     1      -6.396 -10.271   8.981  1.00  0.00     0.029 A 
ATOM     46  N   UNL     1      -5.117  -8.453   9.020  1.00  0.00    -0.354 N 
ATOM     47  N   UNL     1      -4.015  -6.013  10.185  1.00  0.00    -0.248 NA
ATOM     48  C   UNL     1      -3.978  -4.410  11.886  1.00  0.00     0.031 C 
ATOM     49  C   UNL     1      -6.656  -9.575  10.166  1.00  0.00     0.029 A 
ATOM     50  C   UNL     1      -5.844  -8.453  10.198  1.00  0.00     0.049 A 
ATOM     51  H   UNL     1      -4.457  -7.769   8.763  1.00  0.00     0.167 HD
ATOM     52  C   UNL     1      -4.917  -6.377  11.179  1.00  0.00     0.074 A 
ATOM     53  C   UNL     1      -4.831  -5.370  12.216  1.00  0.00     0.031 C 
ATOM     54  C   UNL     1      -5.744  -7.450  11.226  1.00  0.00     0.031 A 
BRANCH  41  55
ATOM     55  C   UNL     1      -5.471 -11.048   6.223  1.00  0.00    -0.014 A 
ATOM     56  C   UNL     1      -4.743 -12.245   6.102  1.00  0.00     0.010 A 
ATOM     57  C   UNL     1      -6.778 -10.984   5.704  1.00  0.00     0.010 A 
ATOM     58  C   UNL     1      -5.301 -13.348   5.449  1.00  0.00     0.020 A 
ATOM     59  C   UNL     1      -7.347 -12.093   5.071  1.00  0.00     0.020 A 
ATOM     60  C   UNL     1      -6.599 -13.264   4.936  1.00  0.00     0.054 A 
BRANCH  60  61
ATOM     61  S   UNL     1      -7.316 -14.724   4.133  1.00  0.00     0.124 S 
ATOM     62  O   UNL     1      -6.629 -14.725   2.844  1.00  0.00    -0.237 OA
ATOM     63  O   UNL     1      -6.946 -15.806   5.042  1.00  0.00    -0.237 OA
ATOM     64  O   UNL     1      -8.744 -14.424   4.077  1.00  0.00    -0.744 OA
ENDBRANCH  60  61
ENDBRANCH  41  55
BRANCH  42  65
ATOM     65  C   UNL     1      -1.938  -2.795  10.551  1.00  0.00    -0.014 A 
ATOM     66  C   UNL     1      -1.153  -2.809  11.717  1.00  0.00     0.010 A 
ATOM     67  C   UNL     1      -2.293  -1.560   9.978  1.00  0.00     0.010 A 
ATOM     68  C   UNL     1      -0.753  -1.610  12.316  1.00  0.00     0.020 A 
ATOM     69  C   UNL     1      -1.874  -0.360  10.560  1.00  0.00     0.020 A 
ATOM     70  C   UNL     1      -1.120  -0.393  11.735  1.00  0.00     0.054 A 
BRANCH  70  71
ATOM     71  S   UNL     1      -0.563   1.153  12.504  1.00  0.00     0.124 S 
ATOM     72  O   UNL     1      -1.498   1.291  13.616  1.00  0.00    -0.237 OA
ATOM     73  O   UNL     1       0.817   0.848  12.871  1.00  0.00    -0.237 OA
ATOM     74  O   UNL     1      -0.711   2.137  11.434  1.00  0.00    -0.744 OA
ENDBRANCH  70  71
ENDBRANCH  42  65
BRANCH  54  75
ATOM     75  C   UNL     1      -6.598  -7.614  12.454  1.00  0.00    -0.014 A 
ATOM     76  C   UNL     1      -7.724  -6.800  12.669  1.00  0.00     0.010 A 
ATOM     77  C   UNL     1      -6.298  -8.631  13.377  1.00  0.00     0.010 A 
ATOM     78  C   UNL     1      -8.519  -6.982  13.804  1.00  0.00     0.020 A 
ATOM     79  C   UNL     1      -7.103  -8.831  14.501  1.00  0.00     0.020 A 
ATOM     80  C   UNL     1      -8.201  -7.995  14.715  1.00  0.00     0.054 A 
BRANCH  80  81
ATOM     81  S   UNL     1      -9.270  -8.241  16.160  1.00  0.00     0.124 S 
ATOM     82  O   UNL     1      -8.848  -7.152  17.038  1.00  0.00    -0.237 OA
ATOM     83  O   UNL     1     -10.611  -8.111  15.597  1.00  0.00    -0.237 OA
ATOM     84  O   UNL     1      -8.922  -9.583  16.621  1.00  0.00    -0.744 OA
ENDBRANCH  80  81
ENDBRANCH  54  75
ENDBRANCH  28  29
ENDBRANCH  20  23
ENDBRANCH  18  19
ENDBRANCH   1  18
TORSDOF 15
