REMARK SMILES COCC[NH2+][C@]1(C(=O)NCCCNC(=O)c2ccc(-c3c4nc(c(-c5ccc(S(=O)(=O)[O-])cc5)c5ccc([nH]5)c(-c5ccc(S(=O)(=O)[O-])cc5)c5nc(c(-c6ccc(S(=O)(=O)[O-])cc6)c6ccc3[nH]6)C=C5)C=C4)cc2)CCCS[C@H]1C
REMARK SMILES IDX 10 1 9 2 7 3 8 4 6 6 76 7 80 8 77 9 79 10 81 11 78 12 5 13
REMARK SMILES IDX 4 16 3 17 2 18 1 19 11 20 12 21 13 22 14 23 15 25 16 26
REMARK SMILES IDX 17 27 75 28 18 29 74 30 19 31 20 32 21 33 68 34 22 35 73 36
REMARK SMILES IDX 67 37 69 38 23 39 72 40 66 41 65 42 24 44 54 45 35 46 53 47
REMARK SMILES IDX 36 48 39 49 52 50 70 51 37 52 38 53 51 55 71 56 40 57 25 58
REMARK SMILES IDX 26 59 34 60 27 61 33 62 28 63 29 64 30 65 31 66 32 67 55 68
REMARK SMILES IDX 56 69 64 70 57 71 63 72 58 73 59 74 60 75 61 76 62 77 41 78
REMARK SMILES IDX 42 79 50 80 43 81 49 82 44 83 45 84 46 85 47 86 48 87
REMARK H PARENT 9 5 5 14 5 15 13 24 69 43 39 54
REMARK Flexibility Score: inf
ROOT
ATOM      1  C   UNL     1      -0.412  -0.002  -0.990  1.00  0.00     0.118 C 
ENDROOT
BRANCH   1   2
ATOM      2  N   UNL     1       0.874   0.613  -1.263  1.00  0.00    -0.351 N 
ATOM      3  C   UNL     1       1.304   1.882  -1.499  1.00  0.00     0.282 C 
ATOM      4  O   UNL     1       2.534   1.968  -1.622  1.00  0.00    -0.268 OA
ATOM      5  H   UNL     1       1.609  -0.042  -1.282  1.00  0.00     0.163 HD
BRANCH   3   6
ATOM      6  C   UNL     1       0.382   3.138  -1.797  1.00  0.00     0.187 C 
ATOM      7  C   UNL     1      -0.940   3.217  -1.002  1.00  0.00     0.081 C 
ATOM      8  C   UNL     1       1.139   4.495  -1.466  1.00  0.00     0.115 C 
ATOM      9  C   UNL     1      -0.721   3.175   0.518  1.00  0.00     0.018 C 
ATOM     10  S   UNL     1       1.619   4.653   0.301  1.00  0.00    -0.152 SA
ATOM     11  C   UNL     1       2.338   4.879  -2.350  1.00  0.00     0.027 C 
ATOM     12  C   UNL     1      -0.013   4.415   1.050  1.00  0.00     0.070 C 
BRANCH   6  13
ATOM     13  N   UNL     1       0.243   3.203  -3.269  1.00  0.00    -0.331 N 
ATOM     14  H   UNL     1       0.246   4.195  -3.508  1.00  0.00     0.347 HD
ATOM     15  H   UNL     1       1.011   2.604  -3.574  1.00  0.00     0.347 HD
BRANCH  13  16
ATOM     16  C   UNL     1      -0.876   2.625  -3.981  1.00  0.00     0.290 C 
BRANCH  16  17
ATOM     17  C   UNL     1      -0.675   2.922  -5.489  1.00  0.00     0.221 C 
BRANCH  17  18
ATOM     18  O   UNL     1       0.371   2.143  -6.082  1.00  0.00    -0.379 OA
ATOM     19  C   UNL     1       1.662   2.745  -6.062  1.00  0.00     0.195 C 
ENDBRANCH  17  18
ENDBRANCH  16  17
ENDBRANCH  13  16
ENDBRANCH   6  13
ENDBRANCH   3   6
ENDBRANCH   1   2
BRANCH   1  20
ATOM     20  C   UNL     1      -0.668  -1.277  -1.784  1.00  0.00     0.042 C 
BRANCH  20  21
ATOM     21  C   UNL     1       0.280  -2.437  -1.509  1.00  0.00     0.118 C 
BRANCH  21  22
ATOM     22  N   UNL     1       0.163  -2.983  -0.165  1.00  0.00    -0.352 N 
ATOM     23  C   UNL     1      -0.111  -4.265   0.261  1.00  0.00     0.251 C 
ATOM     24  H   UNL     1       0.303  -2.330   0.559  1.00  0.00     0.163 HD
ATOM     25  O   UNL     1      -0.277  -4.472   1.458  1.00  0.00    -0.269 OA
BRANCH  23  26
ATOM     26  C   UNL     1      -0.245  -5.384  -0.706  1.00  0.00     0.039 A 
ATOM     27  C   UNL     1      -1.247  -6.338  -0.496  1.00  0.00     0.014 A 
ATOM     28  C   UNL     1       0.608  -5.516  -1.804  1.00  0.00     0.014 A 
ATOM     29  C   UNL     1      -1.445  -7.364  -1.426  1.00  0.00     0.010 A 
ATOM     30  C   UNL     1       0.352  -6.483  -2.776  1.00  0.00     0.010 A 
ATOM     31  C   UNL     1      -0.678  -7.419  -2.601  1.00  0.00    -0.014 A 
BRANCH  31  32
ATOM     32  C   UNL     1      -0.944  -8.434  -3.657  1.00  0.00     0.031 A 
ATOM     33  C   UNL     1       0.117  -9.433  -4.042  1.00  0.00     0.074 A 
ATOM     34  C   UNL     1      -2.118  -8.417  -4.322  1.00  0.00     0.049 A 
ATOM     35  N   UNL     1       0.091 -10.345  -4.981  1.00  0.00    -0.248 NA
ATOM     36  C   UNL     1       1.382  -9.386  -3.290  1.00  0.00     0.031 C 
ATOM     37  C   UNL     1      -3.217  -7.480  -4.077  1.00  0.00     0.029 A 
ATOM     38  N   UNL     1      -2.582  -9.207  -5.346  1.00  0.00    -0.354 N 
ATOM     39  C   UNL     1       1.334 -10.966  -4.945  1.00  0.00     0.074 A 
ATOM     40  C   UNL     1       2.110 -10.293  -3.926  1.00  0.00     0.031 C 
ATOM     41  C   UNL     1      -4.234  -7.767  -4.905  1.00  0.00     0.029 A 
ATOM     42  C   UNL     1      -3.847  -8.873  -5.774  1.00  0.00     0.049 A 
ATOM     43  H   UNL     1      -2.058  -9.943  -5.738  1.00  0.00     0.167 HD
ATOM     44  C   UNL     1       1.786 -12.012  -5.678  1.00  0.00     0.031 A 
ATOM     45  C   UNL     1      -4.608  -9.389  -6.760  1.00  0.00     0.031 A 
ATOM     46  C   UNL     1       1.011 -12.686  -6.687  1.00  0.00     0.049 A 
ATOM     47  C   UNL     1      -4.076 -10.536  -7.576  1.00  0.00     0.074 A 
ATOM     48  C   UNL     1       1.362 -13.790  -7.444  1.00  0.00     0.029 A 
ATOM     49  N   UNL     1      -0.265 -12.318  -7.086  1.00  0.00    -0.354 N 
ATOM     50  N   UNL     1      -2.922 -11.151  -7.478  1.00  0.00    -0.248 NA
ATOM     51  C   UNL     1      -4.954 -11.065  -8.629  1.00  0.00     0.031 C 
ATOM     52  C   UNL     1       0.323 -14.052  -8.343  1.00  0.00     0.029 A 
ATOM     53  C   UNL     1      -0.704 -13.155  -8.098  1.00  0.00     0.049 A 
ATOM     54  H   UNL     1      -0.783 -11.572  -6.706  1.00  0.00     0.167 HD
ATOM     55  C   UNL     1      -2.948 -12.159  -8.436  1.00  0.00     0.074 A 
ATOM     56  C   UNL     1      -4.238 -12.081  -9.091  1.00  0.00     0.031 C 
ATOM     57  C   UNL     1      -1.990 -13.069  -8.744  1.00  0.00     0.031 A 
BRANCH  44  58
ATOM     58  C   UNL     1       3.192 -12.492  -5.420  1.00  0.00    -0.014 A 
ATOM     59  C   UNL     1       3.535 -13.129  -4.213  1.00  0.00     0.010 A 
ATOM     60  C   UNL     1       4.175 -12.348  -6.417  1.00  0.00     0.010 A 
ATOM     61  C   UNL     1       4.841 -13.572  -3.991  1.00  0.00     0.020 A 
ATOM     62  C   UNL     1       5.475 -12.818  -6.211  1.00  0.00     0.020 A 
ATOM     63  C   UNL     1       5.804 -13.412  -4.992  1.00  0.00     0.054 A 
BRANCH  63  64
ATOM     64  S   UNL     1       7.485 -14.020  -4.684  1.00  0.00     0.124 S 
ATOM     65  O   UNL     1       7.976 -13.059  -3.698  1.00  0.00    -0.237 OA
ATOM     66  O   UNL     1       7.250 -15.370  -4.180  1.00  0.00    -0.237 OA
ATOM     67  O   UNL     1       8.127 -13.949  -5.994  1.00  0.00    -0.744 OA
ENDBRANCH  63  64
ENDBRANCH  44  58
BRANCH  45  68
ATOM     68  C   UNL     1      -5.962  -8.827  -7.027  1.00  0.00    -0.014 A 
ATOM     69  C   UNL     1      -7.117  -9.579  -6.747  1.00  0.00     0.010 A 
ATOM     70  C   UNL     1      -6.104  -7.532  -7.558  1.00  0.00     0.010 A 
ATOM     71  C   UNL     1      -8.386  -9.055  -7.011  1.00  0.00     0.020 A 
ATOM     72  C   UNL     1      -7.372  -6.992  -7.794  1.00  0.00     0.020 A 
ATOM     73  C   UNL     1      -8.505  -7.763  -7.529  1.00  0.00     0.054 A 
BRANCH  73  74
ATOM     74  S   UNL     1     -10.164  -7.085  -7.816  1.00  0.00     0.124 S 
ATOM     75  O   UNL     1     -10.607  -7.846  -8.980  1.00  0.00    -0.237 OA
ATOM     76  O   UNL     1     -10.849  -7.389  -6.562  1.00  0.00    -0.237 OA
ATOM     77  O   UNL     1      -9.917  -5.664  -8.053  1.00  0.00    -0.744 OA
ENDBRANCH  73  74
ENDBRANCH  45  68
BRANCH  57  78
ATOM     78  C   UNL     1      -2.310 -14.083  -9.812  1.00  0.00    -0.014 A 
ATOM     79  C   UNL     1      -2.405 -13.717 -11.166  1.00  0.00     0.010 A 
ATOM     80  C   UNL     1      -2.463 -15.436  -9.457  1.00  0.00     0.010 A 
ATOM     81  C   UNL     1      -2.680 -14.680 -12.141  1.00  0.00     0.020 A 
ATOM     82  C   UNL     1      -2.706 -16.407 -10.432  1.00  0.00     0.020 A 
ATOM     83  C   UNL     1      -2.827 -16.020 -11.768  1.00  0.00     0.054 A 
BRANCH  83  84
ATOM     84  S   UNL     1      -3.139 -17.256 -13.057  1.00  0.00     0.124 S 
ATOM     85  O   UNL     1      -4.520 -16.964 -13.432  1.00  0.00    -0.237 OA
ATOM     86  O   UNL     1      -2.132 -16.929 -14.064  1.00  0.00    -0.237 OA
ATOM     87  O   UNL     1      -2.936 -18.531 -12.373  1.00  0.00    -0.744 OA
ENDBRANCH  83  84
ENDBRANCH  57  78
ENDBRANCH  31  32
ENDBRANCH  23  26
ENDBRANCH  21  22
ENDBRANCH  20  21
ENDBRANCH   1  20
TORSDOF 17
