REMARK SMILES COc1ccc(-c2nc3ccc(C)cc3[nH]2)c(C(=O)NCCCNC(=O)c2ccc(-c3c4nc(c(-c5ccc(S(=O)(=O)[O-])cc5)c5ccc([nH]5)c(-c5ccc(S(=O)(=O)[O-])cc5)c5nc(c(-c6ccc(S(=O)(=O)[O-])cc6)c6ccc3[nH]6)C=C5)C=C4)cc2)c1OC
REMARK SMILES IDX 23 1 22 2 21 3 20 4 18 5 19 6 17 8 3 9 4 10 87 11 5 12 6 13
REMARK SMILES IDX 2 14 1 15 88 16 89 17 7 18 8 19 16 20 9 21 15 22 10 24 14 25
REMARK SMILES IDX 11 26 12 27 13 28 24 29 25 30 26 32 27 33 28 34 86 35 29 36
REMARK SMILES IDX 85 37 30 38 31 39 32 40 79 41 33 42 84 43 78 44 80 45 34 46
REMARK SMILES IDX 83 47 77 48 76 49 35 51 65 52 46 53 64 54 47 55 50 56 63 57
REMARK SMILES IDX 81 58 48 59 49 60 62 62 82 63 51 64 36 65 37 66 45 67 38 68
REMARK SMILES IDX 44 69 39 70 40 71 41 72 42 73 43 74 66 75 67 76 75 77 68 78
REMARK SMILES IDX 74 79 69 80 70 81 71 82 72 83 73 84 52 85 53 86 61 87 54 88
REMARK SMILES IDX 60 89 55 90 56 91 57 92 58 93 59 94
REMARK H PARENT 20 7 16 23 24 31 80 50 50 61
REMARK Flexibility Score: inf
ROOT
ATOM      1  C   UNL     1       7.279  -1.779   0.973  1.00  0.00     0.118 C 
ENDROOT
BRANCH   1   2
ATOM      2  C   UNL     1       5.869  -1.793   1.532  1.00  0.00     0.042 C 
BRANCH   2   3
ATOM      3  C   UNL     1       4.788  -2.176   0.549  1.00  0.00     0.118 C 
BRANCH   3   4
ATOM      4  N   UNL     1       4.832  -3.469  -0.082  1.00  0.00    -0.352 N 
ATOM      5  C   UNL     1       3.763  -4.038  -0.757  1.00  0.00     0.255 C 
ATOM      6  O   UNL     1       3.960  -4.763  -1.730  1.00  0.00    -0.269 OA
ATOM      7  H   UNL     1       5.672  -3.980  -0.031  1.00  0.00     0.163 HD
BRANCH   5   8
ATOM      8  C   UNL     1       2.375  -3.870  -0.229  1.00  0.00     0.096 A 
ATOM      9  C   UNL     1       0.472  -2.511   0.445  1.00  0.00     0.161 A 
ATOM     10  C   UNL     1      -0.115  -3.682   0.962  1.00  0.00     0.051 A 
ATOM     11  C   UNL     1       1.706  -2.604  -0.220  1.00  0.00     0.174 A 
ATOM     12  C   UNL     1       0.486  -4.934   0.845  1.00  0.00     0.017 A 
ATOM     13  C   UNL     1       1.753  -5.044   0.275  1.00  0.00     0.034 A 
BRANCH   9  14
ATOM     14  O   UNL     1      -0.297  -1.436   0.780  1.00  0.00    -0.493 OA
ATOM     15  C   UNL     1      -0.393  -0.291  -0.037  1.00  0.00     0.278 C 
ENDBRANCH   9  14
BRANCH  11  16
ATOM     16  O   UNL     1       2.271  -1.622  -0.998  1.00  0.00    -0.492 OA
ATOM     17  C   UNL     1       2.504  -0.336  -0.432  1.00  0.00     0.278 C 
ENDBRANCH  11  16
BRANCH  13  18
ATOM     18  C   UNL     1       2.394  -6.365   0.239  1.00  0.00     0.139 A 
ATOM     19  N   UNL     1       3.576  -6.675   0.737  1.00  0.00    -0.228 NA
ATOM     20  N   UNL     1       1.837  -7.469  -0.376  1.00  0.00    -0.338 N 
ATOM     21  C   UNL     1       3.843  -7.952   0.308  1.00  0.00     0.089 A 
ATOM     22  C   UNL     1       2.761  -8.486  -0.379  1.00  0.00     0.066 A 
ATOM     23  H   UNL     1       0.928  -7.519  -0.751  1.00  0.00     0.168 HD
ATOM     24  C   UNL     1       5.007  -8.716   0.451  1.00  0.00     0.031 A 
ATOM     25  C   UNL     1       2.762  -9.772  -0.934  1.00  0.00     0.031 A 
ATOM     26  C   UNL     1       5.050  -9.995  -0.122  1.00  0.00     0.006 A 
ATOM     27  C   UNL     1       3.945 -10.524  -0.807  1.00  0.00    -0.049 A 
ATOM     28  C   UNL     1       4.054 -11.896  -1.413  1.00  0.00     0.044 C 
ENDBRANCH  13  18
ENDBRANCH   5   8
ENDBRANCH   3   4
ENDBRANCH   2   3
ENDBRANCH   1   2
BRANCH   1  29
ATOM     29  N   UNL     1       7.484  -0.861  -0.144  1.00  0.00    -0.352 N 
ATOM     30  C   UNL     1       8.215   0.303  -0.272  1.00  0.00     0.251 C 
ATOM     31  H   UNL     1       7.009  -1.123  -0.966  1.00  0.00     0.163 HD
ATOM     32  O   UNL     1       8.155   0.931  -1.319  1.00  0.00    -0.269 OA
BRANCH  30  33
ATOM     33  C   UNL     1       9.031   0.828   0.853  1.00  0.00     0.039 A 
ATOM     34  C   UNL     1       9.131   2.212   1.036  1.00  0.00     0.014 A 
ATOM     35  C   UNL     1       9.702  -0.021   1.727  1.00  0.00     0.014 A 
ATOM     36  C   UNL     1       9.817   2.723   2.144  1.00  0.00     0.010 A 
ATOM     37  C   UNL     1      10.246   0.477   2.904  1.00  0.00     0.010 A 
ATOM     38  C   UNL     1      10.335   1.857   3.120  1.00  0.00    -0.014 A 
BRANCH  38  39
ATOM     39  C   UNL     1      11.012   2.358   4.347  1.00  0.00     0.031 A 
ATOM     40  C   UNL     1      12.429   1.933   4.650  1.00  0.00     0.074 A 
ATOM     41  C   UNL     1      10.337   3.128   5.226  1.00  0.00     0.049 A 
ATOM     42  N   UNL     1      13.162   2.188   5.705  1.00  0.00    -0.248 NA
ATOM     43  C   UNL     1      13.099   1.074   3.657  1.00  0.00     0.031 C 
ATOM     44  C   UNL     1       8.945   3.563   5.083  1.00  0.00     0.029 A 
ATOM     45  N   UNL     1      10.733   3.682   6.418  1.00  0.00    -0.354 N 
ATOM     46  C   UNL     1      14.355   1.500   5.512  1.00  0.00     0.074 A 
ATOM     47  C   UNL     1      14.223   0.758   4.280  1.00  0.00     0.031 C 
ATOM     48  C   UNL     1       8.620   4.352   6.121  1.00  0.00     0.029 A 
ATOM     49  C   UNL     1       9.760   4.442   7.026  1.00  0.00     0.049 A 
ATOM     50  H   UNL     1      11.629   3.548   6.802  1.00  0.00     0.167 HD
ATOM     51  C   UNL     1      15.477   1.509   6.270  1.00  0.00     0.031 A 
ATOM     52  C   UNL     1       9.783   5.134   8.182  1.00  0.00     0.031 A 
ATOM     53  C   UNL     1      15.620   2.276   7.478  1.00  0.00     0.049 A 
ATOM     54  C   UNL     1      11.046   5.143   9.001  1.00  0.00     0.074 A 
ATOM     55  C   UNL     1      16.733   2.404   8.289  1.00  0.00     0.029 A 
ATOM     56  N   UNL     1      14.620   3.052   8.042  1.00  0.00    -0.354 N 
ATOM     57  N   UNL     1      12.184   4.533   8.769  1.00  0.00    -0.248 NA
ATOM     58  C   UNL     1      11.032   5.948  10.230  1.00  0.00     0.031 C 
ATOM     59  C   UNL     1      16.390   3.220   9.372  1.00  0.00     0.029 A 
ATOM     60  C   UNL     1      15.084   3.651   9.200  1.00  0.00     0.049 A 
ATOM     61  H   UNL     1      13.713   3.160   7.674  1.00  0.00     0.167 HD
ATOM     62  C   UNL     1      13.034   4.911   9.804  1.00  0.00     0.074 A 
ATOM     63  C   UNL     1      12.281   5.812  10.653  1.00  0.00     0.031 C 
ATOM     64  C   UNL     1      14.321   4.548  10.030  1.00  0.00     0.031 A 
BRANCH  51  65
ATOM     65  C   UNL     1      16.641   0.672   5.802  1.00  0.00    -0.014 A 
ATOM     66  C   UNL     1      17.348   0.998   4.629  1.00  0.00     0.010 A 
ATOM     67  C   UNL     1      17.054  -0.440   6.559  1.00  0.00     0.010 A 
ATOM     68  C   UNL     1      18.411   0.203   4.196  1.00  0.00     0.020 A 
ATOM     69  C   UNL     1      18.141  -1.218   6.147  1.00  0.00     0.020 A 
ATOM     70  C   UNL     1      18.801  -0.902   4.958  1.00  0.00     0.054 A 
BRANCH  70  71
ATOM     71  S   UNL     1      20.203  -1.899   4.385  1.00  0.00     0.124 S 
ATOM     72  O   UNL     1      19.628  -2.594   3.236  1.00  0.00    -0.237 OA
ATOM     73  O   UNL     1      21.207  -0.887   4.069  1.00  0.00    -0.237 OA
ATOM     74  O   UNL     1      20.517  -2.748   5.532  1.00  0.00    -0.744 OA
ENDBRANCH  70  71
ENDBRANCH  51  65
BRANCH  52  75
ATOM     75  C   UNL     1       8.585   5.906   8.617  1.00  0.00    -0.014 A 
ATOM     76  C   UNL     1       8.602   7.313   8.611  1.00  0.00     0.010 A 
ATOM     77  C   UNL     1       7.418   5.241   9.035  1.00  0.00     0.010 A 
ATOM     78  C   UNL     1       7.486   8.039   9.038  1.00  0.00     0.020 A 
ATOM     79  C   UNL     1       6.289   5.964   9.433  1.00  0.00     0.020 A 
ATOM     80  C   UNL     1       6.335   7.359   9.445  1.00  0.00     0.054 A 
BRANCH  80  81
ATOM     81  S   UNL     1       4.884   8.323   9.954  1.00  0.00     0.124 S 
ATOM     82  O   UNL     1       5.304   8.844  11.251  1.00  0.00    -0.237 OA
ATOM     83  O   UNL     1       4.769   9.309   8.882  1.00  0.00    -0.237 OA
ATOM     84  O   UNL     1       3.812   7.331   9.994  1.00  0.00    -0.744 OA
ENDBRANCH  80  81
ENDBRANCH  52  75
BRANCH  64  85
ATOM     85  C   UNL     1      15.015   5.165  11.215  1.00  0.00    -0.014 A 
ATOM     86  C   UNL     1      14.673   4.813  12.532  1.00  0.00     0.010 A 
ATOM     87  C   UNL     1      16.057   6.086  10.999  1.00  0.00     0.010 A 
ATOM     88  C   UNL     1      15.330   5.406  13.614  1.00  0.00     0.020 A 
ATOM     89  C   UNL     1      16.738   6.656  12.076  1.00  0.00     0.020 A 
ATOM     90  C   UNL     1      16.357   6.326  13.378  1.00  0.00     0.054 A 
BRANCH  90  91
ATOM     91  S   UNL     1      17.211   7.063  14.798  1.00  0.00     0.124 S 
ATOM     92  O   UNL     1      16.208   7.996  15.304  1.00  0.00    -0.237 OA
ATOM     93  O   UNL     1      17.479   5.905  15.648  1.00  0.00    -0.237 OA
ATOM     94  O   UNL     1      18.396   7.682  14.207  1.00  0.00    -0.744 OA
ENDBRANCH  90  91
ENDBRANCH  64  85
ENDBRANCH  38  39
ENDBRANCH  30  33
ENDBRANCH   1  29
TORSDOF 16
