REMARK SMILES Nc1ccc(O)c(C(=O)NCCCNC(=O)c2ccc(-c3c4nc(c(-c5ccc(S(=O)(=O)[O-])cc5)c5ccc([nH]5)c(-c5ccc(S(=O)(=O)[O-])cc5)c5nc(c(-c6ccc(S(=O)(=O)[O-])cc6)c6ccc3[nH]6)C=C5)C=C4)cc2)c1
REMARK SMILES IDX 13 1 12 2 11 3 10 4 8 5 9 6 7 8 2 9 3 10 77 11 4 12 5 13
REMARK SMILES IDX 1 14 6 17 14 19 15 20 16 22 17 23 18 24 76 25 19 26 75 27
REMARK SMILES IDX 20 28 21 29 22 30 69 31 23 32 74 33 68 34 70 35 24 36 73 37
REMARK SMILES IDX 67 38 66 39 25 41 55 42 36 43 54 44 37 45 40 46 53 47 71 48
REMARK SMILES IDX 38 49 39 50 52 52 72 53 41 54 26 55 27 56 35 57 28 58 34 59
REMARK SMILES IDX 29 60 30 61 31 62 32 63 33 64 56 65 57 66 65 67 58 68 64 69
REMARK SMILES IDX 59 70 60 71 61 72 62 73 63 74 42 75 43 76 51 77 44 78 50 79
REMARK SMILES IDX 45 80 46 81 47 82 48 83 49 84
REMARK H PARENT 10 7 1 15 1 16 6 18 14 21 70 40 40 51
REMARK Flexibility Score: inf
ROOT
ATOM      1  C   UNL     1      -0.877  -5.971  -1.021  1.00  0.00     0.118 C 
ENDROOT
BRANCH   1   2
ATOM      2  C   UNL     1      -1.340  -4.552  -0.695  1.00  0.00     0.042 C 
BRANCH   2   3
ATOM      3  C   UNL     1      -0.651  -3.976   0.541  1.00  0.00     0.118 C 
BRANCH   3   4
ATOM      4  N   UNL     1       0.703  -3.558   0.227  1.00  0.00    -0.352 N 
ATOM      5  C   UNL     1       1.276  -2.346  -0.053  1.00  0.00     0.255 C 
ATOM      6  O   UNL     1       2.497  -2.345  -0.245  1.00  0.00    -0.269 OA
ATOM      7  H   UNL     1       1.345  -4.303   0.211  1.00  0.00     0.163 HD
BRANCH   5   8
ATOM      8  C   UNL     1       0.563  -1.036  -0.076  1.00  0.00     0.083 A 
ATOM      9  C   UNL     1      -1.447   0.356  -0.168  1.00  0.00     0.032 A 
ATOM     10  C   UNL     1      -0.666   1.493   0.035  1.00  0.00     0.029 A 
ATOM     11  C   UNL     1      -0.821  -0.896  -0.243  1.00  0.00     0.043 A 
ATOM     12  C   UNL     1       0.720   1.390   0.124  1.00  0.00     0.049 A 
ATOM     13  C   UNL     1       1.326   0.138   0.072  1.00  0.00     0.128 A 
BRANCH   9  14
ATOM     14  N   UNL     1      -2.830   0.448  -0.167  1.00  0.00    -0.399 N 
ATOM     15  H   UNL     1      -3.264   1.329  -0.114  1.00  0.00     0.156 HD
ATOM     16  H   UNL     1      -3.377  -0.369  -0.219  1.00  0.00     0.156 HD
ENDBRANCH   9  14
BRANCH  13  17
ATOM     17  O   UNL     1       2.694   0.145   0.179  1.00  0.00    -0.507 OA
ATOM     18  H   UNL     1       3.152   0.956   0.276  1.00  0.00     0.293 HD
ENDBRANCH  13  17
ENDBRANCH   5   8
ENDBRANCH   3   4
ENDBRANCH   2   3
ENDBRANCH   1   2
BRANCH   1  19
ATOM     19  N   UNL     1      -1.319  -6.929  -0.013  1.00  0.00    -0.352 N 
ATOM     20  C   UNL     1      -2.139  -8.024  -0.140  1.00  0.00     0.251 C 
ATOM     21  H   UNL     1      -0.978  -6.766   0.896  1.00  0.00     0.163 HD
ATOM     22  O   UNL     1      -2.597  -8.561   0.862  1.00  0.00    -0.269 OA
BRANCH  20  23
ATOM     23  C   UNL     1      -2.471  -8.543  -1.483  1.00  0.00     0.039 A 
ATOM     24  C   UNL     1      -3.788  -8.918  -1.764  1.00  0.00     0.014 A 
ATOM     25  C   UNL     1      -1.479  -8.671  -2.457  1.00  0.00     0.014 A 
ATOM     26  C   UNL     1      -4.122  -9.354  -3.048  1.00  0.00     0.010 A 
ATOM     27  C   UNL     1      -1.827  -9.033  -3.753  1.00  0.00     0.010 A 
ATOM     28  C   UNL     1      -3.152  -9.377  -4.063  1.00  0.00    -0.014 A 
BRANCH  28  29
ATOM     29  C   UNL     1      -3.490  -9.745  -5.461  1.00  0.00     0.031 A 
ATOM     30  C   UNL     1      -2.846 -10.946  -6.098  1.00  0.00     0.074 A 
ATOM     31  C   UNL     1      -4.297  -8.943  -6.184  1.00  0.00     0.049 A 
ATOM     32  N   UNL     1      -2.908 -11.354  -7.338  1.00  0.00    -0.248 NA
ATOM     33  C   UNL     1      -1.998 -11.782  -5.231  1.00  0.00     0.031 C 
ATOM     34  C   UNL     1      -4.957  -7.733  -5.687  1.00  0.00     0.029 A 
ATOM     35  N   UNL     1      -4.685  -9.013  -7.499  1.00  0.00    -0.354 N 
ATOM     36  C   UNL     1      -2.090 -12.476  -7.408  1.00  0.00     0.074 A 
ATOM     37  C   UNL     1      -1.508 -12.658  -6.097  1.00  0.00     0.031 C 
ATOM     38  C   UNL     1      -5.680  -7.186  -6.677  1.00  0.00     0.029 A 
ATOM     39  C   UNL     1      -5.494  -7.973  -7.892  1.00  0.00     0.049 A 
ATOM     40  H   UNL     1      -4.410  -9.740  -8.103  1.00  0.00     0.167 HD
ATOM     41  C   UNL     1      -1.858 -13.290  -8.466  1.00  0.00     0.031 A 
ATOM     42  C   UNL     1      -6.012  -7.672  -9.099  1.00  0.00     0.031 A 
ATOM     43  C   UNL     1      -2.449 -13.105  -9.764  1.00  0.00     0.049 A 
ATOM     44  C   UNL     1      -5.719  -8.576 -10.266  1.00  0.00     0.074 A 
ATOM     45  C   UNL     1      -2.322 -13.904 -10.887  1.00  0.00     0.029 A 
ATOM     46  N   UNL     1      -3.274 -12.047 -10.117  1.00  0.00    -0.354 N 
ATOM     47  N   UNL     1      -4.992  -9.668 -10.298  1.00  0.00    -0.248 NA
ATOM     48  C   UNL     1      -6.319  -8.213 -11.557  1.00  0.00     0.031 C 
ATOM     49  C   UNL     1      -3.020 -13.297 -11.935  1.00  0.00     0.029 A 
ATOM     50  C   UNL     1      -3.641 -12.158 -11.447  1.00  0.00     0.049 A 
ATOM     51  H   UNL     1      -3.557 -11.325  -9.511  1.00  0.00     0.167 HD
ATOM     52  C   UNL     1      -5.076 -10.141 -11.603  1.00  0.00     0.074 A 
ATOM     53  C   UNL     1      -5.931  -9.222 -12.326  1.00  0.00     0.031 C 
ATOM     54  C   UNL     1      -4.501 -11.239 -12.150  1.00  0.00     0.031 A 
BRANCH  41  55
ATOM     55  C   UNL     1      -0.916 -14.448  -8.264  1.00  0.00    -0.014 A 
ATOM     56  C   UNL     1      -1.262 -15.536  -7.441  1.00  0.00     0.010 A 
ATOM     57  C   UNL     1       0.317 -14.472  -8.943  1.00  0.00     0.010 A 
ATOM     58  C   UNL     1      -0.376 -16.602  -7.267  1.00  0.00     0.020 A 
ATOM     59  C   UNL     1       1.192 -15.552  -8.797  1.00  0.00     0.020 A 
ATOM     60  C   UNL     1       0.846 -16.603  -7.946  1.00  0.00     0.054 A 
BRANCH  60  61
ATOM     61  S   UNL     1       1.963 -18.013  -7.718  1.00  0.00     0.124 S 
ATOM     62  O   UNL     1       2.428 -17.811  -6.348  1.00  0.00    -0.237 OA
ATOM     63  O   UNL     1       1.078 -19.158  -7.917  1.00  0.00    -0.237 OA
ATOM     64  O   UNL     1       2.977 -17.825  -8.753  1.00  0.00    -0.744 OA
ENDBRANCH  60  61
ENDBRANCH  41  55
BRANCH  42  65
ATOM     65  C   UNL     1      -6.864  -6.461  -9.263  1.00  0.00    -0.014 A 
ATOM     66  C   UNL     1      -8.241  -6.585  -9.514  1.00  0.00     0.010 A 
ATOM     67  C   UNL     1      -6.304  -5.174  -9.153  1.00  0.00     0.010 A 
ATOM     68  C   UNL     1      -9.040  -5.448  -9.670  1.00  0.00     0.020 A 
ATOM     69  C   UNL     1      -7.104  -4.035  -9.277  1.00  0.00     0.020 A 
ATOM     70  C   UNL     1      -8.466  -4.180  -9.546  1.00  0.00     0.054 A 
BRANCH  70  71
ATOM     71  S   UNL     1      -9.533  -2.720  -9.700  1.00  0.00     0.124 S 
ATOM     72  O   UNL     1      -9.831  -2.711 -11.129  1.00  0.00    -0.237 OA
ATOM     73  O   UNL     1     -10.651  -3.053  -8.821  1.00  0.00    -0.237 OA
ATOM     74  O   UNL     1      -8.685  -1.626  -9.229  1.00  0.00    -0.744 OA
ENDBRANCH  70  71
ENDBRANCH  42  65
BRANCH  54  75
ATOM     75  C   UNL     1      -4.807 -11.545 -13.592  1.00  0.00    -0.014 A 
ATOM     76  C   UNL     1      -4.262 -10.778 -14.636  1.00  0.00     0.010 A 
ATOM     77  C   UNL     1      -5.583 -12.677 -13.905  1.00  0.00     0.010 A 
ATOM     78  C   UNL     1      -4.500 -11.130 -15.968  1.00  0.00     0.020 A 
ATOM     79  C   UNL     1      -5.798 -13.049 -15.234  1.00  0.00     0.020 A 
ATOM     80  C   UNL     1      -5.261 -12.267 -16.258  1.00  0.00     0.054 A 
BRANCH  80  81
ATOM     81  S   UNL     1      -5.490 -12.744 -17.993  1.00  0.00     0.124 S 
ATOM     82  O   UNL     1      -6.404 -11.711 -18.474  1.00  0.00    -0.237 OA
ATOM     83  O   UNL     1      -4.131 -12.677 -18.524  1.00  0.00    -0.237 OA
ATOM     84  O   UNL     1      -6.057 -14.088 -17.912  1.00  0.00    -0.744 OA
ENDBRANCH  80  81
ENDBRANCH  54  75
ENDBRANCH  28  29
ENDBRANCH  20  23
ENDBRANCH   1  19
TORSDOF 15
