REMARK SMILES O=C(NCCCNC(=O)[C@@H]1CCn2c(C(=O)c3ccccc3)ccc21)c1ccc(-c2c3nc(c(-c4ccc(S(=O)(=O)[O-])cc4)c4ccc([nH]4)c(-c4ccc(S(=O)(=O)[O-])cc4)c4nc(c(-c5ccc(S(=O)(=O)[O-])cc5)c5ccc2[nH]5)C=C4)C=C3)cc1
REMARK SMILES IDX 4 1 3 2 1 3 2 4 26 6 27 7 85 8 28 9 84 10 29 11 30 12 31 13
REMARK SMILES IDX 78 14 32 15 83 16 77 17 79 18 33 19 82 20 76 21 75 22 34 24
REMARK SMILES IDX 64 25 45 26 63 27 46 28 49 29 62 30 80 31 47 32 48 33 61 35
REMARK SMILES IDX 81 36 50 37 35 38 36 39 44 40 37 41 43 42 38 43 39 44 40 45
REMARK SMILES IDX 41 46 42 47 65 48 66 49 74 50 67 51 73 52 68 53 69 54 70 55
REMARK SMILES IDX 71 56 72 57 51 58 52 59 60 60 53 61 59 62 54 63 55 64 56 65
REMARK SMILES IDX 57 66 58 67 5 68 6 69 7 70 8 71 9 73 10 74 11 75 25 76 12 77
REMARK SMILES IDX 13 78 24 79 14 80 23 81 15 82 16 83 17 84 18 85 22 86 19 87
REMARK SMILES IDX 21 88 20 89
REMARK H PARENT 3 5 79 23 49 34 7 72
REMARK Flexibility Score: inf
ROOT
ATOM      1  C   UNL     1       4.333   0.616  -1.268  1.00  0.00     0.118 C 
ENDROOT
BRANCH   1   2
ATOM      2  N   UNL     1       2.939   0.720  -0.852  1.00  0.00    -0.352 N 
ATOM      3  O   UNL     1       1.079   0.167   0.284  1.00  0.00    -0.269 OA
ATOM      4  C   UNL     1       2.309   0.185   0.243  1.00  0.00     0.251 C 
ATOM      5  H   UNL     1       2.364   1.255  -1.445  1.00  0.00     0.163 HD
BRANCH   4   6
ATOM      6  C   UNL     1       3.101  -0.367   1.362  1.00  0.00     0.039 A 
ATOM      7  C   UNL     1       4.276   0.265   1.770  1.00  0.00     0.014 A 
ATOM      8  C   UNL     1       2.647  -1.504   2.038  1.00  0.00     0.014 A 
ATOM      9  C   UNL     1       5.073  -0.319   2.743  1.00  0.00     0.010 A 
ATOM     10  C   UNL     1       3.395  -2.026   3.099  1.00  0.00     0.010 A 
ATOM     11  C   UNL     1       4.625  -1.449   3.446  1.00  0.00    -0.014 A 
BRANCH  11  12
ATOM     12  C   UNL     1       5.432  -1.932   4.594  1.00  0.00     0.031 A 
ATOM     13  C   UNL     1       6.062  -3.296   4.592  1.00  0.00     0.074 A 
ATOM     14  C   UNL     1       5.638  -1.085   5.623  1.00  0.00     0.049 A 
ATOM     15  N   UNL     1       6.843  -3.837   5.493  1.00  0.00    -0.248 NA
ATOM     16  C   UNL     1       5.780  -4.168   3.441  1.00  0.00     0.031 C 
ATOM     17  C   UNL     1       5.062   0.261   5.735  1.00  0.00     0.029 A 
ATOM     18  N   UNL     1       6.406  -1.207   6.751  1.00  0.00    -0.354 N 
ATOM     19  C   UNL     1       7.144  -5.109   5.023  1.00  0.00     0.074 A 
ATOM     20  C   UNL     1       6.428  -5.277   3.776  1.00  0.00     0.031 C 
ATOM     21  C   UNL     1       5.546   0.860   6.831  1.00  0.00     0.029 A 
ATOM     22  C   UNL     1       6.401  -0.082   7.542  1.00  0.00     0.049 A 
ATOM     23  H   UNL     1       6.913  -2.021   6.974  1.00  0.00     0.167 HD
ATOM     24  C   UNL     1       7.953  -6.045   5.576  1.00  0.00     0.031 A 
ATOM     25  C   UNL     1       6.998   0.164   8.722  1.00  0.00     0.031 A 
ATOM     26  C   UNL     1       8.648  -5.872   6.827  1.00  0.00     0.049 A 
ATOM     27  C   UNL     1       7.853  -0.909   9.332  1.00  0.00     0.074 A 
ATOM     28  C   UNL     1       9.489  -6.760   7.475  1.00  0.00     0.029 A 
ATOM     29  N   UNL     1       8.584  -4.735   7.620  1.00  0.00    -0.354 N 
ATOM     30  N   UNL     1       8.140  -2.099   8.859  1.00  0.00    -0.248 NA
ATOM     31  C   UNL     1       8.468  -0.606  10.629  1.00  0.00     0.031 C 
ATOM     32  C   UNL     1       9.891  -6.181   8.683  1.00  0.00     0.029 A 
ATOM     33  C   UNL     1       9.355  -4.906   8.758  1.00  0.00     0.049 A 
ATOM     34  H   UNL     1       8.066  -3.925   7.405  1.00  0.00     0.167 HD
ATOM     35  C   UNL     1       8.984  -2.681   9.795  1.00  0.00     0.074 A 
ATOM     36  C   UNL     1       9.186  -1.700  10.842  1.00  0.00     0.031 C 
ATOM     37  C   UNL     1       9.538  -3.919   9.793  1.00  0.00     0.031 A 
BRANCH  24  38
ATOM     38  C   UNL     1       8.124  -7.349   4.838  1.00  0.00    -0.014 A 
ATOM     39  C   UNL     1       8.849  -7.410   3.633  1.00  0.00     0.010 A 
ATOM     40  C   UNL     1       7.608  -8.539   5.384  1.00  0.00     0.010 A 
ATOM     41  C   UNL     1       9.025  -8.630   2.973  1.00  0.00     0.020 A 
ATOM     42  C   UNL     1       7.807  -9.766   4.741  1.00  0.00     0.020 A 
ATOM     43  C   UNL     1       8.503  -9.800   3.531  1.00  0.00     0.054 A 
BRANCH  43  44
ATOM     44  S   UNL     1       8.773 -11.370   2.663  1.00  0.00     0.124 S 
ATOM     45  O   UNL     1       7.918 -11.216   1.488  1.00  0.00    -0.237 OA
ATOM     46  O   UNL     1      10.210 -11.347   2.401  1.00  0.00    -0.237 OA
ATOM     47  O   UNL     1       8.334 -12.380   3.623  1.00  0.00    -0.744 OA
ENDBRANCH  43  44
ENDBRANCH  24  38
BRANCH  25  48
ATOM     48  C   UNL     1       6.770   1.462   9.415  1.00  0.00    -0.014 A 
ATOM     49  C   UNL     1       7.818   2.378   9.609  1.00  0.00     0.010 A 
ATOM     50  C   UNL     1       5.484   1.786   9.889  1.00  0.00     0.010 A 
ATOM     51  C   UNL     1       7.592   3.577  10.292  1.00  0.00     0.020 A 
ATOM     52  C   UNL     1       5.246   2.998  10.537  1.00  0.00     0.020 A 
ATOM     53  C   UNL     1       6.306   3.878  10.753  1.00  0.00     0.054 A 
BRANCH  53  54
ATOM     54  S   UNL     1       6.029   5.446  11.620  1.00  0.00     0.124 S 
ATOM     55  O   UNL     1       6.664   5.194  12.909  1.00  0.00    -0.237 OA
ATOM     56  O   UNL     1       6.708   6.409  10.756  1.00  0.00    -0.237 OA
ATOM     57  O   UNL     1       4.573   5.567  11.651  1.00  0.00    -0.744 OA
ENDBRANCH  53  54
ENDBRANCH  25  48
BRANCH  37  58
ATOM     58  C   UNL     1      10.441  -4.262  10.948  1.00  0.00    -0.014 A 
ATOM     59  C   UNL     1       9.930  -4.455  12.244  1.00  0.00     0.010 A 
ATOM     60  C   UNL     1      11.822  -4.412  10.726  1.00  0.00     0.010 A 
ATOM     61  C   UNL     1      10.791  -4.743  13.306  1.00  0.00     0.020 A 
ATOM     62  C   UNL     1      12.681  -4.734  11.779  1.00  0.00     0.020 A 
ATOM     63  C   UNL     1      12.162  -4.878  13.067  1.00  0.00     0.054 A 
BRANCH  63  64
ATOM     64  S   UNL     1      13.254  -5.274  14.459  1.00  0.00     0.124 S 
ATOM     65  O   UNL     1      13.279  -4.013  15.194  1.00  0.00    -0.237 OA
ATOM     66  O   UNL     1      12.549  -6.372  15.116  1.00  0.00    -0.237 OA
ATOM     67  O   UNL     1      14.513  -5.646  13.816  1.00  0.00    -0.744 OA
ENDBRANCH  63  64
ENDBRANCH  37  58
ENDBRANCH  11  12
ENDBRANCH   4   6
ENDBRANCH   1   2
BRANCH   1  68
ATOM     68  C   UNL     1       4.471  -0.118  -2.593  1.00  0.00     0.042 C 
BRANCH  68  69
ATOM     69  C   UNL     1       3.918   0.680  -3.770  1.00  0.00     0.117 C 
BRANCH  69  70
ATOM     70  N   UNL     1       4.851   1.698  -4.208  1.00  0.00    -0.355 N 
ATOM     71  C   UNL     1       5.869   1.701  -5.107  1.00  0.00     0.229 C 
ATOM     72  H   UNL     1       4.721   2.566  -3.762  1.00  0.00     0.163 HD
ATOM     73  O   UNL     1       6.456   2.786  -5.224  1.00  0.00    -0.274 OA
BRANCH  71  74
ATOM     74  C   UNL     1       6.262   0.508  -5.994  1.00  0.00     0.127 C 
ATOM     75  C   UNL     1       5.643  -0.887  -5.779  1.00  0.00     0.042 C 
ATOM     76  C   UNL     1       7.719   0.181  -5.853  1.00  0.00     0.031 A 
ATOM     77  C   UNL     1       6.715  -1.902  -6.173  1.00  0.00     0.124 C 
ATOM     78  N   UNL     1       7.942  -1.168  -5.931  1.00  0.00    -0.341 N 
ATOM     79  C   UNL     1       8.927   0.801  -5.685  1.00  0.00     0.025 A 
ATOM     80  C   UNL     1       9.251  -1.483  -5.726  1.00  0.00     0.090 A 
ATOM     81  C   UNL     1       9.889  -0.245  -5.603  1.00  0.00     0.032 A 
BRANCH  80  82
ATOM     82  C   UNL     1       9.896  -2.785  -5.610  1.00  0.00     0.209 C 
ATOM     83  O   UNL     1      11.102  -2.920  -5.411  1.00  0.00    -0.287 OA
BRANCH  82  84
ATOM     84  C   UNL     1       9.098  -4.028  -5.672  1.00  0.00     0.024 A 
ATOM     85  C   UNL     1       9.006  -4.826  -4.527  1.00  0.00     0.012 A 
ATOM     86  C   UNL     1       8.444  -4.401  -6.852  1.00  0.00     0.012 A 
ATOM     87  C   UNL     1       8.206  -5.969  -4.546  1.00  0.00     0.001 A 
ATOM     88  C   UNL     1       7.628  -5.533  -6.858  1.00  0.00     0.001 A 
ATOM     89  C   UNL     1       7.505  -6.311  -5.705  1.00  0.00     0.000 A 
ENDBRANCH  82  84
ENDBRANCH  80  82
ENDBRANCH  71  74
ENDBRANCH  69  70
ENDBRANCH  68  69
ENDBRANCH   1  68
TORSDOF 15
