REMARK SMILES O=C(NCCCNC(=O)c1c(-c2ccc(Cl)cc2)noc1CO[C@@H]1CCCCO1)c1ccc(-c2c3nc(c(-c4ccc(S(=O)(=O)[O-])cc4)c4ccc([nH]4)c(-c4ccc(S(=O)(=O)[O-])cc4)c4nc(c(-c5ccc(S(=O)(=O)[O-])cc5)c5ccc2[nH]5)C=C4)C=C3)cc1
REMARK SMILES IDX 5 1 4 2 3 3 1 4 2 5 30 7 31 8 89 9 32 10 88 11 33 12 34 13
REMARK SMILES IDX 35 14 82 15 36 16 87 17 81 18 83 19 37 20 86 21 80 22 79 23
REMARK SMILES IDX 38 25 68 26 49 27 67 28 50 29 53 30 66 31 84 32 51 33 52 34
REMARK SMILES IDX 65 36 85 37 54 38 39 39 40 40 48 41 41 42 47 43 42 44 43 45
REMARK SMILES IDX 44 46 45 47 46 48 69 49 70 50 78 51 71 52 77 53 72 54 73 55
REMARK SMILES IDX 74 56 75 57 76 58 55 59 56 60 64 61 57 62 63 63 58 64 59 65
REMARK SMILES IDX 60 66 61 67 62 68 6 69 7 70 8 71 9 73 10 74 11 75 21 76
REMARK SMILES IDX 19 77 20 78 12 79 13 80 18 81 14 82 17 83 15 84 16 85 22 86
REMARK SMILES IDX 23 87 24 88 25 89 29 90 26 91 28 92 27 93
REMARK H PARENT 3 6 83 24 53 35 7 72
REMARK Flexibility Score: inf
ROOT
ATOM      1  C   UNL     1       5.324   2.481   0.706  1.00  0.00     0.042 C 
ENDROOT
BRANCH   1   2
ATOM      2  C   UNL     1       4.972   0.997   0.814  1.00  0.00     0.118 C 
BRANCH   2   3
ATOM      3  N   UNL     1       3.539   0.754   0.797  1.00  0.00    -0.352 N 
ATOM      4  O   UNL     1       1.540   0.125   0.018  1.00  0.00    -0.269 OA
ATOM      5  C   UNL     1       2.762   0.031  -0.072  1.00  0.00     0.251 C 
ATOM      6  H   UNL     1       3.043   1.179   1.533  1.00  0.00     0.163 HD
BRANCH   5   7
ATOM      7  C   UNL     1       3.358  -0.841  -1.109  1.00  0.00     0.039 A 
ATOM      8  C   UNL     1       4.439  -1.684  -0.831  1.00  0.00     0.014 A 
ATOM      9  C   UNL     1       2.753  -0.883  -2.371  1.00  0.00     0.014 A 
ATOM     10  C   UNL     1       4.965  -2.499  -1.834  1.00  0.00     0.010 A 
ATOM     11  C   UNL     1       3.255  -1.729  -3.364  1.00  0.00     0.010 A 
ATOM     12  C   UNL     1       4.376  -2.530  -3.108  1.00  0.00    -0.014 A 
BRANCH  12  13
ATOM     13  C   UNL     1       4.907  -3.448  -4.143  1.00  0.00     0.031 A 
ATOM     14  C   UNL     1       5.705  -2.926  -5.303  1.00  0.00     0.074 A 
ATOM     15  C   UNL     1       4.680  -4.770  -4.029  1.00  0.00     0.049 A 
ATOM     16  N   UNL     1       6.295  -3.596  -6.260  1.00  0.00    -0.248 NA
ATOM     17  C   UNL     1       5.857  -1.467  -5.403  1.00  0.00     0.031 C 
ATOM     18  C   UNL     1       3.902  -5.404  -2.963  1.00  0.00     0.029 A 
ATOM     19  N   UNL     1       5.097  -5.817  -4.810  1.00  0.00    -0.354 N 
ATOM     20  C   UNL     1       6.875  -2.644  -7.087  1.00  0.00     0.074 A 
ATOM     21  C   UNL     1       6.562  -1.348  -6.521  1.00  0.00     0.031 C 
ATOM     22  C   UNL     1       3.930  -6.735  -3.136  1.00  0.00     0.029 A 
ATOM     23  C   UNL     1       4.710  -7.043  -4.331  1.00  0.00     0.049 A 
ATOM     24  H   UNL     1       5.622  -5.700  -5.634  1.00  0.00     0.167 HD
ATOM     25  C   UNL     1       7.607  -2.829  -8.211  1.00  0.00     0.031 A 
ATOM     26  C   UNL     1       4.957  -8.282  -4.796  1.00  0.00     0.031 A 
ATOM     27  C   UNL     1       7.954  -4.109  -8.765  1.00  0.00     0.049 A 
ATOM     28  C   UNL     1       5.762  -8.463  -6.045  1.00  0.00     0.074 A 
ATOM     29  C   UNL     1       8.767  -4.391  -9.849  1.00  0.00     0.029 A 
ATOM     30  N   UNL     1       7.497  -5.324  -8.281  1.00  0.00    -0.354 N 
ATOM     31  N   UNL     1       6.348  -7.550  -6.781  1.00  0.00    -0.248 NA
ATOM     32  C   UNL     1       5.927  -9.838  -6.534  1.00  0.00     0.031 C 
ATOM     33  C   UNL     1       8.787  -5.782 -10.032  1.00  0.00     0.029 A 
ATOM     34  C   UNL     1       7.987  -6.359  -9.059  1.00  0.00     0.049 A 
ATOM     35  H   UNL     1       6.910  -5.435  -7.498  1.00  0.00     0.167 HD
ATOM     36  C   UNL     1       6.949  -8.240  -7.825  1.00  0.00     0.074 A 
ATOM     37  C   UNL     1       6.659  -9.647  -7.624  1.00  0.00     0.031 C 
ATOM     38  C   UNL     1       7.677  -7.749  -8.857  1.00  0.00     0.031 A 
BRANCH  25  39
ATOM     39  C   UNL     1       8.078  -1.590  -8.913  1.00  0.00    -0.014 A 
ATOM     40  C   UNL     1       9.281  -0.969  -8.536  1.00  0.00     0.010 A 
ATOM     41  C   UNL     1       7.298  -1.026  -9.937  1.00  0.00     0.010 A 
ATOM     42  C   UNL     1       9.678   0.223  -9.146  1.00  0.00     0.020 A 
ATOM     43  C   UNL     1       7.694   0.164 -10.551  1.00  0.00     0.020 A 
ATOM     44  C   UNL     1       8.871   0.793 -10.135  1.00  0.00     0.054 A 
BRANCH  44  45
ATOM     45  S   UNL     1       9.370   2.361 -10.899  1.00  0.00     0.124 S 
ATOM     46  O   UNL     1       8.761   3.337  -9.998  1.00  0.00    -0.237 OA
ATOM     47  O   UNL     1      10.829   2.301 -10.863  1.00  0.00    -0.237 OA
ATOM     48  O   UNL     1       8.781   2.289 -12.234  1.00  0.00    -0.744 OA
ENDBRANCH  44  45
ENDBRANCH  25  39
BRANCH  26  49
ATOM     49  C   UNL     1       4.430  -9.447  -4.047  1.00  0.00    -0.014 A 
ATOM     50  C   UNL     1       5.217 -10.057  -3.056  1.00  0.00     0.010 A 
ATOM     51  C   UNL     1       3.114  -9.890  -4.260  1.00  0.00     0.010 A 
ATOM     52  C   UNL     1       4.689 -11.086  -2.273  1.00  0.00     0.020 A 
ATOM     53  C   UNL     1       2.583 -10.916  -3.476  1.00  0.00     0.020 A 
ATOM     54  C   UNL     1       3.373 -11.506  -2.485  1.00  0.00     0.054 A 
BRANCH  54  55
ATOM     55  S   UNL     1       2.638 -12.763  -1.402  1.00  0.00     0.124 S 
ATOM     56  O   UNL     1       2.776 -13.973  -2.205  1.00  0.00    -0.237 OA
ATOM     57  O   UNL     1       3.472 -12.703  -0.203  1.00  0.00    -0.237 OA
ATOM     58  O   UNL     1       1.272 -12.275  -1.223  1.00  0.00    -0.744 OA
ENDBRANCH  54  55
ENDBRANCH  26  49
BRANCH  38  59
ATOM     59  C   UNL     1       8.190  -8.744  -9.855  1.00  0.00    -0.014 A 
ATOM     60  C   UNL     1       7.396  -9.114 -10.954  1.00  0.00     0.010 A 
ATOM     61  C   UNL     1       9.470  -9.303  -9.705  1.00  0.00     0.010 A 
ATOM     62  C   UNL     1       7.866 -10.046 -11.881  1.00  0.00     0.020 A 
ATOM     63  C   UNL     1       9.944 -10.234 -10.633  1.00  0.00     0.020 A 
ATOM     64  C   UNL     1       9.133 -10.609 -11.709  1.00  0.00     0.054 A 
BRANCH  64  65
ATOM     65  S   UNL     1       9.759 -11.805 -12.922  1.00  0.00     0.124 S 
ATOM     66  O   UNL     1       9.367 -13.077 -12.323  1.00  0.00    -0.237 OA
ATOM     67  O   UNL     1       9.050 -11.444 -14.148  1.00  0.00    -0.237 OA
ATOM     68  O   UNL     1      11.195 -11.537 -12.943  1.00  0.00    -0.744 OA
ENDBRANCH  64  65
ENDBRANCH  38  59
ENDBRANCH  12  13
ENDBRANCH   5   7
ENDBRANCH   2   3
ENDBRANCH   1   2
BRANCH   1  69
ATOM     69  C   UNL     1       4.676   3.386   1.750  1.00  0.00     0.118 C 
BRANCH  69  70
ATOM     70  N   UNL     1       4.985   2.989   3.114  1.00  0.00    -0.352 N 
ATOM     71  C   UNL     1       5.657   3.661   4.102  1.00  0.00     0.257 C 
ATOM     72  H   UNL     1       4.660   2.096   3.369  1.00  0.00     0.163 HD
ATOM     73  O   UNL     1       5.904   3.075   5.152  1.00  0.00    -0.269 OA
BRANCH  71  74
ATOM     74  C   UNL     1       6.040   5.032   3.892  1.00  0.00     0.113 A 
ATOM     75  C   UNL     1       7.328   5.628   4.024  1.00  0.00     0.127 A 
ATOM     76  C   UNL     1       5.193   6.098   3.660  1.00  0.00     0.175 A 
ATOM     77  N   UNL     1       7.251   6.955   3.824  1.00  0.00    -0.079 NA
ATOM     78  O   UNL     1       5.923   7.240   3.593  1.00  0.00    -0.357 OA
BRANCH  75  79
ATOM     79  C   UNL     1       8.608   4.991   4.329  1.00  0.00     0.005 A 
ATOM     80  C   UNL     1       8.966   3.765   3.749  1.00  0.00     0.012 A 
ATOM     81  C   UNL     1       9.504   5.610   5.215  1.00  0.00     0.012 A 
ATOM     82  C   UNL     1      10.190   3.164   4.061  1.00  0.00     0.021 A 
ATOM     83  C   UNL     1      10.726   5.007   5.529  1.00  0.00     0.021 A 
ATOM     84  C   UNL     1      11.062   3.785   4.952  1.00  0.00     0.041 A 
ATOM     85  Cl  UNL     1      12.564   3.042   5.340  1.00  0.00    -0.084 Cl
ENDBRANCH  75  79
BRANCH  76  86
ATOM     86  C   UNL     1       3.731   6.240   3.493  1.00  0.00     0.242 C 
BRANCH  86  87
ATOM     87  O   UNL     1       3.159   6.979   4.567  1.00  0.00    -0.345 OA
BRANCH  87  88
ATOM     88  C   UNL     1       3.230   6.396   5.867  1.00  0.00     0.250 C 
ATOM     89  C   UNL     1       2.572   5.017   5.991  1.00  0.00     0.062 C 
ATOM     90  O   UNL     1       2.617   7.285   6.813  1.00  0.00    -0.353 OA
ATOM     91  C   UNL     1       1.067   5.106   5.759  1.00  0.00     0.008 C 
ATOM     92  C   UNL     1       1.224   7.478   6.564  1.00  0.00     0.163 C 
ATOM     93  C   UNL     1       0.458   6.166   6.669  1.00  0.00     0.029 C 
ENDBRANCH  87  88
ENDBRANCH  86  87
ENDBRANCH  76  86
ENDBRANCH  71  74
ENDBRANCH  69  70
ENDBRANCH   1  69
TORSDOF 17
