REMARK SMILES CC(C)C(=O)Nc1ccc2[nH]cc([C@@H](C(=O)NCCCNC(=O)c3ccc(-c4c5nc(c(-c6ccc(S(=O)(=O)[O-])cc6)c6ccc([nH]6)c(-c6ccc(S(=O)(=O)[O-])cc6)c6nc(c(-c7ccc(S(=O)(=O)[O-])cc7)c7ccc4[nH]7)C=C6)C=C5)cc3)[NH+]3CC[NH+](CCC#N)CC3)c2c1
REMARK SMILES IDX 18 1 17 2 15 3 16 4 14 6 13 7 7 8 8 9 95 10 9 11 94 12 10 13
REMARK SMILES IDX 11 14 12 15 6 17 4 18 5 19 2 21 1 22 3 23 84 24 85 25 93 26
REMARK SMILES IDX 86 28 92 29 87 30 88 32 89 33 90 34 91 35 19 36 20 37 21 38
REMARK SMILES IDX 22 39 23 41 24 42 25 43 83 44 26 45 82 46 27 47 28 48 29 49
REMARK SMILES IDX 76 50 30 51 81 52 75 53 77 54 31 55 80 56 74 57 73 58 32 60
REMARK SMILES IDX 62 61 43 62 61 63 44 64 47 65 60 66 78 67 45 68 46 69 59 71
REMARK SMILES IDX 79 72 48 73 33 74 34 75 42 76 35 77 41 78 36 79 37 80 38 81
REMARK SMILES IDX 39 82 40 83 63 84 64 85 72 86 65 87 71 88 66 89 67 90 68 91
REMARK SMILES IDX 69 92 70 93 49 94 50 95 58 96 51 97 57 98 52 99 53 100
REMARK SMILES IDX 54 101 55 102 56 103
REMARK H PARENT 17 5 11 16 6 20 84 27 87 31 21 40 77 59 47 70
REMARK Flexibility Score: inf
ROOT
ATOM      1  C   UNL     1      -0.059   0.833  -7.416  1.00  0.00     0.118 C 
ENDROOT
BRANCH   1   2
ATOM      2  N   UNL     1      -0.335  -0.303  -8.281  1.00  0.00    -0.351 N 
ATOM      3  C   UNL     1      -0.444  -1.621  -7.898  1.00  0.00     0.283 C 
ATOM      4  O   UNL     1      -0.382  -2.485  -8.774  1.00  0.00    -0.268 OA
ATOM      5  H   UNL     1      -0.457  -0.109  -9.238  1.00  0.00     0.163 HD
BRANCH   3   6
ATOM      6  C   UNL     1      -0.710  -1.882  -6.410  1.00  0.00     0.308 C 
BRANCH   6   7
ATOM      7  C   UNL     1       0.488  -2.031  -5.519  1.00  0.00     0.044 A 
ATOM      8  C   UNL     1      -0.201  -0.502  -2.124  1.00  0.00     0.041 A 
ATOM      9  C   UNL     1       0.626  -1.384  -1.432  1.00  0.00     0.028 A 
ATOM     10  C   UNL     1      -0.257  -0.529  -3.516  1.00  0.00     0.037 A 
ATOM     11  C   UNL     1       1.537  -2.209  -2.102  1.00  0.00     0.029 A 
ATOM     12  C   UNL     1       0.574  -1.440  -4.211  1.00  0.00     0.011 A 
ATOM     13  C   UNL     1       1.501  -2.198  -3.500  1.00  0.00     0.046 A 
ATOM     14  N   UNL     1       2.198  -2.943  -4.422  1.00  0.00    -0.361 N 
ATOM     15  C   UNL     1       1.604  -2.836  -5.657  1.00  0.00     0.094 A 
ATOM     16  H   UNL     1       3.003  -3.475  -4.226  1.00  0.00     0.166 HD
BRANCH   8  17
ATOM     17  N   UNL     1      -1.059   0.362  -1.449  1.00  0.00    -0.326 N 
ATOM     18  C   UNL     1      -0.711   1.381  -0.608  1.00  0.00     0.226 C 
ATOM     19  O   UNL     1      -1.623   2.008  -0.059  1.00  0.00    -0.274 OA
ATOM     20  H   UNL     1      -2.023   0.224  -1.593  1.00  0.00     0.169 HD
BRANCH  18  21
ATOM     21  C   UNL     1       0.749   1.820  -0.437  1.00  0.00     0.072 C 
ATOM     22  C   UNL     1       1.585   0.905   0.448  1.00  0.00     0.018 C 
ATOM     23  C   UNL     1       1.435   2.136  -1.768  1.00  0.00     0.018 C 
ENDBRANCH  18  21
ENDBRANCH   8  17
ENDBRANCH   6   7
BRANCH   6  24
ATOM     24  N   UNL     1      -1.691  -2.960  -6.218  1.00  0.00    -0.312 N 
ATOM     25  C   UNL     1      -1.183  -4.324  -6.388  1.00  0.00     0.325 C 
ATOM     26  C   UNL     1      -2.454  -2.785  -4.991  1.00  0.00     0.325 C 
ATOM     27  H   UNL     1      -2.336  -2.858  -7.003  1.00  0.00     0.349 HD
ATOM     28  C   UNL     1      -0.725  -5.100  -5.117  1.00  0.00     0.324 C 
ATOM     29  C   UNL     1      -1.821  -3.377  -3.713  1.00  0.00     0.324 C 
ATOM     30  N   UNL     1      -1.258  -4.725  -3.792  1.00  0.00    -0.325 N 
ATOM     31  H   UNL     1      -0.413  -4.754  -3.220  1.00  0.00     0.348 HD
BRANCH  30  32
ATOM     32  C   UNL     1      -2.218  -5.655  -3.247  1.00  0.00     0.278 C 
BRANCH  32  33
ATOM     33  C   UNL     1      -3.569  -5.392  -3.855  1.00  0.00     0.181 C 
BRANCH  33  34
ATOM     34  C   UNL     1      -3.641  -6.061  -5.217  1.00  0.00     0.068 C 
ATOM     35  N   UNL     1      -3.700  -6.616  -6.348  1.00  0.00    -0.198 NA
ENDBRANCH  33  34
ENDBRANCH  32  33
ENDBRANCH  30  32
ENDBRANCH   6  24
ENDBRANCH   3   6
ENDBRANCH   1   2
BRANCH   1  36
ATOM     36  C   UNL     1       1.371   0.804  -6.895  1.00  0.00     0.042 C 
BRANCH  36  37
ATOM     37  C   UNL     1       2.369   0.621  -8.019  1.00  0.00     0.118 C 
BRANCH  37  38
ATOM     38  N   UNL     1       2.455   1.858  -8.770  1.00  0.00    -0.352 N 
ATOM     39  C   UNL     1       3.357   2.864  -8.530  1.00  0.00     0.251 C 
ATOM     40  H   UNL     1       1.818   1.986  -9.509  1.00  0.00     0.163 HD
ATOM     41  O   UNL     1       3.064   4.030  -8.755  1.00  0.00    -0.269 OA
BRANCH  39  42
ATOM     42  C   UNL     1       4.683   2.485  -8.000  1.00  0.00     0.039 A 
ATOM     43  C   UNL     1       5.321   3.301  -7.068  1.00  0.00     0.014 A 
ATOM     44  C   UNL     1       5.290   1.306  -8.451  1.00  0.00     0.014 A 
ATOM     45  C   UNL     1       6.580   2.933  -6.596  1.00  0.00     0.010 A 
ATOM     46  C   UNL     1       6.482   0.883  -7.891  1.00  0.00     0.010 A 
ATOM     47  C   UNL     1       7.166   1.723  -7.005  1.00  0.00    -0.014 A 
BRANCH  47  48
ATOM     48  C   UNL     1       8.541   1.353  -6.607  1.00  0.00     0.031 A 
ATOM     49  C   UNL     1       9.599   1.211  -7.671  1.00  0.00     0.074 A 
ATOM     50  C   UNL     1       8.818   1.094  -5.316  1.00  0.00     0.049 A 
ATOM     51  N   UNL     1      10.845   0.837  -7.551  1.00  0.00    -0.248 NA
ATOM     52  C   UNL     1       9.192   1.489  -9.062  1.00  0.00     0.031 C 
ATOM     53  C   UNL     1       7.855   1.150  -4.213  1.00  0.00     0.029 A 
ATOM     54  N   UNL     1       9.994   0.732  -4.715  1.00  0.00    -0.354 N 
ATOM     55  C   UNL     1      11.356   0.809  -8.844  1.00  0.00     0.074 A 
ATOM     56  C   UNL     1      10.272   1.137  -9.740  1.00  0.00     0.031 C 
ATOM     57  C   UNL     1       8.490   0.869  -3.063  1.00  0.00     0.029 A 
ATOM     58  C   UNL     1       9.890   0.578  -3.353  1.00  0.00     0.049 A 
ATOM     59  H   UNL     1      10.833   0.595  -5.211  1.00  0.00     0.167 HD
ATOM     60  C   UNL     1      12.623   0.562  -9.248  1.00  0.00     0.031 A 
ATOM     61  C   UNL     1      10.825   0.242  -2.445  1.00  0.00     0.031 A 
ATOM     62  C   UNL     1      13.700   0.274  -8.343  1.00  0.00     0.049 A 
ATOM     63  C   UNL     1      12.233  -0.003  -2.913  1.00  0.00     0.074 A 
ATOM     64  C   UNL     1      15.038   0.074  -8.632  1.00  0.00     0.029 A 
ATOM     65  N   UNL     1      13.561   0.154  -6.968  1.00  0.00    -0.354 N 
ATOM     66  N   UNL     1      12.713   0.038  -4.134  1.00  0.00    -0.248 NA
ATOM     67  C   UNL     1      13.227  -0.324  -1.881  1.00  0.00     0.031 C 
ATOM     68  C   UNL     1      15.700  -0.212  -7.434  1.00  0.00     0.029 A 
ATOM     69  C   UNL     1      14.785  -0.136  -6.394  1.00  0.00     0.049 A 
ATOM     70  H   UNL     1      12.716   0.259  -6.475  1.00  0.00     0.167 HD
ATOM     71  C   UNL     1      14.072  -0.228  -4.015  1.00  0.00     0.074 A 
ATOM     72  C   UNL     1      14.338  -0.411  -2.601  1.00  0.00     0.031 C 
ATOM     73  C   UNL     1      15.017  -0.313  -4.984  1.00  0.00     0.031 A 
BRANCH  60  74
ATOM     74  C   UNL     1      12.904   0.602 -10.728  1.00  0.00    -0.014 A 
ATOM     75  C   UNL     1      12.858   1.811 -11.445  1.00  0.00     0.010 A 
ATOM     76  C   UNL     1      13.242  -0.582 -11.408  1.00  0.00     0.010 A 
ATOM     77  C   UNL     1      13.099   1.830 -12.821  1.00  0.00     0.020 A 
ATOM     78  C   UNL     1      13.514  -0.564 -12.779  1.00  0.00     0.020 A 
ATOM     79  C   UNL     1      13.424   0.641 -13.480  1.00  0.00     0.054 A 
BRANCH  79  80
ATOM     80  S   UNL     1      13.759   0.698 -15.262  1.00  0.00     0.124 S 
ATOM     81  O   UNL     1      12.419   0.885 -15.814  1.00  0.00    -0.237 OA
ATOM     82  O   UNL     1      14.653   1.847 -15.383  1.00  0.00    -0.237 OA
ATOM     83  O   UNL     1      14.372  -0.598 -15.542  1.00  0.00    -0.744 OA
ENDBRANCH  79  80
ENDBRANCH  60  74
BRANCH  61  84
ATOM     84  C   UNL     1      10.460   0.149  -1.006  1.00  0.00    -0.014 A 
ATOM     85  C   UNL     1      10.908   1.118  -0.092  1.00  0.00     0.010 A 
ATOM     86  C   UNL     1       9.637  -0.896  -0.547  1.00  0.00     0.010 A 
ATOM     87  C   UNL     1      10.556   1.035   1.259  1.00  0.00     0.020 A 
ATOM     88  C   UNL     1       9.261  -0.968   0.797  1.00  0.00     0.020 A 
ATOM     89  C   UNL     1       9.732  -0.007   1.694  1.00  0.00     0.054 A 
BRANCH  89  90
ATOM     90  S   UNL     1       9.243  -0.067   3.440  1.00  0.00     0.124 S 
ATOM     91  O   UNL     1      10.471  -0.521   4.084  1.00  0.00    -0.237 OA
ATOM     92  O   UNL     1       8.860   1.317   3.708  1.00  0.00    -0.237 OA
ATOM     93  O   UNL     1       8.137  -1.023   3.451  1.00  0.00    -0.744 OA
ENDBRANCH  89  90
ENDBRANCH  61  84
BRANCH  73  94
ATOM     94  C   UNL     1      16.428  -0.590  -4.545  1.00  0.00    -0.014 A 
ATOM     95  C   UNL     1      16.811  -1.863  -4.092  1.00  0.00     0.010 A 
ATOM     96  C   UNL     1      17.395   0.427  -4.647  1.00  0.00     0.010 A 
ATOM     97  C   UNL     1      18.134  -2.107  -3.716  1.00  0.00     0.020 A 
ATOM     98  C   UNL     1      18.724   0.179  -4.300  1.00  0.00     0.020 A 
ATOM     99  C   UNL     1      19.082  -1.084  -3.823  1.00  0.00     0.054 A 
BRANCH  99 100
ATOM    100  S   UNL     1      20.801  -1.438  -3.371  1.00  0.00     0.124 S 
ATOM    101  O   UNL     1      20.730  -1.475  -1.913  1.00  0.00    -0.237 OA
ATOM    102  O   UNL     1      21.046  -2.724  -4.021  1.00  0.00    -0.237 OA
ATOM    103  O   UNL     1      21.546  -0.313  -3.931  1.00  0.00    -0.744 OA
ENDBRANCH  99 100
ENDBRANCH  73  94
ENDBRANCH  47  48
ENDBRANCH  39  42
ENDBRANCH  37  38
ENDBRANCH  36  37
ENDBRANCH   1  36
TORSDOF 20
