REMARK SMILES COC(=O)c1ccccc1N1C(=O)/C(=C\c2ccc(-c3ccc(Cl)c(C(=O)NCCCNC(=O)c4ccc(-c5c6nc(c(-c7ccc(S(=O)(=O)[O-])cc7)c7ccc([nH]7)c(-c7ccc(S(=O)(=O)[O-])cc7)c7nc(c(-c8ccc(S(=O)(=O)[O-])cc8)c8ccc5[nH]8)C=C7)C=C6)cc4)c3)o2)SC1=S
REMARK SMILES IDX 29 1 28 2 26 3 27 4 25 6 20 7 21 8 95 9 22 10 23 11 24 12
REMARK SMILES IDX 19 13 16 14 17 15 96 16 18 17 15 18 11 19 12 20 98 21 13 22
REMARK SMILES IDX 14 23 97 24 99 25 10 26 5 27 6 28 7 29 9 30 8 31 3 32 4 33
REMARK SMILES IDX 2 34 1 35 30 36 31 37 32 38 33 39 34 41 35 42 36 43 94 44
REMARK SMILES IDX 37 45 93 46 38 47 39 48 40 49 87 50 41 51 92 52 86 53 88 54
REMARK SMILES IDX 42 55 91 56 85 57 84 58 43 60 73 61 54 62 72 63 55 64 58 65
REMARK SMILES IDX 71 66 89 67 56 68 57 69 70 71 90 72 59 73 44 74 45 75 53 76
REMARK SMILES IDX 46 77 52 78 47 79 48 80 49 81 50 82 51 83 74 84 75 85 83 86
REMARK SMILES IDX 76 87 82 88 77 89 78 90 79 91 80 92 81 93 60 94 61 95 69 96
REMARK SMILES IDX 62 97 68 98 63 99 64 100 65 101 66 102 67 103
REMARK H PARENT 28 5 32 40 88 59 58 70
REMARK Flexibility Score: inf
ROOT
ATOM      1  C   UNL     1      -4.601   9.507  -4.401  1.00  0.00     0.118 C 
ENDROOT
BRANCH   1   2
ATOM      2  N   UNL     1      -5.176  10.759  -3.906  1.00  0.00    -0.352 N 
ATOM      3  C   UNL     1      -5.604  11.188  -2.661  1.00  0.00     0.252 C 
ATOM      4  O   UNL     1      -5.943  12.364  -2.555  1.00  0.00    -0.269 OA
ATOM      5  H   UNL     1      -5.281  11.441  -4.607  1.00  0.00     0.163 HD
BRANCH   3   6
ATOM      6  C   UNL     1      -5.667  10.276  -1.484  1.00  0.00     0.059 A 
ATOM      7  C   UNL     1      -4.878   8.180  -0.525  1.00  0.00     0.018 A 
ATOM      8  C   UNL     1      -5.916   8.210   0.404  1.00  0.00     0.013 A 
ATOM      9  C   UNL     1      -4.686   9.295  -1.347  1.00  0.00     0.027 A 
ATOM     10  C   UNL     1      -6.783   9.307   0.440  1.00  0.00     0.022 A 
ATOM     11  C   UNL     1      -6.694  10.318  -0.530  1.00  0.00     0.053 A 
ATOM     12  Cl  UNL     1      -7.914  11.539  -0.482  1.00  0.00    -0.083 Cl
BRANCH   7  13
ATOM     13  C   UNL     1      -4.086   6.990  -0.808  1.00  0.00     0.134 A 
ATOM     14  C   UNL     1      -3.849   4.794  -1.034  1.00  0.00     0.128 A 
ATOM     15  C   UNL     1      -2.767   5.403  -1.656  1.00  0.00     0.051 A 
ATOM     16  O   UNL     1      -4.670   5.785  -0.544  1.00  0.00    -0.457 OA
ATOM     17  C   UNL     1      -2.893   6.793  -1.467  1.00  0.00     0.051 A 
BRANCH  14  18
ATOM     18  C   UNL     1      -4.079   3.407  -0.840  1.00  0.00     0.068 C 
ATOM     19  N   UNL     1      -1.921   2.320   1.894  1.00  0.00    -0.260 N 
ATOM     20  C   UNL     1      -2.387   3.298   1.026  1.00  0.00     0.270 C 
ATOM     21  C   UNL     1      -2.437   1.047   1.738  1.00  0.00     0.152 C 
ATOM     22  O   UNL     1      -2.030   4.469   1.033  1.00  0.00    -0.268 OA
ATOM     23  C   UNL     1      -3.386   2.723   0.082  1.00  0.00     0.084 C 
ATOM     24  S   UNL     1      -3.550   1.032   0.365  1.00  0.00    -0.054 SA
ATOM     25  S   UNL     1      -2.214  -0.298   2.704  1.00  0.00    -0.051 S 
BRANCH  19  26
ATOM     26  C   UNL     1      -0.999   2.727   2.901  1.00  0.00     0.065 A 
ATOM     27  C   UNL     1       0.320   2.251   3.015  1.00  0.00     0.084 A 
ATOM     28  C   UNL     1       1.163   2.801   4.001  1.00  0.00     0.018 A 
ATOM     29  C   UNL     1       0.719   3.820   4.847  1.00  0.00     0.001 A 
ATOM     30  C   UNL     1      -1.427   3.756   3.768  1.00  0.00     0.028 A 
ATOM     31  C   UNL     1      -0.579   4.298   4.731  1.00  0.00     0.002 A 
BRANCH  27  32
ATOM     32  C   UNL     1       0.961   1.245   2.125  1.00  0.00     0.339 C 
ATOM     33  O   UNL     1       1.897   0.551   2.481  1.00  0.00    -0.246 OA
BRANCH  32  34
ATOM     34  O   UNL     1       0.418   1.266   0.882  1.00  0.00    -0.465 OA
ATOM     35  C   UNL     1       0.973   0.289  -0.003  1.00  0.00     0.282 C 
ENDBRANCH  32  34
ENDBRANCH  27  32
ENDBRANCH  19  26
ENDBRANCH  14  18
ENDBRANCH   7  13
ENDBRANCH   3   6
ENDBRANCH   1   2
BRANCH   1  36
ATOM     36  C   UNL     1      -5.319   8.893  -5.591  1.00  0.00     0.042 C 
BRANCH  36  37
ATOM     37  C   UNL     1      -5.280   9.720  -6.865  1.00  0.00     0.118 C 
BRANCH  37  38
ATOM     38  N   UNL     1      -3.934   9.895  -7.395  1.00  0.00    -0.352 N 
ATOM     39  C   UNL     1      -3.290   9.310  -8.461  1.00  0.00     0.251 C 
ATOM     40  H   UNL     1      -3.387  10.548  -6.902  1.00  0.00     0.163 HD
ATOM     41  O   UNL     1      -2.081   9.493  -8.595  1.00  0.00    -0.269 OA
BRANCH  39  42
ATOM     42  C   UNL     1      -4.013   8.450  -9.427  1.00  0.00     0.039 A 
ATOM     43  C   UNL     1      -3.364   7.325  -9.951  1.00  0.00     0.014 A 
ATOM     44  C   UNL     1      -5.304   8.756  -9.857  1.00  0.00     0.014 A 
ATOM     45  C   UNL     1      -4.040   6.473 -10.831  1.00  0.00     0.010 A 
ATOM     46  C   UNL     1      -6.011   7.854 -10.648  1.00  0.00     0.010 A 
ATOM     47  C   UNL     1      -5.387   6.704 -11.150  1.00  0.00    -0.014 A 
BRANCH  47  48
ATOM     48  C   UNL     1      -6.161   5.767 -12.007  1.00  0.00     0.031 A 
ATOM     49  C   UNL     1      -6.760   6.243 -13.306  1.00  0.00     0.074 A 
ATOM     50  C   UNL     1      -6.394   4.509 -11.580  1.00  0.00     0.049 A 
ATOM     51  N   UNL     1      -7.536   5.601 -14.141  1.00  0.00    -0.248 NA
ATOM     52  C   UNL     1      -6.473   7.631 -13.704  1.00  0.00     0.031 C 
ATOM     53  C   UNL     1      -5.912   3.937 -10.319  1.00  0.00     0.029 A 
ATOM     54  N   UNL     1      -7.106   3.484 -12.154  1.00  0.00    -0.354 N 
ATOM     55  C   UNL     1      -7.849   6.511 -15.145  1.00  0.00     0.074 A 
ATOM     56  C   UNL     1      -7.221   7.764 -14.789  1.00  0.00     0.031 C 
ATOM     57  C   UNL     1      -6.316   2.660 -10.231  1.00  0.00     0.029 A 
ATOM     58  C   UNL     1      -7.123   2.333 -11.402  1.00  0.00     0.049 A 
ATOM     59  H   UNL     1      -7.561   3.566 -13.024  1.00  0.00     0.167 HD
ATOM     60  C   UNL     1      -8.574   6.317 -16.273  1.00  0.00     0.031 A 
ATOM     61  C   UNL     1      -7.728   1.149 -11.621  1.00  0.00     0.031 A 
ATOM     62  C   UNL     1      -9.179   5.064 -16.635  1.00  0.00     0.049 A 
ATOM     63  C   UNL     1      -8.531   0.958 -12.879  1.00  0.00     0.074 A 
ATOM     64  C   UNL     1      -9.877   4.747 -17.788  1.00  0.00     0.029 A 
ATOM     65  N   UNL     1      -9.159   3.919 -15.852  1.00  0.00    -0.354 N 
ATOM     66  N   UNL     1      -8.755   1.812 -13.849  1.00  0.00    -0.248 NA
ATOM     67  C   UNL     1      -9.156  -0.357 -13.074  1.00  0.00     0.031 C 
ATOM     68  C   UNL     1     -10.324   3.427 -17.678  1.00  0.00     0.029 A 
ATOM     69  C   UNL     1      -9.855   2.903 -16.484  1.00  0.00     0.049 A 
ATOM     70  H   UNL     1      -8.716   3.841 -14.977  1.00  0.00     0.167 HD
ATOM     71  C   UNL     1      -9.528   1.129 -14.781  1.00  0.00     0.074 A 
ATOM     72  C   UNL     1      -9.718  -0.212 -14.267  1.00  0.00     0.031 C 
ATOM     73  C   UNL     1     -10.036   1.573 -15.957  1.00  0.00     0.031 A 
BRANCH  60  74
ATOM     74  C   UNL     1      -8.752   7.493 -17.198  1.00  0.00    -0.014 A 
ATOM     75  C   UNL     1      -7.670   8.005 -17.938  1.00  0.00     0.010 A 
ATOM     76  C   UNL     1     -10.024   8.069 -17.362  1.00  0.00     0.010 A 
ATOM     77  C   UNL     1      -7.848   9.099 -18.788  1.00  0.00     0.020 A 
ATOM     78  C   UNL     1     -10.213   9.145 -18.235  1.00  0.00     0.020 A 
ATOM     79  C   UNL     1      -9.118   9.665 -18.929  1.00  0.00     0.054 A 
BRANCH  79  80
ATOM     80  S   UNL     1      -9.323  11.071 -20.056  1.00  0.00     0.124 S 
ATOM     81  O   UNL     1      -8.680  12.150 -19.310  1.00  0.00    -0.237 OA
ATOM     82  O   UNL     1      -8.613  10.628 -21.254  1.00  0.00    -0.237 OA
ATOM     83  O   UNL     1     -10.771  11.192 -20.202  1.00  0.00    -0.744 OA
ENDBRANCH  79  80
ENDBRANCH  60  74
BRANCH  61  84
ATOM     84  C   UNL     1      -7.586   0.046 -10.631  1.00  0.00    -0.014 A 
ATOM     85  C   UNL     1      -6.814  -1.089 -10.934  1.00  0.00     0.010 A 
ATOM     86  C   UNL     1      -8.207   0.133  -9.372  1.00  0.00     0.010 A 
ATOM     87  C   UNL     1      -6.679  -2.124 -10.004  1.00  0.00     0.020 A 
ATOM     88  C   UNL     1      -8.052  -0.887  -8.428  1.00  0.00     0.020 A 
ATOM     89  C   UNL     1      -7.296  -2.014  -8.755  1.00  0.00     0.054 A 
BRANCH  89  90
ATOM     90  S   UNL     1      -7.058  -3.342  -7.541  1.00  0.00     0.124 S 
ATOM     91  O   UNL     1      -7.904  -4.402  -8.080  1.00  0.00    -0.237 OA
ATOM     92  O   UNL     1      -5.618  -3.580  -7.612  1.00  0.00    -0.237 OA
ATOM     93  O   UNL     1      -7.520  -2.745  -6.289  1.00  0.00    -0.744 OA
ENDBRANCH  89  90
ENDBRANCH  61  84
BRANCH  73  94
ATOM     94  C   UNL     1     -10.826   0.596 -16.786  1.00  0.00    -0.014 A 
ATOM     95  C   UNL     1     -12.121   0.202 -16.406  1.00  0.00     0.010 A 
ATOM     96  C   UNL     1     -10.289   0.119 -17.995  1.00  0.00     0.010 A 
ATOM     97  C   UNL     1     -12.856  -0.672 -17.210  1.00  0.00     0.020 A 
ATOM     98  C   UNL     1     -11.032  -0.734 -18.816  1.00  0.00     0.020 A 
ATOM     99  C   UNL     1     -12.307  -1.133 -18.412  1.00  0.00     0.054 A 
BRANCH  99 100
ATOM    100  S   UNL     1     -13.305  -2.222 -19.465  1.00  0.00     0.124 S 
ATOM    101  O   UNL     1     -13.263  -3.481 -18.726  1.00  0.00    -0.237 OA
ATOM    102  O   UNL     1     -14.601  -1.548 -19.486  1.00  0.00    -0.237 OA
ATOM    103  O   UNL     1     -12.589  -2.223 -20.739  1.00  0.00    -0.744 OA
ENDBRANCH  99 100
ENDBRANCH  73  94
ENDBRANCH  47  48
ENDBRANCH  39  42
ENDBRANCH  37  38
ENDBRANCH  36  37
ENDBRANCH   1  36
TORSDOF 18
