REMARK SMILES CC[C@@H]1CCCCN1c1ccc(NC(=O)CCC(=O)NCCCNC(=O)c2ccc(-c3c4nc(c(-c5ccc(S(=O)(=O)[O-])cc5)c5ccc([nH]5)c(-c5ccc(S(=O)(=O)[O-])cc5)c5nc(c(-c6ccc(S(=O)(=O)[O-])cc6)c6ccc3[nH]6)C=C5)C=C4)cc2)cc1
REMARK SMILES IDX 21 1 20 2 18 3 19 4 17 6 16 7 14 8 13 9 15 11 12 12 9 13
REMARK SMILES IDX 10 14 88 15 11 16 87 17 8 18 3 19 4 20 5 21 7 22 6 23 2 24
REMARK SMILES IDX 1 25 22 26 23 27 24 28 25 29 26 31 27 32 28 33 86 34 29 35
REMARK SMILES IDX 85 36 30 37 31 38 32 39 79 40 33 41 84 42 78 43 80 44 34 45
REMARK SMILES IDX 83 46 77 47 76 48 35 50 65 51 46 52 64 53 47 54 50 55 63 56
REMARK SMILES IDX 81 57 48 58 49 59 62 61 82 62 51 63 36 64 37 65 45 66 38 67
REMARK SMILES IDX 44 68 39 69 40 70 41 71 42 72 43 73 66 74 67 75 75 76 68 77
REMARK SMILES IDX 74 78 69 79 70 80 71 81 72 82 73 83 52 84 53 85 61 86 54 87
REMARK SMILES IDX 60 88 55 89 56 90 57 91 58 92 59 93
REMARK H PARENT 20 5 13 10 24 30 80 49 50 60
REMARK Flexibility Score: inf
ROOT
ATOM      1  C   UNL     1      -2.434   3.532   2.156  1.00  0.00     0.117 C 
ENDROOT
BRANCH   1   2
ATOM      2  N   UNL     1      -1.916   2.361   1.468  1.00  0.00    -0.356 N 
ATOM      3  C   UNL     1      -2.345   1.764   0.321  1.00  0.00     0.220 C 
ATOM      4  O   UNL     1      -1.592   0.985  -0.265  1.00  0.00    -0.275 OA
ATOM      5  H   UNL     1      -1.138   1.935   1.895  1.00  0.00     0.163 HD
BRANCH   3   6
ATOM      6  C   UNL     1      -3.727   2.033  -0.224  1.00  0.00     0.110 C 
BRANCH   6   7
ATOM      7  C   UNL     1      -4.755   0.981   0.175  1.00  0.00     0.110 C 
BRANCH   7   8
ATOM      8  C   UNL     1      -5.004   0.892   1.666  1.00  0.00     0.224 C 
ATOM      9  N   UNL     1      -4.261   0.110   2.503  1.00  0.00    -0.326 N 
ATOM     10  H   UNL     1      -4.530   0.158   3.449  1.00  0.00     0.169 HD
ATOM     11  O   UNL     1      -5.849   1.637   2.176  1.00  0.00    -0.275 OA
BRANCH   9  12
ATOM     12  C   UNL     1      -3.181  -0.748   2.253  1.00  0.00     0.041 A 
ATOM     13  C   UNL     1      -0.760  -2.106   1.690  1.00  0.00     0.037 A 
ATOM     14  C   UNL     1      -1.871  -2.220   0.853  1.00  0.00     0.028 A 
ATOM     15  C   UNL     1      -0.938  -1.402   2.888  1.00  0.00     0.028 A 
ATOM     16  C   UNL     1      -3.071  -1.554   1.130  1.00  0.00     0.028 A 
ATOM     17  C   UNL     1      -2.143  -0.758   3.184  1.00  0.00     0.028 A 
BRANCH  13  18
ATOM     18  N   UNL     1       0.475  -2.664   1.403  1.00  0.00    -0.369 N 
ATOM     19  C   UNL     1       1.116  -2.661   0.071  1.00  0.00     0.082 C 
ATOM     20  C   UNL     1       0.768  -3.960  -0.677  1.00  0.00     0.025 C 
ATOM     21  C   UNL     1       1.085  -5.193   0.174  1.00  0.00     0.004 C 
ATOM     22  C   UNL     1       0.869  -3.788   2.262  1.00  0.00     0.117 C 
ATOM     23  C   UNL     1       0.478  -5.098   1.576  1.00  0.00     0.021 C 
BRANCH  19  24
ATOM     24  C   UNL     1       0.861  -1.411  -0.786  1.00  0.00     0.021 C 
ATOM     25  C   UNL     1       1.433  -0.138  -0.174  1.00  0.00     0.006 C 
ENDBRANCH  19  24
ENDBRANCH  13  18
ENDBRANCH   9  12
ENDBRANCH   7   8
ENDBRANCH   6   7
ENDBRANCH   3   6
ENDBRANCH   1   2
BRANCH   1  26
ATOM     26  C   UNL     1      -2.933   3.274   3.574  1.00  0.00     0.042 C 
BRANCH  26  27
ATOM     27  C   UNL     1      -1.894   2.736   4.550  1.00  0.00     0.118 C 
BRANCH  27  28
ATOM     28  N   UNL     1      -0.908   3.721   4.949  1.00  0.00    -0.352 N 
ATOM     29  C   UNL     1      -0.492   4.075   6.211  1.00  0.00     0.251 C 
ATOM     30  H   UNL     1      -0.475   4.207   4.210  1.00  0.00     0.163 HD
ATOM     31  O   UNL     1       0.294   5.005   6.347  1.00  0.00    -0.269 OA
BRANCH  29  32
ATOM     32  C   UNL     1      -1.007   3.362   7.405  1.00  0.00     0.039 A 
ATOM     33  C   UNL     1      -1.423   4.124   8.500  1.00  0.00     0.014 A 
ATOM     34  C   UNL     1      -1.041   1.965   7.479  1.00  0.00     0.014 A 
ATOM     35  C   UNL     1      -1.887   3.490   9.656  1.00  0.00     0.010 A 
ATOM     36  C   UNL     1      -1.571   1.335   8.609  1.00  0.00     0.010 A 
ATOM     37  C   UNL     1      -1.974   2.088   9.723  1.00  0.00    -0.014 A 
BRANCH  37  38
ATOM     38  C   UNL     1      -2.428   1.429  10.980  1.00  0.00     0.031 A 
ATOM     39  C   UNL     1      -1.475   0.577  11.782  1.00  0.00     0.074 A 
ATOM     40  C   UNL     1      -3.688   1.615  11.424  1.00  0.00     0.049 A 
ATOM     41  N   UNL     1      -1.659   0.006  12.947  1.00  0.00    -0.248 NA
ATOM     42  C   UNL     1      -0.151   0.317  11.194  1.00  0.00     0.031 C 
ATOM     43  C   UNL     1      -4.726   2.380  10.728  1.00  0.00     0.029 A 
ATOM     44  N   UNL     1      -4.307   1.192  12.575  1.00  0.00    -0.354 N 
ATOM     45  C   UNL     1      -0.480  -0.678  13.226  1.00  0.00     0.074 A 
ATOM     46  C   UNL     1       0.387  -0.505  12.082  1.00  0.00     0.031 C 
ATOM     47  C   UNL     1      -5.833   2.411  11.487  1.00  0.00     0.029 A 
ATOM     48  C   UNL     1      -5.599   1.646  12.709  1.00  0.00     0.049 A 
ATOM     49  H   UNL     1      -3.867   0.618  13.243  1.00  0.00     0.167 HD
ATOM     50  C   UNL     1      -0.133  -1.364  14.343  1.00  0.00     0.031 A 
ATOM     51  C   UNL     1      -6.492   1.480  13.706  1.00  0.00     0.031 A 
ATOM     52  C   UNL     1      -0.993  -1.534  15.485  1.00  0.00     0.049 A 
ATOM     53  C   UNL     1      -6.086   0.711  14.936  1.00  0.00     0.074 A 
ATOM     54  C   UNL     1      -0.716  -2.172  16.683  1.00  0.00     0.029 A 
ATOM     55  N   UNL     1      -2.296  -1.069  15.573  1.00  0.00    -0.354 N 
ATOM     56  N   UNL     1      -4.939   0.138  15.211  1.00  0.00    -0.248 NA
ATOM     57  C   UNL     1      -7.092   0.588  16.001  1.00  0.00     0.031 C 
ATOM     58  C   UNL     1      -1.872  -2.143  17.471  1.00  0.00     0.029 A 
ATOM     59  C   UNL     1      -2.845  -1.426  16.794  1.00  0.00     0.049 A 
ATOM     60  H   UNL     1      -2.762  -0.559  14.871  1.00  0.00     0.167 HD
ATOM     61  C   UNL     1      -5.074  -0.386  16.493  1.00  0.00     0.074 A 
ATOM     62  C   UNL     1      -6.407  -0.043  16.945  1.00  0.00     0.031 C 
ATOM     63  C   UNL     1      -4.176  -1.086  17.231  1.00  0.00     0.031 A 
BRANCH  50  64
ATOM     64  C   UNL     1       1.239  -1.990  14.379  1.00  0.00    -0.014 A 
ATOM     65  C   UNL     1       2.401  -1.196  14.438  1.00  0.00     0.010 A 
ATOM     66  C   UNL     1       1.371  -3.390  14.392  1.00  0.00     0.010 A 
ATOM     67  C   UNL     1       3.666  -1.790  14.460  1.00  0.00     0.020 A 
ATOM     68  C   UNL     1       2.633  -3.989  14.447  1.00  0.00     0.020 A 
ATOM     69  C   UNL     1       3.774  -3.184  14.462  1.00  0.00     0.054 A 
BRANCH  69  70
ATOM     70  S   UNL     1       5.428  -3.927  14.510  1.00  0.00     0.124 S 
ATOM     71  O   UNL     1       5.928  -3.635  13.168  1.00  0.00    -0.237 OA
ATOM     72  O   UNL     1       6.076  -3.194  15.594  1.00  0.00    -0.237 OA
ATOM     73  O   UNL     1       5.168  -5.338  14.784  1.00  0.00    -0.744 OA
ENDBRANCH  69  70
ENDBRANCH  50  64
BRANCH  51  74
ATOM     74  C   UNL     1      -7.853   2.079  13.597  1.00  0.00    -0.014 A 
ATOM     75  C   UNL     1      -8.242   3.143  14.431  1.00  0.00     0.010 A 
ATOM     76  C   UNL     1      -8.772   1.582  12.655  1.00  0.00     0.010 A 
ATOM     77  C   UNL     1      -9.529   3.682  14.341  1.00  0.00     0.020 A 
ATOM     78  C   UNL     1     -10.049   2.139  12.540  1.00  0.00     0.020 A 
ATOM     79  C   UNL     1     -10.424   3.178  13.393  1.00  0.00     0.054 A 
BRANCH  79  80
ATOM     80  S   UNL     1     -12.073   3.924  13.262  1.00  0.00     0.124 S 
ATOM     81  O   UNL     1     -12.722   3.443  14.478  1.00  0.00    -0.237 OA
ATOM     82  O   UNL     1     -11.771   5.353  13.228  1.00  0.00    -0.237 OA
ATOM     83  O   UNL     1     -12.598   3.376  12.014  1.00  0.00    -0.744 OA
ENDBRANCH  79  80
ENDBRANCH  51  74
BRANCH  63  84
ATOM     84  C   UNL     1      -4.590  -1.493  18.623  1.00  0.00    -0.014 A 
ATOM     85  C   UNL     1      -5.584  -2.463  18.842  1.00  0.00     0.010 A 
ATOM     86  C   UNL     1      -3.950  -0.909  19.733  1.00  0.00     0.010 A 
ATOM     87  C   UNL     1      -5.970  -2.800  20.142  1.00  0.00     0.020 A 
ATOM     88  C   UNL     1      -4.308  -1.269  21.034  1.00  0.00     0.020 A 
ATOM     89  C   UNL     1      -5.333  -2.196  21.231  1.00  0.00     0.054 A 
BRANCH  89  90
ATOM     90  S   UNL     1      -5.845  -2.656  22.909  1.00  0.00     0.124 S 
ATOM     91  O   UNL     1      -7.142  -1.994  23.022  1.00  0.00    -0.237 OA
ATOM     92  O   UNL     1      -5.888  -4.115  22.843  1.00  0.00    -0.237 OA
ATOM     93  O   UNL     1      -4.789  -2.107  23.757  1.00  0.00    -0.744 OA
ENDBRANCH  89  90
ENDBRANCH  63  84
ENDBRANCH  37  38
ENDBRANCH  29  32
ENDBRANCH  27  28
ENDBRANCH  26  27
ENDBRANCH   1  26
TORSDOF 18
