REMARK SMILES CN(Cc1ccncc1)C(=O)c1cccn1CC(=O)NCCCNC(=O)c1ccc(-c2c3nc(c(-c4ccc(S(=O)(=O)[O-])cc4)c4ccc([nH]4)c(-c4ccc(S(=O)(=O)[O-])cc4)c4nc(c(-c5ccc(S(=O)(=O)[O-])cc5)c5ccc2[nH]5)C=C4)C=C3)cc1
REMARK SMILES IDX 21 1 20 2 18 3 19 4 17 6 16 7 12 8 13 9 14 10 15 11 10 12
REMARK SMILES IDX 11 13 2 14 1 15 3 16 4 17 5 18 9 19 6 20 8 21 7 22 22 23
REMARK SMILES IDX 23 24 24 25 25 26 26 28 27 29 28 30 86 31 29 32 85 33 30 34
REMARK SMILES IDX 31 35 32 36 79 37 33 38 84 39 78 40 80 41 34 42 83 43 77 44
REMARK SMILES IDX 76 45 35 47 65 48 46 49 64 50 47 51 50 52 63 53 81 54 48 55
REMARK SMILES IDX 49 56 62 58 82 59 51 60 36 61 37 62 45 63 38 64 44 65 39 66
REMARK SMILES IDX 40 67 41 68 42 69 43 70 66 71 67 72 75 73 68 74 74 75 69 76
REMARK SMILES IDX 70 77 71 78 72 79 73 80 52 81 53 82 61 83 54 84 60 85 55 86
REMARK SMILES IDX 56 87 57 88 58 89 59 90
REMARK H PARENT 20 5 24 27 80 46 50 57
REMARK Flexibility Score: inf
ROOT
ATOM      1  C   UNL     1       2.789  -3.096   3.319  1.00  0.00     0.117 C 
ENDROOT
BRANCH   1   2
ATOM      2  N   UNL     1       3.270  -4.460   3.265  1.00  0.00    -0.354 N 
ATOM      3  C   UNL     1       3.118  -5.383   2.270  1.00  0.00     0.239 C 
ATOM      4  O   UNL     1       3.584  -6.510   2.442  1.00  0.00    -0.273 OA
ATOM      5  H   UNL     1       3.777  -4.764   4.053  1.00  0.00     0.163 HD
BRANCH   3   6
ATOM      6  C   UNL     1       2.448  -4.996   0.971  1.00  0.00     0.222 C 
BRANCH   6   7
ATOM      7  N   UNL     1       0.996  -4.891   1.054  1.00  0.00    -0.334 N 
ATOM      8  C   UNL     1       0.209  -3.868   0.545  1.00  0.00     0.107 A 
ATOM      9  C   UNL     1      -1.083  -4.373   0.500  1.00  0.00     0.033 A 
ATOM     10  C   UNL     1      -1.108  -5.610   1.179  1.00  0.00     0.020 A 
ATOM     11  C   UNL     1       0.187  -5.896   1.534  1.00  0.00     0.087 A 
BRANCH   8  12
ATOM     12  C   UNL     1       0.684  -2.601   0.015  1.00  0.00     0.270 C 
ATOM     13  O   UNL     1       1.583  -2.565  -0.821  1.00  0.00    -0.267 OA
BRANCH  12  14
ATOM     14  N   UNL     1       0.118  -1.409   0.507  1.00  0.00    -0.336 N 
ATOM     15  C   UNL     1       0.599  -0.178  -0.096  1.00  0.00     0.147 C 
BRANCH  14  16
ATOM     16  C   UNL     1      -0.547  -1.290   1.806  1.00  0.00     0.155 C 
BRANCH  16  17
ATOM     17  C   UNL     1      -2.026  -1.569   1.831  1.00  0.00    -0.026 A 
ATOM     18  C   UNL     1      -2.942  -0.794   1.122  1.00  0.00     0.025 A 
ATOM     19  C   UNL     1      -2.517  -2.632   2.603  1.00  0.00     0.025 A 
ATOM     20  C   UNL     1      -4.283  -1.151   1.168  1.00  0.00     0.111 A 
ATOM     21  C   UNL     1      -3.867  -2.932   2.556  1.00  0.00     0.111 A 
ATOM     22  N   UNL     1      -4.763  -2.212   1.853  1.00  0.00    -0.265 NA
ENDBRANCH  16  17
ENDBRANCH  14  16
ENDBRANCH  12  14
ENDBRANCH   8  12
ENDBRANCH   6   7
ENDBRANCH   3   6
ENDBRANCH   1   2
BRANCH   1  23
ATOM     23  C   UNL     1       1.613  -2.946   4.285  1.00  0.00     0.042 C 
BRANCH  23  24
ATOM     24  C   UNL     1       2.038  -2.990   5.746  1.00  0.00     0.118 C 
BRANCH  24  25
ATOM     25  N   UNL     1       2.775  -1.780   6.083  1.00  0.00    -0.352 N 
ATOM     26  C   UNL     1       3.195  -1.301   7.294  1.00  0.00     0.251 C 
ATOM     27  H   UNL     1       3.009  -1.213   5.313  1.00  0.00     0.163 HD
ATOM     28  O   UNL     1       3.507  -0.115   7.370  1.00  0.00    -0.269 OA
BRANCH  26  29
ATOM     29  C   UNL     1       3.255  -2.159   8.496  1.00  0.00     0.039 A 
ATOM     30  C   UNL     1       2.998  -1.553   9.733  1.00  0.00     0.014 A 
ATOM     31  C   UNL     1       3.621  -3.508   8.440  1.00  0.00     0.014 A 
ATOM     32  C   UNL     1       3.041  -2.310  10.899  1.00  0.00     0.010 A 
ATOM     33  C   UNL     1       3.639  -4.276   9.600  1.00  0.00     0.010 A 
ATOM     34  C   UNL     1       3.325  -3.680  10.825  1.00  0.00    -0.014 A 
BRANCH  34  35
ATOM     35  C   UNL     1       3.058  -4.528  12.008  1.00  0.00     0.031 A 
ATOM     36  C   UNL     1       1.546  -4.848  12.136  1.00  0.00     0.074 A 
ATOM     37  C   UNL     1       4.134  -4.870  12.784  1.00  0.00     0.049 A 
ATOM     38  N   UNL     1       0.860  -5.240  13.165  1.00  0.00    -0.248 NA
ATOM     39  C   UNL     1       0.651  -4.657  10.954  1.00  0.00     0.031 C 
ATOM     40  C   UNL     1       5.546  -4.527  12.482  1.00  0.00     0.029 A 
ATOM     41  N   UNL     1       4.279  -5.567  13.967  1.00  0.00    -0.354 N 
ATOM     42  C   UNL     1      -0.467  -5.496  12.736  1.00  0.00     0.074 A 
ATOM     43  C   UNL     1      -0.552  -5.048  11.382  1.00  0.00     0.031 C 
ATOM     44  C   UNL     1       6.373  -4.941  13.472  1.00  0.00     0.029 A 
ATOM     45  C   UNL     1       5.599  -5.603  14.503  1.00  0.00     0.049 A 
ATOM     46  H   UNL     1       3.521  -6.010  14.411  1.00  0.00     0.167 HD
ATOM     47  C   UNL     1      -1.392  -6.152  13.498  1.00  0.00     0.031 A 
ATOM     48  C   UNL     1       6.025  -6.098  15.709  1.00  0.00     0.031 A 
ATOM     49  C   UNL     1      -0.859  -6.405  14.789  1.00  0.00     0.049 A 
ATOM     50  C   UNL     1       4.849  -6.763  16.280  1.00  0.00     0.074 A 
ATOM     51  C   UNL     1      -0.604  -5.590  15.859  1.00  0.00     0.029 A 
ATOM     52  N   UNL     1      -0.190  -7.593  14.949  1.00  0.00    -0.354 N 
ATOM     53  N   UNL     1       4.384  -7.910  15.895  1.00  0.00    -0.248 NA
ATOM     54  C   UNL     1       4.107  -6.083  17.350  1.00  0.00     0.031 C 
ATOM     55  C   UNL     1       0.603  -6.106  16.371  1.00  0.00     0.029 A 
ATOM     56  C   UNL     1       0.899  -7.317  15.734  1.00  0.00     0.049 A 
ATOM     57  H   UNL     1      -0.443  -8.468  14.574  1.00  0.00     0.167 HD
ATOM     58  C   UNL     1       3.111  -7.886  16.397  1.00  0.00     0.074 A 
ATOM     59  C   UNL     1       3.124  -6.964  17.513  1.00  0.00     0.031 C 
ATOM     60  C   UNL     1       2.064  -8.149  15.576  1.00  0.00     0.031 A 
BRANCH  47  61
ATOM     61  C   UNL     1      -2.709  -6.808  13.171  1.00  0.00    -0.014 A 
ATOM     62  C   UNL     1      -3.534  -7.168  14.271  1.00  0.00     0.010 A 
ATOM     63  C   UNL     1      -2.997  -7.392  11.931  1.00  0.00     0.010 A 
ATOM     64  C   UNL     1      -4.497  -8.173  14.176  1.00  0.00     0.020 A 
ATOM     65  C   UNL     1      -3.996  -8.379  11.819  1.00  0.00     0.020 A 
ATOM     66  C   UNL     1      -4.697  -8.800  12.953  1.00  0.00     0.054 A 
BRANCH  66  67
ATOM     67  S   UNL     1      -5.824 -10.221  12.901  1.00  0.00     0.124 S 
ATOM     68  O   UNL     1      -5.077 -11.236  13.638  1.00  0.00    -0.237 OA
ATOM     69  O   UNL     1      -7.013  -9.707  13.578  1.00  0.00    -0.237 OA
ATOM     70  O   UNL     1      -5.991 -10.474  11.472  1.00  0.00    -0.744 OA
ENDBRANCH  66  67
ENDBRANCH  47  61
BRANCH  48  71
ATOM     71  C   UNL     1       7.242  -6.097  16.617  1.00  0.00    -0.014 A 
ATOM     72  C   UNL     1       8.498  -5.540  16.356  1.00  0.00     0.010 A 
ATOM     73  C   UNL     1       7.069  -6.609  17.941  1.00  0.00     0.010 A 
ATOM     74  C   UNL     1       9.452  -5.370  17.397  1.00  0.00     0.020 A 
ATOM     75  C   UNL     1       7.971  -6.399  18.985  1.00  0.00     0.020 A 
ATOM     76  C   UNL     1       9.157  -5.748  18.714  1.00  0.00     0.054 A 
BRANCH  76  77
ATOM     77  S   UNL     1      10.227  -5.278  20.107  1.00  0.00     0.124 S 
ATOM     78  O   UNL     1      11.212  -6.354  20.128  1.00  0.00    -0.237 OA
ATOM     79  O   UNL     1      10.729  -3.968  19.701  1.00  0.00    -0.237 OA
ATOM     80  O   UNL     1       9.309  -5.250  21.246  1.00  0.00    -0.744 OA
ENDBRANCH  76  77
ENDBRANCH  48  71
BRANCH  60  81
ATOM     81  C   UNL     1       2.384  -8.999  14.355  1.00  0.00    -0.014 A 
ATOM     82  C   UNL     1       2.839 -10.317  14.539  1.00  0.00     0.010 A 
ATOM     83  C   UNL     1       2.316  -8.516  13.031  1.00  0.00     0.010 A 
ATOM     84  C   UNL     1       3.200 -11.127  13.452  1.00  0.00     0.020 A 
ATOM     85  C   UNL     1       2.676  -9.321  11.932  1.00  0.00     0.020 A 
ATOM     86  C   UNL     1       3.111 -10.628  12.152  1.00  0.00     0.054 A 
BRANCH  86  87
ATOM     87  S   UNL     1       3.573 -11.716  10.770  1.00  0.00     0.124 S 
ATOM     88  O   UNL     1       4.961 -12.057  11.076  1.00  0.00    -0.237 OA
ATOM     89  O   UNL     1       2.619 -12.814  10.902  1.00  0.00    -0.237 OA
ATOM     90  O   UNL     1       3.393 -10.877   9.586  1.00  0.00    -0.744 OA
ENDBRANCH  86  87
ENDBRANCH  60  81
ENDBRANCH  34  35
ENDBRANCH  26  29
ENDBRANCH  24  25
ENDBRANCH  23  24
ENDBRANCH   1  23
TORSDOF 18
