REMARK SMILES O=C(NCCCNC(=O)[C@]12C[NH2+]C[C@H]1CN(C(=O)c1ccccc1-n1cncn1)C2)c1ccc(-c2c3nc(c(-c4ccc(S(=O)(=O)[O-])cc4)c4ccc([nH]4)c(-c4ccc(S(=O)(=O)[O-])cc4)c4nc(c(-c5ccc(S(=O)(=O)[O-])cc5)c5ccc2[nH]5)C=C4)C=C3)cc1
REMARK SMILES IDX 5 1 4 2 3 3 1 4 2 5 31 7 32 8 90 9 33 10 89 11 34 12 35 13
REMARK SMILES IDX 36 14 83 15 37 16 88 17 82 18 84 19 38 20 87 21 81 22 80 23
REMARK SMILES IDX 39 25 69 26 50 27 68 28 51 29 54 30 67 31 85 32 52 33 53 34
REMARK SMILES IDX 66 36 86 37 55 38 40 39 41 40 49 41 42 42 48 43 43 44 44 45
REMARK SMILES IDX 45 46 46 47 47 48 70 49 71 50 79 51 72 52 78 53 73 54 74 55
REMARK SMILES IDX 75 56 76 57 77 58 56 59 57 60 65 61 58 62 64 63 59 64 60 65
REMARK SMILES IDX 61 66 62 67 63 68 6 69 7 70 8 71 9 73 10 74 11 75 14 76
REMARK SMILES IDX 30 77 12 78 13 79 15 80 16 81 17 84 18 85 19 86 20 87 24 88
REMARK SMILES IDX 21 89 23 90 22 91 25 92 26 93 29 94 27 95 28 96
REMARK H PARENT 3 6 84 24 54 35 7 72 12 82 12 83
REMARK Flexibility Score: inf
ROOT
ATOM      1  C   UNL     1       5.069  -1.190  -1.435  1.00  0.00     0.042 C 
ENDROOT
BRANCH   1   2
ATOM      2  C   UNL     1       4.819   0.255  -1.008  1.00  0.00     0.118 C 
BRANCH   2   3
ATOM      3  N   UNL     1       3.425   0.649  -1.037  1.00  0.00    -0.352 N 
ATOM      4  O   UNL     1       1.306   0.991  -0.517  1.00  0.00    -0.269 OA
ATOM      5  C   UNL     1       2.361   0.430  -0.210  1.00  0.00     0.251 C 
ATOM      6  H   UNL     1       3.195   1.194  -1.824  1.00  0.00     0.163 HD
BRANCH   5   7
ATOM      7  C   UNL     1       2.380  -0.499   0.948  1.00  0.00     0.039 A 
ATOM      8  C   UNL     1       3.522  -1.081   1.505  1.00  0.00     0.014 A 
ATOM      9  C   UNL     1       1.120  -0.853   1.458  1.00  0.00     0.014 A 
ATOM     10  C   UNL     1       3.411  -2.110   2.428  1.00  0.00     0.010 A 
ATOM     11  C   UNL     1       1.003  -1.846   2.413  1.00  0.00     0.010 A 
ATOM     12  C   UNL     1       2.148  -2.514   2.844  1.00  0.00    -0.014 A 
BRANCH  12  13
ATOM     13  C   UNL     1       2.050  -3.566   3.844  1.00  0.00     0.031 A 
ATOM     14  C   UNL     1       2.547  -3.184   5.201  1.00  0.00     0.074 A 
ATOM     15  C   UNL     1       1.369  -4.699   3.579  1.00  0.00     0.049 A 
ATOM     16  N   UNL     1       3.402  -3.794   5.958  1.00  0.00    -0.248 NA
ATOM     17  C   UNL     1       2.107  -1.881   5.736  1.00  0.00     0.031 C 
ATOM     18  C   UNL     1       0.607  -5.022   2.366  1.00  0.00     0.029 A 
ATOM     19  N   UNL     1       1.071  -5.734   4.405  1.00  0.00    -0.354 N 
ATOM     20  C   UNL     1       3.462  -3.056   7.141  1.00  0.00     0.074 A 
ATOM     21  C   UNL     1       2.768  -1.820   6.890  1.00  0.00     0.031 C 
ATOM     22  C   UNL     1      -0.275  -6.006   2.647  1.00  0.00     0.029 A 
ATOM     23  C   UNL     1      -0.046  -6.464   4.007  1.00  0.00     0.049 A 
ATOM     24  H   UNL     1       1.595  -5.949   5.211  1.00  0.00     0.167 HD
ATOM     25  C   UNL     1       3.881  -3.588   8.323  1.00  0.00     0.031 A 
ATOM     26  C   UNL     1      -0.793  -7.292   4.782  1.00  0.00     0.031 A 
ATOM     27  C   UNL     1       4.624  -4.801   8.142  1.00  0.00     0.049 A 
ATOM     28  C   UNL     1       0.028  -7.636   5.971  1.00  0.00     0.074 A 
ATOM     29  C   UNL     1       5.813  -5.127   7.522  1.00  0.00     0.029 A 
ATOM     30  N   UNL     1       3.955  -5.989   8.320  1.00  0.00    -0.354 N 
ATOM     31  N   UNL     1       1.142  -8.312   5.899  1.00  0.00    -0.248 NA
ATOM     32  C   UNL     1      -0.126  -6.816   7.164  1.00  0.00     0.031 C 
ATOM     33  C   UNL     1       5.569  -6.391   6.911  1.00  0.00     0.029 A 
ATOM     34  C   UNL     1       4.274  -6.788   7.251  1.00  0.00     0.049 A 
ATOM     35  H   UNL     1       3.362  -6.221   9.071  1.00  0.00     0.167 HD
ATOM     36  C   UNL     1       1.997  -7.692   6.800  1.00  0.00     0.074 A 
ATOM     37  C   UNL     1       1.134  -6.829   7.608  1.00  0.00     0.031 C 
ATOM     38  C   UNL     1       3.352  -7.714   6.628  1.00  0.00     0.031 A 
BRANCH  25  39
ATOM     39  C   UNL     1       3.279  -3.202   9.652  1.00  0.00    -0.014 A 
ATOM     40  C   UNL     1       3.843  -3.703  10.841  1.00  0.00     0.010 A 
ATOM     41  C   UNL     1       2.008  -2.595   9.750  1.00  0.00     0.010 A 
ATOM     42  C   UNL     1       3.139  -3.654  12.054  1.00  0.00     0.020 A 
ATOM     43  C   UNL     1       1.318  -2.502  10.959  1.00  0.00     0.020 A 
ATOM     44  C   UNL     1       1.873  -3.066  12.099  1.00  0.00     0.054 A 
BRANCH  44  45
ATOM     45  S   UNL     1       0.921  -3.119  13.637  1.00  0.00     0.124 S 
ATOM     46  O   UNL     1       0.682  -4.551  13.793  1.00  0.00    -0.237 OA
ATOM     47  O   UNL     1       1.847  -2.522  14.595  1.00  0.00    -0.237 OA
ATOM     48  O   UNL     1      -0.261  -2.315  13.335  1.00  0.00    -0.744 OA
ENDBRANCH  44  45
ENDBRANCH  25  39
BRANCH  26  49
ATOM     49  C   UNL     1      -2.275  -7.436   4.748  1.00  0.00    -0.014 A 
ATOM     50  C   UNL     1      -2.931  -8.505   5.385  1.00  0.00     0.010 A 
ATOM     51  C   UNL     1      -3.072  -6.363   4.295  1.00  0.00     0.010 A 
ATOM     52  C   UNL     1      -4.324  -8.479   5.595  1.00  0.00     0.020 A 
ATOM     53  C   UNL     1      -4.457  -6.332   4.494  1.00  0.00     0.020 A 
ATOM     54  C   UNL     1      -5.076  -7.383   5.161  1.00  0.00     0.054 A 
BRANCH  54  55
ATOM     55  S   UNL     1      -6.845  -7.279   5.571  1.00  0.00     0.124 S 
ATOM     56  O   UNL     1      -7.421  -8.329   4.736  1.00  0.00    -0.237 OA
ATOM     57  O   UNL     1      -6.855  -7.537   7.008  1.00  0.00    -0.237 OA
ATOM     58  O   UNL     1      -7.208  -5.915   5.188  1.00  0.00    -0.744 OA
ENDBRANCH  54  55
ENDBRANCH  26  49
BRANCH  38  59
ATOM     59  C   UNL     1       3.924  -8.586   5.530  1.00  0.00    -0.014 A 
ATOM     60  C   UNL     1       3.671  -8.370   4.159  1.00  0.00     0.010 A 
ATOM     61  C   UNL     1       4.890  -9.540   5.888  1.00  0.00     0.010 A 
ATOM     62  C   UNL     1       4.354  -9.104   3.176  1.00  0.00     0.020 A 
ATOM     63  C   UNL     1       5.585 -10.263   4.914  1.00  0.00     0.020 A 
ATOM     64  C   UNL     1       5.311 -10.046   3.562  1.00  0.00     0.054 A 
BRANCH  64  65
ATOM     65  S   UNL     1       6.238 -10.949   2.289  1.00  0.00     0.124 S 
ATOM     66  O   UNL     1       5.215 -11.807   1.698  1.00  0.00    -0.237 OA
ATOM     67  O   UNL     1       6.735  -9.878   1.428  1.00  0.00    -0.237 OA
ATOM     68  O   UNL     1       7.273 -11.653   3.046  1.00  0.00    -0.744 OA
ENDBRANCH  64  65
ENDBRANCH  38  59
ENDBRANCH  12  13
ENDBRANCH   5   7
ENDBRANCH   2   3
ENDBRANCH   1   2
BRANCH   1  69
ATOM     69  C   UNL     1       4.500  -1.497  -2.806  1.00  0.00     0.117 C 
BRANCH  69  70
ATOM     70  N   UNL     1       5.040  -0.598  -3.810  1.00  0.00    -0.355 N 
ATOM     71  C   UNL     1       5.768  -0.948  -4.917  1.00  0.00     0.234 C 
ATOM     72  H   UNL     1       4.864   0.362  -3.683  1.00  0.00     0.163 HD
ATOM     73  O   UNL     1       6.033  -0.082  -5.750  1.00  0.00    -0.274 OA
BRANCH  71  74
ATOM     74  C   UNL     1       6.106  -2.446  -5.023  1.00  0.00     0.125 C 
ATOM     75  C   UNL     1       7.628  -2.022  -5.161  1.00  0.00     0.280 C 
ATOM     76  C   UNL     1       6.483  -3.812  -5.681  1.00  0.00     0.087 C 
ATOM     77  C   UNL     1       4.764  -2.492  -5.932  1.00  0.00     0.143 C 
ATOM     78  N   UNL     1       8.466  -3.142  -4.685  1.00  0.00    -0.345 N 
ATOM     79  C   UNL     1       7.753  -4.346  -5.068  1.00  0.00     0.267 C 
ATOM     80  C   UNL     1       5.292  -4.726  -5.461  1.00  0.00     0.130 C 
ATOM     81  N   UNL     1       4.199  -3.811  -5.637  1.00  0.00    -0.337 N 
ATOM     82  H   UNL     1       8.577  -3.099  -3.672  1.00  0.00     0.346 HD
ATOM     83  H   UNL     1       9.404  -3.111  -5.087  1.00  0.00     0.346 HD
BRANCH  81  84
ATOM     84  C   UNL     1       2.915  -4.165  -5.264  1.00  0.00     0.256 C 
ATOM     85  O   UNL     1       2.633  -5.285  -4.832  1.00  0.00    -0.269 OA
BRANCH  84  86
ATOM     86  C   UNL     1       1.808  -3.185  -5.373  1.00  0.00     0.065 A 
ATOM     87  C   UNL     1       1.077  -2.923  -4.201  1.00  0.00     0.016 A 
ATOM     88  C   UNL     1       1.497  -2.485  -6.548  1.00  0.00     0.079 A 
ATOM     89  C   UNL     1       0.080  -1.946  -4.191  1.00  0.00     0.001 A 
ATOM     90  C   UNL     1       0.529  -1.466  -6.518  1.00  0.00     0.029 A 
ATOM     91  C   UNL     1      -0.186  -1.211  -5.345  1.00  0.00     0.002 A 
BRANCH  88  92
ATOM     92  N   UNL     1       2.138  -2.767  -7.773  1.00  0.00    -0.220 N 
ATOM     93  C   UNL     1       2.631  -3.958  -8.252  1.00  0.00     0.225 A 
ATOM     94  N   UNL     1       2.426  -1.779  -8.658  1.00  0.00    -0.155 NA
ATOM     95  N   UNL     1       3.355  -3.752  -9.329  1.00  0.00    -0.223 NA
ATOM     96  C   UNL     1       3.228  -2.410  -9.517  1.00  0.00     0.246 A 
ENDBRANCH  88  92
ENDBRANCH  84  86
ENDBRANCH  81  84
ENDBRANCH  71  74
ENDBRANCH  69  70
ENDBRANCH   1  69
TORSDOF 16
