REMARK SMILES CC(C)C[C@H](C(=O)NCCCNC(=O)c1ccc(-c2c3nc(c(-c4ccc(S(=O)(=O)[O-])cc4)c4ccc([nH]4)c(-c4ccc(S(=O)(=O)[O-])cc4)c4nc(c(-c5ccc(S(=O)(=O)[O-])cc5)c5ccc2[nH]5)C=C4)C=C3)cc1)N1C(=O)/C(=C2\C(=O)Nc3ccc(Br)cc32)SC1=S
REMARK SMILES IDX 10 1 9 2 8 3 6 4 7 5 5 7 4 8 2 9 1 10 3 11 75 12 76 13 91 14
REMARK SMILES IDX 77 15 78 16 90 17 92 18 79 19 80 20 89 21 81 22 82 23 83 24
REMARK SMILES IDX 88 25 84 27 86 28 85 29 87 30 11 31 12 32 13 33 14 35 15 36
REMARK SMILES IDX 16 37 74 38 17 39 73 40 18 41 19 42 20 43 67 44 21 45 72 46
REMARK SMILES IDX 66 47 68 48 22 49 71 50 65 51 64 52 23 54 53 55 34 56 52 57
REMARK SMILES IDX 35 58 38 59 51 60 69 61 36 62 37 63 50 65 70 66 39 67 24 68
REMARK SMILES IDX 25 69 33 70 26 71 32 72 27 73 28 74 29 75 30 76 31 77 54 78
REMARK SMILES IDX 55 79 63 80 56 81 62 82 57 83 58 84 59 85 60 86 61 87 40 88
REMARK SMILES IDX 41 89 49 90 42 91 48 92 43 93 44 94 45 95 46 96 47 97
REMARK H PARENT 8 6 82 26 12 34 68 53 38 64
REMARK Flexibility Score: inf
ROOT
ATOM      1  C   UNL     1      -2.049   2.428   0.739  1.00  0.00     0.042 C 
ENDROOT
BRANCH   1   2
ATOM      2  C   UNL     1      -0.950   1.376   0.573  1.00  0.00     0.117 C 
BRANCH   2   3
ATOM      3  N   UNL     1      -1.288   0.174   1.322  1.00  0.00    -0.354 N 
ATOM      4  C   UNL     1      -2.099  -0.863   0.935  1.00  0.00     0.243 C 
ATOM      5  O   UNL     1      -2.790  -1.377   1.812  1.00  0.00    -0.273 OA
ATOM      6  H   UNL     1      -0.885   0.095   2.217  1.00  0.00     0.163 HD
BRANCH   4   7
ATOM      7  C   UNL     1      -2.068  -1.363  -0.525  1.00  0.00     0.181 C 
BRANCH   7   8
ATOM      8  C   UNL     1      -1.228  -2.660  -0.740  1.00  0.00     0.038 C 
BRANCH   8   9
ATOM      9  C   UNL     1      -0.743  -3.494   0.472  1.00  0.00    -0.015 C 
ATOM     10  C   UNL     1      -1.817  -4.395   1.082  1.00  0.00     0.007 C 
ATOM     11  C   UNL     1       0.422  -4.393   0.029  1.00  0.00     0.007 C 
ENDBRANCH   8   9
ENDBRANCH   7   8
BRANCH   7  12
ATOM     12  N   UNL     1      -3.402  -1.401  -1.172  1.00  0.00    -0.280 N 
ATOM     13  C   UNL     1      -4.249  -2.476  -0.981  1.00  0.00     0.267 C 
ATOM     14  C   UNL     1      -3.930  -0.391  -1.954  1.00  0.00     0.149 C 
ATOM     15  O   UNL     1      -4.222  -3.275  -0.064  1.00  0.00    -0.268 OA
ATOM     16  C   UNL     1      -5.328  -2.461  -2.005  1.00  0.00     0.093 C 
ATOM     17  S   UNL     1      -5.554  -0.825  -2.479  1.00  0.00    -0.053 SA
ATOM     18  S   UNL     1      -3.226   1.028  -2.473  1.00  0.00    -0.052 S 
ATOM     19  C   UNL     1      -5.927  -3.540  -2.524  1.00  0.00     0.069 C 
ATOM     20  C   UNL     1      -5.469  -4.952  -2.238  1.00  0.00     0.257 C 
ATOM     21  C   UNL     1      -7.055  -3.655  -3.468  1.00  0.00     0.013 A 
ATOM     22  O   UNL     1      -4.431  -5.335  -1.740  1.00  0.00    -0.269 OA
ATOM     23  N   UNL     1      -6.410  -5.767  -2.843  1.00  0.00    -0.321 N 
ATOM     24  C   UNL     1      -7.325  -5.026  -3.577  1.00  0.00     0.049 A 
ATOM     25  C   UNL     1      -7.808  -2.753  -4.202  1.00  0.00     0.026 A 
ATOM     26  H   UNL     1      -6.428  -6.748  -2.762  1.00  0.00     0.170 HD
ATOM     27  C   UNL     1      -8.336  -5.538  -4.366  1.00  0.00     0.028 A 
ATOM     28  C   UNL     1      -8.826  -3.254  -5.023  1.00  0.00     0.018 A 
ATOM     29  C   UNL     1      -9.098  -4.630  -5.099  1.00  0.00     0.018 A 
ATOM     30  Br  UNL     1      -9.845  -2.053  -6.072  1.00  0.00    -0.051 Br
ENDBRANCH   7  12
ENDBRANCH   4   7
ENDBRANCH   2   3
ENDBRANCH   1   2
BRANCH   1  31
ATOM     31  C   UNL     1      -2.021   3.119   2.099  1.00  0.00     0.118 C 
BRANCH  31  32
ATOM     32  N   UNL     1      -0.977   4.129   2.171  1.00  0.00    -0.352 N 
ATOM     33  C   UNL     1      -1.072   5.478   2.412  1.00  0.00     0.251 C 
ATOM     34  H   UNL     1      -0.062   3.795   2.024  1.00  0.00     0.163 HD
ATOM     35  O   UNL     1      -0.091   6.189   2.204  1.00  0.00    -0.269 OA
BRANCH  33  36
ATOM     36  C   UNL     1      -2.334   6.084   2.902  1.00  0.00     0.039 A 
ATOM     37  C   UNL     1      -2.703   7.344   2.421  1.00  0.00     0.014 A 
ATOM     38  C   UNL     1      -3.126   5.455   3.868  1.00  0.00     0.014 A 
ATOM     39  C   UNL     1      -3.881   7.949   2.871  1.00  0.00     0.010 A 
ATOM     40  C   UNL     1      -4.338   6.025   4.260  1.00  0.00     0.010 A 
ATOM     41  C   UNL     1      -4.724   7.284   3.776  1.00  0.00    -0.014 A 
BRANCH  41  42
ATOM     42  C   UNL     1      -5.999   7.901   4.232  1.00  0.00     0.031 A 
ATOM     43  C   UNL     1      -6.198   8.261   5.682  1.00  0.00     0.074 A 
ATOM     44  C   UNL     1      -6.998   8.103   3.349  1.00  0.00     0.049 A 
ATOM     45  N   UNL     1      -7.251   8.776   6.267  1.00  0.00    -0.248 NA
ATOM     46  C   UNL     1      -5.079   7.987   6.598  1.00  0.00     0.031 C 
ATOM     47  C   UNL     1      -6.954   7.758   1.926  1.00  0.00     0.029 A 
ATOM     48  N   UNL     1      -8.248   8.646   3.520  1.00  0.00    -0.354 N 
ATOM     49  C   UNL     1      -6.926   8.875   7.615  1.00  0.00     0.074 A 
ATOM     50  C   UNL     1      -5.599   8.319   7.770  1.00  0.00     0.031 C 
ATOM     51  C   UNL     1      -8.112   8.120   1.350  1.00  0.00     0.029 A 
ATOM     52  C   UNL     1      -8.993   8.690   2.365  1.00  0.00     0.049 A 
ATOM     53  H   UNL     1      -8.579   8.972   4.387  1.00  0.00     0.167 HD
ATOM     54  C   UNL     1      -7.654   9.399   8.632  1.00  0.00     0.031 A 
ATOM     55  C   UNL     1     -10.245   9.136   2.143  1.00  0.00     0.031 A 
ATOM     56  C   UNL     1      -8.969   9.963   8.479  1.00  0.00     0.049 A 
ATOM     57  C   UNL     1     -11.029   9.724   3.284  1.00  0.00     0.074 A 
ATOM     58  C   UNL     1      -9.769  10.556   9.441  1.00  0.00     0.029 A 
ATOM     59  N   UNL     1      -9.678  10.009   7.288  1.00  0.00    -0.354 N 
ATOM     60  N   UNL     1     -10.681   9.857   4.541  1.00  0.00    -0.248 NA
ATOM     61  C   UNL     1     -12.370  10.239   2.970  1.00  0.00     0.031 C 
ATOM     62  C   UNL     1     -10.977  10.926   8.839  1.00  0.00     0.029 A 
ATOM     63  C   UNL     1     -10.909  10.609   7.492  1.00  0.00     0.049 A 
ATOM     64  H   UNL     1      -9.353   9.665   6.425  1.00  0.00     0.167 HD
ATOM     65  C   UNL     1     -11.752  10.489   5.165  1.00  0.00     0.074 A 
ATOM     66  C   UNL     1     -12.749  10.729   4.142  1.00  0.00     0.031 C 
ATOM     67  C   UNL     1     -11.895  10.838   6.467  1.00  0.00     0.031 A 
BRANCH  54  68
ATOM     68  C   UNL     1      -7.033   9.390  10.005  1.00  0.00    -0.014 A 
ATOM     69  C   UNL     1      -5.950  10.234  10.313  1.00  0.00     0.010 A 
ATOM     70  C   UNL     1      -7.556   8.555  11.008  1.00  0.00     0.010 A 
ATOM     71  C   UNL     1      -5.373  10.210  11.585  1.00  0.00     0.020 A 
ATOM     72  C   UNL     1      -6.999   8.548  12.291  1.00  0.00     0.020 A 
ATOM     73  C   UNL     1      -5.897   9.362  12.565  1.00  0.00     0.054 A 
BRANCH  73  74
ATOM     74  S   UNL     1      -5.138   9.362  14.212  1.00  0.00     0.124 S 
ATOM     75  O   UNL     1      -3.900   8.625  13.971  1.00  0.00    -0.237 OA
ATOM     76  O   UNL     1      -4.974  10.787  14.492  1.00  0.00    -0.237 OA
ATOM     77  O   UNL     1      -6.120   8.675  15.047  1.00  0.00    -0.744 OA
ENDBRANCH  73  74
ENDBRANCH  54  68
BRANCH  55  78
ATOM     78  C   UNL     1     -10.828   9.059   0.776  1.00  0.00    -0.014 A 
ATOM     79  C   UNL     1     -11.009  10.223   0.009  1.00  0.00     0.010 A 
ATOM     80  C   UNL     1     -11.192   7.815   0.230  1.00  0.00     0.010 A 
ATOM     81  C   UNL     1     -11.562  10.147  -1.273  1.00  0.00     0.020 A 
ATOM     82  C   UNL     1     -11.721   7.732  -1.061  1.00  0.00     0.020 A 
ATOM     83  C   UNL     1     -11.914   8.901  -1.800  1.00  0.00     0.054 A 
BRANCH  83  84
ATOM     84  S   UNL     1     -12.581   8.818  -3.486  1.00  0.00     0.124 S 
ATOM     85  O   UNL     1     -13.950   9.287  -3.293  1.00  0.00    -0.237 OA
ATOM     86  O   UNL     1     -11.699   9.721  -4.221  1.00  0.00    -0.237 OA
ATOM     87  O   UNL     1     -12.445   7.406  -3.836  1.00  0.00    -0.744 OA
ENDBRANCH  83  84
ENDBRANCH  55  78
BRANCH  67  88
ATOM     88  C   UNL     1     -13.166  11.545   6.855  1.00  0.00    -0.014 A 
ATOM     89  C   UNL     1     -14.389  10.856   6.928  1.00  0.00     0.010 A 
ATOM     90  C   UNL     1     -13.127  12.911   7.189  1.00  0.00     0.010 A 
ATOM     91  C   UNL     1     -15.559  11.530   7.290  1.00  0.00     0.020 A 
ATOM     92  C   UNL     1     -14.289  13.582   7.576  1.00  0.00     0.020 A 
ATOM     93  C   UNL     1     -15.502  12.890   7.608  1.00  0.00     0.054 A 
BRANCH  93  94
ATOM     94  S   UNL     1     -17.027  13.738   8.104  1.00  0.00     0.124 S 
ATOM     95  O   UNL     1     -17.709  13.909   6.825  1.00  0.00    -0.237 OA
ATOM     96  O   UNL     1     -17.643  12.782   9.022  1.00  0.00    -0.237 OA
ATOM     97  O   UNL     1     -16.550  14.971   8.727  1.00  0.00    -0.744 OA
ENDBRANCH  93  94
ENDBRANCH  67  88
ENDBRANCH  41  42
ENDBRANCH  33  36
ENDBRANCH  31  32
ENDBRANCH   1  31
TORSDOF 16
