REMARK SMILES C[C@](NC(=O)[C@](C)([NH3+])C(F)(F)F)(C(=O)NCCCNC(=O)c1ccc(-c2c3nc(c(-c4ccc(S(=O)(=O)[O-])cc4)c4ccc([nH]4)c(-c4ccc(S(=O)(=O)[O-])cc4)c4nc(c(-c5ccc(S(=O)(=O)[O-])cc5)c5ccc2[nH]5)C=C4)C=C3)cc1)c1ccccc1
REMARK SMILES IDX 17 1 16 2 15 3 13 4 14 5 2 7 1 8 82 9 83 10 87 11 84 12
REMARK SMILES IDX 86 13 85 14 3 15 4 16 5 18 6 19 7 20 8 21 9 25 10 26 11 27
REMARK SMILES IDX 12 28 18 29 19 30 20 31 21 33 22 34 23 35 81 36 24 37 80 38
REMARK SMILES IDX 25 39 26 40 27 41 74 42 28 43 79 44 73 45 75 46 29 47 78 48
REMARK SMILES IDX 72 49 71 50 30 52 60 53 41 54 59 55 42 56 45 57 58 58 76 59
REMARK SMILES IDX 43 60 44 61 57 63 77 64 46 65 31 66 32 67 40 68 33 69 39 70
REMARK SMILES IDX 34 71 35 72 36 73 37 74 38 75 61 76 62 77 70 78 63 79 69 80
REMARK SMILES IDX 64 81 65 82 66 83 67 84 68 85 47 86 48 87 56 88 49 89 55 90
REMARK SMILES IDX 50 91 51 92 52 93 53 94 54 95
REMARK H PARENT 15 6 3 17 8 22 8 23 8 24 19 32 75 51 45 62
REMARK Flexibility Score: inf
ROOT
ATOM      1  C   UNL     1       5.393  -5.643   2.535  1.00  0.00     0.042 C 
ENDROOT
BRANCH   1   2
ATOM      2  C   UNL     1       5.615  -5.047   1.156  1.00  0.00     0.117 C 
BRANCH   2   3
ATOM      3  N   UNL     1       4.937  -5.809   0.113  1.00  0.00    -0.354 N 
ATOM      4  C   UNL     1       4.198  -5.400  -0.969  1.00  0.00     0.250 C 
ATOM      5  O   UNL     1       3.946  -6.266  -1.811  1.00  0.00    -0.272 OA
ATOM      6  H   UNL     1       5.024  -6.785   0.200  1.00  0.00     0.163 HD
BRANCH   4   7
ATOM      7  C   UNL     1       3.856  -3.874  -1.180  1.00  0.00     0.142 C 
ATOM      8  C   UNL     1       5.216  -3.248  -1.563  1.00  0.00     0.051 C 
BRANCH   7   9
ATOM      9  C   UNL     1       2.770  -3.727  -2.264  1.00  0.00    -0.013 A 
ATOM     10  C   UNL     1       3.075  -3.355  -3.585  1.00  0.00     0.007 A 
ATOM     11  C   UNL     1       1.410  -3.918  -1.938  1.00  0.00     0.007 A 
ATOM     12  C   UNL     1       2.062  -3.091  -4.510  1.00  0.00     0.000 A 
ATOM     13  C   UNL     1       0.399  -3.648  -2.862  1.00  0.00     0.000 A 
ATOM     14  C   UNL     1       0.726  -3.217  -4.143  1.00  0.00     0.000 A 
ENDBRANCH   7   9
BRANCH   7  15
ATOM     15  N   UNL     1       3.303  -3.382   0.114  1.00  0.00    -0.332 N 
ATOM     16  C   UNL     1       2.852  -2.220   0.647  1.00  0.00     0.291 C 
ATOM     17  H   UNL     1       3.250  -4.113   0.771  1.00  0.00     0.165 HD
ATOM     18  O   UNL     1       2.234  -2.370   1.710  1.00  0.00    -0.267 OA
BRANCH  16  19
ATOM     19  C   UNL     1       3.092  -0.809   0.083  1.00  0.00     0.267 C 
ATOM     20  C   UNL     1       2.058   0.174   0.672  1.00  0.00     0.100 C 
BRANCH  19  21
ATOM     21  N   UNL     1       2.829  -0.725  -1.387  1.00  0.00    -0.337 N 
ATOM     22  H   UNL     1       3.002   0.228  -1.709  1.00  0.00     0.345 HD
ATOM     23  H   UNL     1       1.858  -0.975  -1.573  1.00  0.00     0.345 HD
ATOM     24  H   UNL     1       3.448  -1.368  -1.880  1.00  0.00     0.345 HD
ENDBRANCH  19  21
BRANCH  19  25
ATOM     25  C   UNL     1       4.487  -0.388   0.608  1.00  0.00     0.453 C 
ATOM     26  F   UNL     1       4.891   0.778   0.045  1.00  0.00    -0.164 F 
ATOM     27  F   UNL     1       4.503  -0.206   1.947  1.00  0.00    -0.164 F 
ATOM     28  F   UNL     1       5.445  -1.300   0.325  1.00  0.00    -0.164 F 
ENDBRANCH  19  25
ENDBRANCH  16  19
ENDBRANCH   7  15
ENDBRANCH   4   7
ENDBRANCH   2   3
ENDBRANCH   1   2
BRANCH   1  29
ATOM     29  C   UNL     1       6.042  -7.006   2.723  1.00  0.00     0.118 C 
BRANCH  29  30
ATOM     30  N   UNL     1       7.494  -6.961   2.617  1.00  0.00    -0.352 N 
ATOM     31  C   UNL     1       8.451  -7.399   3.503  1.00  0.00     0.251 C 
ATOM     32  H   UNL     1       7.843  -6.558   1.789  1.00  0.00     0.163 HD
ATOM     33  O   UNL     1       9.627  -7.123   3.313  1.00  0.00    -0.269 OA
BRANCH  31  34
ATOM     34  C   UNL     1       8.045  -8.178   4.694  1.00  0.00     0.039 A 
ATOM     35  C   UNL     1       8.629  -7.879   5.926  1.00  0.00     0.014 A 
ATOM     36  C   UNL     1       7.078  -9.182   4.599  1.00  0.00     0.014 A 
ATOM     37  C   UNL     1       8.187  -8.540   7.073  1.00  0.00     0.010 A 
ATOM     38  C   UNL     1       6.570  -9.765   5.754  1.00  0.00     0.010 A 
ATOM     39  C   UNL     1       7.123  -9.456   7.004  1.00  0.00    -0.014 A 
BRANCH  39  40
ATOM     40  C   UNL     1       6.574 -10.085   8.233  1.00  0.00     0.031 A 
ATOM     41  C   UNL     1       6.620 -11.579   8.411  1.00  0.00     0.074 A 
ATOM     42  C   UNL     1       5.990  -9.309   9.168  1.00  0.00     0.049 A 
ATOM     43  N   UNL     1       6.194 -12.301   9.416  1.00  0.00    -0.248 NA
ATOM     44  C   UNL     1       7.195 -12.369   7.309  1.00  0.00     0.031 C 
ATOM     45  C   UNL     1       5.828  -7.854   9.082  1.00  0.00     0.029 A 
ATOM     46  N   UNL     1       5.429  -9.632  10.378  1.00  0.00    -0.354 N 
ATOM     47  C   UNL     1       6.437 -13.623   9.063  1.00  0.00     0.074 A 
ATOM     48  C   UNL     1       6.991 -13.609   7.728  1.00  0.00     0.031 C 
ATOM     49  C   UNL     1       5.252  -7.408  10.210  1.00  0.00     0.029 A 
ATOM     50  C   UNL     1       4.966  -8.543  11.079  1.00  0.00     0.049 A 
ATOM     51  H   UNL     1       5.364 -10.555  10.712  1.00  0.00     0.167 HD
ATOM     52  C   UNL     1       6.241 -14.747   9.794  1.00  0.00     0.031 A 
ATOM     53  C   UNL     1       4.379  -8.465  12.290  1.00  0.00     0.031 A 
ATOM     54  C   UNL     1       5.695 -14.755  11.125  1.00  0.00     0.049 A 
ATOM     55  C   UNL     1       4.178  -9.726  13.084  1.00  0.00     0.074 A 
ATOM     56  C   UNL     1       5.509 -15.833  11.972  1.00  0.00     0.029 A 
ATOM     57  N   UNL     1       5.245 -13.632  11.804  1.00  0.00    -0.354 N 
ATOM     58  N   UNL     1       4.485 -10.961  12.762  1.00  0.00    -0.248 NA
ATOM     59  C   UNL     1       3.567  -9.580  14.411  1.00  0.00     0.031 C 
ATOM     60  C   UNL     1       4.893 -15.370  13.140  1.00  0.00     0.029 A 
ATOM     61  C   UNL     1       4.759 -13.994  13.049  1.00  0.00     0.049 A 
ATOM     62  H   UNL     1       5.268 -12.713  11.452  1.00  0.00     0.167 HD
ATOM     63  C   UNL     1       4.130 -11.736  13.861  1.00  0.00     0.074 A 
ATOM     64  C   UNL     1       3.607 -10.827  14.861  1.00  0.00     0.031 C 
ATOM     65  C   UNL     1       4.231 -13.079  14.029  1.00  0.00     0.031 A 
BRANCH  52  66
ATOM     66  C   UNL     1       6.618 -16.064   9.163  1.00  0.00    -0.014 A 
ATOM     67  C   UNL     1       7.964 -16.393   8.913  1.00  0.00     0.010 A 
ATOM     68  C   UNL     1       5.618 -17.003   8.851  1.00  0.00     0.010 A 
ATOM     69  C   UNL     1       8.298 -17.616   8.326  1.00  0.00     0.020 A 
ATOM     70  C   UNL     1       5.950 -18.241   8.294  1.00  0.00     0.020 A 
ATOM     71  C   UNL     1       7.288 -18.533   8.020  1.00  0.00     0.054 A 
BRANCH  71  72
ATOM     72  S   UNL     1       7.755 -20.124   7.284  1.00  0.00     0.124 S 
ATOM     73  O   UNL     1       8.150 -19.727   5.935  1.00  0.00    -0.237 OA
ATOM     74  O   UNL     1       8.842 -20.570   8.151  1.00  0.00    -0.237 OA
ATOM     75  O   UNL     1       6.530 -20.917   7.365  1.00  0.00    -0.744 OA
ENDBRANCH  71  72
ENDBRANCH  52  66
BRANCH  53  76
ATOM     76  C   UNL     1       3.967  -7.141  12.833  1.00  0.00    -0.014 A 
ATOM     77  C   UNL     1       4.642  -6.575  13.929  1.00  0.00     0.010 A 
ATOM     78  C   UNL     1       2.902  -6.432  12.247  1.00  0.00     0.010 A 
ATOM     79  C   UNL     1       4.246  -5.336  14.443  1.00  0.00     0.020 A 
ATOM     80  C   UNL     1       2.524  -5.179  12.738  1.00  0.00     0.020 A 
ATOM     81  C   UNL     1       3.191  -4.645  13.842  1.00  0.00     0.054 A 
BRANCH  81  82
ATOM     82  S   UNL     1       2.726  -3.018  14.496  1.00  0.00     0.124 S 
ATOM     83  O   UNL     1       2.077  -3.370  15.754  1.00  0.00    -0.237 OA
ATOM     84  O   UNL     1       4.018  -2.346  14.615  1.00  0.00    -0.237 OA
ATOM     85  O   UNL     1       1.843  -2.475  13.466  1.00  0.00    -0.744 OA
ENDBRANCH  81  82
ENDBRANCH  53  76
BRANCH  65  86
ATOM     86  C   UNL     1       3.797 -13.639  15.359  1.00  0.00    -0.014 A 
ATOM     87  C   UNL     1       2.445 -13.657  15.742  1.00  0.00     0.010 A 
ATOM     88  C   UNL     1       4.763 -14.178  16.230  1.00  0.00     0.010 A 
ATOM     89  C   UNL     1       2.072 -14.152  16.995  1.00  0.00     0.020 A 
ATOM     90  C   UNL     1       4.390 -14.706  17.468  1.00  0.00     0.020 A 
ATOM     91  C   UNL     1       3.049 -14.669  17.852  1.00  0.00     0.054 A 
BRANCH  91  92
ATOM     92  S   UNL     1       2.539 -15.315  19.468  1.00  0.00     0.124 S 
ATOM     93  O   UNL     1       2.240 -14.090  20.203  1.00  0.00    -0.237 OA
ATOM     94  O   UNL     1       1.385 -16.145  19.132  1.00  0.00    -0.237 OA
ATOM     95  O   UNL     1       3.713 -16.050  19.933  1.00  0.00    -0.744 OA
ENDBRANCH  91  92
ENDBRANCH  65  86
ENDBRANCH  39  40
ENDBRANCH  31  34
ENDBRANCH  29  30
ENDBRANCH   1  29
TORSDOF 18
