REMARK SMILES COc1ccccc1C[C@@H](C(=O)NCCCNC(=O)c1ccc(-c2c3nc(c(-c4ccc(S(=O)(=O)[O-])cc4)c4ccc([nH]4)c(-c4ccc(S(=O)(=O)[O-])cc4)c4nc(c(-c5ccc(S(=O)(=O)[O-])cc5)c5ccc2[nH]5)C=C4)C=C3)cc1)[C@@H]1CCCCC[C@@H]1O
REMARK SMILES IDX 14 1 13 2 11 3 12 4 10 6 9 7 8 8 3 9 4 10 5 11 7 12 6 13
REMARK SMILES IDX 2 14 1 15 80 16 81 17 82 18 86 20 85 21 84 22 83 23 87 25
REMARK SMILES IDX 15 27 16 28 17 29 18 30 19 32 20 33 21 34 79 35 22 36 78 37
REMARK SMILES IDX 23 38 24 39 25 40 72 41 26 42 77 43 71 44 73 45 27 46 76 47
REMARK SMILES IDX 70 48 69 49 28 51 58 52 39 53 57 54 40 55 43 56 56 57 74 58
REMARK SMILES IDX 41 59 42 60 55 62 75 63 44 64 29 65 30 66 38 67 31 68 37 69
REMARK SMILES IDX 32 70 33 71 34 72 35 73 36 74 59 75 60 76 68 77 61 78 67 79
REMARK SMILES IDX 62 80 63 81 64 82 65 83 66 84 45 85 46 86 54 87 47 88 53 89
REMARK SMILES IDX 48 90 49 91 50 92 51 93 52 94
REMARK H PARENT 13 5 87 26 17 31 73 50 43 61
REMARK Flexibility Score: 90.00
ROOT
ATOM      1  C   UNL     1       9.511  -2.322  -0.260  1.00  0.00     0.117 C 
ENDROOT
BRANCH   1   2
ATOM      2  N   UNL     1       8.958  -0.985  -0.330  1.00  0.00    -0.356 N 
ATOM      3  C   UNL     1       7.679  -0.561  -0.520  1.00  0.00     0.223 C 
ATOM      4  O   UNL     1       7.591   0.510  -1.127  1.00  0.00    -0.275 OA
ATOM      5  H   UNL     1       9.617  -0.262  -0.222  1.00  0.00     0.163 HD
BRANCH   3   6
ATOM      6  C   UNL     1       6.448  -1.338   0.006  1.00  0.00     0.088 C 
BRANCH   6   7
ATOM      7  C   UNL     1       5.829  -2.286  -1.063  1.00  0.00     0.053 C 
BRANCH   7   8
ATOM      8  C   UNL     1       6.455  -3.634  -1.336  1.00  0.00    -0.005 A 
ATOM      9  C   UNL     1       6.515  -4.663  -0.390  1.00  0.00     0.122 A 
ATOM     10  C   UNL     1       7.179  -5.865  -0.662  1.00  0.00     0.047 A 
ATOM     11  C   UNL     1       7.713  -6.091  -1.929  1.00  0.00     0.004 A 
ATOM     12  C   UNL     1       6.920  -3.920  -2.630  1.00  0.00     0.007 A 
ATOM     13  C   UNL     1       7.555  -5.130  -2.923  1.00  0.00     0.001 A 
BRANCH   9  14
ATOM     14  O   UNL     1       5.869  -4.532   0.811  1.00  0.00    -0.496 OA
ATOM     15  C   UNL     1       4.577  -5.151   0.718  1.00  0.00     0.278 C 
ENDBRANCH   9  14
ENDBRANCH   7   8
ENDBRANCH   6   7
BRANCH   6  16
ATOM     16  C   UNL     1       5.303  -0.315   0.480  1.00  0.00     0.030 C 
BRANCH  16  17
ATOM     17  C   UNL     1       4.745   0.531  -0.706  1.00  0.00     0.007 C 
BRANCH  17  18
ATOM     18  C   UNL     1       3.542   1.419  -0.414  1.00  0.00     0.000 CG0
ATOM     19  G   UNL     1       3.939   2.812   0.061  1.00  0.00     0.000 G0
ENDBRANCH  17  18
ENDBRANCH  16  17
BRANCH  16  20
ATOM     20  C   UNL     1       5.674   0.445   1.789  1.00  0.00     0.118 C 
BRANCH  20  21
ATOM     21  C   UNL     1       4.823   1.670   2.169  1.00  0.00     0.032 C 
BRANCH  21  22
ATOM     22  C   UNL     1       4.957   2.840   1.194  1.00  0.00     0.003 C 
BRANCH  22  23
ATOM     23  C   UNL     1       3.939   2.812   0.061  1.00  0.00     0.000 CG0
ATOM     24  G   UNL     1       3.542   1.419  -0.414  1.00  0.00     0.000 G0
ENDBRANCH  22  23
ENDBRANCH  21  22
ENDBRANCH  20  21
BRANCH  20  25
ATOM     25  O   UNL     1       7.050   0.810   1.811  1.00  0.00    -0.393 OA
ATOM     26  H   UNL     1       7.220   1.473   1.124  1.00  0.00     0.210 HD
ENDBRANCH  20  25
ENDBRANCH  16  20
ENDBRANCH   6  16
ENDBRANCH   3   6
ENDBRANCH   1   2
BRANCH   1  27
ATOM     27  C   UNL     1       9.850  -2.820  -1.668  1.00  0.00     0.042 C 
BRANCH  27  28
ATOM     28  C   UNL     1      10.983  -2.083  -2.376  1.00  0.00     0.118 C 
BRANCH  28  29
ATOM     29  N   UNL     1      12.276  -2.707  -2.175  1.00  0.00    -0.352 N 
ATOM     30  C   UNL     1      12.923  -3.721  -2.838  1.00  0.00     0.251 C 
ATOM     31  H   UNL     1      12.786  -2.335  -1.419  1.00  0.00     0.163 HD
ATOM     32  O   UNL     1      13.945  -4.175  -2.322  1.00  0.00    -0.269 OA
BRANCH  30  33
ATOM     33  C   UNL     1      12.448  -4.306  -4.124  1.00  0.00     0.039 A 
ATOM     34  C   UNL     1      12.717  -5.664  -4.358  1.00  0.00     0.014 A 
ATOM     35  C   UNL     1      11.871  -3.559  -5.152  1.00  0.00     0.014 A 
ATOM     36  C   UNL     1      12.397  -6.263  -5.585  1.00  0.00     0.010 A 
ATOM     37  C   UNL     1      11.480  -4.175  -6.350  1.00  0.00     0.010 A 
ATOM     38  C   UNL     1      11.756  -5.529  -6.593  1.00  0.00    -0.014 A 
BRANCH  38  39
ATOM     39  C   UNL     1      11.414  -6.140  -7.912  1.00  0.00     0.031 A 
ATOM     40  C   UNL     1      12.030  -5.604  -9.184  1.00  0.00     0.074 A 
ATOM     41  C   UNL     1      10.516  -7.143  -7.989  1.00  0.00     0.049 A 
ATOM     42  N   UNL     1      11.764  -5.915 -10.428  1.00  0.00    -0.248 NA
ATOM     43  C   UNL     1      13.065  -4.568  -9.036  1.00  0.00     0.031 C 
ATOM     44  C   UNL     1       9.838  -7.765  -6.851  1.00  0.00     0.029 A 
ATOM     45  N   UNL     1      10.008  -7.809  -9.081  1.00  0.00    -0.354 N 
ATOM     46  C   UNL     1      12.568  -5.091 -11.209  1.00  0.00     0.074 A 
ATOM     47  C   UNL     1      13.311  -4.247 -10.299  1.00  0.00     0.031 C 
ATOM     48  C   UNL     1       9.015  -8.727  -7.301  1.00  0.00     0.029 A 
ATOM     49  C   UNL     1       9.066  -8.759  -8.760  1.00  0.00     0.049 A 
ATOM     50  H   UNL     1      10.292  -7.623 -10.005  1.00  0.00     0.167 HD
ATOM     51  C   UNL     1      12.689  -5.045 -12.559  1.00  0.00     0.031 A 
ATOM     52  C   UNL     1       8.308  -9.553  -9.544  1.00  0.00     0.031 A 
ATOM     53  C   UNL     1      11.978  -5.903 -13.470  1.00  0.00     0.049 A 
ATOM     54  C   UNL     1       8.445  -9.474 -11.041  1.00  0.00     0.074 A 
ATOM     55  C   UNL     1      12.078  -5.961 -14.850  1.00  0.00     0.029 A 
ATOM     56  N   UNL     1      11.043  -6.855 -13.097  1.00  0.00    -0.354 N 
ATOM     57  N   UNL     1       9.234  -8.707 -11.755  1.00  0.00    -0.248 NA
ATOM     58  C   UNL     1       7.593 -10.369 -11.838  1.00  0.00     0.031 C 
ATOM     59  C   UNL     1      11.170  -6.917 -15.315  1.00  0.00     0.029 A 
ATOM     60  C   UNL     1      10.543  -7.491 -14.221  1.00  0.00     0.049 A 
ATOM     61  H   UNL     1      10.773  -7.050 -12.171  1.00  0.00     0.167 HD
ATOM     62  C   UNL     1       8.992  -9.048 -13.082  1.00  0.00     0.074 A 
ATOM     63  C   UNL     1       7.991 -10.093 -13.073  1.00  0.00     0.031 C 
ATOM     64  C   UNL     1       9.555  -8.540 -14.205  1.00  0.00     0.031 A 
BRANCH  51  65
ATOM     65  C   UNL     1      13.621  -4.014 -13.143  1.00  0.00    -0.014 A 
ATOM     66  C   UNL     1      15.017  -4.145 -13.029  1.00  0.00     0.010 A 
ATOM     67  C   UNL     1      13.093  -2.924 -13.860  1.00  0.00     0.010 A 
ATOM     68  C   UNL     1      15.865  -3.180 -13.582  1.00  0.00     0.020 A 
ATOM     69  C   UNL     1      13.939  -1.972 -14.437  1.00  0.00     0.020 A 
ATOM     70  C   UNL     1      15.320  -2.097 -14.277  1.00  0.00     0.054 A 
BRANCH  70  71
ATOM     71  S   UNL     1      16.445  -0.868 -14.996  1.00  0.00     0.124 S 
ATOM     72  O   UNL     1      16.879  -0.131 -13.812  1.00  0.00    -0.237 OA
ATOM     73  O   UNL     1      17.466  -1.697 -15.629  1.00  0.00    -0.237 OA
ATOM     74  O   UNL     1      15.595  -0.118 -15.919  1.00  0.00    -0.744 OA
ENDBRANCH  70  71
ENDBRANCH  51  65
BRANCH  52  75
ATOM     75  C   UNL     1       7.337 -10.495  -8.922  1.00  0.00    -0.014 A 
ATOM     76  C   UNL     1       7.577 -11.880  -8.937  1.00  0.00     0.010 A 
ATOM     77  C   UNL     1       6.173 -10.008  -8.299  1.00  0.00     0.010 A 
ATOM     78  C   UNL     1       6.666 -12.762  -8.348  1.00  0.00     0.020 A 
ATOM     79  C   UNL     1       5.274 -10.885  -7.686  1.00  0.00     0.020 A 
ATOM     80  C   UNL     1       5.521 -12.259  -7.723  1.00  0.00     0.054 A 
BRANCH  80  81
ATOM     81  S   UNL     1       4.385 -13.416  -6.911  1.00  0.00     0.124 S 
ATOM     82  O   UNL     1       3.697 -14.016  -8.050  1.00  0.00    -0.237 OA
ATOM     83  O   UNL     1       5.295 -14.297  -6.184  1.00  0.00    -0.237 OA
ATOM     84  O   UNL     1       3.563 -12.551  -6.067  1.00  0.00    -0.744 OA
ENDBRANCH  80  81
ENDBRANCH  52  75
BRANCH  64  85
ATOM     85  C   UNL     1       9.142  -9.127 -15.528  1.00  0.00    -0.014 A 
ATOM     86  C   UNL     1       7.899  -8.819 -16.107  1.00  0.00     0.010 A 
ATOM     87  C   UNL     1      10.053  -9.928 -16.243  1.00  0.00     0.010 A 
ATOM     88  C   UNL     1       7.570  -9.310 -17.374  1.00  0.00     0.020 A 
ATOM     89  C   UNL     1       9.736 -10.402 -17.519  1.00  0.00     0.020 A 
ATOM     90  C   UNL     1       8.492 -10.095 -18.074  1.00  0.00     0.054 A 
BRANCH  90  91
ATOM     91  S   UNL     1       8.071 -10.656 -19.747  1.00  0.00     0.124 S 
ATOM     92  O   UNL     1       7.103 -11.716 -19.479  1.00  0.00    -0.237 OA
ATOM     93  O   UNL     1       7.527  -9.448 -20.364  1.00  0.00    -0.237 OA
ATOM     94  O   UNL     1       9.350 -11.104 -20.294  1.00  0.00    -0.744 OA
ENDBRANCH  90  91
ENDBRANCH  64  85
ENDBRANCH  38  39
ENDBRANCH  30  33
ENDBRANCH  28  29
ENDBRANCH  27  28
ENDBRANCH   1  27
TORSDOF 18
