REMARK SMILES CC1(C)CCCC[C@@]1(C(=O)NCCCNC(=O)c1ccc(-c2c3nc(c(-c4ccc(S(=O)(=O)[O-])cc4)c4ccc([nH]4)c(-c4ccc(S(=O)(=O)[O-])cc4)c4nc(c(-c5ccc(S(=O)(=O)[O-])cc5)c5ccc2[nH]5)C=C4)C=C3)cc1)[NH+]1CC[NH2+]CC1
REMARK SMILES IDX 14 1 13 2 12 3 11 4 9 5 10 6 8 8 1 9 2 10 3 11 4 12 5 13
REMARK SMILES IDX 7 14 6 15 78 16 79 17 83 18 80 20 82 21 81 22 15 25 16 26
REMARK SMILES IDX 17 28 18 29 19 30 77 31 20 32 76 33 21 34 22 35 23 36 70 37
REMARK SMILES IDX 24 38 75 39 69 40 71 41 25 42 74 43 68 44 67 45 26 47 56 48
REMARK SMILES IDX 37 49 55 50 38 51 41 52 54 53 72 54 39 55 40 56 53 58 73 59
REMARK SMILES IDX 42 60 27 61 28 62 36 63 29 64 35 65 30 66 31 67 32 68 33 69
REMARK SMILES IDX 34 70 57 71 58 72 66 73 59 74 65 75 60 76 61 77 62 78 63 79
REMARK SMILES IDX 64 80 43 81 44 82 52 83 45 84 51 85 46 86 47 87 48 88 49 89
REMARK SMILES IDX 50 90
REMARK H PARENT 11 7 78 19 81 23 81 24 15 27 71 46 41 57
REMARK Flexibility Score: inf
ROOT
ATOM      1  C   UNL     1      -0.851   8.042  -0.318  1.00  0.00     0.118 C 
ENDROOT
BRANCH   1   2
ATOM      2  C   UNL     1       0.419   7.313   0.117  1.00  0.00     0.042 C 
BRANCH   2   3
ATOM      3  C   UNL     1       0.174   6.040   0.938  1.00  0.00     0.118 C 
BRANCH   3   4
ATOM      4  N   UNL     1      -0.530   5.024   0.168  1.00  0.00    -0.351 N 
ATOM      5  C   UNL     1      -0.281   3.793  -0.353  1.00  0.00     0.281 C 
ATOM      6  O   UNL     1      -1.200   3.445  -1.110  1.00  0.00    -0.268 OA
ATOM      7  H   UNL     1      -1.449   5.311  -0.034  1.00  0.00     0.163 HD
BRANCH   5   8
ATOM      8  C   UNL     1       1.020   2.849  -0.081  1.00  0.00     0.182 C 
ATOM      9  C   UNL     1       1.559   0.166   0.074  1.00  0.00     0.018 C 
ATOM     10  C   UNL     1       0.555   1.295  -0.343  1.00  0.00     0.029 C 
ATOM     11  C   UNL     1       0.260   1.032  -1.843  1.00  0.00     0.018 C 
ATOM     12  C   UNL     1      -0.711   0.992   0.528  1.00  0.00     0.013 C 
ATOM     13  C   UNL     1      -0.497   1.256   2.026  1.00  0.00     0.001 C 
ATOM     14  C   UNL     1       1.391   2.903   1.426  1.00  0.00     0.080 C 
ATOM     15  C   UNL     1       0.200   2.578   2.344  1.00  0.00     0.007 C 
BRANCH   8  16
ATOM     16  N   UNL     1       2.128   3.281  -1.036  1.00  0.00    -0.313 N 
ATOM     17  C   UNL     1       3.445   2.638  -0.892  1.00  0.00     0.325 C 
ATOM     18  C   UNL     1       2.304   4.737  -1.168  1.00  0.00     0.325 C 
ATOM     19  H   UNL     1       1.735   2.913  -1.902  1.00  0.00     0.349 HD
ATOM     20  C   UNL     1       4.572   3.177  -1.811  1.00  0.00     0.322 C 
ATOM     21  C   UNL     1       3.440   5.223  -2.097  1.00  0.00     0.322 C 
ATOM     22  N   UNL     1       4.733   4.629  -1.753  1.00  0.00    -0.337 N 
ATOM     23  H   UNL     1       5.444   4.928  -2.421  1.00  0.00     0.346 HD
ATOM     24  H   UNL     1       5.030   4.923  -0.823  1.00  0.00     0.346 HD
ENDBRANCH   8  16
ENDBRANCH   5   8
ENDBRANCH   3   4
ENDBRANCH   2   3
ENDBRANCH   1   2
BRANCH   1  25
ATOM     25  N   UNL     1      -1.435   8.810   0.770  1.00  0.00    -0.352 N 
ATOM     26  C   UNL     1      -1.457  10.169   0.963  1.00  0.00     0.251 C 
ATOM     27  H   UNL     1      -1.878   8.278   1.471  1.00  0.00     0.163 HD
ATOM     28  O   UNL     1      -1.764  10.614   2.072  1.00  0.00    -0.269 OA
BRANCH  26  29
ATOM     29  C   UNL     1      -1.103  11.101  -0.132  1.00  0.00     0.039 A 
ATOM     30  C   UNL     1      -0.299  12.209   0.153  1.00  0.00     0.014 A 
ATOM     31  C   UNL     1      -1.592  10.916  -1.429  1.00  0.00     0.014 A 
ATOM     32  C   UNL     1       0.062  13.093  -0.869  1.00  0.00     0.010 A 
ATOM     33  C   UNL     1      -1.177  11.760  -2.460  1.00  0.00     0.010 A 
ATOM     34  C   UNL     1      -0.346  12.859  -2.192  1.00  0.00    -0.014 A 
BRANCH  34  35
ATOM     35  C   UNL     1       0.093  13.741  -3.307  1.00  0.00     0.031 A 
ATOM     36  C   UNL     1      -0.915  14.538  -4.092  1.00  0.00     0.074 A 
ATOM     37  C   UNL     1       1.394  13.768  -3.663  1.00  0.00     0.049 A 
ATOM     38  N   UNL     1      -0.732  15.287  -5.150  1.00  0.00    -0.248 NA
ATOM     39  C   UNL     1      -2.316  14.468  -3.645  1.00  0.00     0.031 C 
ATOM     40  C   UNL     1       2.468  13.014  -3.011  1.00  0.00     0.029 A 
ATOM     41  N   UNL     1       2.034  14.444  -4.673  1.00  0.00    -0.354 N 
ATOM     42  C   UNL     1      -1.990  15.757  -5.508  1.00  0.00     0.074 A 
ATOM     43  C   UNL     1      -2.935  15.182  -4.575  1.00  0.00     0.031 C 
ATOM     44  C   UNL     1       3.630  13.277  -3.629  1.00  0.00     0.029 A 
ATOM     45  C   UNL     1       3.383  14.182  -4.746  1.00  0.00     0.049 A 
ATOM     46  H   UNL     1       1.571  15.058  -5.288  1.00  0.00     0.167 HD
ATOM     47  C   UNL     1      -2.328  16.599  -6.514  1.00  0.00     0.031 A 
ATOM     48  C   UNL     1       4.315  14.606  -5.622  1.00  0.00     0.031 A 
ATOM     49  C   UNL     1      -1.385  17.187  -7.429  1.00  0.00     0.049 A 
ATOM     50  C   UNL     1       3.912  15.539  -6.732  1.00  0.00     0.074 A 
ATOM     51  C   UNL     1      -1.625  18.106  -8.436  1.00  0.00     0.029 A 
ATOM     52  N   UNL     1      -0.027  16.913  -7.454  1.00  0.00    -0.354 N 
ATOM     53  N   UNL     1       2.726  16.027  -7.007  1.00  0.00    -0.248 NA
ATOM     54  C   UNL     1       4.975  15.985  -7.644  1.00  0.00     0.031 C 
ATOM     55  C   UNL     1      -0.420  18.349  -9.104  1.00  0.00     0.029 A 
ATOM     56  C   UNL     1       0.580  17.624  -8.476  1.00  0.00     0.049 A 
ATOM     57  H   UNL     1       0.438  16.304  -6.836  1.00  0.00     0.167 HD
ATOM     58  C   UNL     1       2.906  16.854  -8.111  1.00  0.00     0.074 A 
ATOM     59  C   UNL     1       4.316  16.816  -8.439  1.00  0.00     0.031 C 
ATOM     60  C   UNL     1       1.984  17.578  -8.792  1.00  0.00     0.031 A 
BRANCH  47  61
ATOM     61  C   UNL     1      -3.786  16.939  -6.689  1.00  0.00    -0.014 A 
ATOM     62  C   UNL     1      -4.451  17.779  -5.779  1.00  0.00     0.010 A 
ATOM     63  C   UNL     1      -4.479  16.470  -7.820  1.00  0.00     0.010 A 
ATOM     64  C   UNL     1      -5.791  18.121  -5.981  1.00  0.00     0.020 A 
ATOM     65  C   UNL     1      -5.812  16.831  -8.040  1.00  0.00     0.020 A 
ATOM     66  C   UNL     1      -6.463  17.645  -7.111  1.00  0.00     0.054 A 
BRANCH  66  67
ATOM     67  S   UNL     1      -8.188  18.144  -7.371  1.00  0.00     0.124 S 
ATOM     68  O   UNL     1      -8.884  17.361  -6.354  1.00  0.00    -0.237 OA
ATOM     69  O   UNL     1      -8.144  19.585  -7.133  1.00  0.00    -0.237 OA
ATOM     70  O   UNL     1      -8.459  17.752  -8.752  1.00  0.00    -0.744 OA
ENDBRANCH  66  67
ENDBRANCH  47  61
BRANCH  48  71
ATOM     71  C   UNL     1       5.725  14.144  -5.494  1.00  0.00    -0.014 A 
ATOM     72  C   UNL     1       6.739  15.035  -5.101  1.00  0.00     0.010 A 
ATOM     73  C   UNL     1       6.062  12.806  -5.774  1.00  0.00     0.010 A 
ATOM     74  C   UNL     1       8.066  14.605  -5.015  1.00  0.00     0.020 A 
ATOM     75  C   UNL     1       7.383  12.365  -5.661  1.00  0.00     0.020 A 
ATOM     76  C   UNL     1       8.380  13.272  -5.297  1.00  0.00     0.054 A 
BRANCH  76  77
ATOM     77  S   UNL     1      10.104  12.727  -5.144  1.00  0.00     0.124 S 
ATOM     78  O   UNL     1      10.710  13.301  -6.341  1.00  0.00    -0.237 OA
ATOM     79  O   UNL     1      10.514  13.325  -3.876  1.00  0.00    -0.237 OA
ATOM     80  O   UNL     1      10.000  11.269  -5.131  1.00  0.00    -0.744 OA
ENDBRANCH  76  77
ENDBRANCH  48  71
BRANCH  60  81
ATOM     81  C   UNL     1       2.474  18.415  -9.944  1.00  0.00    -0.014 A 
ATOM     82  C   UNL     1       2.873  17.823 -11.155  1.00  0.00     0.010 A 
ATOM     83  C   UNL     1       2.484  19.817  -9.829  1.00  0.00     0.010 A 
ATOM     84  C   UNL     1       3.305  18.617 -12.221  1.00  0.00     0.020 A 
ATOM     85  C   UNL     1       2.888  20.616 -10.902  1.00  0.00     0.020 A 
ATOM     86  C   UNL     1       3.310  20.009 -12.087  1.00  0.00     0.054 A 
BRANCH  86  87
ATOM     87  S   UNL     1       3.834  21.021 -13.498  1.00  0.00     0.124 S 
ATOM     88  O   UNL     1       5.282  20.831 -13.487  1.00  0.00    -0.237 OA
ATOM     89  O   UNL     1       3.127  20.403 -14.617  1.00  0.00    -0.237 OA
ATOM     90  O   UNL     1       3.379  22.365 -13.149  1.00  0.00    -0.744 OA
ENDBRANCH  86  87
ENDBRANCH  60  81
ENDBRANCH  34  35
ENDBRANCH  26  29
ENDBRANCH   1  25
TORSDOF 14
