REMARK SMILES O=C(CCCN1C(=O)/C(=C\c2ccc(O)c(O)c2)SC1=S)NCCCNC(=O)c1ccc(-c2c3nc(c(-c4ccc(S(=O)(=O)[O-])cc4)c4ccc([nH]4)c(-c4ccc(S(=O)(=O)[O-])cc4)c4nc(c(-c5ccc(S(=O)(=O)[O-])cc5)c5ccc2[nH]5)C=C4)C=C3)cc1
REMARK SMILES IDX 23 1 22 2 1 3 2 4 3 6 4 7 5 8 6 9 7 10 20 11 8 12 9 13 19 14
REMARK SMILES IDX 21 15 10 16 11 17 12 18 18 19 13 20 16 21 14 22 17 23 15 25
REMARK SMILES IDX 24 27 25 28 26 29 27 30 28 32 29 33 30 34 88 35 31 36 87 37
REMARK SMILES IDX 32 38 33 39 34 40 81 41 35 42 86 43 80 44 82 45 36 46 85 47
REMARK SMILES IDX 79 48 78 49 37 51 67 52 48 53 66 54 49 55 52 56 65 57 83 58
REMARK SMILES IDX 50 59 51 60 64 62 84 63 53 64 38 65 39 66 47 67 40 68 46 69
REMARK SMILES IDX 41 70 42 71 43 72 44 73 45 74 68 75 69 76 77 77 70 78 76 79
REMARK SMILES IDX 71 80 72 81 73 82 74 83 75 84 54 85 55 86 63 87 56 88 62 89
REMARK SMILES IDX 57 90 58 91 59 92 60 93 61 94
REMARK H PARENT 22 5 17 24 15 26 26 31 82 50 52 61
REMARK Flexibility Score: inf
ROOT
ATOM      1  C   UNL     1       2.086  -1.224  -2.310  1.00  0.00     0.117 C 
ENDROOT
BRANCH   1   2
ATOM      2  N   UNL     1       2.639  -0.540  -1.158  1.00  0.00    -0.356 N 
ATOM      3  O   UNL     1       1.016  -1.242   0.311  1.00  0.00    -0.275 OA
ATOM      4  C   UNL     1       2.043  -0.615   0.079  1.00  0.00     0.220 C 
ATOM      5  H   UNL     1       3.461  -0.009  -1.264  1.00  0.00     0.163 HD
BRANCH   4   6
ATOM      6  C   UNL     1       2.802   0.115   1.160  1.00  0.00     0.102 C 
BRANCH   6   7
ATOM      7  C   UNL     1       3.853  -0.785   1.813  1.00  0.00     0.032 C 
BRANCH   7   8
ATOM      8  C   UNL     1       5.133  -1.036   0.999  1.00  0.00     0.128 C 
BRANCH   8   9
ATOM      9  N   UNL     1       5.871   0.125   0.478  1.00  0.00    -0.293 N 
ATOM     10  C   UNL     1       5.824   1.353   1.109  1.00  0.00     0.266 C 
ATOM     11  C   UNL     1       6.828   0.024  -0.518  1.00  0.00     0.148 C 
ATOM     12  O   UNL     1       5.383   1.562   2.232  1.00  0.00    -0.268 OA
ATOM     13  C   UNL     1       6.478   2.388   0.267  1.00  0.00     0.081 C 
ATOM     14  S   UNL     1       7.567   1.597  -0.810  1.00  0.00    -0.054 SA
ATOM     15  S   UNL     1       7.275  -1.333  -1.377  1.00  0.00    -0.052 S 
ATOM     16  C   UNL     1       6.180   3.693   0.169  1.00  0.00     0.029 C 
BRANCH  16  17
ATOM     17  C   UNL     1       5.026   4.360   0.787  1.00  0.00    -0.020 A 
ATOM     18  C   UNL     1       4.795   4.377   2.170  1.00  0.00     0.012 A 
ATOM     19  C   UNL     1       4.104   4.989  -0.063  1.00  0.00     0.058 A 
ATOM     20  C   UNL     1       3.621   4.932   2.695  1.00  0.00     0.051 A 
ATOM     21  C   UNL     1       2.954   5.557   0.467  1.00  0.00     0.157 A 
ATOM     22  C   UNL     1       2.700   5.511   1.833  1.00  0.00     0.157 A 
BRANCH  21  23
ATOM     23  O   UNL     1       2.058   6.146  -0.377  1.00  0.00    -0.504 OA
ATOM     24  H   UNL     1       1.276   6.534  -0.034  1.00  0.00     0.293 HD
ENDBRANCH  21  23
BRANCH  22  25
ATOM     25  O   UNL     1       1.524   6.044   2.283  1.00  0.00    -0.504 OA
ATOM     26  H   UNL     1       1.323   6.030   3.197  1.00  0.00     0.293 HD
ENDBRANCH  22  25
ENDBRANCH  16  17
ENDBRANCH   8   9
ENDBRANCH   7   8
ENDBRANCH   6   7
ENDBRANCH   4   6
ENDBRANCH   1   2
BRANCH   1  27
ATOM     27  C   UNL     1       2.406  -0.515  -3.620  1.00  0.00     0.042 C 
BRANCH  27  28
ATOM     28  C   UNL     1       3.889  -0.458  -3.969  1.00  0.00     0.118 C 
BRANCH  28  29
ATOM     29  N   UNL     1       4.474  -1.766  -4.225  1.00  0.00    -0.352 N 
ATOM     30  C   UNL     1       5.210  -2.187  -5.309  1.00  0.00     0.251 C 
ATOM     31  H   UNL     1       4.321  -2.443  -3.527  1.00  0.00     0.163 HD
ATOM     32  O   UNL     1       5.511  -3.370  -5.429  1.00  0.00    -0.269 OA
BRANCH  30  33
ATOM     33  C   UNL     1       5.599  -1.210  -6.349  1.00  0.00     0.039 A 
ATOM     34  C   UNL     1       5.328  -1.504  -7.688  1.00  0.00     0.014 A 
ATOM     35  C   UNL     1       6.190   0.006  -5.998  1.00  0.00     0.014 A 
ATOM     36  C   UNL     1       5.568  -0.539  -8.669  1.00  0.00     0.010 A 
ATOM     37  C   UNL     1       6.368   0.989  -6.968  1.00  0.00     0.010 A 
ATOM     38  C   UNL     1       6.045   0.732  -8.311  1.00  0.00    -0.014 A 
BRANCH  38  39
ATOM     39  C   UNL     1       6.192   1.823  -9.309  1.00  0.00     0.031 A 
ATOM     40  C   UNL     1       7.550   2.402  -9.596  1.00  0.00     0.074 A 
ATOM     41  C   UNL     1       5.096   2.362  -9.880  1.00  0.00     0.049 A 
ATOM     42  N   UNL     1       7.865   3.454 -10.306  1.00  0.00    -0.248 NA
ATOM     43  C   UNL     1       8.702   1.724  -8.980  1.00  0.00     0.031 C 
ATOM     44  C   UNL     1       3.718   1.910  -9.669  1.00  0.00     0.029 A 
ATOM     45  N   UNL     1       4.967   3.424 -10.742  1.00  0.00    -0.354 N 
ATOM     46  C   UNL     1       9.244   3.583 -10.199  1.00  0.00     0.074 A 
ATOM     47  C   UNL     1       9.702   2.520  -9.331  1.00  0.00     0.031 C 
ATOM     48  C   UNL     1       2.887   2.682 -10.389  1.00  0.00     0.029 A 
ATOM     49  C   UNL     1       3.663   3.710 -11.074  1.00  0.00     0.049 A 
ATOM     50  H   UNL     1       5.735   3.932 -11.089  1.00  0.00     0.167 HD
ATOM     51  C   UNL     1      10.057   4.499 -10.778  1.00  0.00     0.031 A 
ATOM     52  C   UNL     1       3.146   4.700 -11.828  1.00  0.00     0.031 A 
ATOM     53  C   UNL     1       9.604   5.544 -11.656  1.00  0.00     0.049 A 
ATOM     54  C   UNL     1       4.068   5.706 -12.459  1.00  0.00     0.074 A 
ATOM     55  C   UNL     1      10.358   6.491 -12.327  1.00  0.00     0.029 A 
ATOM     56  N   UNL     1       8.279   5.776 -11.993  1.00  0.00    -0.354 N 
ATOM     57  N   UNL     1       5.374   5.791 -12.374  1.00  0.00    -0.248 NA
ATOM     58  C   UNL     1       3.449   6.746 -13.294  1.00  0.00     0.031 C 
ATOM     59  C   UNL     1       9.486   7.319 -13.041  1.00  0.00     0.029 A 
ATOM     60  C   UNL     1       8.193   6.857 -12.852  1.00  0.00     0.049 A 
ATOM     61  H   UNL     1       7.513   5.249 -11.668  1.00  0.00     0.167 HD
ATOM     62  C   UNL     1       5.735   6.872 -13.169  1.00  0.00     0.074 A 
ATOM     63  C   UNL     1       4.512   7.410 -13.729  1.00  0.00     0.031 C 
ATOM     64  C   UNL     1       6.971   7.370 -13.416  1.00  0.00     0.031 A 
BRANCH  51  65
ATOM     65  C   UNL     1      11.527   4.416 -10.466  1.00  0.00    -0.014 A 
ATOM     66  C   UNL     1      12.323   3.382 -10.992  1.00  0.00     0.010 A 
ATOM     67  C   UNL     1      12.127   5.402  -9.663  1.00  0.00     0.010 A 
ATOM     68  C   UNL     1      13.683   3.311 -10.683  1.00  0.00     0.020 A 
ATOM     69  C   UNL     1      13.493   5.349  -9.373  1.00  0.00     0.020 A 
ATOM     70  C   UNL     1      14.259   4.292  -9.869  1.00  0.00     0.054 A 
BRANCH  70  71
ATOM     71  S   UNL     1      16.030   4.184  -9.492  1.00  0.00     0.124 S 
ATOM     72  O   UNL     1      16.059   3.116  -8.496  1.00  0.00    -0.237 OA
ATOM     73  O   UNL     1      16.616   3.849 -10.788  1.00  0.00    -0.237 OA
ATOM     74  O   UNL     1      16.358   5.515  -8.989  1.00  0.00    -0.744 OA
ENDBRANCH  70  71
ENDBRANCH  51  65
BRANCH  52  75
ATOM     75  C   UNL     1       1.674   4.783 -12.033  1.00  0.00    -0.014 A 
ATOM     76  C   UNL     1       1.111   4.440 -13.274  1.00  0.00     0.010 A 
ATOM     77  C   UNL     1       0.828   5.186 -10.984  1.00  0.00     0.010 A 
ATOM     78  C   UNL     1      -0.271   4.512 -13.469  1.00  0.00     0.020 A 
ATOM     79  C   UNL     1      -0.557   5.236 -11.168  1.00  0.00     0.020 A 
ATOM     80  C   UNL     1      -1.097   4.909 -12.413  1.00  0.00     0.054 A 
BRANCH  80  81
ATOM     81  S   UNL     1      -2.893   4.941 -12.669  1.00  0.00     0.124 S 
ATOM     82  O   UNL     1      -3.067   6.164 -13.445  1.00  0.00    -0.237 OA
ATOM     83  O   UNL     1      -3.134   3.694 -13.390  1.00  0.00    -0.237 OA
ATOM     84  O   UNL     1      -3.430   4.978 -11.310  1.00  0.00    -0.744 OA
ENDBRANCH  80  81
ENDBRANCH  52  75
BRANCH  64  85
ATOM     85  C   UNL     1       7.081   8.525 -14.373  1.00  0.00    -0.014 A 
ATOM     86  C   UNL     1       6.737   9.831 -13.983  1.00  0.00     0.010 A 
ATOM     87  C   UNL     1       7.620   8.308 -15.654  1.00  0.00     0.010 A 
ATOM     88  C   UNL     1       6.922  10.900 -14.864  1.00  0.00     0.020 A 
ATOM     89  C   UNL     1       7.825   9.377 -16.529  1.00  0.00     0.020 A 
ATOM     90  C   UNL     1       7.468  10.666 -16.131  1.00  0.00     0.054 A 
BRANCH  90  91
ATOM     91  S   UNL     1       7.770  12.079 -17.229  1.00  0.00     0.124 S 
ATOM     92  O   UNL     1       6.425  12.386 -17.706  1.00  0.00    -0.237 OA
ATOM     93  O   UNL     1       8.359  13.067 -16.328  1.00  0.00    -0.237 OA
ATOM     94  O   UNL     1       8.683  11.544 -18.237  1.00  0.00    -0.744 OA
ENDBRANCH  90  91
ENDBRANCH  64  85
ENDBRANCH  38  39
ENDBRANCH  30  33
ENDBRANCH  28  29
ENDBRANCH  27  28
ENDBRANCH   1  27
TORSDOF 19
