REMARK SMILES O=C(NCCCNC(=O)[C@H]1CS[C@@H](c2cccc(OCc3ccc(Cl)cc3Cl)c2)[NH2+]1)c1ccc(-c2c3nc(c(-c4ccc(S(=O)(=O)[O-])cc4)c4ccc([nH]4)c(-c4ccc(S(=O)(=O)[O-])cc4)c4nc(c(-c5ccc(S(=O)(=O)[O-])cc5)c5ccc2[nH]5)C=C4)C=C3)cc1
REMARK SMILES IDX 5 1 4 2 3 3 1 4 2 5 31 7 32 8 90 9 33 10 89 11 34 12 35 13
REMARK SMILES IDX 36 14 83 15 37 16 88 17 82 18 84 19 38 20 87 21 81 22 80 23
REMARK SMILES IDX 39 25 69 26 50 27 68 28 51 29 54 30 67 31 85 32 52 33 53 34
REMARK SMILES IDX 66 36 86 37 55 38 40 39 41 40 49 41 42 42 48 43 43 44 44 45
REMARK SMILES IDX 45 46 46 47 47 48 70 49 71 50 79 51 72 52 78 53 73 54 74 55
REMARK SMILES IDX 75 56 76 57 77 58 56 59 57 60 65 61 58 62 64 63 59 64 60 65
REMARK SMILES IDX 61 66 62 67 63 68 6 69 7 70 8 71 9 73 10 74 11 75 30 76
REMARK SMILES IDX 12 77 13 78 14 81 15 82 29 83 16 84 18 85 17 86 19 87 20 88
REMARK SMILES IDX 21 89 22 90 27 91 23 92 26 93 28 94 24 95 25 96
REMARK H PARENT 3 6 84 24 54 35 7 72 30 79 30 80
REMARK Flexibility Score: inf
ROOT
ATOM      1  C   UNL     1       4.923   2.009   1.457  1.00  0.00     0.042 C 
ENDROOT
BRANCH   1   2
ATOM      2  C   UNL     1       4.588   0.526   1.353  1.00  0.00     0.118 C 
BRANCH   2   3
ATOM      3  N   UNL     1       3.159   0.298   1.158  1.00  0.00    -0.352 N 
ATOM      4  O   UNL     1       1.235   0.079   0.017  1.00  0.00    -0.269 OA
ATOM      5  C   UNL     1       2.462  -0.041   0.028  1.00  0.00     0.251 C 
ATOM      6  H   UNL     1       2.609   0.405   1.968  1.00  0.00     0.163 HD
BRANCH   5   7
ATOM      7  C   UNL     1       3.169  -0.544  -1.167  1.00  0.00     0.039 A 
ATOM      8  C   UNL     1       4.235  -1.435  -1.032  1.00  0.00     0.014 A 
ATOM      9  C   UNL     1       2.726  -0.173  -2.441  1.00  0.00     0.014 A 
ATOM     10  C   UNL     1       4.947  -1.842  -2.152  1.00  0.00     0.010 A 
ATOM     11  C   UNL     1       3.378  -0.668  -3.574  1.00  0.00     0.010 A 
ATOM     12  C   UNL     1       4.504  -1.495  -3.436  1.00  0.00    -0.014 A 
BRANCH  12  13
ATOM     13  C   UNL     1       5.158  -2.113  -4.615  1.00  0.00     0.031 A 
ATOM     14  C   UNL     1       5.885  -1.282  -5.631  1.00  0.00     0.074 A 
ATOM     15  C   UNL     1       5.081  -3.453  -4.752  1.00  0.00     0.049 A 
ATOM     16  N   UNL     1       6.492  -1.672  -6.722  1.00  0.00    -0.248 NA
ATOM     17  C   UNL     1       5.937   0.172  -5.403  1.00  0.00     0.031 C 
ATOM     18  C   UNL     1       4.389  -4.357  -3.826  1.00  0.00     0.029 A 
ATOM     19  N   UNL     1       5.589  -4.292  -5.710  1.00  0.00    -0.354 N 
ATOM     20  C   UNL     1       6.972  -0.516  -7.327  1.00  0.00     0.074 A 
ATOM     21  C   UNL     1       6.579   0.594  -6.485  1.00  0.00     0.031 C 
ATOM     22  C   UNL     1       4.545  -5.621  -4.242  1.00  0.00     0.029 A 
ATOM     23  C   UNL     1       5.275  -5.614  -5.502  1.00  0.00     0.049 A 
ATOM     24  H   UNL     1       6.126  -3.978  -6.473  1.00  0.00     0.167 HD
ATOM     25  C   UNL     1       7.672  -0.400  -8.481  1.00  0.00     0.031 A 
ATOM     26  C   UNL     1       5.511  -6.702  -6.259  1.00  0.00     0.031 A 
ATOM     27  C   UNL     1       8.058  -1.517  -9.304  1.00  0.00     0.049 A 
ATOM     28  C   UNL     1       6.250  -6.533  -7.553  1.00  0.00     0.074 A 
ATOM     29  C   UNL     1       8.822  -1.508 -10.458  1.00  0.00     0.029 A 
ATOM     30  N   UNL     1       7.698  -2.837  -9.074  1.00  0.00    -0.354 N 
ATOM     31  N   UNL     1       6.759  -5.440  -8.070  1.00  0.00    -0.248 NA
ATOM     32  C   UNL     1       6.444  -7.737  -8.370  1.00  0.00     0.031 C 
ATOM     33  C   UNL     1       8.863  -2.809 -10.966  1.00  0.00     0.029 A 
ATOM     34  C   UNL     1       8.183  -3.643 -10.091  1.00  0.00     0.049 A 
ATOM     35  H   UNL     1       7.176  -3.154  -8.303  1.00  0.00     0.167 HD
ATOM     36  C   UNL     1       7.343  -5.827  -9.269  1.00  0.00     0.074 A 
ATOM     37  C   UNL     1       7.149  -7.259  -9.386  1.00  0.00     0.031 C 
ATOM     38  C   UNL     1       7.977  -5.066 -10.193  1.00  0.00     0.031 A 
BRANCH  25  39
ATOM     39  C   UNL     1       8.040   0.982  -8.955  1.00  0.00    -0.014 A 
ATOM     40  C   UNL     1       9.040   1.737  -8.319  1.00  0.00     0.010 A 
ATOM     41  C   UNL     1       7.433   1.495 -10.118  1.00  0.00     0.010 A 
ATOM     42  C   UNL     1       9.411   2.987  -8.823  1.00  0.00     0.020 A 
ATOM     43  C   UNL     1       7.818   2.733 -10.640  1.00  0.00     0.020 A 
ATOM     44  C   UNL     1       8.799   3.476  -9.982  1.00  0.00     0.054 A 
BRANCH  44  45
ATOM     45  S   UNL     1       9.335   5.080 -10.640  1.00  0.00     0.124 S 
ATOM     46  O   UNL     1       8.796   6.007  -9.648  1.00  0.00    -0.237 OA
ATOM     47  O   UNL     1      10.790   4.950 -10.651  1.00  0.00    -0.237 OA
ATOM     48  O   UNL     1       8.707   5.145 -11.957  1.00  0.00    -0.744 OA
ENDBRANCH  44  45
ENDBRANCH  25  39
BRANCH  26  49
ATOM     49  C   UNL     1       4.986  -8.028  -5.835  1.00  0.00    -0.014 A 
ATOM     50  C   UNL     1       5.857  -9.067  -5.467  1.00  0.00     0.010 A 
ATOM     51  C   UNL     1       3.596  -8.254  -5.792  1.00  0.00     0.010 A 
ATOM     52  C   UNL     1       5.350 -10.314  -5.089  1.00  0.00     0.020 A 
ATOM     53  C   UNL     1       3.085  -9.486  -5.381  1.00  0.00     0.020 A 
ATOM     54  C   UNL     1       3.966 -10.515  -5.050  1.00  0.00     0.054 A 
BRANCH  54  55
ATOM     55  S   UNL     1       3.330 -12.132  -4.532  1.00  0.00     0.124 S 
ATOM     56  O   UNL     1       3.629 -12.961  -5.695  1.00  0.00    -0.237 OA
ATOM     57  O   UNL     1       4.119 -12.413  -3.334  1.00  0.00    -0.237 OA
ATOM     58  O   UNL     1       1.911 -11.880  -4.289  1.00  0.00    -0.744 OA
ENDBRANCH  54  55
ENDBRANCH  26  49
BRANCH  38  59
ATOM     59  C   UNL     1       8.524  -5.766 -11.406  1.00  0.00    -0.014 A 
ATOM     60  C   UNL     1       7.667  -6.244 -12.413  1.00  0.00     0.010 A 
ATOM     61  C   UNL     1       9.916  -5.885 -11.572  1.00  0.00     0.010 A 
ATOM     62  C   UNL     1       8.194  -6.845 -13.559  1.00  0.00     0.020 A 
ATOM     63  C   UNL     1      10.446  -6.457 -12.730  1.00  0.00     0.020 A 
ATOM     64  C   UNL     1       9.580  -6.941 -13.713  1.00  0.00     0.054 A 
BRANCH  64  65
ATOM     65  S   UNL     1      10.238  -7.660 -15.242  1.00  0.00     0.124 S 
ATOM     66  O   UNL     1       9.920  -9.076 -15.074  1.00  0.00    -0.237 OA
ATOM     67  O   UNL     1       9.476  -6.964 -16.276  1.00  0.00    -0.237 OA
ATOM     68  O   UNL     1      11.661  -7.332 -15.197  1.00  0.00    -0.744 OA
ENDBRANCH  64  65
ENDBRANCH  38  59
ENDBRANCH  12  13
ENDBRANCH   5   7
ENDBRANCH   2   3
ENDBRANCH   1   2
BRANCH   1  69
ATOM     69  C   UNL     1       4.280   2.677   2.662  1.00  0.00     0.118 C 
BRANCH  69  70
ATOM     70  N   UNL     1       4.845   2.215   3.917  1.00  0.00    -0.351 N 
ATOM     71  C   UNL     1       5.744   2.712   4.801  1.00  0.00     0.279 C 
ATOM     72  H   UNL     1       4.493   1.337   4.190  1.00  0.00     0.163 HD
ATOM     73  O   UNL     1       5.976   1.974   5.768  1.00  0.00    -0.268 OA
BRANCH  71  74
ATOM     74  C   UNL     1       6.489   4.063   4.647  1.00  0.00     0.283 C 
ATOM     75  C   UNL     1       5.841   5.142   3.799  1.00  0.00     0.151 C 
ATOM     76  N   UNL     1       6.651   4.656   6.004  1.00  0.00    -0.321 N 
ATOM     77  S   UNL     1       6.537   6.710   4.362  1.00  0.00    -0.088 SA
ATOM     78  C   UNL     1       7.244   5.984   5.852  1.00  0.00     0.274 C 
ATOM     79  H   UNL     1       7.264   4.067   6.568  1.00  0.00     0.348 HD
ATOM     80  H   UNL     1       5.747   4.724   6.471  1.00  0.00     0.348 HD
BRANCH  78  81
ATOM     81  C   UNL     1       7.108   6.775   7.141  1.00  0.00     0.024 A 
ATOM     82  C   UNL     1       6.304   7.912   7.307  1.00  0.00     0.011 A 
ATOM     83  C   UNL     1       7.812   6.292   8.264  1.00  0.00     0.057 A 
ATOM     84  C   UNL     1       6.231   8.559   8.543  1.00  0.00     0.004 A 
ATOM     85  C   UNL     1       7.704   6.904   9.512  1.00  0.00     0.120 A 
ATOM     86  C   UNL     1       6.933   8.058   9.638  1.00  0.00     0.046 A 
BRANCH  85  87
ATOM     87  O   UNL     1       8.233   6.430  10.683  1.00  0.00    -0.489 OA
BRANCH  87  88
ATOM     88  C   UNL     1       8.854   5.135  10.674  1.00  0.00     0.267 C 
BRANCH  88  89
ATOM     89  C   UNL     1       7.910   3.949  10.536  1.00  0.00     0.008 A 
ATOM     90  C   UNL     1       6.514   4.112  10.594  1.00  0.00     0.010 A 
ATOM     91  C   UNL     1       8.413   2.649  10.341  1.00  0.00     0.049 A 
ATOM     92  C   UNL     1       5.653   3.029  10.402  1.00  0.00     0.021 A 
ATOM     93  C   UNL     1       7.553   1.561  10.165  1.00  0.00     0.041 A 
ATOM     94  Cl  UNL     1      10.113   2.332  10.319  1.00  0.00    -0.084 Cl
ATOM     95  C   UNL     1       6.176   1.759  10.186  1.00  0.00     0.042 A 
ATOM     96  Cl  UNL     1       5.113   0.425   9.965  1.00  0.00    -0.084 Cl
ENDBRANCH  88  89
ENDBRANCH  87  88
ENDBRANCH  85  87
ENDBRANCH  78  81
ENDBRANCH  71  74
ENDBRANCH  69  70
ENDBRANCH   1  69
TORSDOF 17
