REMARK SMILES CCCCCCNC(=O)Nc1cccc(-c2ccc([C@@H](C)C(=O)NCCCNC(=O)c3ccc(-c4c5nc(c(-c6ccc(S(=O)(=O)[O-])cc6)c6ccc([nH]6)c(-c6ccc(S(=O)(=O)[O-])cc6)c6nc(c(-c7ccc(S(=O)(=O)[O-])cc7)c7ccc4[nH]7)C=C6)C=C5)cc3)cc2F)c1
REMARK SMILES IDX 20 1 21 2 19 3 16 4 17 5 92 6 18 7 91 8 93 9 15 10 11 11
REMARK SMILES IDX 12 12 94 13 13 14 14 15 10 16 7 17 8 18 9 20 6 22 5 23 4 24
REMARK SMILES IDX 3 25 2 26 1 27 22 28 23 29 24 30 25 32 26 33 27 34 28 35
REMARK SMILES IDX 29 36 30 38 31 39 32 40 90 41 33 42 89 43 34 44 35 45 36 46
REMARK SMILES IDX 83 47 37 48 88 49 82 50 84 51 38 52 87 53 81 54 80 55 39 57
REMARK SMILES IDX 69 58 50 59 68 60 51 61 54 62 67 63 85 64 52 65 53 66 66 68
REMARK SMILES IDX 86 69 55 70 40 71 41 72 49 73 42 74 48 75 43 76 44 77 45 78
REMARK SMILES IDX 46 79 47 80 70 81 71 82 79 83 72 84 78 85 73 86 74 87 75 88
REMARK SMILES IDX 76 89 77 90 56 91 57 92 65 93 58 94 64 95 59 96 60 97 61 98
REMARK SMILES IDX 62 99 63 100
REMARK H PARENT 7 19 10 21 24 31 28 37 84 56 54 67
REMARK Flexibility Score: inf
ROOT
ATOM      1  C   UNL     1      -1.653  -5.133   3.553  1.00  0.00     0.105 C 
ATOM      2  C   UNL     1      -2.357  -6.253   2.789  1.00  0.00     0.023 C 
ENDROOT
BRANCH   1   3
ATOM      3  C   UNL     1      -2.374  -3.795   3.526  1.00  0.00    -0.033 A 
ATOM      4  C   UNL     1      -3.727  -1.268   3.556  1.00  0.00     0.018 A 
ATOM      5  C   UNL     1      -3.391  -1.912   2.354  1.00  0.00     0.012 A 
ATOM      6  C   UNL     1      -3.377  -1.930   4.740  1.00  0.00     0.131 A 
ATOM      7  C   UNL     1      -2.744  -3.157   2.338  1.00  0.00     0.005 A 
ATOM      8  C   UNL     1      -2.706  -3.158   4.732  1.00  0.00     0.044 A 
ATOM      9  F   UNL     1      -3.686  -1.397   5.933  1.00  0.00    -0.206 F 
BRANCH   4  10
ATOM     10  C   UNL     1      -4.369   0.064   3.542  1.00  0.00    -0.013 A 
ATOM     11  C   UNL     1      -4.377   2.411   4.241  1.00  0.00     0.043 A 
ATOM     12  C   UNL     1      -5.437   2.683   3.379  1.00  0.00     0.026 A 
ATOM     13  C   UNL     1      -3.899   1.099   4.369  1.00  0.00     0.035 A 
ATOM     14  C   UNL     1      -5.933   1.670   2.562  1.00  0.00     0.003 A 
ATOM     15  C   UNL     1      -5.396   0.379   2.635  1.00  0.00     0.009 A 
BRANCH  11  16
ATOM     16  N   UNL     1      -3.755   3.491   4.887  1.00  0.00    -0.308 N 
ATOM     17  N   UNL     1      -1.461   3.146   4.429  1.00  0.00    -0.338 N 
ATOM     18  C   UNL     1      -2.445   3.675   5.203  1.00  0.00     0.319 C 
ATOM     19  H   UNL     1      -0.555   3.183   4.811  1.00  0.00     0.165 HD
ATOM     20  O   UNL     1      -2.131   4.415   6.136  1.00  0.00    -0.249 OA
ATOM     21  H   UNL     1      -4.356   4.225   5.151  1.00  0.00     0.171 HD
BRANCH  17  22
ATOM     22  C   UNL     1      -1.561   2.534   3.118  1.00  0.00     0.117 C 
BRANCH  22  23
ATOM     23  C   UNL     1      -0.575   3.068   2.094  1.00  0.00     0.021 C 
BRANCH  23  24
ATOM     24  C   UNL     1       0.880   2.643   2.276  1.00  0.00     0.002 C 
BRANCH  24  25
ATOM     25  C   UNL     1       1.143   1.162   2.565  1.00  0.00    -0.000 C 
BRANCH  25  26
ATOM     26  C   UNL     1       0.421   0.136   1.689  1.00  0.00    -0.003 C 
ATOM     27  C   UNL     1       0.550   0.402   0.206  1.00  0.00     0.004 C 
ENDBRANCH  25  26
ENDBRANCH  24  25
ENDBRANCH  23  24
ENDBRANCH  22  23
ENDBRANCH  17  22
ENDBRANCH  11  16
ENDBRANCH   4  10
ENDBRANCH   1   3
BRANCH   1  28
ATOM     28  C   UNL     1      -0.136  -5.047   3.337  1.00  0.00     0.227 C 
ATOM     29  O   UNL     1       0.619  -5.052   4.318  1.00  0.00    -0.274 OA
ATOM     30  N   UNL     1       0.474  -4.985   2.123  1.00  0.00    -0.356 N 
ATOM     31  H   UNL     1       1.455  -5.041   2.175  1.00  0.00     0.163 HD
BRANCH  30  32
ATOM     32  C   UNL     1      -0.027  -4.851   0.766  1.00  0.00     0.117 C 
BRANCH  32  33
ATOM     33  C   UNL     1       0.163  -3.433   0.226  1.00  0.00     0.042 C 
BRANCH  33  34
ATOM     34  C   UNL     1       1.592  -3.139  -0.240  1.00  0.00     0.118 C 
BRANCH  34  35
ATOM     35  N   UNL     1       1.839  -3.639  -1.586  1.00  0.00    -0.352 N 
ATOM     36  C   UNL     1       1.944  -2.985  -2.792  1.00  0.00     0.251 C 
ATOM     37  H   UNL     1       1.950  -4.616  -1.642  1.00  0.00     0.163 HD
ATOM     38  O   UNL     1       1.910  -3.656  -3.823  1.00  0.00    -0.269 OA
BRANCH  36  39
ATOM     39  C   UNL     1       2.083  -1.509  -2.893  1.00  0.00     0.039 A 
ATOM     40  C   UNL     1       1.419  -0.837  -3.927  1.00  0.00     0.014 A 
ATOM     41  C   UNL     1       2.921  -0.781  -2.051  1.00  0.00     0.014 A 
ATOM     42  C   UNL     1       1.536   0.556  -4.067  1.00  0.00     0.010 A 
ATOM     43  C   UNL     1       2.982   0.618  -2.153  1.00  0.00     0.010 A 
ATOM     44  C   UNL     1       2.283   1.315  -3.152  1.00  0.00    -0.014 A 
BRANCH  44  45
ATOM     45  C   UNL     1       2.348   2.813  -3.232  1.00  0.00     0.031 A 
ATOM     46  C   UNL     1       3.681   3.527  -3.309  1.00  0.00     0.074 A 
ATOM     47  C   UNL     1       1.223   3.562  -3.179  1.00  0.00     0.049 A 
ATOM     48  N   UNL     1       3.935   4.813  -3.303  1.00  0.00    -0.248 NA
ATOM     49  C   UNL     1       4.887   2.686  -3.365  1.00  0.00     0.031 C 
ATOM     50  C   UNL     1      -0.142   3.047  -3.051  1.00  0.00     0.029 A 
ATOM     51  N   UNL     1       1.049   4.929  -3.228  1.00  0.00    -0.354 N 
ATOM     52  C   UNL     1       5.322   4.931  -3.311  1.00  0.00     0.074 A 
ATOM     53  C   UNL     1       5.854   3.587  -3.269  1.00  0.00     0.031 C 
ATOM     54  C   UNL     1      -1.009   4.073  -3.078  1.00  0.00     0.029 A 
ATOM     55  C   UNL     1      -0.269   5.327  -3.177  1.00  0.00     0.049 A 
ATOM     56  H   UNL     1       1.799   5.563  -3.294  1.00  0.00     0.167 HD
ATOM     57  C   UNL     1       6.093   6.044  -3.377  1.00  0.00     0.031 A 
ATOM     58  C   UNL     1      -0.829   6.555  -3.204  1.00  0.00     0.031 A 
ATOM     59  C   UNL     1       5.587   7.387  -3.476  1.00  0.00     0.049 A 
ATOM     60  C   UNL     1       0.044   7.778  -3.307  1.00  0.00     0.074 A 
ATOM     61  C   UNL     1       6.301   8.565  -3.625  1.00  0.00     0.029 A 
ATOM     62  N   UNL     1       4.247   7.735  -3.447  1.00  0.00    -0.354 N 
ATOM     63  N   UNL     1       1.351   7.855  -3.374  1.00  0.00    -0.248 NA
ATOM     64  C   UNL     1      -0.638   9.082  -3.344  1.00  0.00     0.031 C 
ATOM     65  C   UNL     1       5.393   9.629  -3.646  1.00  0.00     0.029 A 
ATOM     66  C   UNL     1       4.113   9.109  -3.560  1.00  0.00     0.049 A 
ATOM     67  H   UNL     1       3.500   7.100  -3.358  1.00  0.00     0.167 HD
ATOM     68  C   UNL     1       1.645   9.211  -3.487  1.00  0.00     0.074 A 
ATOM     69  C   UNL     1       0.382   9.917  -3.495  1.00  0.00     0.031 C 
ATOM     70  C   UNL     1       2.856   9.813  -3.576  1.00  0.00     0.031 A 
BRANCH  57  71
ATOM     71  C   UNL     1       7.588   5.853  -3.355  1.00  0.00    -0.014 A 
ATOM     72  C   UNL     1       8.263   5.280  -4.448  1.00  0.00     0.010 A 
ATOM     73  C   UNL     1       8.332   6.280  -2.240  1.00  0.00     0.010 A 
ATOM     74  C   UNL     1       9.646   5.084  -4.403  1.00  0.00     0.020 A 
ATOM     75  C   UNL     1       9.720   6.115  -2.204  1.00  0.00     0.020 A 
ATOM     76  C   UNL     1      10.364   5.497  -3.277  1.00  0.00     0.054 A 
BRANCH  76  77
ATOM     77  S   UNL     1      12.159   5.233  -3.249  1.00  0.00     0.124 S 
ATOM     78  O   UNL     1      12.246   3.795  -3.007  1.00  0.00    -0.237 OA
ATOM     79  O   UNL     1      12.570   5.672  -4.579  1.00  0.00    -0.237 OA
ATOM     80  O   UNL     1      12.616   6.079  -2.148  1.00  0.00    -0.744 OA
ENDBRANCH  76  77
ENDBRANCH  57  71
BRANCH  58  81
ATOM     81  C   UNL     1      -2.312   6.700  -3.149  1.00  0.00    -0.014 A 
ATOM     82  C   UNL     1      -3.029   7.112  -4.287  1.00  0.00     0.010 A 
ATOM     83  C   UNL     1      -3.012   6.438  -1.959  1.00  0.00     0.010 A 
ATOM     84  C   UNL     1      -4.417   7.273  -4.232  1.00  0.00     0.020 A 
ATOM     85  C   UNL     1      -4.403   6.572  -1.907  1.00  0.00     0.020 A 
ATOM     86  C   UNL     1      -5.096   7.000  -3.041  1.00  0.00     0.054 A 
BRANCH  86  87
ATOM     87  S   UNL     1      -6.904   7.158  -3.005  1.00  0.00     0.124 S 
ATOM     88  O   UNL     1      -7.082   8.605  -2.961  1.00  0.00    -0.237 OA
ATOM     89  O   UNL     1      -7.303   6.507  -4.250  1.00  0.00    -0.237 OA
ATOM     90  O   UNL     1      -7.282   6.440  -1.789  1.00  0.00    -0.744 OA
ENDBRANCH  86  87
ENDBRANCH  58  81
BRANCH  70  91
ATOM     91  C   UNL     1       2.887  11.311  -3.727  1.00  0.00    -0.014 A 
ATOM     92  C   UNL     1       2.582  12.161  -2.649  1.00  0.00     0.010 A 
ATOM     93  C   UNL     1       3.291  11.877  -4.951  1.00  0.00     0.010 A 
ATOM     94  C   UNL     1       2.654  13.549  -2.800  1.00  0.00     0.020 A 
ATOM     95  C   UNL     1       3.388  13.264  -5.098  1.00  0.00     0.020 A 
ATOM     96  C   UNL     1       3.057  14.092  -4.025  1.00  0.00     0.054 A 
BRANCH  96  97
ATOM     97  S   UNL     1       3.191  15.895  -4.182  1.00  0.00     0.124 S 
ATOM     98  O   UNL     1       1.790  16.299  -4.260  1.00  0.00    -0.237 OA
ATOM     99  O   UNL     1       3.888  16.274  -2.955  1.00  0.00    -0.237 OA
ATOM    100  O   UNL     1       3.962  16.079  -5.410  1.00  0.00    -0.744 OA
ENDBRANCH  96  97
ENDBRANCH  70  91
ENDBRANCH  44  45
ENDBRANCH  36  39
ENDBRANCH  34  35
ENDBRANCH  33  34
ENDBRANCH  32  33
ENDBRANCH  30  32
ENDBRANCH   1  28
TORSDOF 21
