REMARK SMILES O=C(CCCCCC(F)(F)c1ccccc1)NCCCNC(=O)c1ccc(-c2c3nc(c(-c4ccc(S(=O)(=O)[O-])cc4)c4ccc([nH]4)c(-c4ccc(S(=O)(=O)[O-])cc4)c4nc(c(-c5ccc(S(=O)(=O)[O-])cc5)c5ccc2[nH]5)C=C4)C=C3)cc1
REMARK SMILES IDX 1 1 2 2 17 3 3 5 4 6 5 7 6 8 7 9 8 10 9 11 10 12 11 13 12 14
REMARK SMILES IDX 16 15 13 16 15 17 14 18 18 19 19 20 20 21 21 22 22 23 23 25
REMARK SMILES IDX 24 26 25 27 83 28 26 29 82 30 27 31 28 32 29 33 76 34 30 35
REMARK SMILES IDX 81 36 75 37 77 38 31 39 80 40 74 41 73 42 32 44 62 45 43 46
REMARK SMILES IDX 61 47 44 48 47 49 60 50 78 51 45 52 46 53 59 55 79 56 48 57
REMARK SMILES IDX 33 58 34 59 42 60 35 61 41 62 36 63 37 64 38 65 39 66 40 67
REMARK SMILES IDX 63 68 64 69 72 70 65 71 71 72 66 73 67 74 68 75 69 76 70 77
REMARK SMILES IDX 49 78 50 79 58 80 51 81 57 82 52 83 53 84 54 85 55 86 56 87
REMARK H PARENT 17 4 21 24 77 43 47 54
REMARK Flexibility Score: inf
ROOT
ATOM      1  O   UNL     1       0.775   0.098  -0.425  1.00  0.00    -0.275 OA
ATOM      2  C   UNL     1       1.851  -0.039   0.146  1.00  0.00     0.219 C 
ATOM      3  N   UNL     1       2.419   0.907   0.966  1.00  0.00    -0.356 N 
ATOM      4  H   UNL     1       3.180   0.651   1.536  1.00  0.00     0.163 HD
ENDROOT
BRANCH   2   5
ATOM      5  C   UNL     1       2.751  -1.234  -0.087  1.00  0.00     0.100 C 
BRANCH   5   6
ATOM      6  C   UNL     1       3.681  -0.956  -1.270  1.00  0.00     0.010 C 
BRANCH   6   7
ATOM      7  C   UNL     1       4.785   0.077  -1.001  1.00  0.00     0.001 C 
BRANCH   7   8
ATOM      8  C   UNL     1       5.958  -0.395  -0.135  1.00  0.00     0.007 C 
BRANCH   8   9
ATOM      9  C   UNL     1       6.762  -1.607  -0.633  1.00  0.00     0.082 C 
BRANCH   9  10
ATOM     10  C   UNL     1       7.685  -1.380  -1.846  1.00  0.00     0.273 C 
ATOM     11  F   UNL     1       8.608  -0.437  -1.494  1.00  0.00    -0.201 F 
ATOM     12  F   UNL     1       8.405  -2.534  -2.011  1.00  0.00    -0.201 F 
BRANCH  10  13
ATOM     13  C   UNL     1       6.942  -1.027  -3.116  1.00  0.00     0.021 A 
ATOM     14  C   UNL     1       7.019   0.270  -3.651  1.00  0.00     0.010 A 
ATOM     15  C   UNL     1       6.084  -1.960  -3.721  1.00  0.00     0.010 A 
ATOM     16  C   UNL     1       6.177   0.653  -4.697  1.00  0.00     0.001 A 
ATOM     17  C   UNL     1       5.247  -1.575  -4.769  1.00  0.00     0.001 A 
ATOM     18  C   UNL     1       5.278  -0.263  -5.240  1.00  0.00     0.000 A 
ENDBRANCH  10  13
ENDBRANCH   9  10
ENDBRANCH   8   9
ENDBRANCH   7   8
ENDBRANCH   6   7
ENDBRANCH   5   6
ENDBRANCH   2   5
BRANCH   3  19
ATOM     19  C   UNL     1       1.933   2.270   1.017  1.00  0.00     0.117 C 
BRANCH  19  20
ATOM     20  C   UNL     1       2.366   2.990   2.285  1.00  0.00     0.042 C 
BRANCH  20  21
ATOM     21  C   UNL     1       3.874   3.176   2.428  1.00  0.00     0.118 C 
BRANCH  21  22
ATOM     22  N   UNL     1       4.424   4.192   1.544  1.00  0.00    -0.352 N 
ATOM     23  C   UNL     1       5.165   5.309   1.856  1.00  0.00     0.251 C 
ATOM     24  H   UNL     1       4.240   4.062   0.586  1.00  0.00     0.163 HD
ATOM     25  O   UNL     1       5.435   6.124   0.977  1.00  0.00    -0.269 OA
BRANCH  23  26
ATOM     26  C   UNL     1       5.607   5.552   3.250  1.00  0.00     0.039 A 
ATOM     27  C   UNL     1       5.450   6.830   3.794  1.00  0.00     0.014 A 
ATOM     28  C   UNL     1       6.168   4.532   4.024  1.00  0.00     0.014 A 
ATOM     29  C   UNL     1       5.782   7.062   5.132  1.00  0.00     0.010 A 
ATOM     30  C   UNL     1       6.422   4.745   5.379  1.00  0.00     0.010 A 
ATOM     31  C   UNL     1       6.232   6.012   5.950  1.00  0.00    -0.014 A 
BRANCH  31  32
ATOM     32  C   UNL     1       6.493   6.222   7.401  1.00  0.00     0.031 A 
ATOM     33  C   UNL     1       7.876   6.026   7.966  1.00  0.00     0.074 A 
ATOM     34  C   UNL     1       5.473   6.537   8.226  1.00  0.00     0.049 A 
ATOM     35  N   UNL     1       8.282   6.125   9.207  1.00  0.00    -0.248 NA
ATOM     36  C   UNL     1       8.937   5.648   7.018  1.00  0.00     0.031 C 
ATOM     37  C   UNL     1       4.077   6.717   7.818  1.00  0.00     0.029 A 
ATOM     38  N   UNL     1       5.451   6.759   9.582  1.00  0.00    -0.354 N 
ATOM     39  C   UNL     1       9.636   5.810   9.191  1.00  0.00     0.074 A 
ATOM     40  C   UNL     1       9.971   5.465   7.826  1.00  0.00     0.031 C 
ATOM     41  C   UNL     1       3.344   7.051   8.892  1.00  0.00     0.029 A 
ATOM     42  C   UNL     1       4.203   7.067  10.072  1.00  0.00     0.049 A 
ATOM     43  H   UNL     1       6.253   6.703  10.149  1.00  0.00     0.167 HD
ATOM     44  C   UNL     1      10.527   5.825  10.213  1.00  0.00     0.031 A 
ATOM     45  C   UNL     1       3.790   7.327  11.328  1.00  0.00     0.031 A 
ATOM     46  C   UNL     1      10.195   6.174  11.570  1.00  0.00     0.049 A 
ATOM     47  C   UNL     1       4.794   7.322  12.449  1.00  0.00     0.074 A 
ATOM     48  C   UNL     1      11.039   6.268  12.663  1.00  0.00     0.029 A 
ATOM     49  N   UNL     1       8.921   6.482  12.022  1.00  0.00    -0.354 N 
ATOM     50  N   UNL     1       6.083   7.084  12.400  1.00  0.00    -0.248 NA
ATOM     51  C   UNL     1       4.289   7.634  13.793  1.00  0.00     0.031 C 
ATOM     52  C   UNL     1      10.267   6.575  13.788  1.00  0.00     0.029 A 
ATOM     53  C   UNL     1       8.952   6.740  13.383  1.00  0.00     0.049 A 
ATOM     54  H   UNL     1       8.114   6.512  11.460  1.00  0.00     0.167 HD
ATOM     55  C   UNL     1       6.548   7.249  13.701  1.00  0.00     0.074 A 
ATOM     56  C   UNL     1       5.405   7.621  14.509  1.00  0.00     0.031 C 
ATOM     57  C   UNL     1       7.809   7.107  14.181  1.00  0.00     0.031 A 
BRANCH  44  58
ATOM     58  C   UNL     1      11.952   5.443   9.901  1.00  0.00    -0.014 A 
ATOM     59  C   UNL     1      12.773   6.272   9.114  1.00  0.00     0.010 A 
ATOM     60  C   UNL     1      12.493   4.261  10.440  1.00  0.00     0.010 A 
ATOM     61  C   UNL     1      14.092   5.904   8.835  1.00  0.00     0.020 A 
ATOM     62  C   UNL     1      13.822   3.906  10.190  1.00  0.00     0.020 A 
ATOM     63  C   UNL     1      14.607   4.722   9.374  1.00  0.00     0.054 A 
BRANCH  63  64
ATOM     64  S   UNL     1      16.329   4.281   9.012  1.00  0.00     0.124 S 
ATOM     65  O   UNL     1      16.253   3.900   7.604  1.00  0.00    -0.237 OA
ATOM     66  O   UNL     1      17.042   5.526   9.287  1.00  0.00    -0.237 OA
ATOM     67  O   UNL     1      16.610   3.187   9.938  1.00  0.00    -0.744 OA
ENDBRANCH  63  64
ENDBRANCH  44  58
BRANCH  45  68
ATOM     68  C   UNL     1       2.355   7.630  11.593  1.00  0.00    -0.014 A 
ATOM     69  C   UNL     1       1.955   8.923  11.973  1.00  0.00     0.010 A 
ATOM     70  C   UNL     1       1.379   6.625  11.460  1.00  0.00     0.010 A 
ATOM     71  C   UNL     1       0.610   9.201  12.236  1.00  0.00     0.020 A 
ATOM     72  C   UNL     1       0.030   6.906  11.691  1.00  0.00     0.020 A 
ATOM     73  C   UNL     1      -0.345   8.190  12.090  1.00  0.00     0.054 A 
BRANCH  73  74
ATOM     74  S   UNL     1      -2.091   8.586  12.387  1.00  0.00     0.124 S 
ATOM     75  O   UNL     1      -2.127   8.723  13.840  1.00  0.00    -0.237 OA
ATOM     76  O   UNL     1      -2.266   9.822  11.629  1.00  0.00    -0.237 OA
ATOM     77  O   UNL     1      -2.800   7.428  11.849  1.00  0.00    -0.744 OA
ENDBRANCH  73  74
ENDBRANCH  45  68
BRANCH  57  78
ATOM     78  C   UNL     1       8.031   7.394  15.643  1.00  0.00    -0.014 A 
ATOM     79  C   UNL     1       7.539   6.537  16.644  1.00  0.00     0.010 A 
ATOM     80  C   UNL     1       8.783   8.523  16.020  1.00  0.00     0.010 A 
ATOM     81  C   UNL     1       7.760   6.826  17.994  1.00  0.00     0.020 A 
ATOM     82  C   UNL     1       9.034   8.797  17.366  1.00  0.00     0.020 A 
ATOM     83  C   UNL     1       8.506   7.956  18.346  1.00  0.00     0.054 A 
BRANCH  83  84
ATOM     84  S   UNL     1       8.805   8.291  20.103  1.00  0.00     0.124 S 
ATOM     85  O   UNL     1       7.492   8.745  20.554  1.00  0.00    -0.237 OA
ATOM     86  O   UNL     1       9.228   6.988  20.611  1.00  0.00    -0.237 OA
ATOM     87  O   UNL     1       9.847   9.316  20.089  1.00  0.00    -0.744 OA
ENDBRANCH  83  84
ENDBRANCH  57  78
ENDBRANCH  31  32
ENDBRANCH  23  26
ENDBRANCH  21  22
ENDBRANCH  20  21
ENDBRANCH  19  20
ENDBRANCH   3  19
TORSDOF 19
