REMARK SMILES CC[N@H+](CC(C)(C)C(=O)NCCCNC(=O)c1ccc(-c2c3nc(c(-c4ccc(S(=O)(=O)[O-])cc4)c4ccc([nH]4)c(-c4ccc(S(=O)(=O)[O-])cc4)c4nc(c(-c5ccc(S(=O)(=O)[O-])cc5)c5ccc2[nH]5)C=C4)C=C3)cc1)[C@H]1CCC[NH2+]C1
REMARK SMILES IDX 12 1 11 2 10 3 8 4 9 5 5 7 6 8 7 9 4 10 3 11 2 13 1 14 77 15
REMARK SMILES IDX 78 16 82 17 79 18 81 19 80 20 13 23 14 24 15 25 16 27 17 28
REMARK SMILES IDX 18 29 76 30 19 31 75 32 20 33 21 34 22 35 69 36 23 37 74 38
REMARK SMILES IDX 68 39 70 40 24 41 73 42 67 43 66 44 25 46 55 47 36 48 54 49
REMARK SMILES IDX 37 50 40 51 53 52 71 53 38 54 39 55 52 57 72 58 41 59 26 60
REMARK SMILES IDX 27 61 35 62 28 63 34 64 29 65 30 66 31 67 32 68 33 69 56 70
REMARK SMILES IDX 57 71 65 72 58 73 64 74 59 75 60 76 61 77 62 78 63 79 42 80
REMARK SMILES IDX 43 81 51 82 44 83 50 84 45 85 46 86 47 87 48 88 49 89
REMARK H PARENT 10 6 3 12 81 21 81 22 14 26 70 45 40 56
REMARK Flexibility Score: inf
ROOT
ATOM      1  C   UNL     1       4.051   1.820  -9.945  1.00  0.00     0.042 C 
ENDROOT
BRANCH   1   2
ATOM      2  C   UNL     1       4.115   0.757  -8.855  1.00  0.00     0.117 C 
BRANCH   2   3
ATOM      3  N   UNL     1       4.567   1.336  -7.607  1.00  0.00    -0.355 N 
ATOM      4  C   UNL     1       3.859   1.750  -6.528  1.00  0.00     0.231 C 
ATOM      5  O   UNL     1       4.317   2.740  -5.946  1.00  0.00    -0.274 OA
ATOM      6  H   UNL     1       5.542   1.447  -7.530  1.00  0.00     0.163 HD
BRANCH   4   7
ATOM      7  C   UNL     1       2.563   1.061  -6.067  1.00  0.00     0.092 C 
ATOM      8  C   UNL     1       2.532  -0.467  -6.248  1.00  0.00     0.027 C 
ATOM      9  C   UNL     1       1.413   1.717  -6.857  1.00  0.00     0.027 C 
BRANCH   7  10
ATOM     10  C   UNL     1       2.338   1.365  -4.540  1.00  0.00     0.279 C 
BRANCH  10  11
ATOM     11  N   UNL     1       3.147   0.598  -3.531  1.00  0.00    -0.327 N 
ATOM     12  H   UNL     1       3.082  -0.407  -3.693  1.00  0.00     0.348 HD
BRANCH  11  13
ATOM     13  C   UNL     1       4.588   0.912  -3.677  1.00  0.00     0.259 C 
ATOM     14  C   UNL     1       5.592   0.241  -2.747  1.00  0.00     0.071 C 
ENDBRANCH  11  13
BRANCH  11  15
ATOM     15  C   UNL     1       2.583   0.838  -2.170  1.00  0.00     0.239 C 
ATOM     16  C   UNL     1       2.827  -0.376  -1.248  1.00  0.00     0.077 C 
ATOM     17  C   UNL     1       2.969   2.192  -1.510  1.00  0.00     0.326 C 
ATOM     18  C   UNL     1       2.422  -0.097   0.198  1.00  0.00     0.068 C 
ATOM     19  N   UNL     1       2.478   2.328  -0.133  1.00  0.00    -0.341 N 
ATOM     20  C   UNL     1       2.981   1.233   0.692  1.00  0.00     0.260 C 
ATOM     21  H   UNL     1       2.799   3.216   0.253  1.00  0.00     0.346 HD
ATOM     22  H   UNL     1       1.458   2.299  -0.139  1.00  0.00     0.346 HD
ENDBRANCH  11  15
ENDBRANCH  10  11
ENDBRANCH   7  10
ENDBRANCH   4   7
ENDBRANCH   2   3
ENDBRANCH   1   2
BRANCH   1  23
ATOM     23  C   UNL     1       5.397   2.462 -10.255  1.00  0.00     0.118 C 
BRANCH  23  24
ATOM     24  N   UNL     1       6.373   1.498 -10.745  1.00  0.00    -0.352 N 
ATOM     25  C   UNL     1       6.964   1.405 -11.980  1.00  0.00     0.251 C 
ATOM     26  H   UNL     1       6.649   0.812 -10.095  1.00  0.00     0.163 HD
ATOM     27  O   UNL     1       7.588   0.391 -12.284  1.00  0.00    -0.269 OA
BRANCH  25  28
ATOM     28  C   UNL     1       6.829   2.515 -12.945  1.00  0.00     0.039 A 
ATOM     29  C   UNL     1       6.556   2.225 -14.283  1.00  0.00     0.014 A 
ATOM     30  C   UNL     1       6.964   3.842 -12.527  1.00  0.00     0.014 A 
ATOM     31  C   UNL     1       6.347   3.269 -15.185  1.00  0.00     0.010 A 
ATOM     32  C   UNL     1       6.662   4.877 -13.403  1.00  0.00     0.010 A 
ATOM     33  C   UNL     1       6.356   4.603 -14.744  1.00  0.00    -0.014 A 
BRANCH  33  34
ATOM     34  C   UNL     1       6.041   5.724 -15.666  1.00  0.00     0.031 A 
ATOM     35  C   UNL     1       7.070   6.786 -15.946  1.00  0.00     0.074 A 
ATOM     36  C   UNL     1       4.807   5.818 -16.200  1.00  0.00     0.049 A 
ATOM     37  N   UNL     1       6.963   7.863 -16.681  1.00  0.00    -0.248 NA
ATOM     38  C   UNL     1       8.383   6.633 -15.297  1.00  0.00     0.031 C 
ATOM     39  C   UNL     1       3.708   4.876 -15.967  1.00  0.00     0.029 A 
ATOM     40  N   UNL     1       4.265   6.754 -17.045  1.00  0.00    -0.354 N 
ATOM     41  C   UNL     1       8.183   8.520 -16.571  1.00  0.00     0.074 A 
ATOM     42  C   UNL     1       8.995   7.752 -15.654  1.00  0.00     0.031 C 
ATOM     43  C   UNL     1       2.638   5.264 -16.679  1.00  0.00     0.029 A 
ATOM     44  C   UNL     1       2.954   6.505 -17.378  1.00  0.00     0.049 A 
ATOM     45  H   UNL     1       4.768   7.531 -17.380  1.00  0.00     0.167 HD
ATOM     46  C   UNL     1       8.597   9.650 -17.192  1.00  0.00     0.031 A 
ATOM     47  C   UNL     1       2.099   7.200 -18.153  1.00  0.00     0.031 A 
ATOM     48  C   UNL     1       7.785  10.407 -18.107  1.00  0.00     0.049 A 
ATOM     49  C   UNL     1       2.576   8.462 -18.816  1.00  0.00     0.074 A 
ATOM     50  C   UNL     1       8.131  11.534 -18.832  1.00  0.00     0.029 A 
ATOM     51  N   UNL     1       6.464  10.120 -18.419  1.00  0.00    -0.354 N 
ATOM     52  N   UNL     1       3.759   9.028 -18.757  1.00  0.00    -0.248 NA
ATOM     53  C   UNL     1       1.607   9.175 -19.659  1.00  0.00     0.031 C 
ATOM     54  C   UNL     1       7.000  11.965 -19.533  1.00  0.00     0.029 A 
ATOM     55  C   UNL     1       5.971  11.067 -19.301  1.00  0.00     0.049 A 
ATOM     56  H   UNL     1       5.953   9.357 -18.066  1.00  0.00     0.167 HD
ATOM     57  C   UNL     1       3.683  10.149 -19.576  1.00  0.00     0.074 A 
ATOM     58  C   UNL     1       2.346  10.169 -20.134  1.00  0.00     0.031 C 
ATOM     59  C   UNL     1       4.635  11.077 -19.844  1.00  0.00     0.031 A 
BRANCH  46  60
ATOM     60  C   UNL     1       9.992  10.139 -16.895  1.00  0.00    -0.014 A 
ATOM     61  C   UNL     1      11.123   9.423 -17.327  1.00  0.00     0.010 A 
ATOM     62  C   UNL     1      10.175  11.355 -16.211  1.00  0.00     0.010 A 
ATOM     63  C   UNL     1      12.409   9.891 -17.045  1.00  0.00     0.020 A 
ATOM     64  C   UNL     1      11.459  11.844 -15.955  1.00  0.00     0.020 A 
ATOM     65  C   UNL     1      12.569  11.099 -16.359  1.00  0.00     0.054 A 
BRANCH  65  66
ATOM     66  S   UNL     1      14.250  11.694 -16.030  1.00  0.00     0.124 S 
ATOM     67  O   UNL     1      14.709  10.753 -15.012  1.00  0.00    -0.237 OA
ATOM     68  O   UNL     1      14.894  11.569 -17.336  1.00  0.00    -0.237 OA
ATOM     69  O   UNL     1      14.050  13.065 -15.566  1.00  0.00    -0.744 OA
ENDBRANCH  65  66
ENDBRANCH  46  60
BRANCH  47  70
ATOM     70  C   UNL     1       0.706   6.709 -18.349  1.00  0.00    -0.014 A 
ATOM     71  C   UNL     1       0.288   6.221 -19.600  1.00  0.00     0.010 A 
ATOM     72  C   UNL     1      -0.208   6.715 -17.279  1.00  0.00     0.010 A 
ATOM     73  C   UNL     1      -1.021   5.767 -19.782  1.00  0.00     0.020 A 
ATOM     74  C   UNL     1      -1.508   6.231 -17.449  1.00  0.00     0.020 A 
ATOM     75  C   UNL     1      -1.910   5.771 -18.704  1.00  0.00     0.054 A 
BRANCH  75  76
ATOM     76  S   UNL     1      -3.589   5.129 -18.952  1.00  0.00     0.124 S 
ATOM     77  O   UNL     1      -4.197   6.174 -19.768  1.00  0.00    -0.237 OA
ATOM     78  O   UNL     1      -3.342   3.858 -19.630  1.00  0.00    -0.237 OA
ATOM     79  O   UNL     1      -4.113   5.009 -17.593  1.00  0.00    -0.744 OA
ENDBRANCH  75  76
ENDBRANCH  47  70
BRANCH  59  80
ATOM     80  C   UNL     1       4.278  12.179 -20.806  1.00  0.00    -0.014 A 
ATOM     81  C   UNL     1       3.372  13.195 -20.452  1.00  0.00     0.010 A 
ATOM     82  C   UNL     1       4.902  12.227 -22.067  1.00  0.00     0.010 A 
ATOM     83  C   UNL     1       3.071  14.219 -21.354  1.00  0.00     0.020 A 
ATOM     84  C   UNL     1       4.630  13.267 -22.958  1.00  0.00     0.020 A 
ATOM     85  C   UNL     1       3.704  14.249 -22.601  1.00  0.00     0.054 A 
BRANCH  85  86
ATOM     86  S   UNL     1       3.329  15.614 -23.735  1.00  0.00     0.124 S 
ATOM     87  O   UNL     1       1.971  15.289 -24.164  1.00  0.00    -0.237 OA
ATOM     88  O   UNL     1       3.453  16.788 -22.874  1.00  0.00    -0.237 OA
ATOM     89  O   UNL     1       4.354  15.497 -24.770  1.00  0.00    -0.744 OA
ENDBRANCH  85  86
ENDBRANCH  59  80
ENDBRANCH  33  34
ENDBRANCH  25  28
ENDBRANCH  23  24
ENDBRANCH   1  23
TORSDOF 17
