REMARK SMILES CC(C)(C)[NH2+]Cc1ccn(CC(C)(C)C(=O)NCCCNC(=O)c2ccc(-c3c4nc(c(-c5ccc(S(=O)(=O)[O-])cc5)c5ccc([nH]5)c(-c5ccc(S(=O)(=O)[O-])cc5)c5nc(c(-c6ccc(S(=O)(=O)[O-])cc6)c6ccc3[nH]6)C=C5)C=C4)cc2)c1
REMARK SMILES IDX 18 1 17 2 15 3 16 4 12 6 13 7 14 8 11 9 10 10 7 11 8 12
REMARK SMILES IDX 84 13 9 14 6 15 5 16 2 19 1 20 3 21 4 22 19 23 20 24 21 25
REMARK SMILES IDX 22 26 23 28 24 29 25 30 83 31 26 32 82 33 27 34 28 35 29 36
REMARK SMILES IDX 76 37 30 38 81 39 75 40 77 41 31 42 80 43 74 44 73 45 32 47
REMARK SMILES IDX 62 48 43 49 61 50 44 51 47 52 60 53 78 54 45 55 46 56 59 58
REMARK SMILES IDX 79 59 48 60 33 61 34 62 42 63 35 64 41 65 36 66 37 67 38 68
REMARK SMILES IDX 39 69 40 70 63 71 64 72 72 73 65 74 71 75 66 76 67 77 68 78
REMARK SMILES IDX 69 79 70 80 49 81 50 82 58 83 51 84 57 85 52 86 53 87 54 88
REMARK SMILES IDX 55 89 56 90
REMARK H PARENT 17 5 5 17 5 18 21 27 77 46 47 57
REMARK Flexibility Score: inf
ROOT
ATOM      1  C   UNL     1       4.963   6.253  -1.843  1.00  0.00     0.117 C 
ENDROOT
BRANCH   1   2
ATOM      2  N   UNL     1       4.971   4.855  -1.460  1.00  0.00    -0.356 N 
ATOM      3  C   UNL     1       5.174   4.221  -0.275  1.00  0.00     0.227 C 
ATOM      4  O   UNL     1       5.261   2.994  -0.340  1.00  0.00    -0.274 OA
ATOM      5  H   UNL     1       4.794   4.241  -2.209  1.00  0.00     0.163 HD
BRANCH   3   6
ATOM      6  C   UNL     1       5.345   4.974   1.057  1.00  0.00     0.061 C 
ATOM      7  C   UNL     1       4.161   5.911   1.353  1.00  0.00     0.023 C 
ATOM      8  C   UNL     1       6.667   5.765   1.014  1.00  0.00     0.023 C 
BRANCH   6   9
ATOM      9  C   UNL     1       5.495   3.943   2.223  1.00  0.00     0.137 C 
BRANCH   9  10
ATOM     10  N   UNL     1       4.315   3.169   2.582  1.00  0.00    -0.353 N 
ATOM     11  C   UNL     1       2.881   1.456   2.753  1.00  0.00     0.024 A 
ATOM     12  C   UNL     1       2.399   2.554   3.526  1.00  0.00     0.029 A 
ATOM     13  C   UNL     1       4.102   1.859   2.244  1.00  0.00     0.095 A 
ATOM     14  C   UNL     1       3.304   3.585   3.408  1.00  0.00     0.086 A 
BRANCH  11  15
ATOM     15  C   UNL     1       2.242   0.122   2.527  1.00  0.00     0.299 C 
BRANCH  15  16
ATOM     16  N   UNL     1       0.800   0.227   2.312  1.00  0.00    -0.338 N 
ATOM     17  H   UNL     1       0.399  -0.692   2.500  1.00  0.00     0.347 HD
ATOM     18  H   UNL     1       0.508   0.980   2.936  1.00  0.00     0.347 HD
BRANCH  16  19
ATOM     19  C   UNL     1       0.316   0.650   0.985  1.00  0.00     0.088 C 
ATOM     20  C   UNL     1       0.826  -0.258  -0.145  1.00  0.00     0.078 C 
ATOM     21  C   UNL     1       0.634   2.116   0.645  1.00  0.00     0.078 C 
ATOM     22  C   UNL     1      -1.219   0.512   1.061  1.00  0.00     0.078 C 
ENDBRANCH  16  19
ENDBRANCH  15  16
ENDBRANCH  11  15
ENDBRANCH   9  10
ENDBRANCH   6   9
ENDBRANCH   3   6
ENDBRANCH   1   2
BRANCH   1  23
ATOM     23  C   UNL     1       6.189   6.633  -2.675  1.00  0.00     0.042 C 
BRANCH  23  24
ATOM     24  C   UNL     1       6.074   6.162  -4.119  1.00  0.00     0.118 C 
BRANCH  24  25
ATOM     25  N   UNL     1       5.011   6.873  -4.814  1.00  0.00    -0.352 N 
ATOM     26  C   UNL     1       4.673   6.867  -6.143  1.00  0.00     0.251 C 
ATOM     27  H   UNL     1       4.449   7.445  -4.242  1.00  0.00     0.163 HD
ATOM     28  O   UNL     1       3.936   7.743  -6.573  1.00  0.00    -0.269 OA
BRANCH  26  29
ATOM     29  C   UNL     1       5.213   5.839  -7.054  1.00  0.00     0.039 A 
ATOM     30  C   UNL     1       5.568   6.235  -8.349  1.00  0.00     0.014 A 
ATOM     31  C   UNL     1       5.312   4.497  -6.670  1.00  0.00     0.014 A 
ATOM     32  C   UNL     1       6.087   5.300  -9.235  1.00  0.00     0.010 A 
ATOM     33  C   UNL     1       5.861   3.566  -7.538  1.00  0.00     0.010 A 
ATOM     34  C   UNL     1       6.260   3.975  -8.813  1.00  0.00    -0.014 A 
BRANCH  34  35
ATOM     35  C   UNL     1       7.008   3.037  -9.673  1.00  0.00     0.031 A 
ATOM     36  C   UNL     1       8.536   3.247  -9.543  1.00  0.00     0.074 A 
ATOM     37  C   UNL     1       6.245   2.185 -10.426  1.00  0.00     0.049 A 
ATOM     38  N   UNL     1       9.490   2.932 -10.362  1.00  0.00    -0.248 NA
ATOM     39  C   UNL     1       9.086   3.965  -8.355  1.00  0.00     0.031 C 
ATOM     40  C   UNL     1       4.762   2.113 -10.381  1.00  0.00     0.029 A 
ATOM     41  N   UNL     1       6.525   1.218 -11.367  1.00  0.00    -0.354 N 
ATOM     42  C   UNL     1      10.727   3.252  -9.748  1.00  0.00     0.074 A 
ATOM     43  C   UNL     1      10.409   3.956  -8.545  1.00  0.00     0.031 C 
ATOM     44  C   UNL     1       4.287   1.239 -11.295  1.00  0.00     0.029 A 
ATOM     45  C   UNL     1       5.396   0.645 -12.013  1.00  0.00     0.049 A 
ATOM     46  H   UNL     1       7.447   0.942 -11.577  1.00  0.00     0.167 HD
ATOM     47  C   UNL     1      11.934   2.831 -10.234  1.00  0.00     0.031 A 
ATOM     48  C   UNL     1       5.357  -0.205 -13.085  1.00  0.00     0.031 A 
ATOM     49  C   UNL     1      11.736   2.124 -11.453  1.00  0.00     0.049 A 
ATOM     50  C   UNL     1       6.758  -0.558 -13.355  1.00  0.00     0.074 A 
ATOM     51  C   UNL     1      11.413   2.546 -12.715  1.00  0.00     0.029 A 
ATOM     52  N   UNL     1      11.499   0.775 -11.347  1.00  0.00    -0.354 N 
ATOM     53  N   UNL     1       7.486  -1.337 -12.615  1.00  0.00    -0.248 NA
ATOM     54  C   UNL     1       7.440   0.078 -14.489  1.00  0.00     0.031 C 
ATOM     55  C   UNL     1      10.506   1.560 -13.152  1.00  0.00     0.029 A 
ATOM     56  C   UNL     1      10.512   0.485 -12.256  1.00  0.00     0.049 A 
ATOM     57  H   UNL     1      11.947   0.142 -10.740  1.00  0.00     0.167 HD
ATOM     58  C   UNL     1       8.758  -0.961 -12.960  1.00  0.00     0.074 A 
ATOM     59  C   UNL     1       8.672  -0.379 -14.284  1.00  0.00     0.031 C 
ATOM     60  C   UNL     1       9.653  -0.644 -11.989  1.00  0.00     0.031 A 
BRANCH  47  61
ATOM     61  C   UNL     1      13.330   2.803  -9.666  1.00  0.00    -0.014 A 
ATOM     62  C   UNL     1      14.390   2.584 -10.588  1.00  0.00     0.010 A 
ATOM     63  C   UNL     1      13.617   2.633  -8.306  1.00  0.00     0.010 A 
ATOM     64  C   UNL     1      15.626   2.072 -10.192  1.00  0.00     0.020 A 
ATOM     65  C   UNL     1      14.877   2.152  -7.894  1.00  0.00     0.020 A 
ATOM     66  C   UNL     1      15.850   1.823  -8.845  1.00  0.00     0.054 A 
BRANCH  66  67
ATOM     67  S   UNL     1      17.393   0.987  -8.380  1.00  0.00     0.124 S 
ATOM     68  O   UNL     1      17.188  -0.358  -8.909  1.00  0.00    -0.237 OA
ATOM     69  O   UNL     1      18.405   1.783  -9.074  1.00  0.00    -0.237 OA
ATOM     70  O   UNL     1      17.418   1.095  -6.924  1.00  0.00    -0.744 OA
ENDBRANCH  66  67
ENDBRANCH  47  61
BRANCH  48  71
ATOM     71  C   UNL     1       4.344  -0.718 -14.087  1.00  0.00    -0.014 A 
ATOM     72  C   UNL     1       2.963  -0.490 -14.068  1.00  0.00     0.010 A 
ATOM     73  C   UNL     1       4.841  -1.377 -15.250  1.00  0.00     0.010 A 
ATOM     74  C   UNL     1       2.168  -0.743 -15.214  1.00  0.00     0.020 A 
ATOM     75  C   UNL     1       4.083  -1.579 -16.405  1.00  0.00     0.020 A 
ATOM     76  C   UNL     1       2.747  -1.225 -16.394  1.00  0.00     0.054 A 
BRANCH  76  77
ATOM     77  S   UNL     1       1.819  -1.242 -17.956  1.00  0.00     0.124 S 
ATOM     78  O   UNL     1       1.081  -2.498 -17.872  1.00  0.00    -0.237 OA
ATOM     79  O   UNL     1       1.012  -0.027 -17.865  1.00  0.00    -0.237 OA
ATOM     80  O   UNL     1       2.866  -1.200 -18.976  1.00  0.00    -0.744 OA
ENDBRANCH  76  77
ENDBRANCH  48  71
BRANCH  60  81
ATOM     81  C   UNL     1       9.377  -1.243 -10.613  1.00  0.00    -0.014 A 
ATOM     82  C   UNL     1       9.289  -2.640 -10.471  1.00  0.00     0.010 A 
ATOM     83  C   UNL     1       9.120  -0.466  -9.464  1.00  0.00     0.010 A 
ATOM     84  C   UNL     1       8.959  -3.237  -9.245  1.00  0.00     0.020 A 
ATOM     85  C   UNL     1       8.790  -1.053  -8.227  1.00  0.00     0.020 A 
ATOM     86  C   UNL     1       8.714  -2.441  -8.126  1.00  0.00     0.054 A 
BRANCH  86  87
ATOM     87  S   UNL     1       8.299  -3.253  -6.553  1.00  0.00     0.124 S 
ATOM     88  O   UNL     1       7.096  -4.011  -6.886  1.00  0.00    -0.237 OA
ATOM     89  O   UNL     1       9.490  -4.057  -6.290  1.00  0.00    -0.237 OA
ATOM     90  O   UNL     1       8.088  -2.140  -5.628  1.00  0.00    -0.744 OA
ENDBRANCH  86  87
ENDBRANCH  60  81
ENDBRANCH  34  35
ENDBRANCH  26  29
ENDBRANCH  24  25
ENDBRANCH  23  24
ENDBRANCH   1  23
TORSDOF 18
