REMARK SMILES O=C(NCCCNC(=O)[C@H](NC(=O)[C@H]1CC[C@@H](CNC(=O)[C@@H]2Cc3ccccc3C[NH2+]2)CC1)c1ccccc1)c1ccc(-c2c3nc(c(-c4ccc(S(=O)(=O)[O-])cc4)c4ccc([nH]4)c(-c4ccc(S(=O)(=O)[O-])cc4)c4nc(c(-c5ccc(S(=O)(=O)[O-])cc5)c5ccc2[nH]5)C=C4)C=C3)cc1
REMARK SMILES IDX 6 1 5 2 4 3 3 4 1 5 2 6 40 8 41 9 99 10 42 11 98 12 43 13
REMARK SMILES IDX 44 14 45 15 92 16 46 17 97 18 91 19 93 20 47 21 96 22 90 23
REMARK SMILES IDX 89 24 48 26 78 27 59 28 77 29 60 30 63 31 76 32 94 33 61 34
REMARK SMILES IDX 62 35 75 37 95 38 64 39 49 40 50 41 58 42 51 43 57 44 52 45
REMARK SMILES IDX 53 46 54 47 55 48 56 49 79 50 80 51 88 52 81 53 87 54 82 55
REMARK SMILES IDX 83 56 84 57 85 58 86 59 65 60 66 61 74 62 67 63 73 64 68 65
REMARK SMILES IDX 69 66 70 67 71 68 72 69 7 70 8 71 9 73 10 74 34 75 35 76
REMARK SMILES IDX 39 77 36 78 38 79 37 80 11 81 12 82 13 84 14 85 33 86 15 87
REMARK SMILES IDX 32 88 16 89 17 90 18 91 19 92 20 93 21 95 22 96 23 97 31 98
REMARK SMILES IDX 24 99 30 100 25 103 29 104 26 105 28 106 27 107
REMARK H PARENT 3 7 93 25 63 36 7 72 11 83 19 94 31 101 31 102
REMARK Flexibility Score: inf
ROOT
ATOM      1  C   UNL     1      13.402  -7.651   8.764  1.00  0.00     0.117 C 
ENDROOT
BRANCH   1   2
ATOM      2  C   UNL     1      14.681  -8.300   9.254  1.00  0.00     0.042 C 
BRANCH   2   3
ATOM      3  C   UNL     1      15.934  -7.694   8.631  1.00  0.00     0.118 C 
BRANCH   3   4
ATOM      4  N   UNL     1      16.397  -6.475   9.273  1.00  0.00    -0.352 N 
ATOM      5  O   UNL     1      17.599  -5.175  10.674  1.00  0.00    -0.269 OA
ATOM      6  C   UNL     1      17.396  -6.290  10.202  1.00  0.00     0.251 C 
ATOM      7  H   UNL     1      15.924  -5.655   9.002  1.00  0.00     0.163 HD
BRANCH   6   8
ATOM      8  C   UNL     1      18.174  -7.456  10.668  1.00  0.00     0.039 A 
ATOM      9  C   UNL     1      18.664  -8.384   9.754  1.00  0.00     0.014 A 
ATOM     10  C   UNL     1      18.345  -7.667  12.037  1.00  0.00     0.014 A 
ATOM     11  C   UNL     1      19.064  -9.633  10.201  1.00  0.00     0.010 A 
ATOM     12  C   UNL     1      18.912  -8.865  12.485  1.00  0.00     0.010 A 
ATOM     13  C   UNL     1      19.223  -9.885  11.572  1.00  0.00    -0.014 A 
BRANCH  13  14
ATOM     14  C   UNL     1      19.765 -11.200  12.004  1.00  0.00     0.031 A 
ATOM     15  C   UNL     1      19.000 -12.098  12.942  1.00  0.00     0.074 A 
ATOM     16  C   UNL     1      20.950 -11.602  11.499  1.00  0.00     0.049 A 
ATOM     17  N   UNL     1      19.353 -13.260  13.431  1.00  0.00    -0.248 NA
ATOM     18  C   UNL     1      17.679 -11.636  13.400  1.00  0.00     0.031 C 
ATOM     19  C   UNL     1      21.785 -10.820  10.580  1.00  0.00     0.029 A 
ATOM     20  N   UNL     1      21.645 -12.773  11.653  1.00  0.00    -0.354 N 
ATOM     21  C   UNL     1      18.328 -13.643  14.290  1.00  0.00     0.074 A 
ATOM     22  C   UNL     1      17.337 -12.590  14.257  1.00  0.00     0.031 C 
ATOM     23  C   UNL     1      22.829 -11.561  10.190  1.00  0.00     0.029 A 
ATOM     24  C   UNL     1      22.801 -12.825  10.911  1.00  0.00     0.049 A 
ATOM     25  H   UNL     1      21.345 -13.506  12.239  1.00  0.00     0.167 HD
ATOM     26  C   UNL     1      18.230 -14.767  15.041  1.00  0.00     0.031 A 
ATOM     27  C   UNL     1      23.761 -13.764  10.839  1.00  0.00     0.031 A 
ATOM     28  C   UNL     1      19.210 -15.823  15.044  1.00  0.00     0.049 A 
ATOM     29  C   UNL     1      23.632 -14.991  11.688  1.00  0.00     0.074 A 
ATOM     30  C   UNL     1      19.185 -17.017  15.744  1.00  0.00     0.029 A 
ATOM     31  N   UNL     1      20.388 -15.814  14.312  1.00  0.00    -0.354 N 
ATOM     32  N   UNL     1      22.656 -15.327  12.496  1.00  0.00    -0.248 NA
ATOM     33  C   UNL     1      24.738 -15.952  11.632  1.00  0.00     0.031 C 
ATOM     34  C   UNL     1      20.369 -17.710  15.469  1.00  0.00     0.029 A 
ATOM     35  C   UNL     1      21.109 -16.969  14.562  1.00  0.00     0.049 A 
ATOM     36  H   UNL     1      20.669 -15.092  13.704  1.00  0.00     0.167 HD
ATOM     37  C   UNL     1      23.033 -16.541  13.053  1.00  0.00     0.074 A 
ATOM     38  C   UNL     1      24.311 -16.893  12.465  1.00  0.00     0.031 C 
ATOM     39  C   UNL     1      22.385 -17.292  13.975  1.00  0.00     0.031 A 
BRANCH  26  40
ATOM     40  C   UNL     1      17.041 -14.903  15.955  1.00  0.00    -0.014 A 
ATOM     41  C   UNL     1      15.761 -15.204  15.458  1.00  0.00     0.010 A 
ATOM     42  C   UNL     1      17.222 -14.784  17.346  1.00  0.00     0.010 A 
ATOM     43  C   UNL     1      14.679 -15.353  16.332  1.00  0.00     0.020 A 
ATOM     44  C   UNL     1      16.148 -14.954  18.225  1.00  0.00     0.020 A 
ATOM     45  C   UNL     1      14.879 -15.222  17.711  1.00  0.00     0.054 A 
BRANCH  45  46
ATOM     46  S   UNL     1      13.463 -15.443  18.825  1.00  0.00     0.124 S 
ATOM     47  O   UNL     1      12.733 -14.192  18.632  1.00  0.00    -0.237 OA
ATOM     48  O   UNL     1      12.814 -16.636  18.288  1.00  0.00    -0.237 OA
ATOM     49  O   UNL     1      14.078 -15.609  20.139  1.00  0.00    -0.744 OA
ENDBRANCH  45  46
ENDBRANCH  26  40
BRANCH  27  50
ATOM     50  C   UNL     1      24.944 -13.536   9.970  1.00  0.00    -0.014 A 
ATOM     51  C   UNL     1      25.122 -14.277   8.790  1.00  0.00     0.010 A 
ATOM     52  C   UNL     1      25.870 -12.525  10.293  1.00  0.00     0.010 A 
ATOM     53  C   UNL     1      26.206 -14.010   7.948  1.00  0.00     0.020 A 
ATOM     54  C   UNL     1      26.935 -12.236   9.439  1.00  0.00     0.020 A 
ATOM     55  C   UNL     1      27.102 -12.988   8.275  1.00  0.00     0.054 A 
BRANCH  55  56
ATOM     56  S   UNL     1      28.456 -12.601   7.131  1.00  0.00     0.124 S 
ATOM     57  O   UNL     1      29.418 -13.655   7.436  1.00  0.00    -0.237 OA
ATOM     58  O   UNL     1      27.806 -12.694   5.825  1.00  0.00    -0.237 OA
ATOM     59  O   UNL     1      28.855 -11.251   7.522  1.00  0.00    -0.744 OA
ENDBRANCH  55  56
ENDBRANCH  27  50
BRANCH  39  60
ATOM     60  C   UNL     1      23.049 -18.571  14.396  1.00  0.00    -0.014 A 
ATOM     61  C   UNL     1      24.153 -18.555  15.266  1.00  0.00     0.010 A 
ATOM     62  C   UNL     1      22.540 -19.801  13.946  1.00  0.00     0.010 A 
ATOM     63  C   UNL     1      24.756 -19.752  15.659  1.00  0.00     0.020 A 
ATOM     64  C   UNL     1      23.127 -21.001  14.354  1.00  0.00     0.020 A 
ATOM     65  C   UNL     1      24.239 -20.967  15.198  1.00  0.00     0.054 A 
BRANCH  65  66
ATOM     66  S   UNL     1      25.011 -22.511  15.754  1.00  0.00     0.124 S 
ATOM     67  O   UNL     1      26.221 -22.556  14.938  1.00  0.00    -0.237 OA
ATOM     68  O   UNL     1      25.222 -22.271  17.179  1.00  0.00    -0.237 OA
ATOM     69  O   UNL     1      24.009 -23.529  15.442  1.00  0.00    -0.744 OA
ENDBRANCH  65  66
ENDBRANCH  39  60
ENDBRANCH  13  14
ENDBRANCH   6   8
ENDBRANCH   3   4
ENDBRANCH   2   3
ENDBRANCH   1   2
BRANCH   1  70
ATOM     70  N   UNL     1      13.376  -7.569   7.317  1.00  0.00    -0.354 N 
ATOM     71  C   UNL     1      12.441  -7.032   6.497  1.00  0.00     0.247 C 
ATOM     72  H   UNL     1      14.154  -7.964   6.862  1.00  0.00     0.163 HD
ATOM     73  O   UNL     1      12.652  -7.106   5.280  1.00  0.00    -0.272 OA
BRANCH  71  74
ATOM     74  C   UNL     1      11.078  -6.549   7.042  1.00  0.00     0.202 C 
BRANCH  74  75
ATOM     75  C   UNL     1      10.245  -7.834   7.250  1.00  0.00    -0.016 A 
ATOM     76  C   UNL     1      10.022  -8.677   6.141  1.00  0.00     0.006 A 
ATOM     77  C   UNL     1       9.869  -8.308   8.520  1.00  0.00     0.006 A 
ATOM     78  C   UNL     1       9.520  -9.969   6.307  1.00  0.00     0.000 A 
ATOM     79  C   UNL     1       9.347  -9.595   8.679  1.00  0.00     0.000 A 
ATOM     80  C   UNL     1       9.193 -10.431   7.577  1.00  0.00     0.000 A 
ENDBRANCH  74  75
BRANCH  74  81
ATOM     81  N   UNL     1      11.061  -5.690   8.233  1.00  0.00    -0.340 N 
ATOM     82  C   UNL     1      11.600  -4.479   8.516  1.00  0.00     0.224 C 
ATOM     83  H   UNL     1      10.552  -6.074   8.982  1.00  0.00     0.164 HD
ATOM     84  O   UNL     1      10.930  -3.791   9.295  1.00  0.00    -0.275 OA
BRANCH  82  85
ATOM     85  C   UNL     1      12.998  -4.021   8.061  1.00  0.00     0.078 C 
ATOM     86  C   UNL     1      13.152  -3.863   6.549  1.00  0.00     0.014 C 
ATOM     87  C   UNL     1      13.348  -2.708   8.819  1.00  0.00     0.014 C 
ATOM     88  C   UNL     1      14.476  -3.198   6.168  1.00  0.00     0.006 C 
ATOM     89  C   UNL     1      14.587  -1.968   8.313  1.00  0.00     0.006 C 
ATOM     90  C   UNL     1      14.594  -1.804   6.792  1.00  0.00     0.008 C 
BRANCH  90  91
ATOM     91  C   UNL     1      13.451  -0.920   6.266  1.00  0.00     0.119 C 
BRANCH  91  92
ATOM     92  N   UNL     1      13.703   0.500   6.377  1.00  0.00    -0.351 N 
ATOM     93  C   UNL     1      13.452   1.452   5.425  1.00  0.00     0.278 C 
ATOM     94  H   UNL     1      14.095   0.814   7.224  1.00  0.00     0.163 HD
ATOM     95  O   UNL     1      13.515   2.645   5.735  1.00  0.00    -0.268 OA
BRANCH  93  96
ATOM     96  C   UNL     1      13.146   1.005   3.980  1.00  0.00     0.277 C 
ATOM     97  C   UNL     1      14.478   0.619   3.312  1.00  0.00     0.111 C 
ATOM     98  N   UNL     1      12.337   2.043   3.290  1.00  0.00    -0.332 N 
ATOM     99  C   UNL     1      14.229   0.294   1.867  1.00  0.00    -0.033 A 
ATOM    100  C   UNL     1      12.746   2.308   1.909  1.00  0.00     0.298 C 
ATOM    101  H   UNL     1      12.414   2.912   3.818  1.00  0.00     0.347 HD
ATOM    102  H   UNL     1      11.382   1.688   3.247  1.00  0.00     0.347 HD
ATOM    103  C   UNL     1      14.873  -0.757   1.212  1.00  0.00     0.004 A 
ATOM    104  C   UNL     1      13.317   1.114   1.182  1.00  0.00     0.010 A 
ATOM    105  C   UNL     1      14.591  -1.008  -0.130  1.00  0.00     0.000 A 
ATOM    106  C   UNL     1      13.046   0.857  -0.165  1.00  0.00     0.010 A 
ATOM    107  C   UNL     1      13.677  -0.206  -0.815  1.00  0.00     0.001 A 
ENDBRANCH  93  96
ENDBRANCH  91  92
ENDBRANCH  90  91
ENDBRANCH  82  85
ENDBRANCH  74  81
ENDBRANCH  71  74
ENDBRANCH   1  70
TORSDOF 19
