REMARK SMILES C[C@@H](C(=O)NCCCNC(=O)c1ccc(-c2c3nc(c(-c4ccc(S(=O)(=O)[O-])cc4)c4ccc([nH]4)c(-c4ccc(S(=O)(=O)[O-])cc4)c4nc(c(-c5ccc(S(=O)(=O)[O-])cc5)c5ccc2[nH]5)C=C4)C=C3)cc1)N1CC[C@@]2(CCC1=O)Nc1ccccc1S(=O)(=O)N2
REMARK SMILES IDX 6 1 5 2 3 3 4 4 2 6 1 7 72 8 73 9 74 10 75 11 80 12 90 13
REMARK SMILES IDX 81 14 87 16 82 18 86 19 88 20 89 21 83 22 85 23 84 24 76 25
REMARK SMILES IDX 78 27 79 28 77 29 7 31 8 32 9 33 10 34 11 36 12 37 13 38
REMARK SMILES IDX 71 39 14 40 70 41 15 42 16 43 17 44 64 45 18 46 69 47 63 48
REMARK SMILES IDX 65 49 19 50 68 51 62 52 61 53 20 55 50 56 31 57 49 58 32 59
REMARK SMILES IDX 35 60 48 61 66 62 33 63 34 64 47 66 67 67 36 68 21 69 22 70
REMARK SMILES IDX 30 71 23 72 29 73 24 74 25 75 26 76 27 77 28 78 51 79 52 80
REMARK SMILES IDX 60 81 53 82 59 83 54 84 55 85 56 86 57 87 58 88 37 89 38 90
REMARK SMILES IDX 46 91 39 92 45 93 40 94 41 95 42 96 43 97 44 98
REMARK H PARENT 5 5 80 15 90 17 9 35 65 54 35 65
REMARK Flexibility Score: 80.00
ROOT
ATOM      1  C   UNL     1       3.564   0.892  -1.820  1.00  0.00     0.117 C 
ENDROOT
BRANCH   1   2
ATOM      2  N   UNL     1       2.473   0.511  -2.700  1.00  0.00    -0.354 N 
ATOM      3  C   UNL     1       1.130   0.421  -2.441  1.00  0.00     0.242 C 
ATOM      4  O   UNL     1       0.374   0.380  -3.414  1.00  0.00    -0.273 OA
ATOM      5  H   UNL     1       2.738   0.283  -3.620  1.00  0.00     0.163 HD
BRANCH   3   6
ATOM      6  C   UNL     1       0.628   0.479  -0.976  1.00  0.00     0.171 C 
ATOM      7  C   UNL     1       1.172  -0.630  -0.073  1.00  0.00     0.042 C 
BRANCH   6   8
ATOM      8  N   UNL     1      -0.841   0.525  -0.819  1.00  0.00    -0.331 N 
BRANCH   8   9
ATOM      9  C   UNL     1      -1.461   1.827  -0.656  1.00  0.00     0.124 C 
BRANCH   9  10
ATOM     10  C   UNL     1      -2.456   1.899   0.487  1.00  0.00     0.067 C 
BRANCH  10  11
ATOM     11  C   UNL     1      -3.881   1.422   0.129  1.00  0.00     0.104 C 
ATOM     12  N   UNL     1      -4.750   1.677   1.270  1.00  0.00    -0.365 N 
ATOM     13  N   UNL     1      -4.477   2.124  -1.009  1.00  0.00    -0.187 NA
ATOM     14  C   UNL     1      -5.066   2.962   1.673  1.00  0.00     0.056 A 
ATOM     15  H   UNL     1      -5.123   0.914   1.768  1.00  0.00     0.162 HD
ATOM     16  S   UNL     1      -4.631   3.786  -0.873  1.00  0.00     0.244 S 
ATOM     17  H   UNL     1      -5.410   1.739  -1.155  1.00  0.00     0.143 HD
ATOM     18  C   UNL     1      -5.368   3.215   3.015  1.00  0.00     0.027 A 
ATOM     19  C   UNL     1      -4.963   4.064   0.824  1.00  0.00     0.105 A 
ATOM     20  O   UNL     1      -3.325   4.340  -1.163  1.00  0.00    -0.207 OA
ATOM     21  O   UNL     1      -5.791   4.174  -1.646  1.00  0.00    -0.207 OA
ATOM     22  C   UNL     1      -5.518   4.526   3.487  1.00  0.00     0.002 A 
ATOM     23  C   UNL     1      -5.099   5.379   1.276  1.00  0.00     0.024 A 
ATOM     24  C   UNL     1      -5.369   5.608   2.621  1.00  0.00     0.002 A 
BRANCH  11  25
ATOM     25  C   UNL     1      -3.953  -0.095  -0.212  1.00  0.00     0.055 CG0
ATOM     26  G   UNL     1      -2.679  -0.901  -0.038  1.00  0.00     0.000 G0
ENDBRANCH  11  25
ENDBRANCH  10  11
ENDBRANCH   9  10
ENDBRANCH   8   9
BRANCH   8  27
ATOM     27  C   UNL     1      -1.566  -0.636  -1.031  1.00  0.00     0.223 C 
ATOM     28  O   UNL     1      -1.209  -1.528  -1.797  1.00  0.00    -0.275 OA
BRANCH  27  29
ATOM     29  C   UNL     1      -2.679  -0.901  -0.038  1.00  0.00     0.104 CG0
ATOM     30  G   UNL     1      -3.953  -0.095  -0.212  1.00  0.00     0.000 G0
ENDBRANCH  27  29
ENDBRANCH   8  27
ENDBRANCH   6   8
ENDBRANCH   3   6
ENDBRANCH   1   2
BRANCH   1  31
ATOM     31  C   UNL     1       4.467  -0.273  -1.431  1.00  0.00     0.042 C 
BRANCH  31  32
ATOM     32  C   UNL     1       5.162  -0.958  -2.600  1.00  0.00     0.118 C 
BRANCH  32  33
ATOM     33  N   UNL     1       6.097  -0.084  -3.288  1.00  0.00    -0.352 N 
ATOM     34  C   UNL     1       7.453  -0.205  -3.467  1.00  0.00     0.251 C 
ATOM     35  H   UNL     1       5.695   0.721  -3.689  1.00  0.00     0.163 HD
ATOM     36  O   UNL     1       8.081   0.747  -3.925  1.00  0.00    -0.269 OA
BRANCH  34  37
ATOM     37  C   UNL     1       8.163  -1.450  -3.093  1.00  0.00     0.039 A 
ATOM     38  C   UNL     1       9.413  -1.345  -2.477  1.00  0.00     0.014 A 
ATOM     39  C   UNL     1       7.628  -2.712  -3.369  1.00  0.00     0.014 A 
ATOM     40  C   UNL     1      10.094  -2.500  -2.082  1.00  0.00     0.010 A 
ATOM     41  C   UNL     1       8.272  -3.859  -2.907  1.00  0.00     0.010 A 
ATOM     42  C   UNL     1       9.513  -3.766  -2.262  1.00  0.00    -0.014 A 
BRANCH  42  43
ATOM     43  C   UNL     1      10.192  -4.993  -1.771  1.00  0.00     0.031 A 
ATOM     44  C   UNL     1      10.664  -6.045  -2.738  1.00  0.00     0.074 A 
ATOM     45  C   UNL     1      10.343  -5.180  -0.444  1.00  0.00     0.049 A 
ATOM     46  N   UNL     1      11.250  -7.189  -2.489  1.00  0.00    -0.248 NA
ATOM     47  C   UNL     1      10.431  -5.791  -4.169  1.00  0.00     0.031 C 
ATOM     48  C   UNL     1       9.884  -4.260   0.600  1.00  0.00     0.029 A 
ATOM     49  N   UNL     1      10.924  -6.209   0.255  1.00  0.00    -0.354 N 
ATOM     50  C   UNL     1      11.448  -7.792  -3.725  1.00  0.00     0.074 A 
ATOM     51  C   UNL     1      10.876  -6.912  -4.721  1.00  0.00     0.031 C 
ATOM     52  C   UNL     1      10.222  -4.754   1.802  1.00  0.00     0.029 A 
ATOM     53  C   UNL     1      10.891  -6.038   1.619  1.00  0.00     0.049 A 
ATOM     54  H   UNL     1      11.325  -6.996  -0.180  1.00  0.00     0.167 HD
ATOM     55  C   UNL     1      12.068  -8.962  -4.010  1.00  0.00     0.031 A 
ATOM     56  C   UNL     1      11.344  -6.825   2.613  1.00  0.00     0.031 A 
ATOM     57  C   UNL     1      12.646  -9.834  -3.022  1.00  0.00     0.049 A 
ATOM     58  C   UNL     1      12.035  -8.116   2.270  1.00  0.00     0.074 A 
ATOM     59  C   UNL     1      13.336 -11.019  -3.216  1.00  0.00     0.029 A 
ATOM     60  N   UNL     1      12.608  -9.615  -1.653  1.00  0.00    -0.354 N 
ATOM     61  N   UNL     1      12.262  -8.639   1.088  1.00  0.00    -0.248 NA
ATOM     62  C   UNL     1      12.542  -8.915   3.393  1.00  0.00     0.031 C 
ATOM     63  C   UNL     1      13.679 -11.537  -1.963  1.00  0.00     0.029 A 
ATOM     64  C   UNL     1      13.246 -10.650  -0.990  1.00  0.00     0.049 A 
ATOM     65  H   UNL     1      12.188  -8.839  -1.217  1.00  0.00     0.167 HD
ATOM     66  C   UNL     1      12.955  -9.820   1.327  1.00  0.00     0.074 A 
ATOM     67  C   UNL     1      13.129  -9.922   2.761  1.00  0.00     0.031 C 
ATOM     68  C   UNL     1      13.404 -10.740   0.438  1.00  0.00     0.031 A 
BRANCH  55  69
ATOM     69  C   UNL     1      12.162  -9.366  -5.457  1.00  0.00    -0.014 A 
ATOM     70  C   UNL     1      13.029  -8.693  -6.338  1.00  0.00     0.010 A 
ATOM     71  C   UNL     1      11.420 -10.463  -5.932  1.00  0.00     0.010 A 
ATOM     72  C   UNL     1      13.128  -9.089  -7.674  1.00  0.00     0.020 A 
ATOM     73  C   UNL     1      11.536 -10.878  -7.262  1.00  0.00     0.020 A 
ATOM     74  C   UNL     1      12.380 -10.179  -8.128  1.00  0.00     0.054 A 
BRANCH  74  75
ATOM     75  S   UNL     1      12.558 -10.695  -9.858  1.00  0.00     0.124 S 
ATOM     76  O   UNL     1      11.823  -9.646 -10.562  1.00  0.00    -0.237 OA
ATOM     77  O   UNL     1      14.006 -10.683 -10.050  1.00  0.00    -0.237 OA
ATOM     78  O   UNL     1      11.939 -12.018  -9.891  1.00  0.00    -0.744 OA
ENDBRANCH  74  75
ENDBRANCH  55  69
BRANCH  56  79
ATOM     79  C   UNL     1      11.165  -6.412   4.031  1.00  0.00    -0.014 A 
ATOM     80  C   UNL     1      12.266  -5.994   4.799  1.00  0.00     0.010 A 
ATOM     81  C   UNL     1       9.887  -6.432   4.619  1.00  0.00     0.010 A 
ATOM     82  C   UNL     1      12.096  -5.628   6.138  1.00  0.00     0.020 A 
ATOM     83  C   UNL     1       9.710  -6.041   5.948  1.00  0.00     0.020 A 
ATOM     84  C   UNL     1      10.819  -5.655   6.704  1.00  0.00     0.054 A 
BRANCH  84  85
ATOM     85  S   UNL     1      10.610  -5.135   8.430  1.00  0.00     0.124 S 
ATOM     86  O   UNL     1      11.091  -6.303   9.159  1.00  0.00    -0.237 OA
ATOM     87  O   UNL     1      11.456  -3.946   8.508  1.00  0.00    -0.237 OA
ATOM     88  O   UNL     1       9.175  -4.875   8.534  1.00  0.00    -0.744 OA
ENDBRANCH  84  85
ENDBRANCH  56  79
BRANCH  68  89
ATOM     89  C   UNL     1      14.145 -11.926   0.994  1.00  0.00    -0.014 A 
ATOM     90  C   UNL     1      13.466 -12.947   1.683  1.00  0.00     0.010 A 
ATOM     91  C   UNL     1      15.533 -12.034   0.800  1.00  0.00     0.010 A 
ATOM     92  C   UNL     1      14.170 -14.035   2.205  1.00  0.00     0.020 A 
ATOM     93  C   UNL     1      16.237 -13.133   1.297  1.00  0.00     0.020 A 
ATOM     94  C   UNL     1      15.553 -14.118   2.013  1.00  0.00     0.054 A 
BRANCH  94  95
ATOM     95  S   UNL     1      16.444 -15.551   2.679  1.00  0.00     0.124 S 
ATOM     96  O   UNL     1      16.516 -15.228   4.101  1.00  0.00    -0.237 OA
ATOM     97  O   UNL     1      15.567 -16.666   2.331  1.00  0.00    -0.237 OA
ATOM     98  O   UNL     1      17.720 -15.525   1.967  1.00  0.00    -0.744 OA
ENDBRANCH  94  95
ENDBRANCH  68  89
ENDBRANCH  42  43
ENDBRANCH  34  37
ENDBRANCH  32  33
ENDBRANCH  31  32
ENDBRANCH   1  31
TORSDOF 14
