REMARK SMILES Cc1cc(S(F)(F)(F)(F)F)cc2c1O[C@H](C(F)(F)F)C(C(=O)NCCCNC(=O)c1ccc(-c3c4nc(c(-c5ccc(S(=O)(=O)[O-])cc5)c5ccc([nH]5)c(-c5ccc(S(=O)(=O)[O-])cc5)c5nc(c(-c6ccc(S(=O)(=O)[O-])cc6)c6ccc3[nH]6)C=C5)C=C4)cc1)=C2
REMARK SMILES IDX 26 1 25 2 24 3 23 4 21 5 22 6 20 8 1 9 2 10 3 11 13 12 4 13
REMARK SMILES IDX 12 14 14 15 11 16 90 17 15 18 5 19 6 20 7 21 8 22 9 23 10 24
REMARK SMILES IDX 16 25 17 26 18 27 19 28 27 29 28 30 29 32 30 33 31 34 89 35
REMARK SMILES IDX 32 36 88 37 33 38 34 39 35 40 82 41 36 42 87 43 81 44 83 45
REMARK SMILES IDX 37 46 86 47 80 48 79 49 38 51 68 52 49 53 67 54 50 55 53 56
REMARK SMILES IDX 66 57 84 58 51 59 52 60 65 62 85 63 54 64 39 65 40 66 48 67
REMARK SMILES IDX 41 68 47 69 42 70 43 71 44 72 45 73 46 74 69 75 70 76 78 77
REMARK SMILES IDX 71 78 77 79 72 80 73 81 74 82 75 83 76 84 55 85 56 86 64 87
REMARK SMILES IDX 57 88 63 89 58 90 59 91 60 92 61 93 62 94
REMARK H PARENT 23 7 27 31 83 50 53 61
REMARK Flexibility Score: inf
ROOT
ATOM      1  C   UNL     1       7.891  -4.942   1.783  1.00  0.00     0.118 C 
ENDROOT
BRANCH   1   2
ATOM      2  C   UNL     1       6.723  -3.976   1.680  1.00  0.00     0.042 C 
BRANCH   2   3
ATOM      3  C   UNL     1       5.988  -4.207   0.370  1.00  0.00     0.118 C 
BRANCH   3   4
ATOM      4  N   UNL     1       5.487  -5.588   0.326  1.00  0.00    -0.352 N 
ATOM      5  C   UNL     1       4.045  -5.844   0.200  1.00  0.00     0.251 C 
ATOM      6  O   UNL     1       3.612  -7.038   0.162  1.00  0.00    -0.270 OA
ATOM      7  H   UNL     1       6.117  -6.343   0.381  1.00  0.00     0.163 HD
BRANCH   5   8
ATOM      8  C   UNL     1       3.071  -4.679   0.114  1.00  0.00     0.067 C 
ATOM      9  C   UNL     1       0.932  -0.013  -0.072  1.00  0.00     0.048 C 
ATOM     10  C   UNL     1       0.425  -1.445  -0.116  1.00  0.00    -0.007 A 
ATOM     11  C   UNL     1      -0.923  -1.704  -0.233  1.00  0.00     0.031 A 
ATOM     12  C   UNL     1       1.322  -2.510  -0.038  1.00  0.00     0.130 A 
ATOM     13  C   UNL     1      -1.395  -3.010  -0.270  1.00  0.00     0.108 A 
ATOM     14  C   UNL     1       0.839  -3.837  -0.081  1.00  0.00     0.019 A 
ATOM     15  O   UNL     1       2.770  -2.301   0.088  1.00  0.00    -0.475 OA
ATOM     16  C   UNL     1      -0.533  -4.069  -0.201  1.00  0.00     0.036 A 
ATOM     17  C   UNL     1       1.802  -4.935   0.003  1.00  0.00     0.025 C 
ATOM     18  C   UNL     1       3.577  -3.380   0.159  1.00  0.00     0.314 C 
BRANCH  13  19
ATOM     19  S   UNL     1      -3.173  -3.314  -0.409  1.00  0.00     0.310 S 
ATOM     20  F   UNL     1      -3.360  -3.316   1.166  1.00  0.00    -0.094 F 
ATOM     21  F   UNL     1      -2.888  -4.860  -0.309  1.00  0.00    -0.094 F 
ATOM     22  F   UNL     1      -4.701  -3.575  -0.530  1.00  0.00    -0.094 F 
ATOM     23  F   UNL     1      -3.451  -1.759  -0.367  1.00  0.00    -0.094 F 
ATOM     24  F   UNL     1      -1.636  -3.031  -0.174  1.00  0.00    -0.094 F 
ENDBRANCH  13  19
BRANCH  18  25
ATOM     25  C   UNL     1       4.351  -3.290  -1.146  1.00  0.00     0.429 C 
ATOM     26  F   UNL     1       4.964  -2.111  -1.218  1.00  0.00    -0.167 F 
ATOM     27  F   UNL     1       5.257  -4.263  -1.192  1.00  0.00    -0.167 F 
ATOM     28  F   UNL     1       3.512  -3.416  -2.170  1.00  0.00    -0.167 F 
ENDBRANCH  18  25
ENDBRANCH   5   8
ENDBRANCH   3   4
ENDBRANCH   2   3
ENDBRANCH   1   2
BRANCH   1  29
ATOM     29  N   UNL     1       8.812  -4.719   0.659  1.00  0.00    -0.352 N 
ATOM     30  C   UNL     1      10.207  -4.333   0.916  1.00  0.00     0.251 C 
ATOM     31  H   UNL     1       8.494  -4.827  -0.267  1.00  0.00     0.163 HD
ATOM     32  O   UNL     1      11.003  -4.140  -0.056  1.00  0.00    -0.269 OA
BRANCH  30  33
ATOM     33  C   UNL     1      10.697  -4.166   2.345  1.00  0.00     0.039 A 
ATOM     34  C   UNL     1      11.455  -3.059   2.714  1.00  0.00     0.014 A 
ATOM     35  C   UNL     1      10.398  -5.054   3.268  1.00  0.00     0.014 A 
ATOM     36  C   UNL     1      11.421  -2.698   4.080  1.00  0.00     0.010 A 
ATOM     37  C   UNL     1      10.839  -4.894   4.587  1.00  0.00     0.010 A 
ATOM     38  C   UNL     1      11.339  -3.746   4.994  1.00  0.00    -0.014 A 
BRANCH  38  39
ATOM     39  C   UNL     1      11.814  -3.569   6.427  1.00  0.00     0.031 A 
ATOM     40  C   UNL     1      12.838  -4.401   6.883  1.00  0.00     0.074 A 
ATOM     41  C   UNL     1      11.223  -2.578   7.192  1.00  0.00     0.049 A 
ATOM     42  N   UNL     1      13.437  -4.376   8.075  1.00  0.00    -0.248 NA
ATOM     43  C   UNL     1      13.444  -5.476   6.083  1.00  0.00     0.031 C 
ATOM     44  C   UNL     1      10.196  -1.729   6.737  1.00  0.00     0.029 A 
ATOM     45  N   UNL     1      11.506  -2.236   8.496  1.00  0.00    -0.354 N 
ATOM     46  C   UNL     1      14.384  -5.314   8.134  1.00  0.00     0.074 A 
ATOM     47  C   UNL     1      14.399  -6.039   6.856  1.00  0.00     0.031 C 
ATOM     48  C   UNL     1       9.855  -0.895   7.755  1.00  0.00     0.029 A 
ATOM     49  C   UNL     1      10.665  -1.208   8.863  1.00  0.00     0.049 A 
ATOM     50  H   UNL     1      12.190  -2.653   9.067  1.00  0.00     0.167 HD
ATOM     51  C   UNL     1      15.238  -5.592   9.203  1.00  0.00     0.031 A 
ATOM     52  C   UNL     1      10.592  -0.569  10.090  1.00  0.00     0.031 A 
ATOM     53  C   UNL     1      15.194  -4.922  10.416  1.00  0.00     0.049 A 
ATOM     54  C   UNL     1      11.407  -0.886  11.179  1.00  0.00     0.074 A 
ATOM     55  C   UNL     1      16.053  -5.185  11.500  1.00  0.00     0.029 A 
ATOM     56  N   UNL     1      14.337  -3.912  10.791  1.00  0.00    -0.354 N 
ATOM     57  N   UNL     1      12.381  -1.796  11.225  1.00  0.00    -0.248 NA
ATOM     58  C   UNL     1      11.317  -0.237  12.494  1.00  0.00     0.031 C 
ATOM     59  C   UNL     1      15.713  -4.351  12.519  1.00  0.00     0.029 A 
ATOM     60  C   UNL     1      14.635  -3.554  12.087  1.00  0.00     0.049 A 
ATOM     61  H   UNL     1      13.633  -3.514  10.229  1.00  0.00     0.167 HD
ATOM     62  C   UNL     1      12.951  -1.799  12.432  1.00  0.00     0.074 A 
ATOM     63  C   UNL     1      12.270  -0.801  13.268  1.00  0.00     0.031 C 
ATOM     64  C   UNL     1      14.014  -2.591  12.868  1.00  0.00     0.031 A 
BRANCH  51  65
ATOM     65  C   UNL     1      16.275  -6.690   9.027  1.00  0.00    -0.014 A 
ATOM     66  C   UNL     1      17.240  -6.604   8.029  1.00  0.00     0.010 A 
ATOM     67  C   UNL     1      16.281  -7.744   9.814  1.00  0.00     0.010 A 
ATOM     68  C   UNL     1      18.425  -7.346   8.232  1.00  0.00     0.020 A 
ATOM     69  C   UNL     1      17.230  -8.758   9.645  1.00  0.00     0.020 A 
ATOM     70  C   UNL     1      18.282  -8.574   8.876  1.00  0.00     0.054 A 
BRANCH  70  71
ATOM     71  S   UNL     1      19.513  -9.883   8.659  1.00  0.00     0.124 S 
ATOM     72  O   UNL     1      19.600 -10.262   7.179  1.00  0.00    -0.237 OA
ATOM     73  O   UNL     1      20.878  -9.384   9.139  1.00  0.00    -0.237 OA
ATOM     74  O   UNL     1      19.055 -11.254   9.573  1.00  0.00    -0.744 OA
ENDBRANCH  70  71
ENDBRANCH  51  65
BRANCH  52  75
ATOM     75  C   UNL     1       9.567   0.541  10.261  1.00  0.00    -0.014 A 
ATOM     76  C   UNL     1       9.964   1.833  10.585  1.00  0.00     0.010 A 
ATOM     77  C   UNL     1       8.282   0.302  10.106  1.00  0.00     0.010 A 
ATOM     78  C   UNL     1       9.074   2.874  10.237  1.00  0.00     0.020 A 
ATOM     79  C   UNL     1       7.339   1.323  10.273  1.00  0.00     0.020 A 
ATOM     80  C   UNL     1       7.715   2.583  10.336  1.00  0.00     0.054 A 
BRANCH  80  81
ATOM     81  S   UNL     1       6.497   3.904  10.547  1.00  0.00     0.124 S 
ATOM     82  O   UNL     1       6.794   4.671  11.838  1.00  0.00    -0.237 OA
ATOM     83  O   UNL     1       6.571   4.862   9.356  1.00  0.00    -0.237 OA
ATOM     84  O   UNL     1       4.929   3.226  10.635  1.00  0.00    -0.744 OA
ENDBRANCH  80  81
ENDBRANCH  52  75
BRANCH  64  85
ATOM     85  C   UNL     1      14.522  -2.386  14.286  1.00  0.00    -0.014 A 
ATOM     86  C   UNL     1      13.691  -2.604  15.380  1.00  0.00     0.010 A 
ATOM     87  C   UNL     1      15.768  -2.027  14.509  1.00  0.00     0.010 A 
ATOM     88  C   UNL     1      14.326  -2.921  16.601  1.00  0.00     0.020 A 
ATOM     89  C   UNL     1      16.242  -1.859  15.815  1.00  0.00     0.020 A 
ATOM     90  C   UNL     1      15.546  -2.294  16.845  1.00  0.00     0.054 A 
BRANCH  90  91
ATOM     91  S   UNL     1      16.159  -2.082  18.534  1.00  0.00     0.124 S 
ATOM     92  O   UNL     1      15.161  -1.246  19.339  1.00  0.00    -0.237 OA
ATOM     93  O   UNL     1      16.324  -3.453  19.193  1.00  0.00    -0.237 OA
ATOM     94  O   UNL     1      17.671  -1.283  18.496  1.00  0.00    -0.744 OA
ENDBRANCH  90  91
ENDBRANCH  64  85
ENDBRANCH  38  39
ENDBRANCH  30  33
ENDBRANCH   1  29
TORSDOF 15
