REMARK SMILES CCc1c(C(=O)NCCCNC(=O)c2ccc(-c3c4nc(c(-c5ccc(S(=O)(=O)[O-])cc5)c5ccc([nH]5)c(-c5ccc(S(=O)(=O)[O-])cc5)c5nc(c(-c6ccc(S(=O)(=O)[O-])cc6)c6ccc3[nH]6)C=C5)C=C4)cc2)nnn1-c1ccc(OC)cc1
REMARK SMILES IDX 9 1 8 2 7 3 5 4 6 5 4 7 3 8 76 9 74 10 75 11 2 12 1 13 77 14
REMARK SMILES IDX 78 15 84 16 79 17 83 18 80 19 81 20 82 21 10 22 11 23 12 24
REMARK SMILES IDX 13 26 14 27 15 28 73 29 16 30 72 31 17 32 18 33 19 34 66 35
REMARK SMILES IDX 20 36 71 37 65 38 67 39 21 40 70 41 64 42 63 43 22 45 52 46
REMARK SMILES IDX 33 47 51 48 34 49 37 50 50 51 68 52 35 53 36 54 49 56 69 57
REMARK SMILES IDX 38 58 23 59 24 60 32 61 25 62 31 63 26 64 27 65 28 66 29 67
REMARK SMILES IDX 30 68 53 69 54 70 62 71 55 72 61 73 56 74 57 75 58 76 59 77
REMARK SMILES IDX 60 78 39 79 40 80 48 81 41 82 47 83 42 84 43 85 44 86 45 87
REMARK SMILES IDX 46 88
REMARK H PARENT 7 6 11 25 67 44 37 55
REMARK Flexibility Score: inf
ROOT
ATOM      1  C   UNL     1       1.098   1.206   1.203  1.00  0.00     0.042 C 
ENDROOT
BRANCH   1   2
ATOM      2  C   UNL     1       2.345   0.370   0.889  1.00  0.00     0.118 C 
BRANCH   2   3
ATOM      3  N   UNL     1       2.601  -0.574   1.936  1.00  0.00    -0.351 N 
ATOM      4  C   UNL     1       2.230  -1.872   2.128  1.00  0.00     0.273 C 
ATOM      5  O   UNL     1       2.648  -2.334   3.197  1.00  0.00    -0.267 OA
ATOM      6  H   UNL     1       3.158  -0.212   2.663  1.00  0.00     0.163 HD
BRANCH   4   7
ATOM      7  C   UNL     1       1.439  -2.720   1.216  1.00  0.00     0.174 A 
ATOM      8  C   UNL     1       0.835  -2.689  -0.056  1.00  0.00     0.077 A 
ATOM      9  N   UNL     1       0.421  -4.028  -0.217  1.00  0.00    -0.217 N 
ATOM     10  N   UNL     1       1.182  -3.976   1.766  1.00  0.00    -0.124 NA
ATOM     11  N   UNL     1       0.483  -4.703   0.929  1.00  0.00    -0.061 NA
BRANCH   8  12
ATOM     12  C   UNL     1       0.550  -1.775  -1.226  1.00  0.00     0.055 C 
ATOM     13  C   UNL     1      -0.052  -0.409  -1.083  1.00  0.00     0.011 C 
ENDBRANCH   8  12
BRANCH   9  14
ATOM     14  C   UNL     1      -0.163  -4.619  -1.362  1.00  0.00     0.067 A 
ATOM     15  C   UNL     1      -1.406  -5.238  -1.227  1.00  0.00     0.032 A 
ATOM     16  C   UNL     1       0.395  -4.403  -2.630  1.00  0.00     0.032 A 
ATOM     17  C   UNL     1      -2.145  -5.515  -2.377  1.00  0.00     0.048 A 
ATOM     18  C   UNL     1      -0.354  -4.682  -3.771  1.00  0.00     0.048 A 
ATOM     19  C   UNL     1      -1.641  -5.207  -3.647  1.00  0.00     0.119 A 
BRANCH  19  20
ATOM     20  O   UNL     1      -2.500  -5.455  -4.682  1.00  0.00    -0.497 OA
ATOM     21  C   UNL     1      -2.094  -4.994  -5.965  1.00  0.00     0.278 C 
ENDBRANCH  19  20
ENDBRANCH   9  14
ENDBRANCH   4   7
ENDBRANCH   2   3
ENDBRANCH   1   2
BRANCH   1  22
ATOM     22  C   UNL     1       1.456   2.577   1.705  1.00  0.00     0.118 C 
BRANCH  22  23
ATOM     23  N   UNL     1       1.995   3.425   0.622  1.00  0.00    -0.352 N 
ATOM     24  C   UNL     1       2.266   4.783   0.663  1.00  0.00     0.251 C 
ATOM     25  H   UNL     1       2.184   2.971  -0.231  1.00  0.00     0.163 HD
ATOM     26  O   UNL     1       2.421   5.431  -0.366  1.00  0.00    -0.269 OA
BRANCH  24  27
ATOM     27  C   UNL     1       2.336   5.410   1.991  1.00  0.00     0.039 A 
ATOM     28  C   UNL     1       1.691   6.607   2.299  1.00  0.00     0.014 A 
ATOM     29  C   UNL     1       2.903   4.629   2.984  1.00  0.00     0.014 A 
ATOM     30  C   UNL     1       1.518   6.928   3.644  1.00  0.00     0.010 A 
ATOM     31  C   UNL     1       2.439   4.779   4.254  1.00  0.00     0.010 A 
ATOM     32  C   UNL     1       1.852   5.977   4.623  1.00  0.00    -0.014 A 
BRANCH  32  33
ATOM     33  C   UNL     1       1.527   6.147   6.034  1.00  0.00     0.031 A 
ATOM     34  C   UNL     1       0.133   6.574   6.294  1.00  0.00     0.074 A 
ATOM     35  C   UNL     1       2.342   5.745   7.037  1.00  0.00     0.049 A 
ATOM     36  N   UNL     1      -0.278   7.774   6.532  1.00  0.00    -0.248 NA
ATOM     37  C   UNL     1      -0.953   5.604   6.078  1.00  0.00     0.031 C 
ATOM     38  C   UNL     1       3.612   5.003   6.940  1.00  0.00     0.029 A 
ATOM     39  N   UNL     1       2.151   5.815   8.381  1.00  0.00    -0.354 N 
ATOM     40  C   UNL     1      -1.637   7.652   6.792  1.00  0.00     0.074 A 
ATOM     41  C   UNL     1      -2.030   6.376   6.249  1.00  0.00     0.031 C 
ATOM     42  C   UNL     1       3.931   4.476   8.140  1.00  0.00     0.029 A 
ATOM     43  C   UNL     1       3.030   5.036   9.125  1.00  0.00     0.049 A 
ATOM     44  H   UNL     1       1.450   6.369   8.793  1.00  0.00     0.167 HD
ATOM     45  C   UNL     1      -2.240   8.442   7.725  1.00  0.00     0.031 A 
ATOM     46  C   UNL     1       3.054   4.881  10.468  1.00  0.00     0.031 A 
ATOM     47  C   UNL     1      -1.341   9.478   8.178  1.00  0.00     0.049 A 
ATOM     48  C   UNL     1       2.389   6.071  11.042  1.00  0.00     0.074 A 
ATOM     49  C   UNL     1      -0.750  10.595   7.631  1.00  0.00     0.029 A 
ATOM     50  N   UNL     1      -0.618   9.139   9.298  1.00  0.00    -0.354 N 
ATOM     51  N   UNL     1       2.860   7.281  10.909  1.00  0.00    -0.248 NA
ATOM     52  C   UNL     1       0.990   5.989  11.434  1.00  0.00     0.031 C 
ATOM     53  C   UNL     1       0.505  10.731   8.296  1.00  0.00     0.029 A 
ATOM     54  C   UNL     1       0.616   9.733   9.267  1.00  0.00     0.049 A 
ATOM     55  H   UNL     1      -0.942   8.553  10.020  1.00  0.00     0.167 HD
ATOM     56  C   UNL     1       1.738   8.077  10.761  1.00  0.00     0.074 A 
ATOM     57  C   UNL     1       0.634   7.266  11.262  1.00  0.00     0.031 C 
ATOM     58  C   UNL     1       1.765   9.191   9.972  1.00  0.00     0.031 A 
BRANCH  45  59
ATOM     59  C   UNL     1      -3.399   8.006   8.596  1.00  0.00    -0.014 A 
ATOM     60  C   UNL     1      -3.928   8.934   9.520  1.00  0.00     0.010 A 
ATOM     61  C   UNL     1      -3.795   6.662   8.750  1.00  0.00     0.010 A 
ATOM     62  C   UNL     1      -4.748   8.524  10.580  1.00  0.00     0.020 A 
ATOM     63  C   UNL     1      -4.644   6.249   9.779  1.00  0.00     0.020 A 
ATOM     64  C   UNL     1      -5.090   7.178  10.708  1.00  0.00     0.054 A 
BRANCH  64  65
ATOM     65  S   UNL     1      -6.070   6.641  12.130  1.00  0.00     0.124 S 
ATOM     66  O   UNL     1      -5.154   6.892  13.238  1.00  0.00    -0.237 OA
ATOM     67  O   UNL     1      -7.232   7.521  12.053  1.00  0.00    -0.237 OA
ATOM     68  O   UNL     1      -6.341   5.234  11.844  1.00  0.00    -0.744 OA
ENDBRANCH  64  65
ENDBRANCH  45  59
BRANCH  46  69
ATOM     69  C   UNL     1       3.407   3.673  11.245  1.00  0.00    -0.014 A 
ATOM     70  C   UNL     1       3.709   3.751  12.616  1.00  0.00     0.010 A 
ATOM     71  C   UNL     1       3.167   2.397  10.694  1.00  0.00     0.010 A 
ATOM     72  C   UNL     1       3.700   2.600  13.421  1.00  0.00     0.020 A 
ATOM     73  C   UNL     1       3.159   1.246  11.490  1.00  0.00     0.020 A 
ATOM     74  C   UNL     1       3.401   1.357  12.857  1.00  0.00     0.054 A 
BRANCH  74  75
ATOM     75  S   UNL     1       3.211  -0.091  13.940  1.00  0.00     0.124 S 
ATOM     76  O   UNL     1       4.584  -0.336  14.373  1.00  0.00    -0.237 OA
ATOM     77  O   UNL     1       2.301   0.401  14.971  1.00  0.00    -0.237 OA
ATOM     78  O   UNL     1       2.649  -1.111  13.056  1.00  0.00    -0.744 OA
ENDBRANCH  74  75
ENDBRANCH  46  69
BRANCH  58  79
ATOM     79  C   UNL     1       3.107   9.818   9.681  1.00  0.00    -0.014 A 
ATOM     80  C   UNL     1       4.137   9.203   8.945  1.00  0.00     0.010 A 
ATOM     81  C   UNL     1       3.286  11.148  10.102  1.00  0.00     0.010 A 
ATOM     82  C   UNL     1       5.324   9.898   8.660  1.00  0.00     0.020 A 
ATOM     83  C   UNL     1       4.454  11.851   9.806  1.00  0.00     0.020 A 
ATOM     84  C   UNL     1       5.474  11.219   9.095  1.00  0.00     0.054 A 
BRANCH  84  85
ATOM     85  S   UNL     1       6.995  12.129   8.700  1.00  0.00     0.124 S 
ATOM     86  O   UNL     1       7.995  11.444   9.514  1.00  0.00    -0.237 OA
ATOM     87  O   UNL     1       7.120  11.941   7.257  1.00  0.00    -0.237 OA
ATOM     88  O   UNL     1       6.697  13.500   9.113  1.00  0.00    -0.744 OA
ENDBRANCH  84  85
ENDBRANCH  58  79
ENDBRANCH  32  33
ENDBRANCH  24  27
ENDBRANCH  22  23
ENDBRANCH   1  22
TORSDOF 16
