REMARK SMILES O=C(CCn1cc(/C=C2/[NH+]=C(S)N(c3ccccc3)C2=O)c(-c2ccc(Br)cc2)n1)NCCCNC(=O)c1ccc(-c2c3nc(c(-c4ccc(S(=O)(=O)[O-])cc4)c4ccc([nH]4)c(-c4ccc(S(=O)(=O)[O-])cc4)c4nc(c(-c5ccc(S(=O)(=O)[O-])cc5)c5ccc2[nH]5)C=C4)C=C3)cc1
REMARK SMILES IDX 32 1 31 2 1 3 2 4 3 6 4 7 5 8 6 9 30 10 7 11 22 12 8 13 9 14
REMARK SMILES IDX 10 15 20 16 11 17 13 19 21 20 12 21 14 23 15 24 19 25 16 26
REMARK SMILES IDX 18 27 17 28 23 29 24 30 29 31 25 32 28 33 26 34 27 35 33 36
REMARK SMILES IDX 34 37 35 38 36 39 37 41 38 42 39 43 97 44 40 45 96 46 41 47
REMARK SMILES IDX 42 48 43 49 90 50 44 51 95 52 89 53 91 54 45 55 94 56 88 57
REMARK SMILES IDX 87 58 46 60 76 61 57 62 75 63 58 64 61 65 74 66 92 67 59 68
REMARK SMILES IDX 60 69 73 71 93 72 62 73 47 74 48 75 56 76 49 77 55 78 50 79
REMARK SMILES IDX 51 80 52 81 53 82 54 83 77 84 78 85 86 86 79 87 85 88 80 89
REMARK SMILES IDX 81 90 82 91 83 92 84 93 63 94 64 95 72 96 65 97 71 98 66 99
REMARK SMILES IDX 67 100 68 101 69 102 70 103
REMARK H PARENT 31 5 10 18 12 22 35 40 91 59 61 70
REMARK Flexibility Score: inf
ROOT
ATOM      1  C   UNL     1       1.669  -0.261   2.445  1.00  0.00     0.117 C 
ENDROOT
BRANCH   1   2
ATOM      2  N   UNL     1       2.508  -0.079   1.271  1.00  0.00    -0.356 N 
ATOM      3  O   UNL     1       0.931   0.757  -0.161  1.00  0.00    -0.275 OA
ATOM      4  C   UNL     1       2.097   0.457   0.079  1.00  0.00     0.221 C 
ATOM      5  H   UNL     1       3.447  -0.365   1.338  1.00  0.00     0.163 HD
BRANCH   4   6
ATOM      6  C   UNL     1       3.206   0.665  -0.944  1.00  0.00     0.123 C 
BRANCH   6   7
ATOM      7  C   UNL     1       4.130   1.838  -0.592  1.00  0.00     0.154 C 
BRANCH   7   8
ATOM      8  N   UNL     1       5.154   1.588   0.417  1.00  0.00    -0.271 N 
ATOM      9  C   UNL     1       6.103   2.485   0.859  1.00  0.00     0.117 A 
ATOM     10  N   UNL     1       5.140   0.442   1.131  1.00  0.00    -0.172 NA
ATOM     11  C   UNL     1       6.776   1.861   1.886  1.00  0.00     0.025 A 
ATOM     12  C   UNL     1       6.074   0.637   2.067  1.00  0.00     0.100 A 
BRANCH  11  13
ATOM     13  C   UNL     1       7.756   2.402   2.786  1.00  0.00     0.072 C 
ATOM     14  C   UNL     1       8.867   1.812   3.280  1.00  0.00     0.217 C 
ATOM     15  N   UNL     1       9.412   2.188   4.484  1.00  0.00    -0.228 N 
ATOM     16  C   UNL     1       9.581   0.578   2.816  1.00  0.00     0.386 C 
ATOM     17  C   UNL     1      10.194   1.199   4.815  1.00  0.00     0.321 C 
ATOM     18  H   UNL     1       9.248   3.019   4.986  1.00  0.00     0.313 HD
ATOM     19  N   UNL     1      10.322   0.173   3.915  1.00  0.00    -0.149 N 
ATOM     20  O   UNL     1       9.473   0.122   1.682  1.00  0.00    -0.236 OA
BRANCH  17  21
ATOM     21  S   UNL     1      11.019   1.327   6.335  1.00  0.00    -0.055 SA
ATOM     22  H   UNL     1      10.646   2.476   6.959  1.00  0.00     0.116 HD
ENDBRANCH  17  21
BRANCH  19  23
ATOM     23  C   UNL     1      10.945  -1.128   4.025  1.00  0.00     0.137 A 
ATOM     24  C   UNL     1      11.279  -1.738   5.250  1.00  0.00     0.052 A 
ATOM     25  C   UNL     1      11.103  -1.943   2.890  1.00  0.00     0.052 A 
ATOM     26  C   UNL     1      11.670  -3.088   5.344  1.00  0.00     0.004 A 
ATOM     27  C   UNL     1      11.447  -3.300   2.987  1.00  0.00     0.004 A 
ATOM     28  C   UNL     1      11.722  -3.880   4.212  1.00  0.00     0.000 A 
ENDBRANCH  19  23
ENDBRANCH  11  13
BRANCH  12  29
ATOM     29  C   UNL     1       6.305  -0.286   3.157  1.00  0.00     0.003 A 
ATOM     30  C   UNL     1       5.952   0.039   4.464  1.00  0.00     0.011 A 
ATOM     31  C   UNL     1       7.163  -1.341   2.924  1.00  0.00     0.011 A 
ATOM     32  C   UNL     1       6.516  -0.665   5.528  1.00  0.00     0.016 A 
ATOM     33  C   UNL     1       7.787  -1.991   3.980  1.00  0.00     0.016 A 
ATOM     34  C   UNL     1       7.451  -1.664   5.285  1.00  0.00     0.018 A 
ATOM     35  Br  UNL     1       8.231  -2.584   6.737  1.00  0.00    -0.051 Br
ENDBRANCH  12  29
ENDBRANCH   7   8
ENDBRANCH   6   7
ENDBRANCH   4   6
ENDBRANCH   1   2
BRANCH   1  36
ATOM     36  C   UNL     1       1.466  -1.724   2.834  1.00  0.00     0.042 C 
BRANCH  36  37
ATOM     37  C   UNL     1       2.767  -2.454   3.086  1.00  0.00     0.118 C 
BRANCH  37  38
ATOM     38  N   UNL     1       3.243  -2.568   4.440  1.00  0.00    -0.352 N 
ATOM     39  C   UNL     1       4.289  -3.356   4.887  1.00  0.00     0.251 C 
ATOM     40  H   UNL     1       2.776  -2.030   5.118  1.00  0.00     0.163 HD
ATOM     41  O   UNL     1       4.491  -3.387   6.103  1.00  0.00    -0.269 OA
BRANCH  39  42
ATOM     42  C   UNL     1       5.220  -4.087   3.949  1.00  0.00     0.039 A 
ATOM     43  C   UNL     1       6.307  -4.762   4.517  1.00  0.00     0.014 A 
ATOM     44  C   UNL     1       5.182  -3.998   2.549  1.00  0.00     0.014 A 
ATOM     45  C   UNL     1       7.397  -5.114   3.716  1.00  0.00     0.010 A 
ATOM     46  C   UNL     1       6.244  -4.364   1.745  1.00  0.00     0.010 A 
ATOM     47  C   UNL     1       7.399  -4.814   2.337  1.00  0.00    -0.014 A 
BRANCH  47  48
ATOM     48  C   UNL     1       8.505  -5.224   1.476  1.00  0.00     0.031 A 
ATOM     49  C   UNL     1       8.708  -6.669   1.637  1.00  0.00     0.074 A 
ATOM     50  C   UNL     1       9.166  -4.511   0.538  1.00  0.00     0.049 A 
ATOM     51  N   UNL     1       9.652  -7.233   2.309  1.00  0.00    -0.248 NA
ATOM     52  C   UNL     1       7.576  -7.547   1.286  1.00  0.00     0.031 C 
ATOM     53  C   UNL     1       8.921  -3.139   0.108  1.00  0.00     0.029 A 
ATOM     54  N   UNL     1      10.187  -4.891  -0.293  1.00  0.00    -0.354 N 
ATOM     55  C   UNL     1       9.347  -8.578   2.247  1.00  0.00     0.074 A 
ATOM     56  C   UNL     1       7.956  -8.677   1.880  1.00  0.00     0.031 C 
ATOM     57  C   UNL     1       9.618  -2.858  -1.009  1.00  0.00     0.029 A 
ATOM     58  C   UNL     1      10.431  -4.003  -1.341  1.00  0.00     0.049 A 
ATOM     59  H   UNL     1      10.703  -5.720  -0.162  1.00  0.00     0.167 HD
ATOM     60  C   UNL     1      10.334  -9.495   2.101  1.00  0.00     0.031 A 
ATOM     61  C   UNL     1      11.210  -4.182  -2.437  1.00  0.00     0.031 A 
ATOM     62  C   UNL     1      11.633  -8.943   2.377  1.00  0.00     0.049 A 
ATOM     63  C   UNL     1      12.175  -5.253  -2.105  1.00  0.00     0.074 A 
ATOM     64  C   UNL     1      12.300  -8.504   3.497  1.00  0.00     0.029 A 
ATOM     65  N   UNL     1      12.281  -8.424   1.282  1.00  0.00    -0.354 N 
ATOM     66  N   UNL     1      13.145  -5.104  -1.246  1.00  0.00    -0.248 NA
ATOM     67  C   UNL     1      11.830  -6.633  -2.416  1.00  0.00     0.031 C 
ATOM     68  C   UNL     1      13.239  -7.536   3.038  1.00  0.00     0.029 A 
ATOM     69  C   UNL     1      13.147  -7.424   1.647  1.00  0.00     0.049 A 
ATOM     70  H   UNL     1      12.143  -8.729   0.356  1.00  0.00     0.167 HD
ATOM     71  C   UNL     1      13.232  -6.322  -0.592  1.00  0.00     0.074 A 
ATOM     72  C   UNL     1      12.511  -7.257  -1.451  1.00  0.00     0.031 C 
ATOM     73  C   UNL     1      13.628  -6.402   0.716  1.00  0.00     0.031 A 
BRANCH  60  74
ATOM     74  C   UNL     1      10.147 -10.689   1.210  1.00  0.00    -0.014 A 
ATOM     75  C   UNL     1      11.083 -11.731   1.266  1.00  0.00     0.010 A 
ATOM     76  C   UNL     1       9.226 -10.694   0.136  1.00  0.00     0.010 A 
ATOM     77  C   UNL     1      11.098 -12.726   0.282  1.00  0.00     0.020 A 
ATOM     78  C   UNL     1       9.199 -11.704  -0.816  1.00  0.00     0.020 A 
ATOM     79  C   UNL     1      10.155 -12.703  -0.751  1.00  0.00     0.054 A 
BRANCH  79  80
ATOM     80  S   UNL     1      10.224 -13.956  -2.048  1.00  0.00     0.124 S 
ATOM     81  O   UNL     1      11.475 -13.622  -2.720  1.00  0.00    -0.237 OA
ATOM     82  O   UNL     1      10.224 -15.196  -1.276  1.00  0.00    -0.237 OA
ATOM     83  O   UNL     1       9.010 -13.711  -2.824  1.00  0.00    -0.744 OA
ENDBRANCH  79  80
ENDBRANCH  60  74
BRANCH  61  84
ATOM     84  C   UNL     1      10.982  -3.657  -3.814  1.00  0.00    -0.014 A 
ATOM     85  C   UNL     1      11.926  -3.856  -4.840  1.00  0.00     0.010 A 
ATOM     86  C   UNL     1       9.707  -3.185  -4.197  1.00  0.00     0.010 A 
ATOM     87  C   UNL     1      11.575  -3.688  -6.194  1.00  0.00     0.020 A 
ATOM     88  C   UNL     1       9.355  -2.999  -5.539  1.00  0.00     0.020 A 
ATOM     89  C   UNL     1      10.280  -3.289  -6.535  1.00  0.00     0.054 A 
BRANCH  89  90
ATOM     90  S   UNL     1       9.754  -3.304  -8.276  1.00  0.00     0.124 S 
ATOM     91  O   UNL     1      10.477  -2.165  -8.832  1.00  0.00    -0.237 OA
ATOM     92  O   UNL     1      10.198  -4.620  -8.729  1.00  0.00    -0.237 OA
ATOM     93  O   UNL     1       8.303  -3.140  -8.198  1.00  0.00    -0.744 OA
ENDBRANCH  89  90
ENDBRANCH  61  84
BRANCH  73  94
ATOM     94  C   UNL     1      14.482  -5.279   1.291  1.00  0.00    -0.014 A 
ATOM     95  C   UNL     1      14.177  -3.907   1.218  1.00  0.00     0.010 A 
ATOM     96  C   UNL     1      15.620  -5.649   2.034  1.00  0.00     0.010 A 
ATOM     97  C   UNL     1      14.951  -2.949   1.895  1.00  0.00     0.020 A 
ATOM     98  C   UNL     1      16.389  -4.706   2.724  1.00  0.00     0.020 A 
ATOM     99  C   UNL     1      16.046  -3.358   2.657  1.00  0.00     0.054 A 
BRANCH  99 100
ATOM    100  S   UNL     1      17.017  -2.121   3.561  1.00  0.00     0.124 S 
ATOM    101  O   UNL     1      17.483  -1.238   2.495  1.00  0.00    -0.237 OA
ATOM    102  O   UNL     1      16.033  -1.540   4.473  1.00  0.00    -0.237 OA
ATOM    103  O   UNL     1      18.065  -2.908   4.210  1.00  0.00    -0.744 OA
ENDBRANCH  99 100
ENDBRANCH  73  94
ENDBRANCH  47  48
ENDBRANCH  39  42
ENDBRANCH  37  38
ENDBRANCH  36  37
ENDBRANCH   1  36
TORSDOF 19
