REMARK SMILES CS(=O)(=O)c1ccc(/C=C(/C(=O)NCCCNC(=O)c2ccc(-c3c4nc(c(-c5ccc(S(=O)(=O)[O-])cc5)c5ccc([nH]5)c(-c5ccc(S(=O)(=O)[O-])cc5)c5nc(c(-c6ccc(S(=O)(=O)[O-])cc6)c6ccc3[nH]6)C=C5)C=C4)cc2)c2cccc(Br)c2)cc1
REMARK SMILES IDX 15 1 14 2 13 3 11 4 12 5 10 7 9 8 8 9 5 10 6 11 88 12 7 13
REMARK SMILES IDX 87 14 2 15 1 16 3 17 4 18 80 19 81 20 86 21 82 22 84 23
REMARK SMILES IDX 83 24 85 25 16 26 17 27 18 28 19 30 20 31 21 32 79 33 22 34
REMARK SMILES IDX 78 35 23 36 24 37 25 38 72 39 26 40 77 41 71 42 73 43 27 44
REMARK SMILES IDX 76 45 70 46 69 47 28 49 58 50 39 51 57 52 40 53 43 54 56 55
REMARK SMILES IDX 74 56 41 57 42 58 55 60 75 61 44 62 29 63 30 64 38 65 31 66
REMARK SMILES IDX 37 67 32 68 33 69 34 70 35 71 36 72 59 73 60 74 68 75 61 76
REMARK SMILES IDX 67 77 62 78 63 79 64 80 65 81 66 82 45 83 46 84 54 85 47 86
REMARK SMILES IDX 53 87 48 88 49 89 50 90 51 91 52 92
REMARK H PARENT 13 6 17 29 73 48 43 59
REMARK Flexibility Score: inf
ROOT
ATOM      1  C   UNL     1       4.356  -4.566  -7.500  1.00  0.00     0.042 C 
ENDROOT
BRANCH   1   2
ATOM      2  C   UNL     1       2.847  -4.809  -7.474  1.00  0.00     0.118 C 
BRANCH   2   3
ATOM      3  N   UNL     1       2.559  -6.203  -7.193  1.00  0.00    -0.352 N 
ATOM      4  C   UNL     1       2.132  -6.879  -6.096  1.00  0.00     0.251 C 
ATOM      5  O   UNL     1       2.021  -8.101  -6.230  1.00  0.00    -0.269 OA
ATOM      6  H   UNL     1       2.707  -6.788  -7.970  1.00  0.00     0.163 HD
BRANCH   4   7
ATOM      7  C   UNL     1       1.713  -6.208  -4.806  1.00  0.00     0.047 C 
ATOM      8  C   UNL     1       2.337  -5.102  -4.337  1.00  0.00     0.022 C 
BRANCH   8   9
ATOM      9  C   UNL     1       1.984  -4.247  -3.178  1.00  0.00    -0.025 A 
ATOM     10  C   UNL     1       1.072  -2.503  -1.168  1.00  0.00     0.067 A 
ATOM     11  C   UNL     1       1.119  -3.880  -0.935  1.00  0.00     0.021 A 
ATOM     12  C   UNL     1       1.551  -1.980  -2.368  1.00  0.00     0.021 A 
ATOM     13  C   UNL     1       1.601  -4.740  -1.926  1.00  0.00     0.009 A 
ATOM     14  C   UNL     1       2.002  -2.854  -3.366  1.00  0.00     0.009 A 
BRANCH  10  15
ATOM     15  S   UNL     1       0.369  -1.469   0.094  1.00  0.00     0.175 S 
ATOM     16  C   UNL     1       1.086   0.139  -0.088  1.00  0.00     0.163 C 
ATOM     17  O   UNL     1       0.819  -1.993   1.369  1.00  0.00    -0.224 OA
ATOM     18  O   UNL     1      -1.047  -1.359  -0.209  1.00  0.00    -0.224 OA
ENDBRANCH  10  15
ENDBRANCH   8   9
BRANCH   7  19
ATOM     19  C   UNL     1       0.699  -6.924  -3.986  1.00  0.00    -0.012 A 
ATOM     20  C   UNL     1       1.040  -8.176  -3.441  1.00  0.00     0.009 A 
ATOM     21  C   UNL     1      -0.538  -6.357  -3.655  1.00  0.00     0.024 A 
ATOM     22  C   UNL     1       0.184  -8.836  -2.561  1.00  0.00     0.002 A 
ATOM     23  C   UNL     1      -1.376  -7.009  -2.746  1.00  0.00     0.018 A 
ATOM     24  C   UNL     1      -1.021  -8.242  -2.197  1.00  0.00     0.016 A 
ATOM     25  Br  UNL     1      -2.987  -6.182  -2.200  1.00  0.00    -0.051 Br
ENDBRANCH   7  19
ENDBRANCH   4   7
ENDBRANCH   2   3
ENDBRANCH   1   2
BRANCH   1  26
ATOM     26  C   UNL     1       5.060  -5.228  -8.686  1.00  0.00     0.118 C 
BRANCH  26  27
ATOM     27  N   UNL     1       4.655  -4.644  -9.958  1.00  0.00    -0.352 N 
ATOM     28  C   UNL     1       5.400  -3.986 -10.904  1.00  0.00     0.251 C 
ATOM     29  H   UNL     1       3.699  -4.736 -10.172  1.00  0.00     0.163 HD
ATOM     30  O   UNL     1       4.827  -3.352 -11.786  1.00  0.00    -0.269 OA
BRANCH  28  31
ATOM     31  C   UNL     1       6.878  -4.028 -10.863  1.00  0.00     0.039 A 
ATOM     32  C   UNL     1       7.596  -2.866 -11.158  1.00  0.00     0.014 A 
ATOM     33  C   UNL     1       7.559  -5.216 -10.579  1.00  0.00     0.014 A 
ATOM     34  C   UNL     1       8.992  -2.881 -11.113  1.00  0.00     0.010 A 
ATOM     35  C   UNL     1       8.947  -5.211 -10.461  1.00  0.00     0.010 A 
ATOM     36  C   UNL     1       9.679  -4.045 -10.731  1.00  0.00    -0.014 A 
BRANCH  36  37
ATOM     37  C   UNL     1      11.159  -4.060 -10.607  1.00  0.00     0.031 A 
ATOM     38  C   UNL     1      11.988  -4.952 -11.493  1.00  0.00     0.074 A 
ATOM     39  C   UNL     1      11.754  -3.313  -9.655  1.00  0.00     0.049 A 
ATOM     40  N   UNL     1      13.282  -5.149 -11.485  1.00  0.00    -0.248 NA
ATOM     41  C   UNL     1      11.268  -5.744 -12.503  1.00  0.00     0.031 C 
ATOM     42  C   UNL     1      11.057  -2.439  -8.708  1.00  0.00     0.029 A 
ATOM     43  N   UNL     1      13.077  -3.176  -9.318  1.00  0.00    -0.354 N 
ATOM     44  C   UNL     1      13.529  -6.090 -12.478  1.00  0.00     0.074 A 
ATOM     45  C   UNL     1      12.245  -6.467 -13.030  1.00  0.00     0.031 C 
ATOM     46  C   UNL     1      11.960  -1.843  -7.913  1.00  0.00     0.029 A 
ATOM     47  C   UNL     1      13.293  -2.324  -8.261  1.00  0.00     0.049 A 
ATOM     48  H   UNL     1      13.804  -3.644  -9.789  1.00  0.00     0.167 HD
ATOM     49  C   UNL     1      14.716  -6.579 -12.909  1.00  0.00     0.031 A 
ATOM     50  C   UNL     1      14.432  -1.978  -7.630  1.00  0.00     0.031 A 
ATOM     51  C   UNL     1      15.991  -6.200 -12.357  1.00  0.00     0.049 A 
ATOM     52  C   UNL     1      15.737  -2.551  -8.111  1.00  0.00     0.074 A 
ATOM     53  C   UNL     1      17.254  -6.610 -12.748  1.00  0.00     0.029 A 
ATOM     54  N   UNL     1      16.166  -5.325 -11.296  1.00  0.00    -0.354 N 
ATOM     55  N   UNL     1      15.953  -3.396  -9.091  1.00  0.00    -0.248 NA
ATOM     56  C   UNL     1      16.953  -2.113  -7.412  1.00  0.00     0.031 C 
ATOM     57  C   UNL     1      18.189  -6.025 -11.889  1.00  0.00     0.029 A 
ATOM     58  C   UNL     1      17.514  -5.197 -11.005  1.00  0.00     0.049 A 
ATOM     59  H   UNL     1      15.440  -4.862 -10.820  1.00  0.00     0.167 HD
ATOM     60  C   UNL     1      17.332  -3.570  -9.143  1.00  0.00     0.074 A 
ATOM     61  C   UNL     1      17.898  -2.727  -8.109  1.00  0.00     0.031 C 
ATOM     62  C   UNL     1      18.063  -4.355  -9.972  1.00  0.00     0.031 A 
BRANCH  49  63
ATOM     63  C   UNL     1      14.692  -7.579 -14.037  1.00  0.00    -0.014 A 
ATOM     64  C   UNL     1      14.321  -7.194 -15.339  1.00  0.00     0.010 A 
ATOM     65  C   UNL     1      15.088  -8.909 -13.807  1.00  0.00     0.010 A 
ATOM     66  C   UNL     1      14.306  -8.127 -16.378  1.00  0.00     0.020 A 
ATOM     67  C   UNL     1      15.105  -9.840 -14.851  1.00  0.00     0.020 A 
ATOM     68  C   UNL     1      14.697  -9.445 -16.127  1.00  0.00     0.054 A 
BRANCH  68  69
ATOM     69  S   UNL     1      14.694 -10.627 -17.503  1.00  0.00     0.124 S 
ATOM     70  O   UNL     1      13.263 -10.821 -17.729  1.00  0.00    -0.237 OA
ATOM     71  O   UNL     1      15.401  -9.898 -18.552  1.00  0.00    -0.237 OA
ATOM     72  O   UNL     1      15.402 -11.787 -16.967  1.00  0.00    -0.744 OA
ENDBRANCH  68  69
ENDBRANCH  49  63
BRANCH  50  73
ATOM     73  C   UNL     1      14.385  -1.043  -6.471  1.00  0.00    -0.014 A 
ATOM     74  C   UNL     1      14.917   0.255  -6.571  1.00  0.00     0.010 A 
ATOM     75  C   UNL     1      13.795  -1.446  -5.259  1.00  0.00     0.010 A 
ATOM     76  C   UNL     1      14.879   1.123  -5.476  1.00  0.00     0.020 A 
ATOM     77  C   UNL     1      13.726  -0.571  -4.172  1.00  0.00     0.020 A 
ATOM     78  C   UNL     1      14.281   0.705  -4.283  1.00  0.00     0.054 A 
BRANCH  78  79
ATOM     79  S   UNL     1      14.199   1.864  -2.890  1.00  0.00     0.124 S 
ATOM     80  O   UNL     1      15.587   1.898  -2.442  1.00  0.00    -0.237 OA
ATOM     81  O   UNL     1      13.707   3.084  -3.525  1.00  0.00    -0.237 OA
ATOM     82  O   UNL     1      13.258   1.228  -1.971  1.00  0.00    -0.744 OA
ENDBRANCH  78  79
ENDBRANCH  50  73
BRANCH  62  83
ATOM     83  C   UNL     1      19.562  -4.315  -9.824  1.00  0.00    -0.014 A 
ATOM     84  C   UNL     1      20.203  -4.889  -8.712  1.00  0.00     0.010 A 
ATOM     85  C   UNL     1      20.343  -3.742 -10.845  1.00  0.00     0.010 A 
ATOM     86  C   UNL     1      21.596  -4.859  -8.608  1.00  0.00     0.020 A 
ATOM     87  C   UNL     1      21.737  -3.739 -10.759  1.00  0.00     0.020 A 
ATOM     88  C   UNL     1      22.354  -4.285  -9.633  1.00  0.00     0.054 A 
BRANCH  88  89
ATOM     89  S   UNL     1      24.163  -4.301  -9.494  1.00  0.00     0.124 S 
ATOM     90  O   UNL     1      24.395  -3.306  -8.450  1.00  0.00    -0.237 OA
ATOM     91  O   UNL     1      24.442  -5.684  -9.118  1.00  0.00    -0.237 OA
ATOM     92  O   UNL     1      24.617  -3.920 -10.830  1.00  0.00    -0.744 OA
ENDBRANCH  88  89
ENDBRANCH  62  83
ENDBRANCH  36  37
ENDBRANCH  28  31
ENDBRANCH  26  27
ENDBRANCH   1  26
TORSDOF 16
