REMARK SMILES O=C(NCCCNC(=O)c1cnn2c(C(F)(F)F)ccnc12)c1ccc(-c2c3nc(c(-c4ccc(S(=O)(=O)[O-])cc4)c4ccc([nH]4)c(-c4ccc(S(=O)(=O)[O-])cc4)c4nc(c(-c5ccc(S(=O)(=O)[O-])cc5)c5ccc2[nH]5)C=C4)C=C3)cc1
REMARK SMILES IDX 4 1 3 2 1 3 2 4 23 6 24 7 82 8 25 9 81 10 26 11 27 12 28 13
REMARK SMILES IDX 75 14 29 15 80 16 74 17 76 18 30 19 79 20 73 21 72 22 31 24
REMARK SMILES IDX 61 25 42 26 60 27 43 28 46 29 59 30 77 31 44 32 45 33 58 35
REMARK SMILES IDX 78 36 47 37 32 38 33 39 41 40 34 41 40 42 35 43 36 44 37 45
REMARK SMILES IDX 38 46 39 47 62 48 63 49 71 50 64 51 70 52 65 53 66 54 67 55
REMARK SMILES IDX 68 56 69 57 48 58 49 59 57 60 50 61 56 62 51 63 52 64 53 65
REMARK SMILES IDX 54 66 55 67 5 68 6 69 7 70 8 71 9 73 10 74 11 75 22 76 12 77
REMARK SMILES IDX 13 78 21 79 14 80 20 81 19 82 15 83 16 84 17 85 18 86
REMARK H PARENT 3 5 76 23 46 34 7 72
REMARK Flexibility Score: inf
ROOT
ATOM      1  C   UNL     1       4.733  -1.024  -1.156  1.00  0.00     0.118 C 
ENDROOT
BRANCH   1   2
ATOM      2  N   UNL     1       3.355  -0.561  -1.077  1.00  0.00    -0.352 N 
ATOM      3  O   UNL     1       1.467   0.263  -0.199  1.00  0.00    -0.269 OA
ATOM      4  C   UNL     1       2.689   0.159  -0.115  1.00  0.00     0.251 C 
ATOM      5  H   UNL     1       2.801  -0.808  -1.852  1.00  0.00     0.163 HD
BRANCH   4   6
ATOM      6  C   UNL     1       3.398   0.794   1.022  1.00  0.00     0.039 A 
ATOM      7  C   UNL     1       4.617   1.454   0.859  1.00  0.00     0.014 A 
ATOM      8  C   UNL     1       2.778   0.796   2.280  1.00  0.00     0.014 A 
ATOM      9  C   UNL     1       5.272   1.995   1.966  1.00  0.00     0.010 A 
ATOM     10  C   UNL     1       3.406   1.395   3.378  1.00  0.00     0.010 A 
ATOM     11  C   UNL     1       4.678   1.967   3.239  1.00  0.00    -0.014 A 
BRANCH  11  12
ATOM     12  C   UNL     1       5.403   2.556   4.394  1.00  0.00     0.031 A 
ATOM     13  C   UNL     1       5.960   1.685   5.486  1.00  0.00     0.074 A 
ATOM     14  C   UNL     1       5.619   3.885   4.431  1.00  0.00     0.049 A 
ATOM     15  N   UNL     1       6.723   2.021   6.495  1.00  0.00    -0.248 NA
ATOM     16  C   UNL     1       5.611   0.257   5.446  1.00  0.00     0.031 C 
ATOM     17  C   UNL     1       5.109   4.853   3.456  1.00  0.00     0.029 A 
ATOM     18  N   UNL     1       6.361   4.645   5.300  1.00  0.00    -0.354 N 
ATOM     19  C   UNL     1       6.918   0.858   7.229  1.00  0.00     0.074 A 
ATOM     20  C   UNL     1       6.194  -0.195   6.548  1.00  0.00     0.031 C 
ATOM     21  C   UNL     1       5.616   6.064   3.737  1.00  0.00     0.029 A 
ATOM     22  C   UNL     1       6.470   5.960   4.917  1.00  0.00     0.049 A 
ATOM     23  H   UNL     1       6.774   4.283   6.117  1.00  0.00     0.167 HD
ATOM     24  C   UNL     1       7.633   0.676   8.365  1.00  0.00     0.031 A 
ATOM     25  C   UNL     1       7.202   6.965   5.433  1.00  0.00     0.031 A 
ATOM     26  C   UNL     1       8.389   1.700   9.033  1.00  0.00     0.049 A 
ATOM     27  C   UNL     1       8.070   6.721   6.629  1.00  0.00     0.074 A 
ATOM     28  C   UNL     1       9.155   1.599  10.183  1.00  0.00     0.029 A 
ATOM     29  N   UNL     1       8.487   3.012   8.601  1.00  0.00    -0.354 N 
ATOM     30  N   UNL     1       8.249   5.609   7.299  1.00  0.00    -0.248 NA
ATOM     31  C   UNL     1       8.837   7.868   7.135  1.00  0.00     0.031 C 
ATOM     32  C   UNL     1       9.720   2.855  10.444  1.00  0.00     0.029 A 
ATOM     33  C   UNL     1       9.306   3.732   9.454  1.00  0.00     0.049 A 
ATOM     34  H   UNL     1       8.040   3.379   7.805  1.00  0.00     0.167 HD
ATOM     35  C   UNL     1       9.146   5.923   8.312  1.00  0.00     0.074 A 
ATOM     36  C   UNL     1       9.486   7.324   8.157  1.00  0.00     0.031 C 
ATOM     37  C   UNL     1       9.636   5.122   9.288  1.00  0.00     0.031 A 
BRANCH  24  38
ATOM     38  C   UNL     1       7.609  -0.702   8.959  1.00  0.00    -0.014 A 
ATOM     39  C   UNL     1       8.487  -1.698   8.498  1.00  0.00     0.010 A 
ATOM     40  C   UNL     1       6.681  -1.009   9.970  1.00  0.00     0.010 A 
ATOM     41  C   UNL     1       8.408  -2.996   9.009  1.00  0.00     0.020 A 
ATOM     42  C   UNL     1       6.605  -2.304  10.488  1.00  0.00     0.020 A 
ATOM     43  C   UNL     1       7.454  -3.295   9.988  1.00  0.00     0.054 A 
BRANCH  43  44
ATOM     44  S   UNL     1       7.329  -4.987  10.631  1.00  0.00     0.124 S 
ATOM     45  O   UNL     1       6.349  -5.579   9.724  1.00  0.00    -0.237 OA
ATOM     46  O   UNL     1       8.692  -5.497  10.499  1.00  0.00    -0.237 OA
ATOM     47  O   UNL     1       6.873  -4.791  12.005  1.00  0.00    -0.744 OA
ENDBRANCH  43  44
ENDBRANCH  24  38
BRANCH  25  48
ATOM     48  C   UNL     1       7.187   8.285   4.760  1.00  0.00    -0.014 A 
ATOM     49  C   UNL     1       8.177   8.596   3.812  1.00  0.00     0.010 A 
ATOM     50  C   UNL     1       6.154   9.203   5.010  1.00  0.00     0.010 A 
ATOM     51  C   UNL     1       8.130   9.805   3.113  1.00  0.00     0.020 A 
ATOM     52  C   UNL     1       6.100  10.409   4.308  1.00  0.00     0.020 A 
ATOM     53  C   UNL     1       7.090  10.703   3.365  1.00  0.00     0.054 A 
BRANCH  53  54
ATOM     54  S   UNL     1       6.965  12.229   2.390  1.00  0.00     0.124 S 
ATOM     55  O   UNL     1       7.638  13.194   3.252  1.00  0.00    -0.237 OA
ATOM     56  O   UNL     1       7.664  11.892   1.152  1.00  0.00    -0.237 OA
ATOM     57  O   UNL     1       5.521  12.407   2.248  1.00  0.00    -0.744 OA
ENDBRANCH  53  54
ENDBRANCH  25  48
BRANCH  37  58
ATOM     58  C   UNL     1      10.586   5.748  10.265  1.00  0.00    -0.014 A 
ATOM     59  C   UNL     1      10.095   6.441  11.385  1.00  0.00     0.010 A 
ATOM     60  C   UNL     1      11.973   5.633  10.074  1.00  0.00     0.010 A 
ATOM     61  C   UNL     1      10.979   7.032  12.291  1.00  0.00     0.020 A 
ATOM     62  C   UNL     1      12.860   6.219  10.982  1.00  0.00     0.020 A 
ATOM     63  C   UNL     1      12.356   6.926  12.077  1.00  0.00     0.054 A 
BRANCH  63  64
ATOM     64  S   UNL     1      13.506   7.671  13.268  1.00  0.00     0.124 S 
ATOM     65  O   UNL     1      13.704   9.003  12.703  1.00  0.00    -0.237 OA
ATOM     66  O   UNL     1      12.762   7.627  14.525  1.00  0.00    -0.237 OA
ATOM     67  O   UNL     1      14.667   6.786  13.210  1.00  0.00    -0.744 OA
ENDBRANCH  63  64
ENDBRANCH  37  58
ENDBRANCH  11  12
ENDBRANCH   4   6
ENDBRANCH   1   2
BRANCH   1  68
ATOM     68  C   UNL     1       4.864  -2.537  -0.990  1.00  0.00     0.042 C 
BRANCH  68  69
ATOM     69  C   UNL     1       4.160  -3.365  -2.064  1.00  0.00     0.118 C 
BRANCH  69  70
ATOM     70  N   UNL     1       4.678  -3.108  -3.397  1.00  0.00    -0.352 N 
ATOM     71  C   UNL     1       5.584  -3.805  -4.155  1.00  0.00     0.256 C 
ATOM     72  H   UNL     1       4.319  -2.299  -3.828  1.00  0.00     0.163 HD
ATOM     73  O   UNL     1       6.026  -3.260  -5.166  1.00  0.00    -0.269 OA
BRANCH  71  74
ATOM     74  C   UNL     1       6.051  -5.112  -3.755  1.00  0.00     0.104 A 
ATOM     75  C   UNL     1       7.378  -5.574  -3.847  1.00  0.00     0.151 A 
ATOM     76  C   UNL     1       5.335  -6.222  -3.342  1.00  0.00     0.168 A 
ATOM     77  N   UNL     1       7.526  -6.838  -3.454  1.00  0.00    -0.174 NA
ATOM     78  N   UNL     1       6.277  -7.246  -3.130  1.00  0.00    -0.209 N 
ATOM     79  N   UNL     1       3.994  -6.433  -3.152  1.00  0.00    -0.236 NA
ATOM     80  C   UNL     1       5.876  -8.493  -2.657  1.00  0.00     0.150 A 
ATOM     81  C   UNL     1       3.651  -7.600  -2.705  1.00  0.00     0.116 A 
ATOM     82  C   UNL     1       4.573  -8.723  -2.409  1.00  0.00     0.053 A 
BRANCH  80  83
ATOM     83  C   UNL     1       6.940  -9.503  -2.458  1.00  0.00     0.433 C 
ATOM     84  F   UNL     1       7.573  -9.834  -3.611  1.00  0.00    -0.165 F 
ATOM     85  F   UNL     1       7.880  -9.120  -1.561  1.00  0.00    -0.165 F 
ATOM     86  F   UNL     1       6.423 -10.671  -1.978  1.00  0.00    -0.165 F 
ENDBRANCH  80  83
ENDBRANCH  71  74
ENDBRANCH  69  70
ENDBRANCH  68  69
ENDBRANCH   1  68
TORSDOF 14
