REMARK SMILES O=C(NCCCNC(=O)[C@@H]1CCCN1S(=O)(=O)c1ccc2c3c(cccc13)C(=O)N2)c1ccc(-c2c3nc(c(-c4ccc(S(=O)(=O)[O-])cc4)c4ccc([nH]4)c(-c4ccc(S(=O)(=O)[O-])cc4)c4nc(c(-c5ccc(S(=O)(=O)[O-])cc5)c5ccc2[nH]5)C=C4)C=C3)cc1
REMARK SMILES IDX 4 1 3 2 1 3 2 4 31 6 32 7 90 8 33 9 89 10 34 11 35 12 36 13
REMARK SMILES IDX 83 14 37 15 88 16 82 17 84 18 38 19 87 20 81 21 80 22 39 24
REMARK SMILES IDX 69 25 50 26 68 27 51 28 54 29 67 30 85 31 52 32 53 33 66 35
REMARK SMILES IDX 86 36 55 37 40 38 41 39 49 40 42 41 48 42 43 43 44 44 45 45
REMARK SMILES IDX 46 46 47 47 70 48 71 49 79 50 72 51 78 52 73 53 74 54 75 55
REMARK SMILES IDX 76 56 77 57 56 58 57 59 65 60 58 61 64 62 59 63 60 64 61 65
REMARK SMILES IDX 62 66 63 67 5 68 6 69 7 70 8 71 9 73 10 74 11 75 14 76 12 77
REMARK SMILES IDX 13 78 15 79 16 80 17 81 18 82 19 83 27 84 20 85 22 86 26 87
REMARK SMILES IDX 21 88 23 89 25 90 30 91 24 92 28 93 29 95
REMARK H PARENT 3 5 84 23 54 34 7 72 30 94
REMARK Flexibility Score: inf
ROOT
ATOM      1  C   UNL     1       5.096   0.458   0.730  1.00  0.00     0.118 C 
ENDROOT
BRANCH   1   2
ATOM      2  N   UNL     1       3.652   0.620   0.660  1.00  0.00    -0.352 N 
ATOM      3  O   UNL     1       1.614   0.697  -0.319  1.00  0.00    -0.269 OA
ATOM      4  C   UNL     1       2.782   0.334  -0.363  1.00  0.00     0.251 C 
ATOM      5  H   UNL     1       3.234   0.992   1.470  1.00  0.00     0.163 HD
BRANCH   4   6
ATOM      6  C   UNL     1       3.252  -0.347  -1.569  1.00  0.00     0.039 A 
ATOM      7  C   UNL     1       4.133  -1.425  -1.493  1.00  0.00     0.014 A 
ATOM      8  C   UNL     1       2.827   0.160  -2.800  1.00  0.00     0.014 A 
ATOM      9  C   UNL     1       4.771  -1.845  -2.645  1.00  0.00     0.010 A 
ATOM     10  C   UNL     1       3.398  -0.326  -3.964  1.00  0.00     0.010 A 
ATOM     11  C   UNL     1       4.426  -1.272  -3.877  1.00  0.00    -0.014 A 
BRANCH  11  12
ATOM     12  C   UNL     1       5.180  -1.639  -5.084  1.00  0.00     0.031 A 
ATOM     13  C   UNL     1       6.088  -0.629  -5.721  1.00  0.00     0.074 A 
ATOM     14  C   UNL     1       5.036  -2.884  -5.566  1.00  0.00     0.049 A 
ATOM     15  N   UNL     1       6.806  -0.746  -6.805  1.00  0.00    -0.248 NA
ATOM     16  C   UNL     1       6.206   0.685  -5.062  1.00  0.00     0.031 C 
ATOM     17  C   UNL     1       4.180  -3.919  -4.978  1.00  0.00     0.029 A 
ATOM     18  N   UNL     1       5.608  -3.492  -6.646  1.00  0.00    -0.354 N 
ATOM     19  C   UNL     1       7.440   0.479  -6.971  1.00  0.00     0.074 A 
ATOM     20  C   UNL     1       7.013   1.336  -5.889  1.00  0.00     0.031 C 
ATOM     21  C   UNL     1       4.306  -5.046  -5.692  1.00  0.00     0.029 A 
ATOM     22  C   UNL     1       5.204  -4.793  -6.812  1.00  0.00     0.049 A 
ATOM     23  H   UNL     1       6.246  -3.042  -7.246  1.00  0.00     0.167 HD
ATOM     24  C   UNL     1       8.304   0.844  -7.945  1.00  0.00     0.031 A 
ATOM     25  C   UNL     1       5.515  -5.675  -7.777  1.00  0.00     0.031 A 
ATOM     26  C   UNL     1       8.709  -0.038  -9.005  1.00  0.00     0.049 A 
ATOM     27  C   UNL     1       6.453  -5.237  -8.859  1.00  0.00     0.074 A 
ATOM     28  C   UNL     1       9.590   0.209 -10.042  1.00  0.00     0.029 A 
ATOM     29  N   UNL     1       8.258  -1.343  -9.158  1.00  0.00    -0.354 N 
ATOM     30  N   UNL     1       7.042  -4.073  -9.007  1.00  0.00    -0.248 NA
ATOM     31  C   UNL     1       6.771  -6.219  -9.900  1.00  0.00     0.031 C 
ATOM     32  C   UNL     1       9.640  -0.935 -10.845  1.00  0.00     0.029 A 
ATOM     33  C   UNL     1       8.831  -1.910 -10.280  1.00  0.00     0.049 A 
ATOM     34  H   UNL     1       7.625  -1.796  -8.556  1.00  0.00     0.167 HD
ATOM     35  C   UNL     1       7.812  -4.183 -10.155  1.00  0.00     0.074 A 
ATOM     36  C   UNL     1       7.621  -5.533 -10.655  1.00  0.00     0.031 C 
ATOM     37  C   UNL     1       8.606  -3.256 -10.745  1.00  0.00     0.031 A 
BRANCH  24  38
ATOM     38  C   UNL     1       8.853   2.244  -7.923  1.00  0.00    -0.014 A 
ATOM     39  C   UNL     1       9.844   2.619  -6.998  1.00  0.00     0.010 A 
ATOM     40  C   UNL     1       8.424   3.177  -8.884  1.00  0.00     0.010 A 
ATOM     41  C   UNL     1      10.389   3.906  -7.031  1.00  0.00     0.020 A 
ATOM     42  C   UNL     1       8.981   4.459  -8.932  1.00  0.00     0.020 A 
ATOM     43  C   UNL     1       9.960   4.816  -8.003  1.00  0.00     0.054 A 
BRANCH  43  44
ATOM     44  S   UNL     1      10.718   6.463  -8.040  1.00  0.00     0.124 S 
ATOM     45  O   UNL     1      10.373   6.988  -6.721  1.00  0.00    -0.237 OA
ATOM     46  O   UNL     1      12.131   6.154  -8.242  1.00  0.00    -0.237 OA
ATOM     47  O   UNL     1      10.058   7.127  -9.161  1.00  0.00    -0.744 OA
ENDBRANCH  43  44
ENDBRANCH  24  38
BRANCH  25  48
ATOM     48  C   UNL     1       4.923  -7.035  -7.727  1.00  0.00    -0.014 A 
ATOM     49  C   UNL     1       5.694  -8.130  -7.307  1.00  0.00     0.010 A 
ATOM     50  C   UNL     1       3.552  -7.219  -7.989  1.00  0.00     0.010 A 
ATOM     51  C   UNL     1       5.103  -9.385  -7.137  1.00  0.00     0.020 A 
ATOM     52  C   UNL     1       2.953  -8.467  -7.801  1.00  0.00     0.020 A 
ATOM     53  C   UNL     1       3.733  -9.542  -7.372  1.00  0.00     0.054 A 
BRANCH  53  54
ATOM     54  S   UNL     1       2.981 -11.164  -7.066  1.00  0.00     0.124 S 
ATOM     55  O   UNL     1       3.698 -12.018  -8.008  1.00  0.00    -0.237 OA
ATOM     56  O   UNL     1       3.288 -11.383  -5.655  1.00  0.00    -0.237 OA
ATOM     57  O   UNL     1       1.567 -10.952  -7.366  1.00  0.00    -0.744 OA
ENDBRANCH  53  54
ENDBRANCH  25  48
BRANCH  37  58
ATOM     58  C   UNL     1       9.338  -3.675 -11.984  1.00  0.00    -0.014 A 
ATOM     59  C   UNL     1       8.675  -3.744 -13.220  1.00  0.00     0.010 A 
ATOM     60  C   UNL     1      10.723  -3.907 -11.921  1.00  0.00     0.010 A 
ATOM     61  C   UNL     1       9.389  -4.052 -14.379  1.00  0.00     0.020 A 
ATOM     62  C   UNL     1      11.443  -4.194 -13.081  1.00  0.00     0.020 A 
ATOM     63  C   UNL     1      10.770  -4.267 -14.302  1.00  0.00     0.054 A 
BRANCH  63  64
ATOM     64  S   UNL     1      11.675  -4.614 -15.833  1.00  0.00     0.124 S 
ATOM     65  O   UNL     1      11.066  -5.868 -16.270  1.00  0.00    -0.237 OA
ATOM     66  O   UNL     1      11.366  -3.446 -16.652  1.00  0.00    -0.237 OA
ATOM     67  O   UNL     1      13.066  -4.718 -15.399  1.00  0.00    -0.744 OA
ENDBRANCH  63  64
ENDBRANCH  37  58
ENDBRANCH  11  12
ENDBRANCH   4   6
ENDBRANCH   1   2
BRANCH   1  68
ATOM     68  C   UNL     1       5.838   1.765   0.966  1.00  0.00     0.042 C 
BRANCH  68  69
ATOM     69  C   UNL     1       5.486   2.467   2.264  1.00  0.00     0.117 C 
BRANCH  69  70
ATOM     70  N   UNL     1       5.738   1.661   3.448  1.00  0.00    -0.355 N 
ATOM     71  C   UNL     1       5.933   2.121   4.725  1.00  0.00     0.238 C 
ATOM     72  H   UNL     1       5.771   0.686   3.320  1.00  0.00     0.163 HD
ATOM     73  O   UNL     1       6.064   1.308   5.640  1.00  0.00    -0.273 OA
BRANCH  71  74
ATOM     74  C   UNL     1       6.049   3.610   4.916  1.00  0.00     0.162 C 
ATOM     75  C   UNL     1       6.482   4.066   6.301  1.00  0.00     0.032 C 
ATOM     76  N   UNL     1       4.915   4.527   4.560  1.00  0.00    -0.185 NA
ATOM     77  C   UNL     1       6.352   5.582   6.211  1.00  0.00     0.019 C 
ATOM     78  C   UNL     1       5.463   5.862   4.992  1.00  0.00     0.103 C 
BRANCH  76  79
ATOM     79  S   UNL     1       3.334   4.273   5.197  1.00  0.00     0.244 S 
ATOM     80  O   UNL     1       3.461   4.051   6.622  1.00  0.00    -0.207 OA
ATOM     81  O   UNL     1       2.530   5.386   4.734  1.00  0.00    -0.207 OA
BRANCH  79  82
ATOM     82  C   UNL     1       2.661   2.781   4.487  1.00  0.00     0.090 A 
ATOM     83  C   UNL     1       2.933   1.569   5.181  1.00  0.00     0.024 A 
ATOM     84  C   UNL     1       1.727   2.798   3.399  1.00  0.00     0.005 A 
ATOM     85  C   UNL     1       2.406   0.332   4.774  1.00  0.00     0.028 A 
ATOM     86  C   UNL     1       1.180   1.577   3.113  1.00  0.00     0.019 A 
ATOM     87  C   UNL     1       1.254   3.839   2.549  1.00  0.00     0.010 A 
ATOM     88  C   UNL     1       1.516   0.389   3.724  1.00  0.00     0.050 A 
ATOM     89  C   UNL     1       0.227   1.300   2.143  1.00  0.00     0.050 A 
ATOM     90  C   UNL     1       0.287   3.597   1.546  1.00  0.00     0.002 A 
ATOM     91  N   UNL     1       0.797  -0.617   3.109  1.00  0.00    -0.321 N 
ATOM     92  C   UNL     1      -0.257   2.323   1.335  1.00  0.00     0.014 A 
ATOM     93  C   UNL     1      -0.058  -0.123   2.115  1.00  0.00     0.256 C 
ATOM     94  H   UNL     1       0.877  -1.571   3.341  1.00  0.00     0.170 HD
ATOM     95  O   UNL     1      -0.835  -0.815   1.470  1.00  0.00    -0.269 OA
ENDBRANCH  79  82
ENDBRANCH  76  79
ENDBRANCH  71  74
ENDBRANCH  69  70
ENDBRANCH  68  69
ENDBRANCH   1  68
TORSDOF 15
