REMARK SMILES CCOC(=O)[C@H](c1ccccc1)N1C(=O)/C(=C/c2ccc(C(=O)NCCCNC(=O)c3ccc(-c4c5nc(c(-c6ccc(S(=O)(=O)[O-])cc6)c6ccc([nH]6)c(-c6ccc(S(=O)(=O)[O-])cc6)c6nc(c(-c7ccc(S(=O)(=O)[O-])cc7)c7ccc4[nH]7)C=C6)C=C5)cc3)cc2)SC1=S
REMARK SMILES IDX 25 1 24 2 22 3 23 4 21 6 18 7 19 8 92 9 20 10 91 11 17 12
REMARK SMILES IDX 13 13 14 14 94 15 15 16 16 17 93 18 95 19 6 20 4 21 5 22
REMARK SMILES IDX 3 23 2 24 1 25 7 26 8 27 12 28 9 29 11 30 10 31 26 32 27 33
REMARK SMILES IDX 28 34 29 35 30 37 31 38 32 39 90 40 33 41 89 42 34 43 35 44
REMARK SMILES IDX 36 45 83 46 37 47 88 48 82 49 84 50 38 51 87 52 81 53 80 54
REMARK SMILES IDX 39 56 69 57 50 58 68 59 51 60 54 61 67 62 85 63 52 64 53 65
REMARK SMILES IDX 66 67 86 68 55 69 40 70 41 71 49 72 42 73 48 74 43 75 44 76
REMARK SMILES IDX 45 77 46 78 47 79 70 80 71 81 79 82 72 83 78 84 73 85 74 86
REMARK SMILES IDX 75 87 76 88 77 89 56 90 57 91 65 92 58 93 64 94 59 95 60 96
REMARK SMILES IDX 61 97 62 98 63 99
REMARK H PARENT 24 5 28 36 84 55 54 66
REMARK Flexibility Score: inf
ROOT
ATOM      1  C   UNL     1      -0.693  13.126   1.841  1.00  0.00     0.118 C 
ENDROOT
BRANCH   1   2
ATOM      2  N   UNL     1      -0.740  13.030   3.291  1.00  0.00    -0.352 N 
ATOM      3  C   UNL     1      -0.548  11.970   4.142  1.00  0.00     0.251 C 
ATOM      4  O   UNL     1      -0.562  12.185   5.353  1.00  0.00    -0.269 OA
ATOM      5  H   UNL     1      -0.946  13.879   3.745  1.00  0.00     0.163 HD
BRANCH   3   6
ATOM      6  C   UNL     1      -0.266  10.594   3.653  1.00  0.00     0.039 A 
ATOM      7  C   UNL     1       0.430   8.011   2.791  1.00  0.00    -0.024 A 
ATOM      8  C   UNL     1       0.907   8.486   4.013  1.00  0.00     0.009 A 
ATOM      9  C   UNL     1      -0.441   8.802   2.037  1.00  0.00     0.009 A 
ATOM     10  C   UNL     1       0.562   9.776   4.439  1.00  0.00     0.014 A 
ATOM     11  C   UNL     1      -0.809  10.070   2.480  1.00  0.00     0.014 A 
BRANCH   7  12
ATOM     12  C   UNL     1       0.727   6.672   2.291  1.00  0.00     0.029 C 
ATOM     13  N   UNL     1       2.591   4.879  -0.234  1.00  0.00    -0.274 N 
ATOM     14  C   UNL     1       1.560   5.028   0.677  1.00  0.00     0.267 C 
ATOM     15  C   UNL     1       3.353   6.017  -0.443  1.00  0.00     0.149 C 
ATOM     16  O   UNL     1       0.671   4.232   0.942  1.00  0.00    -0.268 OA
ATOM     17  C   UNL     1       1.579   6.373   1.301  1.00  0.00     0.081 C 
ATOM     18  S   UNL     1       2.724   7.365   0.515  1.00  0.00    -0.054 SA
ATOM     19  S   UNL     1       4.703   6.213  -1.409  1.00  0.00    -0.052 S 
BRANCH  13  20
ATOM     20  C   UNL     1       2.757   3.614  -1.005  1.00  0.00     0.232 C 
BRANCH  20  21
ATOM     21  C   UNL     1       2.037   3.579  -2.379  1.00  0.00     0.333 C 
ATOM     22  O   UNL     1       1.651   2.558  -2.940  1.00  0.00    -0.249 OA
BRANCH  21  23
ATOM     23  O   UNL     1       2.098   4.792  -3.006  1.00  0.00    -0.464 OA
BRANCH  23  24
ATOM     24  C   UNL     1       1.744   4.790  -4.402  1.00  0.00     0.229 C 
ATOM     25  C   UNL     1       2.799   4.103  -5.262  1.00  0.00     0.049 C 
ENDBRANCH  23  24
ENDBRANCH  21  23
ENDBRANCH  20  21
BRANCH  20  26
ATOM     26  C   UNL     1       2.553   2.321  -0.211  1.00  0.00    -0.014 A 
ATOM     27  C   UNL     1       1.274   1.758  -0.044  1.00  0.00     0.006 A 
ATOM     28  C   UNL     1       3.650   1.643   0.343  1.00  0.00     0.006 A 
ATOM     29  C   UNL     1       1.086   0.587   0.686  1.00  0.00     0.000 A 
ATOM     30  C   UNL     1       3.464   0.449   1.047  1.00  0.00     0.000 A 
ATOM     31  C   UNL     1       2.183  -0.071   1.227  1.00  0.00     0.000 A 
ENDBRANCH  20  26
ENDBRANCH  13  20
ENDBRANCH   7  12
ENDBRANCH   3   6
ENDBRANCH   1   2
BRANCH   1  32
ATOM     32  C   UNL     1      -2.098  13.184   1.244  1.00  0.00     0.042 C 
BRANCH  32  33
ATOM     33  C   UNL     1      -2.780  14.533   1.440  1.00  0.00     0.118 C 
BRANCH  33  34
ATOM     34  N   UNL     1      -2.144  15.579   0.653  1.00  0.00    -0.352 N 
ATOM     35  C   UNL     1      -2.675  16.404  -0.306  1.00  0.00     0.251 C 
ATOM     36  H   UNL     1      -1.186  15.716   0.837  1.00  0.00     0.163 HD
ATOM     37  O   UNL     1      -1.919  17.054  -1.023  1.00  0.00    -0.269 OA
BRANCH  35  38
ATOM     38  C   UNL     1      -4.140  16.507  -0.484  1.00  0.00     0.039 A 
ATOM     39  C   UNL     1      -4.656  16.601  -1.779  1.00  0.00     0.014 A 
ATOM     40  C   UNL     1      -5.001  16.558   0.617  1.00  0.00     0.014 A 
ATOM     41  C   UNL     1      -6.036  16.696  -1.972  1.00  0.00     0.010 A 
ATOM     42  C   UNL     1      -6.379  16.578   0.421  1.00  0.00     0.010 A 
ATOM     43  C   UNL     1      -6.911  16.657  -0.875  1.00  0.00    -0.014 A 
BRANCH  43  44
ATOM     44  C   UNL     1      -8.383  16.700  -1.062  1.00  0.00     0.031 A 
ATOM     45  C   UNL     1      -9.184  17.856  -0.524  1.00  0.00     0.074 A 
ATOM     46  C   UNL     1      -9.006  15.666  -1.664  1.00  0.00     0.049 A 
ATOM     47  N   UNL     1     -10.479  18.042  -0.544  1.00  0.00    -0.248 NA
ATOM     48  C   UNL     1      -8.434  18.932   0.144  1.00  0.00     0.031 C 
ATOM     49  C   UNL     1      -8.343  14.473  -2.196  1.00  0.00     0.029 A 
ATOM     50  N   UNL     1     -10.335  15.451  -1.925  1.00  0.00    -0.354 N 
ATOM     51  C   UNL     1     -10.700  19.241   0.125  1.00  0.00     0.074 A 
ATOM     52  C   UNL     1      -9.411  19.716   0.577  1.00  0.00     0.031 C 
ATOM     53  C   UNL     1      -9.265  13.667  -2.746  1.00  0.00     0.029 A 
ATOM     54  C   UNL     1     -10.586  14.261  -2.567  1.00  0.00     0.049 A 
ATOM     55  H   UNL     1     -11.043  16.088  -1.676  1.00  0.00     0.167 HD
ATOM     56  C   UNL     1     -11.869  19.894   0.330  1.00  0.00     0.031 A 
ATOM     57  C   UNL     1     -11.748  13.706  -2.961  1.00  0.00     0.031 A 
ATOM     58  C   UNL     1     -13.147  19.421  -0.133  1.00  0.00     0.049 A 
ATOM     59  C   UNL     1     -13.034  14.445  -2.710  1.00  0.00     0.074 A 
ATOM     60  C   UNL     1     -14.381  20.039  -0.031  1.00  0.00     0.029 A 
ATOM     61  N   UNL     1     -13.357  18.213  -0.781  1.00  0.00    -0.354 N 
ATOM     62  N   UNL     1     -13.215  15.611  -2.137  1.00  0.00    -0.248 NA
ATOM     63  C   UNL     1     -14.271  13.798  -3.169  1.00  0.00     0.031 C 
ATOM     64  C   UNL     1     -15.346  19.179  -0.565  1.00  0.00     0.029 A 
ATOM     65  C   UNL     1     -14.705  18.053  -1.059  1.00  0.00     0.049 A 
ATOM     66  H   UNL     1     -12.653  17.564  -1.010  1.00  0.00     0.167 HD
ATOM     67  C   UNL     1     -14.584  15.851  -2.193  1.00  0.00     0.074 A 
ATOM     68  C   UNL     1     -15.179  14.716  -2.868  1.00  0.00     0.031 C 
ATOM     69  C   UNL     1     -15.283  16.917  -1.731  1.00  0.00     0.031 A 
BRANCH  56  70
ATOM     70  C   UNL     1     -11.821  21.188   1.101  1.00  0.00    -0.014 A 
ATOM     71  C   UNL     1     -11.231  22.343   0.555  1.00  0.00     0.010 A 
ATOM     72  C   UNL     1     -12.414  21.263   2.375  1.00  0.00     0.010 A 
ATOM     73  C   UNL     1     -11.195  23.534   1.285  1.00  0.00     0.020 A 
ATOM     74  C   UNL     1     -12.407  22.461   3.096  1.00  0.00     0.020 A 
ATOM     75  C   UNL     1     -11.781  23.584   2.553  1.00  0.00     0.054 A 
BRANCH  75  76
ATOM     76  S   UNL     1     -11.739  25.150   3.469  1.00  0.00     0.124 S 
ATOM     77  O   UNL     1     -10.332  25.233   3.856  1.00  0.00    -0.237 OA
ATOM     78  O   UNL     1     -12.172  26.119   2.466  1.00  0.00    -0.237 OA
ATOM     79  O   UNL     1     -12.675  24.935   4.569  1.00  0.00    -0.744 OA
ENDBRANCH  75  76
ENDBRANCH  56  70
BRANCH  57  80
ATOM     80  C   UNL     1     -11.746  12.387  -3.652  1.00  0.00    -0.014 A 
ATOM     81  C   UNL     1     -12.065  12.299  -5.019  1.00  0.00     0.010 A 
ATOM     82  C   UNL     1     -11.410  11.214  -2.952  1.00  0.00     0.010 A 
ATOM     83  C   UNL     1     -12.066  11.060  -5.668  1.00  0.00     0.020 A 
ATOM     84  C   UNL     1     -11.382   9.978  -3.604  1.00  0.00     0.020 A 
ATOM     85  C   UNL     1     -11.722   9.908  -4.956  1.00  0.00     0.054 A 
BRANCH  85  86
ATOM     86  S   UNL     1     -11.680   8.320  -5.833  1.00  0.00     0.124 S 
ATOM     87  O   UNL     1     -13.100   8.040  -6.022  1.00  0.00    -0.237 OA
ATOM     88  O   UNL     1     -10.931   8.648  -7.043  1.00  0.00    -0.237 OA
ATOM     89  O   UNL     1     -10.985   7.434  -4.901  1.00  0.00    -0.744 OA
ENDBRANCH  85  86
ENDBRANCH  57  80
BRANCH  69  90
ATOM     90  C   UNL     1     -16.770  16.927  -1.970  1.00  0.00    -0.014 A 
ATOM     91  C   UNL     1     -17.630  16.066  -1.266  1.00  0.00     0.010 A 
ATOM     92  C   UNL     1     -17.317  17.853  -2.877  1.00  0.00     0.010 A 
ATOM     93  C   UNL     1     -19.009  16.110  -1.489  1.00  0.00     0.020 A 
ATOM     94  C   UNL     1     -18.698  17.921  -3.079  1.00  0.00     0.020 A 
ATOM     95  C   UNL     1     -19.534  17.038  -2.393  1.00  0.00     0.054 A 
BRANCH  95  96
ATOM     96  S   UNL     1     -21.331  17.105  -2.631  1.00  0.00     0.124 S 
ATOM     97  O   UNL     1     -21.581  15.892  -3.404  1.00  0.00    -0.237 OA
ATOM     98  O   UNL     1     -21.835  17.092  -1.260  1.00  0.00    -0.237 OA
ATOM     99  O   UNL     1     -21.539  18.358  -3.352  1.00  0.00    -0.744 OA
ENDBRANCH  95  96
ENDBRANCH  69  90
ENDBRANCH  43  44
ENDBRANCH  35  38
ENDBRANCH  33  34
ENDBRANCH  32  33
ENDBRANCH   1  32
TORSDOF 19
