REMARK SMILES COc1ccc(CSc2ncccc2C(=O)NCCCNC(=O)c2ccc(-c3c4nc(c(-c5ccc(S(=O)(=O)[O-])cc5)c5ccc([nH]5)c(-c5ccc(S(=O)(=O)[O-])cc5)c5nc(c(-c6ccc(S(=O)(=O)[O-])cc6)c6ccc3[nH]6)C=C5)C=C4)cc2)cc1
REMARK SMILES IDX 18 1 17 2 15 3 16 4 14 6 9 7 10 8 11 9 13 10 12 11 8 12 7 13
REMARK SMILES IDX 6 14 3 15 4 16 85 17 5 18 84 19 2 20 1 21 19 22 20 23 21 24
REMARK SMILES IDX 22 25 23 27 24 28 25 29 83 30 26 31 82 32 27 33 28 34 29 35
REMARK SMILES IDX 76 36 30 37 81 38 75 39 77 40 31 41 80 42 74 43 73 44 32 46
REMARK SMILES IDX 62 47 43 48 61 49 44 50 47 51 60 52 78 53 45 54 46 55 59 57
REMARK SMILES IDX 79 58 48 59 33 60 34 61 42 62 35 63 41 64 36 65 37 66 38 67
REMARK SMILES IDX 39 68 40 69 63 70 64 71 72 72 65 73 71 74 66 75 67 76 68 77
REMARK SMILES IDX 69 78 70 79 49 80 50 81 58 82 51 83 57 84 52 85 53 86 54 87
REMARK SMILES IDX 55 88 56 89
REMARK H PARENT 17 5 21 26 77 45 47 56
REMARK Flexibility Score: inf
ROOT
ATOM      1  C   UNL     1       7.463  -2.184   7.095  1.00  0.00     0.118 C 
ENDROOT
BRANCH   1   2
ATOM      2  N   UNL     1       6.340  -3.078   7.321  1.00  0.00    -0.352 N 
ATOM      3  C   UNL     1       4.993  -2.918   7.535  1.00  0.00     0.254 C 
ATOM      4  O   UNL     1       4.389  -3.962   7.774  1.00  0.00    -0.269 OA
ATOM      5  H   UNL     1       6.609  -4.025   7.319  1.00  0.00     0.163 HD
BRANCH   3   6
ATOM      6  C   UNL     1       4.273  -1.612   7.437  1.00  0.00     0.072 A 
ATOM      7  C   UNL     1       2.904  -1.541   7.121  1.00  0.00     0.109 A 
ATOM      8  N   UNL     1       2.252  -0.354   6.948  1.00  0.00    -0.249 NA
ATOM      9  C   UNL     1       2.936   0.790   7.123  1.00  0.00     0.112 A 
ATOM     10  C   UNL     1       4.916  -0.393   7.691  1.00  0.00     0.018 A 
ATOM     11  C   UNL     1       4.255   0.822   7.513  1.00  0.00     0.021 A 
BRANCH   7  12
ATOM     12  S   UNL     1       1.763  -2.912   7.026  1.00  0.00    -0.101 SA
BRANCH  12  13
ATOM     13  C   UNL     1       2.151  -3.542   5.369  1.00  0.00     0.112 C 
BRANCH  13  14
ATOM     14  C   UNL     1       1.714  -2.633   4.244  1.00  0.00    -0.037 A 
ATOM     15  C   UNL     1       0.915  -0.961   2.121  1.00  0.00     0.118 A 
ATOM     16  C   UNL     1       0.005  -1.331   3.110  1.00  0.00     0.047 A 
ATOM     17  C   UNL     1       2.228  -1.425   2.193  1.00  0.00     0.047 A 
ATOM     18  C   UNL     1       0.393  -2.174   4.152  1.00  0.00     0.008 A 
ATOM     19  C   UNL     1       2.625  -2.256   3.248  1.00  0.00     0.008 A 
BRANCH  15  20
ATOM     20  O   UNL     1       0.413  -0.128   1.159  1.00  0.00    -0.497 OA
ATOM     21  C   UNL     1       1.143  -0.066  -0.059  1.00  0.00     0.278 C 
ENDBRANCH  15  20
ENDBRANCH  13  14
ENDBRANCH  12  13
ENDBRANCH   7  12
ENDBRANCH   3   6
ENDBRANCH   1   2
BRANCH   1  22
ATOM     22  C   UNL     1       8.234  -1.947   8.396  1.00  0.00     0.042 C 
BRANCH  22  23
ATOM     23  C   UNL     1       8.992  -3.182   8.890  1.00  0.00     0.118 C 
BRANCH  23  24
ATOM     24  N   UNL     1      10.099  -3.531   8.011  1.00  0.00    -0.352 N 
ATOM     25  C   UNL     1      11.440  -3.644   8.284  1.00  0.00     0.251 C 
ATOM     26  H   UNL     1       9.847  -3.713   7.077  1.00  0.00     0.163 HD
ATOM     27  O   UNL     1      12.235  -3.716   7.351  1.00  0.00    -0.269 OA
BRANCH  25  28
ATOM     28  C   UNL     1      11.931  -3.673   9.680  1.00  0.00     0.039 A 
ATOM     29  C   UNL     1      13.099  -2.973   9.997  1.00  0.00     0.014 A 
ATOM     30  C   UNL     1      11.283  -4.429  10.661  1.00  0.00     0.014 A 
ATOM     31  C   UNL     1      13.589  -2.991  11.306  1.00  0.00     0.010 A 
ATOM     32  C   UNL     1      11.738  -4.397  11.978  1.00  0.00     0.010 A 
ATOM     33  C   UNL     1      12.898  -3.682  12.314  1.00  0.00    -0.014 A 
BRANCH  33  34
ATOM     34  C   UNL     1      13.370  -3.663  13.722  1.00  0.00     0.031 A 
ATOM     35  C   UNL     1      13.835  -4.932  14.387  1.00  0.00     0.074 A 
ATOM     36  C   UNL     1      13.317  -2.514  14.425  1.00  0.00     0.049 A 
ATOM     37  N   UNL     1      14.216  -5.122  15.624  1.00  0.00    -0.248 NA
ATOM     38  C   UNL     1      13.851  -6.149  13.559  1.00  0.00     0.031 C 
ATOM     39  C   UNL     1      12.850  -1.226  13.907  1.00  0.00     0.029 A 
ATOM     40  N   UNL     1      13.650  -2.246  15.729  1.00  0.00    -0.354 N 
ATOM     41  C   UNL     1      14.495  -6.480  15.731  1.00  0.00     0.074 A 
ATOM     42  C   UNL     1      14.203  -7.072  14.443  1.00  0.00     0.031 C 
ATOM     43  C   UNL     1      12.943  -0.302  14.877  1.00  0.00     0.029 A 
ATOM     44  C   UNL     1      13.439  -0.937  16.094  1.00  0.00     0.049 A 
ATOM     45  H   UNL     1      14.005  -2.927  16.345  1.00  0.00     0.167 HD
ATOM     46  C   UNL     1      14.963  -7.169  16.799  1.00  0.00     0.031 A 
ATOM     47  C   UNL     1      13.615  -0.317  17.277  1.00  0.00     0.031 A 
ATOM     48  C   UNL     1      15.267  -6.574  18.074  1.00  0.00     0.049 A 
ATOM     49  C   UNL     1      14.143  -1.100  18.446  1.00  0.00     0.074 A 
ATOM     50  C   UNL     1      15.805  -7.176  19.198  1.00  0.00     0.029 A 
ATOM     51  N   UNL     1      15.060  -5.241  18.395  1.00  0.00    -0.354 N 
ATOM     52  N   UNL     1      14.460  -2.371  18.508  1.00  0.00    -0.248 NA
ATOM     53  C   UNL     1      14.351  -0.363  19.700  1.00  0.00     0.031 C 
ATOM     54  C   UNL     1      15.880  -6.218  20.215  1.00  0.00     0.029 A 
ATOM     55  C   UNL     1      15.439  -5.006  19.706  1.00  0.00     0.049 A 
ATOM     56  H   UNL     1      14.697  -4.562  17.782  1.00  0.00     0.167 HD
ATOM     57  C   UNL     1      14.926  -2.582  19.801  1.00  0.00     0.074 A 
ATOM     58  C   UNL     1      14.864  -1.304  20.482  1.00  0.00     0.031 C 
ATOM     59  C   UNL     1      15.368  -3.729  20.372  1.00  0.00     0.031 A 
BRANCH  46  60
ATOM     60  C   UNL     1      15.170  -8.653  16.636  1.00  0.00    -0.014 A 
ATOM     61  C   UNL     1      16.209  -9.159  15.834  1.00  0.00     0.010 A 
ATOM     62  C   UNL     1      14.339  -9.554  17.326  1.00  0.00     0.010 A 
ATOM     63  C   UNL     1      16.386 -10.537  15.691  1.00  0.00     0.020 A 
ATOM     64  C   UNL     1      14.529 -10.934  17.207  1.00  0.00     0.020 A 
ATOM     65  C   UNL     1      15.541 -11.417  16.375  1.00  0.00     0.054 A 
BRANCH  65  66
ATOM     66  S   UNL     1      15.805 -13.202  16.185  1.00  0.00     0.124 S 
ATOM     67  O   UNL     1      15.289 -13.440  14.839  1.00  0.00    -0.237 OA
ATOM     68  O   UNL     1      17.253 -13.330  16.333  1.00  0.00    -0.237 OA
ATOM     69  O   UNL     1      15.017 -13.786  17.267  1.00  0.00    -0.744 OA
ENDBRANCH  65  66
ENDBRANCH  46  60
BRANCH  47  70
ATOM     70  C   UNL     1      13.301   1.132  17.404  1.00  0.00    -0.014 A 
ATOM     71  C   UNL     1      14.334   2.078  17.516  1.00  0.00     0.010 A 
ATOM     72  C   UNL     1      11.966   1.576  17.385  1.00  0.00     0.010 A 
ATOM     73  C   UNL     1      14.039   3.441  17.616  1.00  0.00     0.020 A 
ATOM     74  C   UNL     1      11.668   2.939  17.459  1.00  0.00     0.020 A 
ATOM     75  C   UNL     1      12.707   3.863  17.583  1.00  0.00     0.054 A 
BRANCH  75  76
ATOM     76  S   UNL     1      12.350   5.641  17.645  1.00  0.00     0.124 S 
ATOM     77  O   UNL     1      12.588   5.950  19.051  1.00  0.00    -0.237 OA
ATOM     78  O   UNL     1      13.321   6.192  16.702  1.00  0.00    -0.237 OA
ATOM     79  O   UNL     1      10.957   5.724  17.211  1.00  0.00    -0.744 OA
ENDBRANCH  75  76
ENDBRANCH  47  70
BRANCH  59  80
ATOM     80  C   UNL     1      15.848  -3.654  21.796  1.00  0.00    -0.014 A 
ATOM     81  C   UNL     1      14.944  -3.510  22.863  1.00  0.00     0.010 A 
ATOM     82  C   UNL     1      17.222  -3.784  22.072  1.00  0.00     0.010 A 
ATOM     83  C   UNL     1      15.408  -3.469  24.180  1.00  0.00     0.020 A 
ATOM     84  C   UNL     1      17.687  -3.768  23.389  1.00  0.00     0.020 A 
ATOM     85  C   UNL     1      16.777  -3.597  24.435  1.00  0.00     0.054 A 
BRANCH  85  86
ATOM     86  S   UNL     1      17.352  -3.584  26.155  1.00  0.00     0.124 S 
ATOM     87  O   UNL     1      17.246  -2.170  26.500  1.00  0.00    -0.237 OA
ATOM     88  O   UNL     1      16.395  -4.466  26.820  1.00  0.00    -0.237 OA
ATOM     89  O   UNL     1      18.714  -4.106  26.069  1.00  0.00    -0.744 OA
ENDBRANCH  85  86
ENDBRANCH  59  80
ENDBRANCH  33  34
ENDBRANCH  25  28
ENDBRANCH  23  24
ENDBRANCH  22  23
ENDBRANCH   1  22
TORSDOF 17
