REMARK SMILES Cc1ccccc1[C@@H](Cc1c(Cl)cccc1Cl)C(=O)NCCCNC(=O)c1ccc(-c2c3nc(c(-c4ccc(S(=O)(=O)[O-])cc4)c4ccc([nH]4)c(-c4ccc(S(=O)(=O)[O-])cc4)c4nc(c(-c5ccc(S(=O)(=O)[O-])cc5)c5ccc2[nH]5)C=C4)C=C3)cc1
REMARK SMILES IDX 22 1 21 2 20 3 18 4 19 5 8 7 7 8 1 9 2 10 3 11 4 12 6 13
REMARK SMILES IDX 5 14 9 15 10 16 11 17 16 18 12 19 13 20 15 21 17 22 14 23
REMARK SMILES IDX 23 24 24 25 25 26 26 28 27 29 28 30 86 31 29 32 85 33 30 34
REMARK SMILES IDX 31 35 32 36 79 37 33 38 84 39 78 40 80 41 34 42 83 43 77 44
REMARK SMILES IDX 76 45 35 47 65 48 46 49 64 50 47 51 50 52 63 53 81 54 48 55
REMARK SMILES IDX 49 56 62 58 82 59 51 60 36 61 37 62 45 63 38 64 44 65 39 66
REMARK SMILES IDX 40 67 41 68 42 69 43 70 66 71 67 72 75 73 68 74 74 75 69 76
REMARK SMILES IDX 70 77 71 78 72 79 73 80 52 81 53 82 61 83 54 84 60 85 55 86
REMARK SMILES IDX 56 87 57 88 58 89 59 90
REMARK H PARENT 20 6 24 27 80 46 50 57
REMARK Flexibility Score: inf
ROOT
ATOM      1  C   UNL     1      -2.997   3.131   0.297  1.00  0.00     0.042 C 
ENDROOT
BRANCH   1   2
ATOM      2  C   UNL     1      -1.752   4.013   0.299  1.00  0.00     0.117 C 
BRANCH   2   3
ATOM      3  N   UNL     1      -0.792   3.630   1.316  1.00  0.00    -0.355 N 
ATOM      4  C   UNL     1       0.350   2.896   1.278  1.00  0.00     0.227 C 
ATOM      5  O   UNL     1       0.864   2.642   2.377  1.00  0.00    -0.274 OA
ATOM      6  H   UNL     1      -1.012   3.969   2.213  1.00  0.00     0.163 HD
BRANCH   4   7
ATOM      7  C   UNL     1       1.021   2.351  -0.004  1.00  0.00     0.113 C 
BRANCH   7   8
ATOM      8  C   UNL     1       0.523   0.932  -0.338  1.00  0.00    -0.032 A 
ATOM      9  C   UNL     1       2.721  -0.247   0.336  1.00  0.00     0.044 C 
ATOM     10  C   UNL     1       1.270  -0.237  -0.066  1.00  0.00    -0.047 A 
ATOM     11  C   UNL     1       0.636  -1.495  -0.141  1.00  0.00     0.004 A 
ATOM     12  C   UNL     1      -0.692  -1.615  -0.542  1.00  0.00     0.000 A 
ATOM     13  C   UNL     1      -0.776   0.769  -0.850  1.00  0.00     0.005 A 
ATOM     14  C   UNL     1      -1.389  -0.483  -0.929  1.00  0.00     0.000 A 
ENDBRANCH   7   8
BRANCH   7  15
ATOM     15  C   UNL     1       1.177   3.278  -1.235  1.00  0.00     0.057 C 
BRANCH  15  16
ATOM     16  C   UNL     1       1.366   4.783  -1.060  1.00  0.00    -0.010 A 
ATOM     17  C   UNL     1       0.710   5.683  -1.937  1.00  0.00     0.045 A 
ATOM     18  C   UNL     1       2.202   5.364  -0.085  1.00  0.00     0.045 A 
ATOM     19  Cl  UNL     1      -0.180   5.150  -3.328  1.00  0.00    -0.084 Cl
ATOM     20  C   UNL     1       0.775   7.071  -1.756  1.00  0.00     0.021 A 
ATOM     21  C   UNL     1       2.241   6.754   0.109  1.00  0.00     0.021 A 
ATOM     22  Cl  UNL     1       3.324   4.459   0.866  1.00  0.00    -0.084 Cl
ATOM     23  C   UNL     1       1.514   7.607  -0.711  1.00  0.00     0.003 A 
ENDBRANCH  15  16
ENDBRANCH   7  15
ENDBRANCH   4   7
ENDBRANCH   2   3
ENDBRANCH   1   2
BRANCH   1  24
ATOM     24  C   UNL     1      -4.026   3.519   1.346  1.00  0.00     0.118 C 
BRANCH  24  25
ATOM     25  N   UNL     1      -5.385   3.329   0.839  1.00  0.00    -0.352 N 
ATOM     26  C   UNL     1      -6.570   3.256   1.555  1.00  0.00     0.251 C 
ATOM     27  H   UNL     1      -5.470   3.241  -0.138  1.00  0.00     0.163 HD
ATOM     28  O   UNL     1      -7.643   3.070   1.039  1.00  0.00    -0.269 OA
BRANCH  26  29
ATOM     29  C   UNL     1      -6.445   3.487   3.006  1.00  0.00     0.039 A 
ATOM     30  C   UNL     1      -6.781   4.757   3.484  1.00  0.00     0.014 A 
ATOM     31  C   UNL     1      -5.694   2.589   3.758  1.00  0.00     0.014 A 
ATOM     32  C   UNL     1      -6.209   5.202   4.671  1.00  0.00     0.010 A 
ATOM     33  C   UNL     1      -5.058   3.068   4.886  1.00  0.00     0.010 A 
ATOM     34  C   UNL     1      -5.275   4.388   5.314  1.00  0.00    -0.014 A 
BRANCH  34  35
ATOM     35  C   UNL     1      -4.416   4.861   6.394  1.00  0.00     0.031 A 
ATOM     36  C   UNL     1      -4.669   4.407   7.781  1.00  0.00     0.074 A 
ATOM     37  C   UNL     1      -3.368   5.679   6.147  1.00  0.00     0.049 A 
ATOM     38  N   UNL     1      -4.301   5.048   8.841  1.00  0.00    -0.248 NA
ATOM     39  C   UNL     1      -5.451   3.211   8.077  1.00  0.00     0.031 C 
ATOM     40  C   UNL     1      -2.269   5.977   7.062  1.00  0.00     0.029 A 
ATOM     41  N   UNL     1      -3.193   6.591   5.103  1.00  0.00    -0.354 N 
ATOM     42  C   UNL     1      -4.503   4.211   9.916  1.00  0.00     0.074 A 
ATOM     43  C   UNL     1      -5.330   3.145   9.405  1.00  0.00     0.031 C 
ATOM     44  C   UNL     1      -1.738   7.161   6.723  1.00  0.00     0.029 A 
ATOM     45  C   UNL     1      -2.562   7.715   5.663  1.00  0.00     0.049 A 
ATOM     46  H   UNL     1      -3.459   6.470   4.163  1.00  0.00     0.167 HD
ATOM     47  C   UNL     1      -3.817   4.424  11.077  1.00  0.00     0.031 A 
ATOM     48  C   UNL     1      -3.061   8.985   5.634  1.00  0.00     0.031 A 
ATOM     49  C   UNL     1      -3.076   5.686  11.047  1.00  0.00     0.049 A 
ATOM     50  C   UNL     1      -3.201   9.604   7.007  1.00  0.00     0.074 A 
ATOM     51  C   UNL     1      -1.737   5.993  10.872  1.00  0.00     0.029 A 
ATOM     52  N   UNL     1      -3.772   6.886  10.951  1.00  0.00    -0.354 N 
ATOM     53  N   UNL     1      -3.134   8.924   8.117  1.00  0.00    -0.248 NA
ATOM     54  C   UNL     1      -3.487  11.018   7.240  1.00  0.00     0.031 C 
ATOM     55  C   UNL     1      -1.637   7.382  10.602  1.00  0.00     0.029 A 
ATOM     56  C   UNL     1      -2.911   7.921  10.639  1.00  0.00     0.049 A 
ATOM     57  H   UNL     1      -4.742   6.985  11.088  1.00  0.00     0.167 HD
ATOM     58  C   UNL     1      -3.381   9.750   9.182  1.00  0.00     0.074 A 
ATOM     59  C   UNL     1      -3.578  11.057   8.582  1.00  0.00     0.031 C 
ATOM     60  C   UNL     1      -3.419   9.276  10.461  1.00  0.00     0.031 A 
BRANCH  47  61
ATOM     61  C   UNL     1      -3.575   3.345  12.120  1.00  0.00    -0.014 A 
ATOM     62  C   UNL     1      -2.477   3.462  13.001  1.00  0.00     0.010 A 
ATOM     63  C   UNL     1      -4.319   2.156  12.233  1.00  0.00     0.010 A 
ATOM     64  C   UNL     1      -2.087   2.416  13.855  1.00  0.00     0.020 A 
ATOM     65  C   UNL     1      -3.929   1.092  13.060  1.00  0.00     0.020 A 
ATOM     66  C   UNL     1      -2.800   1.221  13.855  1.00  0.00     0.054 A 
BRANCH  66  67
ATOM     67  S   UNL     1      -2.240  -0.157  14.887  1.00  0.00     0.124 S 
ATOM     68  O   UNL     1      -0.888  -0.395  14.387  1.00  0.00    -0.237 OA
ATOM     69  O   UNL     1      -2.327   0.402  16.233  1.00  0.00    -0.237 OA
ATOM     70  O   UNL     1      -3.199  -1.221  14.596  1.00  0.00    -0.744 OA
ENDBRANCH  66  67
ENDBRANCH  47  61
BRANCH  48  71
ATOM     71  C   UNL     1      -3.946   9.276   4.476  1.00  0.00    -0.014 A 
ATOM     72  C   UNL     1      -3.337   9.372   3.208  1.00  0.00     0.010 A 
ATOM     73  C   UNL     1      -5.326   9.018   4.556  1.00  0.00     0.010 A 
ATOM     74  C   UNL     1      -4.049   9.039   2.055  1.00  0.00     0.020 A 
ATOM     75  C   UNL     1      -6.042   8.685   3.398  1.00  0.00     0.020 A 
ATOM     76  C   UNL     1      -5.379   8.633   2.168  1.00  0.00     0.054 A 
BRANCH  76  77
ATOM     77  S   UNL     1      -6.143   7.832   0.727  1.00  0.00     0.124 S 
ATOM     78  O   UNL     1      -6.121   8.898  -0.269  1.00  0.00    -0.237 OA
ATOM     79  O   UNL     1      -5.224   6.721   0.479  1.00  0.00    -0.237 OA
ATOM     80  O   UNL     1      -7.464   7.449   1.216  1.00  0.00    -0.744 OA
ENDBRANCH  76  77
ENDBRANCH  48  71
BRANCH  60  81
ATOM     81  C   UNL     1      -3.861  10.042  11.687  1.00  0.00    -0.014 A 
ATOM     82  C   UNL     1      -4.698  11.168  11.661  1.00  0.00     0.010 A 
ATOM     83  C   UNL     1      -3.515   9.535  12.964  1.00  0.00     0.010 A 
ATOM     84  C   UNL     1      -5.119  11.793  12.846  1.00  0.00     0.020 A 
ATOM     85  C   UNL     1      -3.962  10.123  14.150  1.00  0.00     0.020 A 
ATOM     86  C   UNL     1      -4.745  11.269  14.084  1.00  0.00     0.054 A 
BRANCH  86  87
ATOM     87  S   UNL     1      -5.344  12.040  15.609  1.00  0.00     0.124 S 
ATOM     88  O   UNL     1      -4.305  13.032  15.874  1.00  0.00    -0.237 OA
ATOM     89  O   UNL     1      -6.642  12.585  15.215  1.00  0.00    -0.237 OA
ATOM     90  O   UNL     1      -5.406  10.927  16.552  1.00  0.00    -0.744 OA
ENDBRANCH  86  87
ENDBRANCH  60  81
ENDBRANCH  34  35
ENDBRANCH  26  29
ENDBRANCH  24  25
ENDBRANCH   1  24
TORSDOF 16
