REMARK SMILES Cc1ccc(C(=O)NCCCNC(=O)c2ccc(-c3c4nc(c(-c5ccc(S(=O)(=O)[O-])cc5)c5ccc([nH]5)c(-c5ccc(S(=O)(=O)[O-])cc5)c5nc(c(-c6ccc(S(=O)(=O)[O-])cc6)c6ccc3[nH]6)C=C5)C=C4)cc2)cc1NC(=O)C(=O)NC[C@@H](c1ccccc1)[NH+]1CC[NH+](C)CC1
REMARK SMILES IDX 9 1 8 2 6 3 7 4 5 6 1 7 2 8 3 9 76 10 4 11 75 12 77 13 78 14
REMARK SMILES IDX 79 16 80 17 81 18 82 19 83 21 84 22 91 23 92 24 97 25 93 27
REMARK SMILES IDX 96 28 94 29 95 30 85 32 86 33 90 34 87 35 89 36 88 37 10 38
REMARK SMILES IDX 11 39 12 40 13 41 14 43 15 44 16 45 74 46 17 47 73 48 18 49
REMARK SMILES IDX 19 50 20 51 67 52 21 53 72 54 66 55 68 56 22 57 71 58 65 59
REMARK SMILES IDX 64 60 23 62 53 63 34 64 52 65 35 66 38 67 51 68 69 69 36 70
REMARK SMILES IDX 37 71 50 73 70 74 39 75 24 76 25 77 33 78 26 79 32 80 27 81
REMARK SMILES IDX 28 82 29 83 30 84 31 85 54 86 55 87 63 88 56 89 62 90 57 91
REMARK SMILES IDX 58 92 59 93 60 94 61 95 40 96 41 97 49 98 42 99 48 100
REMARK SMILES IDX 43 101 44 102 45 103 46 104 47 105
REMARK H PARENT 8 5 77 15 82 20 91 26 94 31 12 42 68 61 38 72
REMARK Flexibility Score: inf
ROOT
ATOM      1  C   UNL     1       1.744   9.436  -4.205  1.00  0.00     0.118 C 
ENDROOT
BRANCH   1   2
ATOM      2  N   UNL     1       2.756   9.604  -5.287  1.00  0.00    -0.352 N 
ATOM      3  C   UNL     1       3.102  10.781  -5.946  1.00  0.00     0.251 C 
ATOM      4  O   UNL     1       4.020  10.824  -6.761  1.00  0.00    -0.269 OA
ATOM      5  H   UNL     1       3.233   8.790  -5.568  1.00  0.00     0.163 HD
BRANCH   3   6
ATOM      6  C   UNL     1       2.239  11.986  -5.756  1.00  0.00     0.041 A 
ATOM      7  C   UNL     1      -1.050  14.719  -5.643  1.00  0.00     0.046 C 
ATOM      8  C   UNL     1       0.070  13.713  -5.621  1.00  0.00    -0.027 A 
ATOM      9  C   UNL     1       0.870  13.654  -6.787  1.00  0.00     0.006 A 
ATOM     10  C   UNL     1       0.381  12.903  -4.501  1.00  0.00     0.045 A 
ATOM     11  C   UNL     1       1.912  12.741  -6.882  1.00  0.00     0.014 A 
ATOM     12  C   UNL     1       1.584  12.225  -4.536  1.00  0.00     0.040 A 
BRANCH  10  13
ATOM     13  N   UNL     1      -0.557  12.769  -3.447  1.00  0.00    -0.318 N 
ATOM     14  C   UNL     1      -0.828  11.920  -2.382  1.00  0.00     0.313 C 
ATOM     15  H   UNL     1      -1.218  13.498  -3.481  1.00  0.00     0.170 HD
ATOM     16  O   UNL     1      -1.816  12.186  -1.690  1.00  0.00    -0.263 OA
BRANCH  14  17
ATOM     17  C   UNL     1      -0.061  10.659  -1.986  1.00  0.00     0.309 C 
ATOM     18  O   UNL     1       1.106  10.736  -1.630  1.00  0.00    -0.264 OA
ATOM     19  N   UNL     1      -0.798   9.471  -1.940  1.00  0.00    -0.341 N 
ATOM     20  H   UNL     1      -0.999   9.000  -2.781  1.00  0.00     0.164 HD
BRANCH  19  21
ATOM     21  C   UNL     1      -1.283   8.905  -0.672  1.00  0.00     0.186 C 
BRANCH  21  22
ATOM     22  C   UNL     1      -1.867   7.423  -0.759  1.00  0.00     0.235 C 
BRANCH  22  23
ATOM     23  N   UNL     1      -3.270   7.196  -1.176  1.00  0.00    -0.318 N 
ATOM     24  C   UNL     1      -3.637   7.757  -2.478  1.00  0.00     0.325 C 
ATOM     25  C   UNL     1      -4.320   7.485  -0.199  1.00  0.00     0.325 C 
ATOM     26  H   UNL     1      -3.242   6.179  -1.260  1.00  0.00     0.349 HD
ATOM     27  C   UNL     1      -4.051   9.244  -2.445  1.00  0.00     0.324 C 
ATOM     28  C   UNL     1      -4.677   8.973  -0.076  1.00  0.00     0.324 C 
ATOM     29  N   UNL     1      -4.977   9.633  -1.360  1.00  0.00    -0.328 N 
ATOM     30  C   UNL     1      -4.949  11.085  -1.184  1.00  0.00     0.333 C 
ATOM     31  H   UNL     1      -5.907   9.323  -1.643  1.00  0.00     0.348 HD
ENDBRANCH  22  23
BRANCH  22  32
ATOM     32  C   UNL     1      -1.532   6.553   0.471  1.00  0.00     0.011 A 
ATOM     33  C   UNL     1      -1.554   5.149   0.340  1.00  0.00     0.010 A 
ATOM     34  C   UNL     1      -1.176   7.086   1.719  1.00  0.00     0.010 A 
ATOM     35  C   UNL     1      -1.176   4.316   1.397  1.00  0.00     0.001 A 
ATOM     36  C   UNL     1      -0.777   6.252   2.769  1.00  0.00     0.001 A 
ATOM     37  C   UNL     1      -0.767   4.870   2.606  1.00  0.00     0.000 A 
ENDBRANCH  22  32
ENDBRANCH  21  22
ENDBRANCH  19  21
ENDBRANCH  14  17
ENDBRANCH  10  13
ENDBRANCH   3   6
ENDBRANCH   1   2
BRANCH   1  38
ATOM     38  C   UNL     1       1.219   8.028  -3.792  1.00  0.00     0.042 C 
BRANCH  38  39
ATOM     39  C   UNL     1       1.694   7.290  -2.408  1.00  0.00     0.118 C 
BRANCH  39  40
ATOM     40  N   UNL     1       1.185   5.936  -1.542  1.00  0.00    -0.352 N 
ATOM     41  C   UNL     1       1.428   4.493  -1.158  1.00  0.00     0.251 C 
ATOM     42  H   UNL     1       0.359   6.205  -1.078  1.00  0.00     0.163 HD
ATOM     43  O   UNL     1       1.637   4.385   0.070  1.00  0.00    -0.269 OA
BRANCH  41  44
ATOM     44  C   UNL     1       1.547   3.015  -1.891  1.00  0.00     0.039 A 
ATOM     45  C   UNL     1       2.651   2.146  -1.657  1.00  0.00     0.014 A 
ATOM     46  C   UNL     1       0.743   2.485  -2.876  1.00  0.00     0.014 A 
ATOM     47  C   UNL     1       3.326   1.558  -2.780  1.00  0.00     0.010 A 
ATOM     48  C   UNL     1       1.385   1.903  -4.005  1.00  0.00     0.010 A 
ATOM     49  C   UNL     1       2.776   1.703  -4.046  1.00  0.00    -0.014 A 
BRANCH  49  50
ATOM     50  C   UNL     1       3.586   1.755  -5.337  1.00  0.00     0.031 A 
ATOM     51  C   UNL     1       3.441   0.679  -6.292  1.00  0.00     0.074 A 
ATOM     52  C   UNL     1       4.388   2.736  -5.867  1.00  0.00     0.049 A 
ATOM     53  N   UNL     1       4.423  -0.063  -6.679  1.00  0.00    -0.248 NA
ATOM     54  C   UNL     1       2.161   0.406  -6.924  1.00  0.00     0.031 C 
ATOM     55  C   UNL     1       5.111   2.891  -7.150  1.00  0.00     0.029 A 
ATOM     56  N   UNL     1       4.682   3.964  -5.322  1.00  0.00    -0.354 N 
ATOM     57  C   UNL     1       3.962  -0.689  -7.809  1.00  0.00     0.074 A 
ATOM     58  C   UNL     1       2.518  -0.552  -7.779  1.00  0.00     0.031 C 
ATOM     59  C   UNL     1       6.022   3.890  -7.042  1.00  0.00     0.029 A 
ATOM     60  C   UNL     1       5.938   4.415  -5.697  1.00  0.00     0.049 A 
ATOM     61  H   UNL     1       4.071   4.464  -4.734  1.00  0.00     0.167 HD
ATOM     62  C   UNL     1       4.806  -1.001  -8.832  1.00  0.00     0.031 A 
ATOM     63  C   UNL     1       6.886   4.541  -4.718  1.00  0.00     0.031 A 
ATOM     64  C   UNL     1       6.112  -0.340  -8.696  1.00  0.00     0.049 A 
ATOM     65  C   UNL     1       7.913   3.466  -4.866  1.00  0.00     0.074 A 
ATOM     66  C   UNL     1       6.677   0.726  -9.384  1.00  0.00     0.029 A 
ATOM     67  N   UNL     1       6.895  -0.520  -7.560  1.00  0.00    -0.354 N 
ATOM     68  N   UNL     1       7.808   2.524  -5.753  1.00  0.00    -0.248 NA
ATOM     69  C   UNL     1       9.110   3.322  -4.048  1.00  0.00     0.031 C 
ATOM     70  C   UNL     1       7.763   1.225  -8.620  1.00  0.00     0.029 A 
ATOM     71  C   UNL     1       7.885   0.447  -7.482  1.00  0.00     0.049 A 
ATOM     72  H   UNL     1       6.764  -1.238  -6.899  1.00  0.00     0.167 HD
ATOM     73  C   UNL     1       8.805   1.620  -5.604  1.00  0.00     0.074 A 
ATOM     74  C   UNL     1       9.633   2.189  -4.555  1.00  0.00     0.031 C 
ATOM     75  C   UNL     1       8.812   0.481  -6.351  1.00  0.00     0.031 A 
BRANCH  62  76
ATOM     76  C   UNL     1       4.312  -1.611 -10.124  1.00  0.00    -0.014 A 
ATOM     77  C   UNL     1       5.084  -1.518 -11.296  1.00  0.00     0.010 A 
ATOM     78  C   UNL     1       3.107  -2.337 -10.229  1.00  0.00     0.010 A 
ATOM     79  C   UNL     1       4.641  -2.042 -12.518  1.00  0.00     0.020 A 
ATOM     80  C   UNL     1       2.623  -2.816 -11.452  1.00  0.00     0.020 A 
ATOM     81  C   UNL     1       3.401  -2.671 -12.593  1.00  0.00     0.054 A 
BRANCH  81  82
ATOM     82  S   UNL     1       2.850  -3.353 -14.175  1.00  0.00     0.124 S 
ATOM     83  O   UNL     1       2.881  -2.186 -15.053  1.00  0.00    -0.237 OA
ATOM     84  O   UNL     1       3.861  -4.371 -14.444  1.00  0.00    -0.237 OA
ATOM     85  O   UNL     1       1.513  -3.871 -13.886  1.00  0.00    -0.744 OA
ENDBRANCH  81  82
ENDBRANCH  62  76
BRANCH  63  86
ATOM     86  C   UNL     1       6.346   5.092  -3.396  1.00  0.00    -0.014 A 
ATOM     87  C   UNL     1       5.794   6.377  -3.537  1.00  0.00     0.010 A 
ATOM     88  C   UNL     1       5.550   4.245  -2.651  1.00  0.00     0.010 A 
ATOM     89  C   UNL     1       4.409   6.501  -3.821  1.00  0.00     0.020 A 
ATOM     90  C   UNL     1       4.155   4.490  -2.696  1.00  0.00     0.020 A 
ATOM     91  C   UNL     1       3.553   5.436  -3.543  1.00  0.00     0.054 A 
BRANCH  91  92
ATOM     92  S   UNL     1       1.796   5.065  -4.673  1.00  0.00     0.124 S 
ATOM     93  O   UNL     1       1.568   6.188  -5.571  1.00  0.00    -0.237 OA
ATOM     94  O   UNL     1       2.137   3.960  -5.562  1.00  0.00    -0.237 OA
ATOM     95  O   UNL     1       0.722   4.851  -3.758  1.00  0.00    -0.744 OA
ENDBRANCH  91  92
ENDBRANCH  63  86
BRANCH  75  96
ATOM     96  C   UNL     1       9.752  -0.668  -6.148  1.00  0.00    -0.014 A 
ATOM     97  C   UNL     1      10.450  -0.911  -4.957  1.00  0.00     0.010 A 
ATOM     98  C   UNL     1       9.889  -1.616  -7.187  1.00  0.00     0.010 A 
ATOM     99  C   UNL     1      11.325  -1.994  -4.845  1.00  0.00     0.020 A 
ATOM    100  C   UNL     1      10.713  -2.731  -7.065  1.00  0.00     0.020 A 
ATOM    101  C   UNL     1      11.460  -2.890  -5.906  1.00  0.00     0.054 A 
BRANCH 101 102
ATOM    102  S   UNL     1      12.600  -4.280  -5.745  1.00  0.00     0.124 S 
ATOM    103  O   UNL     1      13.886  -3.644  -6.023  1.00  0.00    -0.237 OA
ATOM    104  O   UNL     1      12.398  -4.706  -4.362  1.00  0.00    -0.237 OA
ATOM    105  O   UNL     1      12.137  -5.227  -6.756  1.00  0.00    -0.744 OA
ENDBRANCH 101 102
ENDBRANCH  75  96
ENDBRANCH  49  50
ENDBRANCH  41  44
ENDBRANCH  39  40
ENDBRANCH  38  39
ENDBRANCH   1  38
TORSDOF 19
