REMARK SMILES CC(C)(C)OC(=O)N[C@@H](C(=O)NCCCNC(=O)c1ccc(-c2c3nc(c(-c4ccc(S(=O)(=O)[O-])cc4)c4ccc([nH]4)c(-c4ccc(S(=O)(=O)[O-])cc4)c4nc(c(-c5ccc(S(=O)(=O)[O-])cc5)c5ccc2[nH]5)C=C4)C=C3)cc1)c1ccc([N+](=O)[O-])cc1
REMARK SMILES IDX 14 1 13 2 12 3 10 4 11 5 9 7 8 8 6 9 7 10 5 12 2 13 1 14
REMARK SMILES IDX 3 15 4 16 79 17 80 18 87 19 81 20 86 21 82 22 83 23 84 24
REMARK SMILES IDX 85 25 15 26 16 27 17 28 18 30 19 31 20 32 78 33 21 34 77 35
REMARK SMILES IDX 22 36 23 37 24 38 71 39 25 40 76 41 70 42 72 43 26 44 75 45
REMARK SMILES IDX 69 46 68 47 27 49 57 50 38 51 56 52 39 53 42 54 55 55 73 56
REMARK SMILES IDX 40 57 41 58 54 60 74 61 43 62 28 63 29 64 37 65 30 66 36 67
REMARK SMILES IDX 31 68 32 69 33 70 34 71 35 72 58 73 59 74 67 75 60 76 66 77
REMARK SMILES IDX 61 78 62 79 63 80 64 81 65 82 44 83 45 84 53 85 46 86 52 87
REMARK SMILES IDX 47 88 48 89 49 90 50 91 51 92
REMARK H PARENT 12 6 8 11 16 29 72 48 42 59
REMARK Flexibility Score: inf
ROOT
ATOM      1  C   UNL     1       3.783  -2.223  -3.820  1.00  0.00     0.042 C 
ENDROOT
BRANCH   1   2
ATOM      2  C   UNL     1       4.040  -0.751  -3.513  1.00  0.00     0.117 C 
BRANCH   2   3
ATOM      3  N   UNL     1       4.184   0.030  -4.724  1.00  0.00    -0.354 N 
ATOM      4  C   UNL     1       3.279   0.844  -5.347  1.00  0.00     0.247 C 
ATOM      5  O   UNL     1       3.625   1.338  -6.423  1.00  0.00    -0.272 OA
ATOM      6  H   UNL     1       5.062  -0.035  -5.164  1.00  0.00     0.163 HD
BRANCH   4   7
ATOM      7  C   UNL     1       1.901   1.137  -4.682  1.00  0.00     0.205 C 
BRANCH   7   8
ATOM      8  N   UNL     1       1.088  -0.071  -4.722  1.00  0.00    -0.306 N 
ATOM      9  C   UNL     1       0.514  -0.721  -3.675  1.00  0.00     0.408 C 
ATOM     10  O   UNL     1      -0.151  -1.730  -3.858  1.00  0.00    -0.225 OA
ATOM     11  H   UNL     1       0.938  -0.464  -5.612  1.00  0.00     0.168 HD
BRANCH   9  12
ATOM     12  O   UNL     1       0.801  -0.165  -2.476  1.00  0.00    -0.444 OA
BRANCH  12  13
ATOM     13  C   UNL     1       0.376  -0.803  -1.240  1.00  0.00     0.106 C 
ATOM     14  C   UNL     1       0.966   0.075  -0.125  1.00  0.00     0.056 C 
ATOM     15  C   UNL     1       0.962  -2.213  -1.092  1.00  0.00     0.056 C 
ATOM     16  C   UNL     1      -1.149  -0.805  -1.113  1.00  0.00     0.056 C 
ENDBRANCH  12  13
ENDBRANCH   9  12
ENDBRANCH   7   8
BRANCH   7  17
ATOM     17  C   UNL     1       1.205   2.328  -5.349  1.00  0.00    -0.016 A 
ATOM     18  C   UNL     1       1.745   3.617  -5.166  1.00  0.00     0.013 A 
ATOM     19  C   UNL     1       0.088   2.186  -6.192  1.00  0.00     0.013 A 
ATOM     20  C   UNL     1       1.201   4.727  -5.817  1.00  0.00     0.086 A 
ATOM     21  C   UNL     1      -0.467   3.292  -6.845  1.00  0.00     0.086 A 
ATOM     22  C   UNL     1       0.098   4.559  -6.660  1.00  0.00     0.269 A 
BRANCH  22  23
ATOM     23  N   UNL     1      -0.466   5.718  -7.361  1.00  0.00     0.062 N 
ATOM     24  O   UNL     1       0.056   6.825  -7.160  1.00  0.00    -0.258 OA
ATOM     25  O   UNL     1      -1.437   5.527  -8.109  1.00  0.00    -0.258 OA
ENDBRANCH  22  23
ENDBRANCH   7  17
ENDBRANCH   4   7
ENDBRANCH   2   3
ENDBRANCH   1   2
BRANCH   1  26
ATOM     26  C   UNL     1       4.988  -2.937  -4.424  1.00  0.00     0.118 C 
BRANCH  26  27
ATOM     27  N   UNL     1       6.107  -3.015  -3.492  1.00  0.00    -0.352 N 
ATOM     28  C   UNL     1       6.793  -4.116  -3.042  1.00  0.00     0.251 C 
ATOM     29  H   UNL     1       6.416  -2.152  -3.134  1.00  0.00     0.163 HD
ATOM     30  O   UNL     1       7.575  -4.004  -2.103  1.00  0.00    -0.269 OA
BRANCH  28  31
ATOM     31  C   UNL     1       6.578  -5.431  -3.681  1.00  0.00     0.039 A 
ATOM     32  C   UNL     1       6.429  -6.565  -2.878  1.00  0.00     0.014 A 
ATOM     33  C   UNL     1       6.532  -5.542  -5.073  1.00  0.00     0.014 A 
ATOM     34  C   UNL     1       6.168  -7.803  -3.470  1.00  0.00     0.010 A 
ATOM     35  C   UNL     1       6.204  -6.760  -5.656  1.00  0.00     0.010 A 
ATOM     36  C   UNL     1       6.021  -7.904  -4.862  1.00  0.00    -0.014 A 
BRANCH  36  37
ATOM     37  C   UNL     1       5.694  -9.187  -5.533  1.00  0.00     0.031 A 
ATOM     38  C   UNL     1       6.674  -9.784  -6.504  1.00  0.00     0.074 A 
ATOM     39  C   UNL     1       4.483  -9.751  -5.355  1.00  0.00     0.049 A 
ATOM     40  N   UNL     1       6.514 -10.786  -7.329  1.00  0.00    -0.248 NA
ATOM     41  C   UNL     1       8.001  -9.149  -6.579  1.00  0.00     0.031 C 
ATOM     42  C   UNL     1       3.439  -9.257  -4.453  1.00  0.00     0.029 A 
ATOM     43  N   UNL     1       3.916 -10.853  -5.946  1.00  0.00    -0.354 N 
ATOM     44  C   UNL     1       7.702 -10.879  -8.044  1.00  0.00     0.074 A 
ATOM     45  C   UNL     1       8.561  -9.811  -7.581  1.00  0.00     0.031 C 
ATOM     46  C   UNL     1       2.364 -10.057  -4.546  1.00  0.00     0.029 A 
ATOM     47  C   UNL     1       2.620 -11.086  -5.549  1.00  0.00     0.049 A 
ATOM     48  H   UNL     1       4.393 -11.422  -6.593  1.00  0.00     0.167 HD
ATOM     49  C   UNL     1       8.051 -11.780  -8.993  1.00  0.00     0.031 A 
ATOM     50  C   UNL     1       1.730 -12.010  -5.962  1.00  0.00     0.031 A 
ATOM     51  C   UNL     1       7.199 -12.851  -9.433  1.00  0.00     0.049 A 
ATOM     52  C   UNL     1       2.135 -12.994  -7.026  1.00  0.00     0.074 A 
ATOM     53  C   UNL     1       7.475 -13.845 -10.355  1.00  0.00     0.029 A 
ATOM     54  N   UNL     1       5.907 -13.072  -8.979  1.00  0.00    -0.354 N 
ATOM     55  N   UNL     1       3.276 -13.090  -7.665  1.00  0.00    -0.248 NA
ATOM     56  C   UNL     1       1.137 -13.999  -7.419  1.00  0.00     0.031 C 
ATOM     57  C   UNL     1       6.334 -14.642 -10.490  1.00  0.00     0.029 A 
ATOM     58  C   UNL     1       5.369 -14.179  -9.610  1.00  0.00     0.049 A 
ATOM     59  H   UNL     1       5.443 -12.522  -8.307  1.00  0.00     0.167 HD
ATOM     60  C   UNL     1       3.147 -14.190  -8.507  1.00  0.00     0.074 A 
ATOM     61  C   UNL     1       1.818 -14.725  -8.297  1.00  0.00     0.031 C 
ATOM     62  C   UNL     1       4.052 -14.713  -9.369  1.00  0.00     0.031 A 
BRANCH  49  63
ATOM     63  C   UNL     1       9.409 -11.636  -9.626  1.00  0.00    -0.014 A 
ATOM     64  C   UNL     1      10.583 -11.907  -8.900  1.00  0.00     0.010 A 
ATOM     65  C   UNL     1       9.513 -11.258 -10.977  1.00  0.00     0.010 A 
ATOM     66  C   UNL     1      11.836 -11.758  -9.499  1.00  0.00     0.020 A 
ATOM     67  C   UNL     1      10.763 -11.137 -11.589  1.00  0.00     0.020 A 
ATOM     68  C   UNL     1      11.918 -11.369 -10.840  1.00  0.00     0.054 A 
BRANCH  68  69
ATOM     69  S   UNL     1      13.558 -11.198 -11.596  1.00  0.00     0.124 S 
ATOM     70  O   UNL     1      14.038  -9.957 -10.992  1.00  0.00    -0.237 OA
ATOM     71  O   UNL     1      14.241 -12.413 -11.161  1.00  0.00    -0.237 OA
ATOM     72  O   UNL     1      13.274 -11.124 -13.027  1.00  0.00    -0.744 OA
ENDBRANCH  68  69
ENDBRANCH  49  63
BRANCH  50  73
ATOM     73  C   UNL     1       0.369 -12.051  -5.360  1.00  0.00    -0.014 A 
ATOM     74  C   UNL     1       0.007 -13.097  -4.494  1.00  0.00     0.010 A 
ATOM     75  C   UNL     1      -0.566 -11.036  -5.634  1.00  0.00     0.010 A 
ATOM     76  C   UNL     1      -1.270 -13.139  -3.927  1.00  0.00     0.020 A 
ATOM     77  C   UNL     1      -1.835 -11.059  -5.048  1.00  0.00     0.020 A 
ATOM     78  C   UNL     1      -2.183 -12.117  -4.206  1.00  0.00     0.054 A 
BRANCH  78  79
ATOM     79  S   UNL     1      -3.817 -12.166  -3.418  1.00  0.00     0.124 S 
ATOM     80  O   UNL     1      -4.480 -13.233  -4.161  1.00  0.00    -0.237 OA
ATOM     81  O   UNL     1      -3.487 -12.472  -2.028  1.00  0.00    -0.237 OA
ATOM     82  O   UNL     1      -4.345 -10.823  -3.643  1.00  0.00    -0.744 OA
ENDBRANCH  78  79
ENDBRANCH  50  73
BRANCH  62  83
ATOM     83  C   UNL     1       3.676 -15.966 -10.111  1.00  0.00    -0.014 A 
ATOM     84  C   UNL     1       2.791 -15.935 -11.201  1.00  0.00     0.010 A 
ATOM     85  C   UNL     1       4.311 -17.177  -9.773  1.00  0.00     0.010 A 
ATOM     86  C   UNL     1       2.543 -17.096 -11.939  1.00  0.00     0.020 A 
ATOM     87  C   UNL     1       4.085 -18.332 -10.523  1.00  0.00     0.020 A 
ATOM     88  C   UNL     1       3.198 -18.285 -11.600  1.00  0.00     0.054 A 
BRANCH  88  89
ATOM     89  S   UNL     1       2.931 -19.755 -12.630  1.00  0.00     0.124 S 
ATOM     90  O   UNL     1       1.583 -20.160 -12.239  1.00  0.00    -0.237 OA
ATOM     91  O   UNL     1       3.059 -19.224 -13.985  1.00  0.00    -0.237 OA
ATOM     92  O   UNL     1       3.999 -20.664 -12.220  1.00  0.00    -0.744 OA
ENDBRANCH  88  89
ENDBRANCH  62  83
ENDBRANCH  36  37
ENDBRANCH  28  31
ENDBRANCH  26  27
ENDBRANCH   1  26
TORSDOF 18
