REMARK SMILES Cc1ccc(F)cc1NS(=O)(=O)c1ccc(C(=O)NCCCNC(=O)c2ccc(-c3c4nc(c(-c5ccc(S(=O)(=O)[O-])cc5)c5ccc([nH]5)c(-c5ccc(S(=O)(=O)[O-])cc5)c5nc(c(-c6ccc(S(=O)(=O)[O-])cc6)c6ccc3[nH]6)C=C5)C=C4)cc2)cc1
REMARK SMILES IDX 21 1 20 2 19 3 17 4 18 5 16 7 13 8 14 9 87 10 15 11 86 12
REMARK SMILES IDX 10 13 11 14 12 15 9 16 8 18 1 19 2 20 3 21 4 22 7 23 5 24
REMARK SMILES IDX 6 25 22 26 23 27 24 28 25 30 26 31 27 32 85 33 28 34 84 35
REMARK SMILES IDX 29 36 30 37 31 38 78 39 32 40 83 41 77 42 79 43 33 44 82 45
REMARK SMILES IDX 76 46 75 47 34 49 64 50 45 51 63 52 46 53 49 54 62 55 80 56
REMARK SMILES IDX 47 57 48 58 61 60 81 61 50 62 35 63 36 64 44 65 37 66 43 67
REMARK SMILES IDX 38 68 39 69 40 70 41 71 42 72 65 73 66 74 74 75 67 76 73 77
REMARK SMILES IDX 68 78 69 79 70 80 71 81 72 82 51 83 52 84 60 85 53 86 59 87
REMARK SMILES IDX 54 88 55 89 56 90 57 91 58 92
REMARK H PARENT 19 6 9 17 23 29 79 48 49 59
REMARK Flexibility Score: inf
ROOT
ATOM      1  C   UNL     1      -6.266  -6.252   0.899  1.00  0.00     0.042 C 
ENDROOT
BRANCH   1   2
ATOM      2  C   UNL     1      -5.931  -5.380  -0.306  1.00  0.00     0.118 C 
BRANCH   2   3
ATOM      3  N   UNL     1      -6.089  -3.971  -0.002  1.00  0.00    -0.352 N 
ATOM      4  C   UNL     1      -5.147  -2.982   0.079  1.00  0.00     0.251 C 
ATOM      5  O   UNL     1      -5.499  -1.814   0.216  1.00  0.00    -0.269 OA
ATOM      6  H   UNL     1      -7.014  -3.682   0.173  1.00  0.00     0.163 HD
BRANCH   4   7
ATOM      7  C   UNL     1      -3.706  -3.290  -0.044  1.00  0.00     0.039 A 
ATOM      8  C   UNL     1      -0.940  -3.607  -0.183  1.00  0.00     0.087 A 
ATOM      9  C   UNL     1      -1.577  -2.696  -1.033  1.00  0.00     0.023 A 
ATOM     10  C   UNL     1      -1.690  -4.427   0.670  1.00  0.00     0.023 A 
ATOM     11  C   UNL     1      -2.954  -2.509  -0.930  1.00  0.00     0.015 A 
ATOM     12  C   UNL     1      -3.076  -4.259   0.746  1.00  0.00     0.015 A 
BRANCH   8  13
ATOM     13  S   UNL     1       0.829  -3.734  -0.217  1.00  0.00     0.261 S 
ATOM     14  O   UNL     1       1.242  -3.627  -1.602  1.00  0.00    -0.201 OA
ATOM     15  O   UNL     1       1.208  -4.895   0.561  1.00  0.00    -0.201 OA
BRANCH  13  16
ATOM     16  N   UNL     1       1.517  -2.392   0.599  1.00  0.00    -0.279 N 
ATOM     17  H   UNL     1       2.306  -2.535   1.170  1.00  0.00     0.180 HD
BRANCH  16  18
ATOM     18  C   UNL     1       0.976  -1.060   0.475  1.00  0.00     0.055 A 
ATOM     19  C   UNL     1       3.211  -0.019  -0.313  1.00  0.00     0.046 C 
ATOM     20  C   UNL     1       1.737   0.028  -0.003  1.00  0.00    -0.027 A 
ATOM     21  C   UNL     1       1.134   1.304  -0.091  1.00  0.00     0.008 A 
ATOM     22  C   UNL     1      -0.176   1.511   0.328  1.00  0.00     0.039 A 
ATOM     23  C   UNL     1      -0.292  -0.802   1.006  1.00  0.00     0.066 A 
ATOM     24  C   UNL     1      -0.868   0.458   0.897  1.00  0.00     0.125 A 
ATOM     25  F   UNL     1      -2.106   0.658   1.365  1.00  0.00    -0.207 F 
ENDBRANCH  16  18
ENDBRANCH  13  16
ENDBRANCH   8  13
ENDBRANCH   4   7
ENDBRANCH   2   3
ENDBRANCH   1   2
BRANCH   1  26
ATOM     26  C   UNL     1      -7.749  -6.247   1.258  1.00  0.00     0.118 C 
BRANCH  26  27
ATOM     27  N   UNL     1      -8.561  -6.855   0.215  1.00  0.00    -0.352 N 
ATOM     28  C   UNL     1      -9.398  -7.940   0.272  1.00  0.00     0.251 C 
ATOM     29  H   UNL     1      -8.501  -6.421  -0.667  1.00  0.00     0.163 HD
ATOM     30  O   UNL     1      -9.785  -8.452  -0.775  1.00  0.00    -0.269 OA
BRANCH  28  31
ATOM     31  C   UNL     1      -9.837  -8.488   1.574  1.00  0.00     0.039 A 
ATOM     32  C   UNL     1      -9.994  -9.870   1.702  1.00  0.00     0.014 A 
ATOM     33  C   UNL     1     -10.161  -7.646   2.643  1.00  0.00     0.014 A 
ATOM     34  C   UNL     1     -10.454 -10.408   2.905  1.00  0.00     0.010 A 
ATOM     35  C   UNL     1     -10.540  -8.189   3.867  1.00  0.00     0.010 A 
ATOM     36  C   UNL     1     -10.719  -9.572   4.003  1.00  0.00    -0.014 A 
BRANCH  36  37
ATOM     37  C   UNL     1     -11.223 -10.131   5.282  1.00  0.00     0.031 A 
ATOM     38  C   UNL     1     -12.600  -9.767   5.775  1.00  0.00     0.074 A 
ATOM     39  C   UNL     1     -10.433 -10.942   6.011  1.00  0.00     0.049 A 
ATOM     40  N   UNL     1     -13.213 -10.150   6.865  1.00  0.00    -0.248 NA
ATOM     41  C   UNL     1     -13.380  -8.830   4.949  1.00  0.00     0.031 C 
ATOM     42  C   UNL     1      -9.065 -11.332   5.659  1.00  0.00     0.029 A 
ATOM     43  N   UNL     1     -10.666 -11.588   7.199  1.00  0.00    -0.354 N 
ATOM     44  C   UNL     1     -14.438  -9.492   6.863  1.00  0.00     0.074 A 
ATOM     45  C   UNL     1     -14.459  -8.642   5.693  1.00  0.00     0.031 C 
ATOM     46  C   UNL     1      -8.596 -12.178   6.591  1.00  0.00     0.029 A 
ATOM     47  C   UNL     1      -9.612 -12.362   7.622  1.00  0.00     0.049 A 
ATOM     48  H   UNL     1     -11.509 -11.504   7.701  1.00  0.00     0.167 HD
ATOM     49  C   UNL     1     -15.464  -9.602   7.740  1.00  0.00     0.031 A 
ATOM     50  C   UNL     1      -9.481 -13.138   8.714  1.00  0.00     0.031 A 
ATOM     51  C   UNL     1     -15.442 -10.460   8.896  1.00  0.00     0.049 A 
ATOM     52  C   UNL     1     -10.638 -13.254   9.668  1.00  0.00     0.074 A 
ATOM     53  C   UNL     1     -16.445 -10.683   9.823  1.00  0.00     0.029 A 
ATOM     54  N   UNL     1     -14.361 -11.239   9.281  1.00  0.00    -0.354 N 
ATOM     55  N   UNL     1     -11.811 -12.670   9.617  1.00  0.00    -0.248 NA
ATOM     56  C   UNL     1     -10.460 -14.153  10.816  1.00  0.00     0.031 C 
ATOM     57  C   UNL     1     -15.953 -11.560  10.796  1.00  0.00     0.029 A 
ATOM     58  C   UNL     1     -14.667 -11.932  10.440  1.00  0.00     0.049 A 
ATOM     59  H   UNL     1     -13.503 -11.291   8.801  1.00  0.00     0.167 HD
ATOM     60  C   UNL     1     -12.524 -13.156  10.707  1.00  0.00     0.074 A 
ATOM     61  C   UNL     1     -11.654 -14.093  11.389  1.00  0.00     0.031 C 
ATOM     62  C   UNL     1     -13.786 -12.858  11.107  1.00  0.00     0.031 A 
BRANCH  49  63
ATOM     63  C   UNL     1     -16.695  -8.770   7.483  1.00  0.00    -0.014 A 
ATOM     64  C   UNL     1     -17.538  -9.036   6.387  1.00  0.00     0.010 A 
ATOM     65  C   UNL     1     -17.032  -7.727   8.364  1.00  0.00     0.010 A 
ATOM     66  C   UNL     1     -18.667  -8.247   6.152  1.00  0.00     0.020 A 
ATOM     67  C   UNL     1     -18.178  -6.954   8.150  1.00  0.00     0.020 A 
ATOM     68  C   UNL     1     -18.979  -7.208   7.035  1.00  0.00     0.054 A 
BRANCH  68  69
ATOM     69  S   UNL     1     -20.462  -6.213   6.716  1.00  0.00     0.124 S 
ATOM     70  O   UNL     1     -20.047  -5.416   5.564  1.00  0.00    -0.237 OA
ATOM     71  O   UNL     1     -21.476  -7.228   6.445  1.00  0.00    -0.237 OA
ATOM     72  O   UNL     1     -20.650  -5.464   7.956  1.00  0.00    -0.744 OA
ENDBRANCH  68  69
ENDBRANCH  49  63
BRANCH  50  73
ATOM     73  C   UNL     1      -8.217 -13.891   8.944  1.00  0.00    -0.014 A 
ATOM     74  C   UNL     1      -8.185 -15.291   8.816  1.00  0.00     0.010 A 
ATOM     75  C   UNL     1      -7.033 -13.208   9.277  1.00  0.00     0.010 A 
ATOM     76  C   UNL     1      -6.998 -15.996   9.040  1.00  0.00     0.020 A 
ATOM     77  C   UNL     1      -5.838 -13.907   9.472  1.00  0.00     0.020 A 
ATOM     78  C   UNL     1      -5.832 -15.299   9.365  1.00  0.00     0.054 A 
BRANCH  78  79
ATOM     79  S   UNL     1      -4.293 -16.230   9.604  1.00  0.00     0.124 S 
ATOM     80  O   UNL     1      -4.521 -16.866  10.897  1.00  0.00    -0.237 OA
ATOM     81  O   UNL     1      -4.284 -17.126   8.450  1.00  0.00    -0.237 OA
ATOM     82  O   UNL     1      -3.262 -15.195   9.587  1.00  0.00    -0.744 OA
ENDBRANCH  78  79
ENDBRANCH  50  73
BRANCH  62  83
ATOM     83  C   UNL     1     -14.316 -13.590  12.312  1.00  0.00    -0.014 A 
ATOM     84  C   UNL     1     -13.826 -13.330  13.604  1.00  0.00     0.010 A 
ATOM     85  C   UNL     1     -15.342 -14.539  12.145  1.00  0.00     0.010 A 
ATOM     86  C   UNL     1     -14.317 -14.043  14.701  1.00  0.00     0.020 A 
ATOM     87  C   UNL     1     -15.857 -15.230  13.243  1.00  0.00     0.020 A 
ATOM     88  C   UNL     1     -15.326 -14.993  14.512  1.00  0.00     0.054 A 
BRANCH  88  89
ATOM     89  S   UNL     1     -15.955 -15.899  15.952  1.00  0.00     0.124 S 
ATOM     90  O   UNL     1     -14.866 -16.833  16.221  1.00  0.00    -0.237 OA
ATOM     91  O   UNL     1     -16.135 -14.841  16.943  1.00  0.00    -0.237 OA
ATOM     92  O   UNL     1     -17.192 -16.506  15.466  1.00  0.00    -0.744 OA
ENDBRANCH  88  89
ENDBRANCH  62  83
ENDBRANCH  36  37
ENDBRANCH  28  31
ENDBRANCH  26  27
ENDBRANCH   1  26
TORSDOF 16
