REMARK SMILES CCCC[C@@H](C(=O)NCCCNC(=O)c1ccc(-c2c3nc(c(-c4ccc(S(=O)(=O)[O-])cc4)c4ccc([nH]4)c(-c4ccc(S(=O)(=O)[O-])cc4)c4nc(c(-c5ccc(S(=O)(=O)[O-])cc5)c5ccc2[nH]5)C=C4)C=C3)cc1)[C@]1(O)COc2cc(O)ccc21
REMARK SMILES IDX 10 1 9 2 8 3 6 4 7 5 5 7 4 8 3 9 2 10 1 11 75 12 77 13 85 14
REMARK SMILES IDX 78 15 79 16 84 17 80 18 83 19 81 20 76 21 82 23 11 25 12 26
REMARK SMILES IDX 13 27 14 29 15 30 16 31 74 32 17 33 73 34 18 35 19 36 20 37
REMARK SMILES IDX 67 38 21 39 72 40 66 41 68 42 22 43 71 44 65 45 64 46 23 48
REMARK SMILES IDX 53 49 34 50 52 51 35 52 38 53 51 54 69 55 36 56 37 57 50 59
REMARK SMILES IDX 70 60 39 61 24 62 25 63 33 64 26 65 32 66 27 67 28 68 29 69
REMARK SMILES IDX 30 70 31 71 54 72 55 73 63 74 56 75 62 76 57 77 58 78 59 79
REMARK SMILES IDX 60 80 61 81 40 82 41 83 49 84 42 85 48 86 43 87 44 88 45 89
REMARK SMILES IDX 46 90 47 91
REMARK H PARENT 8 6 76 22 82 24 12 28 68 47 38 58
REMARK Flexibility Score: inf
ROOT
ATOM      1  C   UNL     1       0.356  -4.151   0.890  1.00  0.00     0.042 C 
ENDROOT
BRANCH   1   2
ATOM      2  C   UNL     1      -1.011  -3.473   0.992  1.00  0.00     0.117 C 
BRANCH   2   3
ATOM      3  N   UNL     1      -1.471  -3.470   2.369  1.00  0.00    -0.356 N 
ATOM      4  C   UNL     1      -1.118  -2.573   3.341  1.00  0.00     0.226 C 
ATOM      5  O   UNL     1      -0.819  -3.029   4.442  1.00  0.00    -0.275 OA
ATOM      6  H   UNL     1      -2.099  -4.183   2.628  1.00  0.00     0.163 HD
BRANCH   4   7
ATOM      7  C   UNL     1      -1.169  -1.074   3.040  1.00  0.00     0.118 C 
BRANCH   7   8
ATOM      8  C   UNL     1       0.246  -0.438   2.959  1.00  0.00     0.017 C 
BRANCH   8   9
ATOM      9  C   UNL     1       1.180  -0.797   1.803  1.00  0.00     0.001 C 
BRANCH   9  10
ATOM     10  C   UNL     1       0.719  -0.401   0.402  1.00  0.00    -0.003 C 
ATOM     11  C   UNL     1       1.329   0.910  -0.063  1.00  0.00     0.004 C 
ENDBRANCH   9  10
ENDBRANCH   8   9
ENDBRANCH   7   8
BRANCH   7  12
ATOM     12  C   UNL     1      -2.044  -0.309   4.109  1.00  0.00     0.139 C 
ATOM     13  C   UNL     1      -1.320   0.119   5.416  1.00  0.00     0.270 C 
ATOM     14  C   UNL     1      -3.157  -1.071   4.775  1.00  0.00     0.030 A 
ATOM     15  O   UNL     1      -1.540  -0.879   6.431  1.00  0.00    -0.490 OA
ATOM     16  C   UNL     1      -2.756  -1.400   6.072  1.00  0.00     0.129 A 
ATOM     17  C   UNL     1      -4.401  -1.482   4.320  1.00  0.00     0.014 A 
ATOM     18  C   UNL     1      -3.506  -2.197   6.912  1.00  0.00     0.093 A 
ATOM     19  C   UNL     1      -5.203  -2.256   5.175  1.00  0.00     0.047 A 
ATOM     20  C   UNL     1      -4.739  -2.625   6.446  1.00  0.00     0.119 A 
BRANCH  12  21
ATOM     21  O   UNL     1      -2.550   0.876   3.468  1.00  0.00    -0.381 OA
ATOM     22  H   UNL     1      -1.818   1.353   3.046  1.00  0.00     0.212 HD
ENDBRANCH  12  21
BRANCH  20  23
ATOM     23  O   UNL     1      -5.485  -3.416   7.271  1.00  0.00    -0.508 OA
ATOM     24  H   UNL     1      -5.157  -3.652   8.117  1.00  0.00     0.293 HD
ENDBRANCH  20  23
ENDBRANCH   7  12
ENDBRANCH   4   7
ENDBRANCH   2   3
ENDBRANCH   1   2
BRANCH   1  25
ATOM     25  C   UNL     1       0.320  -5.655   1.105  1.00  0.00     0.118 C 
BRANCH  25  26
ATOM     26  N   UNL     1      -0.292  -6.353  -0.010  1.00  0.00    -0.352 N 
ATOM     27  C   UNL     1       0.245  -7.311  -0.834  1.00  0.00     0.251 C 
ATOM     28  H   UNL     1      -1.226  -6.104  -0.203  1.00  0.00     0.163 HD
ATOM     29  O   UNL     1      -0.347  -7.619  -1.863  1.00  0.00    -0.269 OA
BRANCH  27  30
ATOM     30  C   UNL     1       1.536  -7.953  -0.493  1.00  0.00     0.039 A 
ATOM     31  C   UNL     1       2.445  -8.225  -1.518  1.00  0.00     0.014 A 
ATOM     32  C   UNL     1       1.843  -8.312   0.823  1.00  0.00     0.014 A 
ATOM     33  C   UNL     1       3.674  -8.817  -1.216  1.00  0.00     0.010 A 
ATOM     34  C   UNL     1       3.104  -8.811   1.134  1.00  0.00     0.010 A 
ATOM     35  C   UNL     1       4.025  -9.092   0.116  1.00  0.00    -0.014 A 
BRANCH  35  36
ATOM     36  C   UNL     1       5.338  -9.697   0.456  1.00  0.00     0.031 A 
ATOM     37  C   UNL     1       5.398 -11.047   1.122  1.00  0.00     0.074 A 
ATOM     38  C   UNL     1       6.471  -9.009   0.217  1.00  0.00     0.049 A 
ATOM     39  N   UNL     1       6.445 -11.724   1.520  1.00  0.00    -0.248 NA
ATOM     40  C   UNL     1       4.115 -11.710   1.407  1.00  0.00     0.031 C 
ATOM     41  C   UNL     1       6.539  -7.667  -0.369  1.00  0.00     0.029 A 
ATOM     42  N   UNL     1       7.784  -9.338   0.443  1.00  0.00    -0.354 N 
ATOM     43  C   UNL     1       5.946 -12.873   2.124  1.00  0.00     0.074 A 
ATOM     44  C   UNL     1       4.504 -12.778   2.086  1.00  0.00     0.031 C 
ATOM     45  C   UNL     1       7.825  -7.301  -0.480  1.00  0.00     0.029 A 
ATOM     46  C   UNL     1       8.672  -8.359   0.062  1.00  0.00     0.049 A 
ATOM     47  H   UNL     1       8.064 -10.194   0.840  1.00  0.00     0.167 HD
ATOM     48  C   UNL     1       6.626 -13.923   2.645  1.00  0.00     0.031 A 
ATOM     49  C   UNL     1      10.015  -8.312   0.147  1.00  0.00     0.031 A 
ATOM     50  C   UNL     1       8.062 -14.015   2.665  1.00  0.00     0.049 A 
ATOM     51  C   UNL     1      10.752  -9.496   0.709  1.00  0.00     0.074 A 
ATOM     52  C   UNL     1       8.849 -15.068   3.095  1.00  0.00     0.029 A 
ATOM     53  N   UNL     1       8.925 -13.014   2.245  1.00  0.00    -0.354 N 
ATOM     54  N   UNL     1      10.265 -10.616   1.188  1.00  0.00    -0.248 NA
ATOM     55  C   UNL     1      12.219  -9.418   0.728  1.00  0.00     0.031 C 
ATOM     56  C   UNL     1      10.189 -14.678   2.995  1.00  0.00     0.029 A 
ATOM     57  C   UNL     1      10.238 -13.410   2.437  1.00  0.00     0.049 A 
ATOM     58  H   UNL     1       8.646 -12.150   1.866  1.00  0.00     0.167 HD
ATOM     59  C   UNL     1      11.366 -11.385   1.548  1.00  0.00     0.074 A 
ATOM     60  C   UNL     1      12.543 -10.609   1.211  1.00  0.00     0.031 C 
ATOM     61  C   UNL     1      11.399 -12.621   2.106  1.00  0.00     0.031 A 
BRANCH  48  62
ATOM     62  C   UNL     1       5.821 -15.044   3.252  1.00  0.00    -0.014 A 
ATOM     63  C   UNL     1       5.013 -15.881   2.460  1.00  0.00     0.010 A 
ATOM     64  C   UNL     1       5.892 -15.280   4.638  1.00  0.00     0.010 A 
ATOM     65  C   UNL     1       4.251 -16.895   3.047  1.00  0.00     0.020 A 
ATOM     66  C   UNL     1       5.157 -16.315   5.225  1.00  0.00     0.020 A 
ATOM     67  C   UNL     1       4.324 -17.102   4.428  1.00  0.00     0.054 A 
BRANCH  67  68
ATOM     68  S   UNL     1       3.331 -18.431   5.161  1.00  0.00     0.124 S 
ATOM     69  O   UNL     1       1.980 -17.880   5.073  1.00  0.00    -0.237 OA
ATOM     70  O   UNL     1       3.606 -19.561   4.278  1.00  0.00    -0.237 OA
ATOM     71  O   UNL     1       3.864 -18.557   6.515  1.00  0.00    -0.744 OA
ENDBRANCH  67  68
ENDBRANCH  48  62
BRANCH  49  72
ATOM     72  C   UNL     1      10.740  -7.100  -0.326  1.00  0.00    -0.014 A 
ATOM     73  C   UNL     1      11.507  -7.133  -1.504  1.00  0.00     0.010 A 
ATOM     74  C   UNL     1      10.625  -5.888   0.380  1.00  0.00     0.010 A 
ATOM     75  C   UNL     1      12.149  -5.978  -1.963  1.00  0.00     0.020 A 
ATOM     76  C   UNL     1      11.241  -4.726  -0.091  1.00  0.00     0.020 A 
ATOM     77  C   UNL     1      12.006  -4.780  -1.257  1.00  0.00     0.054 A 
BRANCH  77  78
ATOM     78  S   UNL     1      12.783  -3.278  -1.915  1.00  0.00     0.124 S 
ATOM     79  O   UNL     1      14.197  -3.525  -1.649  1.00  0.00    -0.237 OA
ATOM     80  O   UNL     1      12.388  -3.309  -3.321  1.00  0.00    -0.237 OA
ATOM     81  O   UNL     1      12.175  -2.206  -1.130  1.00  0.00    -0.744 OA
ENDBRANCH  77  78
ENDBRANCH  49  72
BRANCH  61  82
ATOM     82  C   UNL     1      12.752 -13.226   2.369  1.00  0.00    -0.014 A 
ATOM     83  C   UNL     1      13.585 -12.737   3.391  1.00  0.00     0.010 A 
ATOM     84  C   UNL     1      13.172 -14.338   1.616  1.00  0.00     0.010 A 
ATOM     85  C   UNL     1      14.827 -13.330   3.633  1.00  0.00     0.020 A 
ATOM     86  C   UNL     1      14.399 -14.953   1.876  1.00  0.00     0.020 A 
ATOM     87  C   UNL     1      15.226 -14.435   2.874  1.00  0.00     0.054 A 
BRANCH  87  88
ATOM     88  S   UNL     1      16.825 -15.211   3.235  1.00  0.00     0.124 S 
ATOM     89  O   UNL     1      17.766 -14.226   2.708  1.00  0.00    -0.237 OA
ATOM     90  O   UNL     1      16.797 -15.339   4.690  1.00  0.00    -0.237 OA
ATOM     91  O   UNL     1      16.770 -16.474   2.502  1.00  0.00    -0.744 OA
ENDBRANCH  87  88
ENDBRANCH  61  82
ENDBRANCH  35  36
ENDBRANCH  27  30
ENDBRANCH  25  26
ENDBRANCH   1  25
TORSDOF 19
