REMARK SMILES CC(C)[NH2+][C@@]1(C(=O)NCCCNC(=O)c2ccc(-c3c4nc(c(-c5ccc(S(=O)(=O)[O-])cc5)c5ccc([nH]5)c(-c5ccc(S(=O)(=O)[O-])cc5)c5nc(c(-c6ccc(S(=O)(=O)[O-])cc6)c6ccc3[nH]6)C=C5)C=C4)cc2)CCC[C@@H]([NH+]2CCS(=O)CC2)C1
REMARK SMILES IDX 10 1 9 2 8 3 6 4 7 5 5 7 75 8 86 9 76 10 78 11 77 12 4 13
REMARK SMILES IDX 2 16 1 17 3 18 79 19 80 20 85 21 81 23 84 24 82 25 83 26
REMARK SMILES IDX 11 27 12 28 13 29 14 31 15 32 16 33 74 34 17 35 73 36 18 37
REMARK SMILES IDX 19 38 20 39 67 40 21 41 72 42 66 43 68 44 22 45 71 46 65 47
REMARK SMILES IDX 64 48 23 50 53 51 34 52 52 53 35 54 38 55 51 56 69 57 36 58
REMARK SMILES IDX 37 59 50 61 70 62 39 63 24 64 25 65 33 66 26 67 32 68 27 69
REMARK SMILES IDX 28 70 29 71 30 72 31 73 54 74 55 75 63 76 56 77 62 78 57 79
REMARK SMILES IDX 58 80 59 81 60 82 61 83 40 84 41 85 49 86 42 87 48 88 43 89
REMARK SMILES IDX 44 90 45 91 46 92 47 93
REMARK H PARENT 8 6 4 14 4 15 79 22 12 30 68 49 38 60
REMARK Flexibility Score: inf
ROOT
ATOM      1  C   UNL     1      -1.410   1.734  -6.730  1.00  0.00     0.042 C 
ENDROOT
BRANCH   1   2
ATOM      2  C   UNL     1      -1.784   0.389  -6.099  1.00  0.00     0.118 C 
BRANCH   2   3
ATOM      3  N   UNL     1      -0.790  -0.090  -5.156  1.00  0.00    -0.351 N 
ATOM      4  C   UNL     1      -0.534   0.447  -3.932  1.00  0.00     0.281 C 
ATOM      5  O   UNL     1       0.616   0.895  -3.824  1.00  0.00    -0.268 OA
ATOM      6  H   UNL     1      -0.254  -0.870  -5.426  1.00  0.00     0.163 HD
BRANCH   4   7
ATOM      7  C   UNL     1      -1.577   0.487  -2.722  1.00  0.00     0.181 C 
ATOM      8  C   UNL     1      -2.992  -0.099  -2.964  1.00  0.00     0.079 C 
ATOM      9  C   UNL     1      -1.751   1.940  -2.287  1.00  0.00     0.144 C 
ATOM     10  C   UNL     1      -4.103   0.828  -3.516  1.00  0.00     0.013 C 
ATOM     11  C   UNL     1      -2.392   2.733  -3.439  1.00  0.00     0.190 C 
ATOM     12  C   UNL     1      -3.871   2.352  -3.507  1.00  0.00     0.065 C 
BRANCH   7  13
ATOM     13  N   UNL     1      -1.023  -0.287  -1.542  1.00  0.00    -0.331 N 
ATOM     14  H   UNL     1      -1.552  -0.005  -0.717  1.00  0.00     0.347 HD
ATOM     15  H   UNL     1      -1.117  -1.267  -1.809  1.00  0.00     0.347 HD
BRANCH  13  16
ATOM     16  C   UNL     1       0.408  -0.121  -1.227  1.00  0.00     0.176 C 
ATOM     17  C   UNL     1       0.617  -0.117   0.290  1.00  0.00     0.075 C 
ATOM     18  C   UNL     1       1.217  -1.278  -1.828  1.00  0.00     0.075 C 
ENDBRANCH  13  16
ENDBRANCH   7  13
BRANCH  11  19
ATOM     19  N   UNL     1      -1.989   4.108  -3.273  1.00  0.00    -0.331 N 
ATOM     20  C   UNL     1      -2.816   5.264  -3.552  1.00  0.00     0.276 C 
ATOM     21  C   UNL     1      -0.568   4.383  -3.531  1.00  0.00     0.276 C 
ATOM     22  H   UNL     1      -2.229   4.045  -2.284  1.00  0.00     0.348 HD
ATOM     23  C   UNL     1      -2.556   6.282  -2.436  1.00  0.00     0.166 C 
ATOM     24  C   UNL     1      -0.064   5.148  -2.322  1.00  0.00     0.166 C 
ATOM     25  S   UNL     1      -0.808   6.805  -2.278  1.00  0.00     0.032 S 
ATOM     26  O   UNL     1      -0.408   7.512  -3.539  1.00  0.00    -0.259 OA
ENDBRANCH  11  19
ENDBRANCH   4   7
ENDBRANCH   2   3
ENDBRANCH   1   2
BRANCH   1  27
ATOM     27  C   UNL     1      -0.445   1.626  -7.892  1.00  0.00     0.118 C 
BRANCH  27  28
ATOM     28  N   UNL     1      -1.063   0.995  -9.046  1.00  0.00    -0.352 N 
ATOM     29  C   UNL     1      -1.495   1.551 -10.227  1.00  0.00     0.251 C 
ATOM     30  H   UNL     1      -1.193   0.021  -8.971  1.00  0.00     0.163 HD
ATOM     31  O   UNL     1      -2.253   0.913 -10.948  1.00  0.00    -0.269 OA
BRANCH  29  32
ATOM     32  C   UNL     1      -1.052   2.909 -10.620  1.00  0.00     0.039 A 
ATOM     33  C   UNL     1      -1.935   3.751 -11.301  1.00  0.00     0.014 A 
ATOM     34  C   UNL     1       0.250   3.337 -10.354  1.00  0.00     0.014 A 
ATOM     35  C   UNL     1      -1.524   5.036 -11.670  1.00  0.00     0.010 A 
ATOM     36  C   UNL     1       0.616   4.651 -10.613  1.00  0.00     0.010 A 
ATOM     37  C   UNL     1      -0.253   5.505 -11.305  1.00  0.00    -0.014 A 
BRANCH  37  38
ATOM     38  C   UNL     1       0.239   6.852 -11.691  1.00  0.00     0.031 A 
ATOM     39  C   UNL     1       1.477   6.965 -12.546  1.00  0.00     0.074 A 
ATOM     40  C   UNL     1      -0.365   7.958 -11.215  1.00  0.00     0.049 A 
ATOM     41  N   UNL     1       2.161   8.029 -12.876  1.00  0.00    -0.248 NA
ATOM     42  C   UNL     1       2.044   5.706 -13.067  1.00  0.00     0.031 C 
ATOM     43  C   UNL     1      -1.550   7.978 -10.355  1.00  0.00     0.029 A 
ATOM     44  N   UNL     1      -0.053   9.285 -11.379  1.00  0.00    -0.354 N 
ATOM     45  C   UNL     1       3.249   7.565 -13.609  1.00  0.00     0.074 A 
ATOM     46  C   UNL     1       3.170   6.123 -13.623  1.00  0.00     0.031 C 
ATOM     47  C   UNL     1      -1.881   9.253 -10.090  1.00  0.00     0.029 A 
ATOM     48  C   UNL     1      -0.903  10.138 -10.714  1.00  0.00     0.049 A 
ATOM     49  H   UNL     1       0.708   9.597 -11.920  1.00  0.00     0.167 HD
ATOM     50  C   UNL     1       4.212   8.277 -14.241  1.00  0.00     0.031 A 
ATOM     51  C   UNL     1      -0.888  11.482 -10.611  1.00  0.00     0.031 A 
ATOM     52  C   UNL     1       4.265   9.713 -14.248  1.00  0.00     0.049 A 
ATOM     53  C   UNL     1       0.201  12.251 -11.312  1.00  0.00     0.074 A 
ATOM     54  C   UNL     1       5.168  10.537 -14.895  1.00  0.00     0.029 A 
ATOM     55  N   UNL     1       3.369  10.538 -13.584  1.00  0.00    -0.354 N 
ATOM     56  N   UNL     1       1.195  11.798 -12.039  1.00  0.00    -0.248 NA
ATOM     57  C   UNL     1       0.164  13.715 -11.189  1.00  0.00     0.031 C 
ATOM     58  C   UNL     1       4.846  11.861 -14.583  1.00  0.00     0.029 A 
ATOM     59  C   UNL     1       3.704  11.863 -13.797  1.00  0.00     0.049 A 
ATOM     60  H   UNL     1       2.609  10.227 -13.042  1.00  0.00     0.167 HD
ATOM     61  C   UNL     1       1.875  12.922 -12.495  1.00  0.00     0.074 A 
ATOM     62  C   UNL     1       1.175  14.075 -11.967  1.00  0.00     0.031 C 
ATOM     63  C   UNL     1       2.977  12.996 -13.281  1.00  0.00     0.031 A 
BRANCH  50  64
ATOM     64  C   UNL     1       5.276   7.511 -14.983  1.00  0.00    -0.014 A 
ATOM     65  C   UNL     1       4.967   6.782 -16.147  1.00  0.00     0.010 A 
ATOM     66  C   UNL     1       6.610   7.550 -14.538  1.00  0.00     0.010 A 
ATOM     67  C   UNL     1       5.962   6.075 -16.827  1.00  0.00     0.020 A 
ATOM     68  C   UNL     1       7.615   6.872 -15.234  1.00  0.00     0.020 A 
ATOM     69  C   UNL     1       7.281   6.125 -16.366  1.00  0.00     0.054 A 
BRANCH  69  70
ATOM     70  S   UNL     1       8.556   5.226 -17.291  1.00  0.00     0.124 S 
ATOM     71  O   UNL     1       8.230   3.836 -16.979  1.00  0.00    -0.237 OA
ATOM     72  O   UNL     1       8.299   5.636 -18.669  1.00  0.00    -0.237 OA
ATOM     73  O   UNL     1       9.809   5.714 -16.721  1.00  0.00    -0.744 OA
ENDBRANCH  69  70
ENDBRANCH  50  64
BRANCH  51  74
ATOM     74  C   UNL     1      -1.944  12.189  -9.834  1.00  0.00    -0.014 A 
ATOM     75  C   UNL     1      -2.892  12.994 -10.492  1.00  0.00     0.010 A 
ATOM     76  C   UNL     1      -2.009  12.069  -8.434  1.00  0.00     0.010 A 
ATOM     77  C   UNL     1      -3.861  13.691  -9.764  1.00  0.00     0.020 A 
ATOM     78  C   UNL     1      -2.996  12.739  -7.704  1.00  0.00     0.020 A 
ATOM     79  C   UNL     1      -3.906  13.560  -8.374  1.00  0.00     0.054 A 
BRANCH  79  80
ATOM     80  S   UNL     1      -5.192  14.453  -7.455  1.00  0.00     0.124 S 
ATOM     81  O   UNL     1      -4.726  15.833  -7.545  1.00  0.00    -0.237 OA
ATOM     82  O   UNL     1      -6.398  14.142  -8.218  1.00  0.00    -0.237 OA
ATOM     83  O   UNL     1      -5.137  13.858  -6.121  1.00  0.00    -0.744 OA
ENDBRANCH  79  80
ENDBRANCH  51  74
BRANCH  63  84
ATOM     84  C   UNL     1       3.459  14.364 -13.682  1.00  0.00    -0.014 A 
ATOM     85  C   UNL     1       4.091  15.220 -12.764  1.00  0.00     0.010 A 
ATOM     86  C   UNL     1       3.345  14.762 -15.028  1.00  0.00     0.010 A 
ATOM     87  C   UNL     1       4.579  16.461 -13.181  1.00  0.00     0.020 A 
ATOM     88  C   UNL     1       3.859  15.988 -15.454  1.00  0.00     0.020 A 
ATOM     89  C   UNL     1       4.463  16.835 -14.524  1.00  0.00     0.054 A 
BRANCH  89  90
ATOM     90  S   UNL     1       5.161  18.424 -15.051  1.00  0.00     0.124 S 
ATOM     91  O   UNL     1       4.221  19.378 -14.467  1.00  0.00    -0.237 OA
ATOM     92  O   UNL     1       6.492  18.404 -14.449  1.00  0.00    -0.237 OA
ATOM     93  O   UNL     1       5.142  18.346 -16.510  1.00  0.00    -0.744 OA
ENDBRANCH  89  90
ENDBRANCH  63  84
ENDBRANCH  37  38
ENDBRANCH  29  32
ENDBRANCH  27  28
ENDBRANCH   1  27
TORSDOF 16
