REMARK SMILES Cc1cccc(OCC(=O)Nc2cc(C(=O)NCCCNC(=O)c3ccc(-c4c5nc(c(-c6ccc(S(=O)(=O)[O-])cc6)c6ccc([nH]6)c(-c6ccc(S(=O)(=O)[O-])cc6)c6nc(c(-c7ccc(S(=O)(=O)[O-])cc7)c7ccc4[nH]7)C=C6)C=C5)cc3)c(Cl)cc2Cl)c1
REMARK SMILES IDX 18 1 17 2 15 3 16 4 14 6 12 7 13 8 87 9 86 10 88 11 84 12
REMARK SMILES IDX 85 13 11 14 9 15 10 16 8 18 7 19 6 20 1 21 2 22 3 23 89 24
REMARK SMILES IDX 4 25 5 26 19 27 20 28 21 29 22 30 23 32 24 33 25 34 83 35
REMARK SMILES IDX 26 36 82 37 27 38 28 39 29 40 76 41 30 42 81 43 75 44 77 45
REMARK SMILES IDX 31 46 80 47 74 48 73 49 32 51 62 52 43 53 61 54 44 55 47 56
REMARK SMILES IDX 60 57 78 58 45 59 46 60 59 62 79 63 48 64 33 65 34 66 42 67
REMARK SMILES IDX 35 68 41 69 36 70 37 71 38 72 39 73 40 74 63 75 64 76 72 77
REMARK SMILES IDX 65 78 71 79 66 80 67 81 68 82 69 83 70 84 49 85 50 86 58 87
REMARK SMILES IDX 51 88 57 89 52 90 53 91 54 92 55 93 56 94
REMARK H PARENT 17 5 11 17 21 31 77 50 47 61
REMARK Flexibility Score: inf
ROOT
ATOM      1  C   UNL     1      -3.609   0.650   0.338  1.00  0.00     0.118 C 
ENDROOT
BRANCH   1   2
ATOM      2  N   UNL     1      -4.941   1.216   0.415  1.00  0.00    -0.352 N 
ATOM      3  C   UNL     1      -5.373   2.354   1.052  1.00  0.00     0.252 C 
ATOM      4  O   UNL     1      -6.506   2.772   0.824  1.00  0.00    -0.269 OA
ATOM      5  H   UNL     1      -5.639   0.709  -0.059  1.00  0.00     0.163 HD
BRANCH   3   6
ATOM      6  C   UNL     1      -4.516   3.087   2.027  1.00  0.00     0.060 A 
ATOM      7  C   UNL     1      -2.384   4.129   2.635  1.00  0.00     0.061 A 
ATOM      8  C   UNL     1      -3.190   3.471   1.700  1.00  0.00     0.043 A 
ATOM      9  C   UNL     1      -2.966   4.490   3.872  1.00  0.00     0.066 A 
ATOM     10  C   UNL     1      -4.286   4.173   4.183  1.00  0.00     0.044 A 
ATOM     11  Cl  UNL     1      -2.057   5.355   5.073  1.00  0.00    -0.082 Cl
ATOM     12  C   UNL     1      -5.056   3.453   3.273  1.00  0.00     0.055 A 
ATOM     13  Cl  UNL     1      -6.644   3.017   3.806  1.00  0.00    -0.083 Cl
BRANCH   7  14
ATOM     14  N   UNL     1      -1.012   4.432   2.490  1.00  0.00    -0.322 N 
ATOM     15  C   UNL     1      -0.057   4.355   1.527  1.00  0.00     0.262 C 
ATOM     16  O   UNL     1       1.090   4.681   1.867  1.00  0.00    -0.271 OA
ATOM     17  H   UNL     1      -0.644   4.805   3.324  1.00  0.00     0.170 HD
BRANCH  15  18
ATOM     18  C   UNL     1      -0.339   3.982   0.081  1.00  0.00     0.329 C 
BRANCH  18  19
ATOM     19  O   UNL     1      -0.640   2.628  -0.157  1.00  0.00    -0.484 OA
BRANCH  19  20
ATOM     20  C   UNL     1       0.324   1.681   0.025  1.00  0.00     0.120 A 
ATOM     21  C   UNL     1       3.998   0.826   0.532  1.00  0.00     0.044 C 
ATOM     22  C   UNL     1       2.513   0.709   0.393  1.00  0.00    -0.047 A 
ATOM     23  C   UNL     1       1.959  -0.577   0.382  1.00  0.00     0.003 A 
ATOM     24  C   UNL     1       1.689   1.844   0.220  1.00  0.00     0.049 A 
ATOM     25  C   UNL     1       0.605  -0.736   0.179  1.00  0.00     0.004 A 
ATOM     26  C   UNL     1      -0.180   0.390  -0.019  1.00  0.00     0.046 A 
ENDBRANCH  19  20
ENDBRANCH  18  19
ENDBRANCH  15  18
ENDBRANCH   7  14
ENDBRANCH   3   6
ENDBRANCH   1   2
BRANCH   1  27
ATOM     27  C   UNL     1      -3.573  -0.873   0.187  1.00  0.00     0.042 C 
BRANCH  27  28
ATOM     28  C   UNL     1      -3.554  -1.348  -1.277  1.00  0.00     0.118 C 
BRANCH  28  29
ATOM     29  N   UNL     1      -2.247  -1.150  -1.932  1.00  0.00    -0.352 N 
ATOM     30  C   UNL     1      -1.254  -2.035  -2.334  1.00  0.00     0.251 C 
ATOM     31  H   UNL     1      -2.038  -0.207  -2.121  1.00  0.00     0.163 HD
ATOM     32  O   UNL     1      -0.138  -1.684  -2.678  1.00  0.00    -0.269 OA
BRANCH  30  33
ATOM     33  C   UNL     1      -1.616  -3.450  -2.445  1.00  0.00     0.039 A 
ATOM     34  C   UNL     1      -2.053  -3.816  -3.725  1.00  0.00     0.014 A 
ATOM     35  C   UNL     1      -2.026  -4.108  -1.295  1.00  0.00     0.014 A 
ATOM     36  C   UNL     1      -3.191  -4.591  -3.832  1.00  0.00     0.010 A 
ATOM     37  C   UNL     1      -3.181  -4.851  -1.402  1.00  0.00     0.010 A 
ATOM     38  C   UNL     1      -3.829  -4.958  -2.652  1.00  0.00    -0.014 A 
BRANCH  38  39
ATOM     39  C   UNL     1      -5.265  -5.204  -2.587  1.00  0.00     0.031 A 
ATOM     40  C   UNL     1      -5.751  -6.525  -2.147  1.00  0.00     0.074 A 
ATOM     41  C   UNL     1      -6.144  -4.184  -2.754  1.00  0.00     0.049 A 
ATOM     42  N   UNL     1      -6.966  -6.933  -2.284  1.00  0.00    -0.248 NA
ATOM     43  C   UNL     1      -4.868  -7.535  -1.576  1.00  0.00     0.031 C 
ATOM     44  C   UNL     1      -7.534  -4.158  -2.298  1.00  0.00     0.029 A 
ATOM     45  N   UNL     1      -6.039  -3.026  -3.533  1.00  0.00    -0.354 N 
ATOM     46  C   UNL     1      -7.098  -8.078  -1.537  1.00  0.00     0.074 A 
ATOM     47  C   UNL     1      -5.748  -8.474  -1.224  1.00  0.00     0.031 C 
ATOM     48  C   UNL     1      -8.213  -3.260  -3.026  1.00  0.00     0.029 A 
ATOM     49  C   UNL     1      -7.319  -2.780  -4.062  1.00  0.00     0.049 A 
ATOM     50  H   UNL     1      -5.227  -2.488  -3.682  1.00  0.00     0.167 HD
ATOM     51  C   UNL     1      -8.344  -8.470  -1.149  1.00  0.00     0.031 A 
ATOM     52  C   UNL     1      -7.621  -2.730  -5.394  1.00  0.00     0.031 A 
ATOM     53  C   UNL     1      -9.386  -7.708  -1.839  1.00  0.00     0.049 A 
ATOM     54  C   UNL     1      -8.662  -3.746  -5.817  1.00  0.00     0.074 A 
ATOM     55  C   UNL     1     -10.253  -6.696  -1.463  1.00  0.00     0.029 A 
ATOM     56  N   UNL     1      -9.452  -7.782  -3.226  1.00  0.00    -0.354 N 
ATOM     57  N   UNL     1      -9.127  -4.677  -5.033  1.00  0.00    -0.248 NA
ATOM     58  C   UNL     1      -9.207  -3.846  -7.170  1.00  0.00     0.031 C 
ATOM     59  C   UNL     1     -10.781  -6.108  -2.647  1.00  0.00     0.029 A 
ATOM     60  C   UNL     1     -10.259  -6.785  -3.736  1.00  0.00     0.049 A 
ATOM     61  H   UNL     1      -8.984  -8.455  -3.772  1.00  0.00     0.167 HD
ATOM     62  C   UNL     1      -9.930  -5.530  -5.744  1.00  0.00     0.074 A 
ATOM     63  C   UNL     1      -9.985  -4.940  -7.069  1.00  0.00     0.031 C 
ATOM     64  C   UNL     1     -10.434  -6.668  -5.181  1.00  0.00     0.031 A 
BRANCH  51  65
ATOM     65  C   UNL     1      -8.615  -9.386   0.028  1.00  0.00    -0.014 A 
ATOM     66  C   UNL     1      -9.909  -9.440   0.585  1.00  0.00     0.010 A 
ATOM     67  C   UNL     1      -7.635 -10.152   0.687  1.00  0.00     0.010 A 
ATOM     68  C   UNL     1     -10.188 -10.165   1.758  1.00  0.00     0.020 A 
ATOM     69  C   UNL     1      -7.892 -10.873   1.860  1.00  0.00     0.020 A 
ATOM     70  C   UNL     1      -9.169 -10.867   2.397  1.00  0.00     0.054 A 
BRANCH  70  71
ATOM     71  S   UNL     1      -9.517 -11.761   3.931  1.00  0.00     0.124 S 
ATOM     72  O   UNL     1      -9.972 -10.694   4.819  1.00  0.00    -0.237 OA
ATOM     73  O   UNL     1     -10.539 -12.716   3.514  1.00  0.00    -0.237 OA
ATOM     74  O   UNL     1      -8.227 -12.350   4.289  1.00  0.00    -0.744 OA
ENDBRANCH  70  71
ENDBRANCH  51  65
BRANCH  52  75
ATOM     75  C   UNL     1      -6.530  -2.211  -6.258  1.00  0.00    -0.014 A 
ATOM     76  C   UNL     1      -6.300  -0.821  -6.216  1.00  0.00     0.010 A 
ATOM     77  C   UNL     1      -5.502  -3.068  -6.689  1.00  0.00     0.010 A 
ATOM     78  C   UNL     1      -5.012  -0.318  -6.391  1.00  0.00     0.020 A 
ATOM     79  C   UNL     1      -4.206  -2.564  -6.859  1.00  0.00     0.020 A 
ATOM     80  C   UNL     1      -3.963  -1.206  -6.631  1.00  0.00     0.054 A 
BRANCH  80  81
ATOM     81  S   UNL     1      -2.273  -0.594  -6.354  1.00  0.00     0.124 S 
ATOM     82  O   UNL     1      -2.146   0.444  -7.370  1.00  0.00    -0.237 OA
ATOM     83  O   UNL     1      -2.364  -0.123  -4.972  1.00  0.00    -0.237 OA
ATOM     84  O   UNL     1      -1.453  -1.784  -6.560  1.00  0.00    -0.744 OA
ENDBRANCH  80  81
ENDBRANCH  52  75
BRANCH  64  85
ATOM     85  C   UNL     1     -11.154  -7.789  -5.901  1.00  0.00    -0.014 A 
ATOM     86  C   UNL     1     -11.081  -8.033  -7.281  1.00  0.00     0.010 A 
ATOM     87  C   UNL     1     -11.858  -8.744  -5.125  1.00  0.00     0.010 A 
ATOM     88  C   UNL     1     -11.722  -9.140  -7.862  1.00  0.00     0.020 A 
ATOM     89  C   UNL     1     -12.458  -9.875  -5.685  1.00  0.00     0.020 A 
ATOM     90  C   UNL     1     -12.409 -10.052  -7.060  1.00  0.00     0.054 A 
BRANCH  90  91
ATOM     91  S   UNL     1     -13.181 -11.510  -7.806  1.00  0.00     0.124 S 
ATOM     92  O   UNL     1     -14.507 -11.005  -8.150  1.00  0.00    -0.237 OA
ATOM     93  O   UNL     1     -12.308 -11.800  -8.942  1.00  0.00    -0.237 OA
ATOM     94  O   UNL     1     -13.144 -12.502  -6.734  1.00  0.00    -0.744 OA
ENDBRANCH  90  91
ENDBRANCH  64  85
ENDBRANCH  38  39
ENDBRANCH  30  33
ENDBRANCH  28  29
ENDBRANCH  27  28
ENDBRANCH   1  27
TORSDOF 17
