REMARK SMILES O=C(COCCNC(=O)Nc1cccc(F)c1)NCCCNC(=O)c1ccc(-c2c3nc(c(-c4ccc(S(=O)(=O)[O-])cc4)c4ccc([nH]4)c(-c4ccc(S(=O)(=O)[O-])cc4)c4nc(c(-c5ccc(S(=O)(=O)[O-])cc5)c5ccc2[nH]5)C=C4)C=C3)cc1
REMARK SMILES IDX 19 1 18 2 1 3 2 4 3 6 4 7 5 8 6 9 7 10 8 11 9 13 10 14 11 16
REMARK SMILES IDX 12 17 17 18 13 19 15 20 14 21 16 22 20 23 21 24 22 25 23 26
REMARK SMILES IDX 24 28 25 29 26 30 84 31 27 32 83 33 28 34 29 35 30 36 77 37
REMARK SMILES IDX 31 38 82 39 76 40 78 41 32 42 81 43 75 44 74 45 33 47 63 48
REMARK SMILES IDX 44 49 62 50 45 51 48 52 61 53 79 54 46 55 47 56 60 58 80 59
REMARK SMILES IDX 49 60 34 61 35 62 43 63 36 64 42 65 37 66 38 67 39 68 40 69
REMARK SMILES IDX 41 70 64 71 65 72 73 73 66 74 72 75 67 76 68 77 69 78 70 79
REMARK SMILES IDX 71 80 50 81 51 82 59 83 52 84 58 85 53 86 54 87 55 88 56 89
REMARK SMILES IDX 57 90
REMARK H PARENT 18 5 7 12 10 15 22 27 78 46 48 57
REMARK Flexibility Score: inf
ROOT
ATOM      1  C   UNL     1       2.068   0.868   2.441  1.00  0.00     0.117 C 
ENDROOT
BRANCH   1   2
ATOM      2  N   UNL     1       2.805   0.382   1.299  1.00  0.00    -0.354 N 
ATOM      3  O   UNL     1       1.214  -1.117   0.577  1.00  0.00    -0.272 OA
ATOM      4  C   UNL     1       2.290  -0.554   0.427  1.00  0.00     0.245 C 
ATOM      5  H   UNL     1       3.710   0.733   1.136  1.00  0.00     0.163 HD
BRANCH   4   6
ATOM      6  C   UNL     1       3.216  -0.835  -0.759  1.00  0.00     0.260 C 
BRANCH   6   7
ATOM      7  O   UNL     1       3.897   0.293  -1.290  1.00  0.00    -0.370 OA
BRANCH   7   8
ATOM      8  C   UNL     1       3.064   1.395  -1.655  1.00  0.00     0.182 C 
BRANCH   8   9
ATOM      9  C   UNL     1       2.298   1.212  -2.965  1.00  0.00     0.146 C 
BRANCH   9  10
ATOM     10  N   UNL     1       1.057   0.442  -2.878  1.00  0.00    -0.336 N 
ATOM     11  C   UNL     1      -0.251   0.765  -2.799  1.00  0.00     0.319 C 
ATOM     12  H   UNL     1       1.211  -0.530  -2.877  1.00  0.00     0.165 HD
ATOM     13  O   UNL     1      -1.052  -0.128  -2.516  1.00  0.00    -0.249 OA
ATOM     14  N   UNL     1      -0.706   2.030  -2.919  1.00  0.00    -0.308 N 
ATOM     15  H   UNL     1      -1.555   2.203  -2.451  1.00  0.00     0.171 HD
BRANCH  14  16
ATOM     16  C   UNL     1      -0.183   3.136  -3.592  1.00  0.00     0.045 A 
ATOM     17  C   UNL     1       0.518   3.011  -4.798  1.00  0.00     0.026 A 
ATOM     18  C   UNL     1      -0.338   4.387  -3.002  1.00  0.00     0.065 A 
ATOM     19  C   UNL     1       1.206   4.107  -5.322  1.00  0.00     0.005 A 
ATOM     20  C   UNL     1       0.358   5.468  -3.527  1.00  0.00     0.125 A 
ATOM     21  C   UNL     1       1.151   5.334  -4.663  1.00  0.00     0.039 A 
ATOM     22  F   UNL     1       0.304   6.650  -2.900  1.00  0.00    -0.207 F 
ENDBRANCH  14  16
ENDBRANCH   9  10
ENDBRANCH   8   9
ENDBRANCH   7   8
ENDBRANCH   6   7
ENDBRANCH   4   6
ENDBRANCH   1   2
BRANCH   1  23
ATOM     23  C   UNL     1       2.331   0.042   3.691  1.00  0.00     0.042 C 
BRANCH  23  24
ATOM     24  C   UNL     1       3.801  -0.032   4.089  1.00  0.00     0.118 C 
BRANCH  24  25
ATOM     25  N   UNL     1       4.378   1.266   4.408  1.00  0.00    -0.352 N 
ATOM     26  C   UNL     1       5.160   1.645   5.471  1.00  0.00     0.251 C 
ATOM     27  H   UNL     1       4.177   1.981   3.762  1.00  0.00     0.163 HD
ATOM     28  O   UNL     1       5.441   2.831   5.614  1.00  0.00    -0.269 OA
BRANCH  26  29
ATOM     29  C   UNL     1       5.635   0.646   6.457  1.00  0.00     0.039 A 
ATOM     30  C   UNL     1       5.611   0.987   7.811  1.00  0.00     0.014 A 
ATOM     31  C   UNL     1       6.115  -0.607   6.064  1.00  0.00     0.014 A 
ATOM     32  C   UNL     1       6.013   0.055   8.770  1.00  0.00     0.010 A 
ATOM     33  C   UNL     1       6.440  -1.563   7.026  1.00  0.00     0.010 A 
ATOM     34  C   UNL     1       6.398  -1.242   8.389  1.00  0.00    -0.014 A 
BRANCH  34  35
ATOM     35  C   UNL     1       6.734  -2.261   9.419  1.00  0.00     0.031 A 
ATOM     36  C   UNL     1       8.122  -2.838   9.513  1.00  0.00     0.074 A 
ATOM     37  C   UNL     1       5.773  -2.686  10.264  1.00  0.00     0.049 A 
ATOM     38  N   UNL     1       8.601  -3.693  10.382  1.00  0.00    -0.248 NA
ATOM     39  C   UNL     1       9.093  -2.420   8.489  1.00  0.00     0.031 C 
ATOM     40  C   UNL     1       4.373  -2.254  10.238  1.00  0.00     0.029 A 
ATOM     41  N   UNL     1       5.827  -3.567  11.315  1.00  0.00    -0.354 N 
ATOM     42  C   UNL     1       9.920  -3.920  10.007  1.00  0.00     0.074 A 
ATOM     43  C   UNL     1      10.150  -3.156   8.799  1.00  0.00     0.031 C 
ATOM     44  C   UNL     1       3.714  -2.834  11.254  1.00  0.00     0.029 A 
ATOM     45  C   UNL     1       4.633  -3.703  11.983  1.00  0.00     0.049 A 
ATOM     46  H   UNL     1       6.644  -4.056  11.566  1.00  0.00     0.167 HD
ATOM     47  C   UNL     1      10.862  -4.676  10.621  1.00  0.00     0.031 A 
ATOM     48  C   UNL     1       4.312  -4.433  13.068  1.00  0.00     0.031 A 
ATOM     49  C   UNL     1      10.633  -5.434  11.824  1.00  0.00     0.049 A 
ATOM     50  C   UNL     1       5.380  -5.247  13.745  1.00  0.00     0.074 A 
ATOM     51  C   UNL     1      11.537  -6.188  12.553  1.00  0.00     0.029 A 
ATOM     52  N   UNL     1       9.412  -5.538  12.475  1.00  0.00    -0.354 N 
ATOM     53  N   UNL     1       6.643  -5.387  13.418  1.00  0.00    -0.248 NA
ATOM     54  C   UNL     1       4.982  -5.984  14.951  1.00  0.00     0.031 C 
ATOM     55  C   UNL     1      10.852  -6.787  13.616  1.00  0.00     0.029 A 
ATOM     56  C   UNL     1       9.535  -6.358  13.585  1.00  0.00     0.049 A 
ATOM     57  H   UNL     1       8.581  -5.094  12.190  1.00  0.00     0.167 HD
ATOM     58  C   UNL     1       7.197  -6.207  14.395  1.00  0.00     0.074 A 
ATOM     59  C   UNL     1       6.136  -6.510  15.335  1.00  0.00     0.031 C 
ATOM     60  C   UNL     1       8.469  -6.666  14.505  1.00  0.00     0.031 A 
BRANCH  47  61
ATOM     61  C   UNL     1      12.234  -4.722   9.997  1.00  0.00    -0.014 A 
ATOM     62  C   UNL     1      13.074  -3.592  10.004  1.00  0.00     0.010 A 
ATOM     63  C   UNL     1      12.709  -5.919   9.431  1.00  0.00     0.010 A 
ATOM     64  C   UNL     1      14.342  -3.647   9.420  1.00  0.00     0.020 A 
ATOM     65  C   UNL     1      13.989  -5.987   8.872  1.00  0.00     0.020 A 
ATOM     66  C   UNL     1      14.790  -4.843   8.854  1.00  0.00     0.054 A 
BRANCH  66  67
ATOM     67  S   UNL     1      16.449  -4.891   8.121  1.00  0.00     0.124 S 
ATOM     68  O   UNL     1      16.258  -4.121   6.895  1.00  0.00    -0.237 OA
ATOM     69  O   UNL     1      17.270  -4.248   9.144  1.00  0.00    -0.237 OA
ATOM     70  O   UNL     1      16.703  -6.316   7.928  1.00  0.00    -0.744 OA
ENDBRANCH  66  67
ENDBRANCH  47  61
BRANCH  48  71
ATOM     71  C   UNL     1       2.924  -4.396  13.604  1.00  0.00    -0.014 A 
ATOM     72  C   UNL     1       2.645  -3.755  14.825  1.00  0.00     0.010 A 
ATOM     73  C   UNL     1       1.869  -4.992  12.889  1.00  0.00     0.010 A 
ATOM     74  C   UNL     1       1.342  -3.729  15.331  1.00  0.00     0.020 A 
ATOM     75  C   UNL     1       0.560  -4.942  13.377  1.00  0.00     0.020 A 
ATOM     76  C   UNL     1       0.307  -4.321  14.602  1.00  0.00     0.054 A 
BRANCH  76  77
ATOM     77  S   UNL     1      -1.384  -4.231  15.252  1.00  0.00     0.124 S 
ATOM     78  O   UNL     1      -1.342  -5.197  16.344  1.00  0.00    -0.237 OA
ATOM     79  O   UNL     1      -1.495  -2.829  15.650  1.00  0.00    -0.237 OA
ATOM     80  O   UNL     1      -2.210  -4.612  14.108  1.00  0.00    -0.744 OA
ENDBRANCH  76  77
ENDBRANCH  48  71
BRANCH  60  81
ATOM     81  C   UNL     1       8.786  -7.520  15.706  1.00  0.00    -0.014 A 
ATOM     82  C   UNL     1       8.264  -8.819  15.840  1.00  0.00     0.010 A 
ATOM     83  C   UNL     1       9.622  -7.011  16.716  1.00  0.00     0.010 A 
ATOM     84  C   UNL     1       8.520  -9.568  16.992  1.00  0.00     0.020 A 
ATOM     85  C   UNL     1       9.908  -7.769  17.854  1.00  0.00     0.020 A 
ATOM     86  C   UNL     1       9.333  -9.034  17.996  1.00  0.00     0.054 A 
BRANCH  86  87
ATOM     87  S   UNL     1       9.646 -10.019  19.486  1.00  0.00     0.124 S 
ATOM     88  O   UNL     1       8.381  -9.890  20.205  1.00  0.00    -0.237 OA
ATOM     89  O   UNL     1       9.927 -11.345  18.943  1.00  0.00    -0.237 OA
ATOM     90  O   UNL     1      10.787  -9.352  20.109  1.00  0.00    -0.744 OA
ENDBRANCH  86  87
ENDBRANCH  60  81
ENDBRANCH  34  35
ENDBRANCH  26  29
ENDBRANCH  24  25
ENDBRANCH  23  24
ENDBRANCH   1  23
TORSDOF 18
