REMARK SMILES CC(C)C[C@@H](NC(=O)c1cccnc1)C(=O)NCCCNC(=O)c1ccc(-c2c3nc(c(-c4ccc(S(=O)(=O)[O-])cc4)c4ccc([nH]4)c(-c4ccc(S(=O)(=O)[O-])cc4)c4nc(c(-c5ccc(S(=O)(=O)[O-])cc5)c5ccc2[nH]5)C=C4)C=C3)cc1
REMARK SMILES IDX 19 1 18 2 17 3 15 4 16 5 5 7 4 8 2 9 1 10 3 11 6 12 7 13
REMARK SMILES IDX 8 15 9 16 10 17 14 18 11 19 13 20 12 21 20 22 21 23 22 24
REMARK SMILES IDX 23 26 24 27 25 28 83 29 26 30 82 31 27 32 28 33 29 34 76 35
REMARK SMILES IDX 30 36 81 37 75 38 77 39 31 40 80 41 74 42 73 43 32 45 62 46
REMARK SMILES IDX 43 47 61 48 44 49 47 50 60 51 78 52 45 53 46 54 59 56 79 57
REMARK SMILES IDX 48 58 33 59 34 60 42 61 35 62 41 63 36 64 37 65 38 66 39 67
REMARK SMILES IDX 40 68 63 69 64 70 72 71 65 72 71 73 66 74 67 75 68 76 69 77
REMARK SMILES IDX 70 78 49 79 50 80 58 81 51 82 57 83 52 84 53 85 54 86 55 87
REMARK SMILES IDX 56 88
REMARK H PARENT 17 6 6 14 21 25 77 44 47 55
REMARK Flexibility Score: inf
ROOT
ATOM      1  C   UNL     1      -3.394  -3.897   2.056  1.00  0.00     0.042 C 
ENDROOT
BRANCH   1   2
ATOM      2  C   UNL     1      -3.095  -3.443   0.642  1.00  0.00     0.117 C 
BRANCH   2   3
ATOM      3  N   UNL     1      -3.644  -2.122   0.380  1.00  0.00    -0.354 N 
ATOM      4  C   UNL     1      -3.062  -1.035  -0.197  1.00  0.00     0.242 C 
ATOM      5  O   UNL     1      -3.693   0.026  -0.216  1.00  0.00    -0.273 OA
ATOM      6  H   UNL     1      -4.578  -1.994   0.664  1.00  0.00     0.163 HD
BRANCH   4   7
ATOM      7  C   UNL     1      -1.607  -1.090  -0.698  1.00  0.00     0.171 C 
BRANCH   7   8
ATOM      8  C   UNL     1      -0.754  -0.980   0.594  1.00  0.00     0.038 C 
BRANCH   8   9
ATOM      9  C   UNL     1       0.775  -1.026   0.465  1.00  0.00    -0.015 C 
ATOM     10  C   UNL     1       1.324   0.232  -0.199  1.00  0.00     0.007 C 
ATOM     11  C   UNL     1       1.384  -1.190   1.865  1.00  0.00     0.007 C 
ENDBRANCH   8   9
ENDBRANCH   7   8
BRANCH   7  12
ATOM     12  N   UNL     1      -1.264  -2.264  -1.522  1.00  0.00    -0.340 N 
ATOM     13  C   UNL     1      -1.909  -2.829  -2.602  1.00  0.00     0.253 C 
ATOM     14  H   UNL     1      -0.434  -2.722  -1.256  1.00  0.00     0.164 HD
ATOM     15  O   UNL     1      -1.293  -3.590  -3.344  1.00  0.00    -0.269 OA
BRANCH  13  16
ATOM     16  C   UNL     1      -3.364  -2.696  -2.782  1.00  0.00     0.058 A 
ATOM     17  C   UNL     1      -4.021  -1.490  -2.999  1.00  0.00     0.017 A 
ATOM     18  C   UNL     1      -4.131  -3.848  -2.645  1.00  0.00     0.124 A 
ATOM     19  C   UNL     1      -5.416  -1.468  -2.958  1.00  0.00     0.021 A 
ATOM     20  N   UNL     1      -5.485  -3.853  -2.593  1.00  0.00    -0.264 NA
ATOM     21  C   UNL     1      -6.097  -2.657  -2.734  1.00  0.00     0.111 A 
ENDBRANCH  13  16
ENDBRANCH   7  12
ENDBRANCH   4   7
ENDBRANCH   2   3
ENDBRANCH   1   2
BRANCH   1  22
ATOM     22  C   UNL     1      -4.881  -4.081   2.315  1.00  0.00     0.118 C 
BRANCH  22  23
ATOM     23  N   UNL     1      -5.480  -5.126   1.493  1.00  0.00    -0.352 N 
ATOM     24  C   UNL     1      -6.208  -6.217   1.906  1.00  0.00     0.251 C 
ATOM     25  H   UNL     1      -5.346  -5.040   0.521  1.00  0.00     0.163 HD
ATOM     26  O   UNL     1      -6.500  -7.115   1.124  1.00  0.00    -0.269 OA
BRANCH  24  27
ATOM     27  C   UNL     1      -6.612  -6.292   3.322  1.00  0.00     0.039 A 
ATOM     28  C   UNL     1      -6.343  -7.451   4.051  1.00  0.00     0.014 A 
ATOM     29  C   UNL     1      -7.183  -5.175   3.939  1.00  0.00     0.014 A 
ATOM     30  C   UNL     1      -6.581  -7.461   5.426  1.00  0.00     0.010 A 
ATOM     31  C   UNL     1      -7.326  -5.155   5.318  1.00  0.00     0.010 A 
ATOM     32  C   UNL     1      -7.034  -6.300   6.075  1.00  0.00    -0.014 A 
BRANCH  32  33
ATOM     33  C   UNL     1      -7.226  -6.256   7.545  1.00  0.00     0.031 A 
ATOM     34  C   UNL     1      -8.596  -5.992   8.108  1.00  0.00     0.074 A 
ATOM     35  C   UNL     1      -6.162  -6.370   8.365  1.00  0.00     0.049 A 
ATOM     36  N   UNL     1      -8.957  -5.825   9.354  1.00  0.00    -0.248 NA
ATOM     37  C   UNL     1      -9.700  -5.860   7.141  1.00  0.00     0.031 C 
ATOM     38  C   UNL     1      -4.775  -6.570   7.937  1.00  0.00     0.029 A 
ATOM     39  N   UNL     1      -6.082  -6.324   9.734  1.00  0.00    -0.354 N 
ATOM     40  C   UNL     1     -10.317  -5.542   9.316  1.00  0.00     0.074 A 
ATOM     41  C   UNL     1     -10.706  -5.505   7.924  1.00  0.00     0.031 C 
ATOM     42  C   UNL     1      -3.989  -6.661   9.022  1.00  0.00     0.029 A 
ATOM     43  C   UNL     1      -4.806  -6.489  10.218  1.00  0.00     0.049 A 
ATOM     44  H   UNL     1      -6.865  -6.186  10.314  1.00  0.00     0.167 HD
ATOM     45  C   UNL     1     -11.173  -5.353  10.348  1.00  0.00     0.031 A 
ATOM     46  C   UNL     1      -4.347  -6.500  11.484  1.00  0.00     0.031 A 
ATOM     47  C   UNL     1     -10.789  -5.425  11.730  1.00  0.00     0.049 A 
ATOM     48  C   UNL     1      -5.321  -6.320  12.616  1.00  0.00     0.074 A 
ATOM     49  C   UNL     1     -11.591  -5.317  12.853  1.00  0.00     0.029 A 
ATOM     50  N   UNL     1      -9.494  -5.632  12.179  1.00  0.00    -0.354 N 
ATOM     51  N   UNL     1      -6.616  -6.115  12.562  1.00  0.00    -0.248 NA
ATOM     52  C   UNL     1      -4.775  -6.385  13.978  1.00  0.00     0.031 C 
ATOM     53  C   UNL     1     -10.772  -5.423  13.983  1.00  0.00     0.029 A 
ATOM     54  C   UNL     1      -9.470  -5.642  13.563  1.00  0.00     0.049 A 
ATOM     55  H   UNL     1      -8.707  -5.753  11.600  1.00  0.00     0.167 HD
ATOM     56  C   UNL     1      -7.043  -6.051  13.883  1.00  0.00     0.074 A 
ATOM     57  C   UNL     1      -5.871  -6.252  14.712  1.00  0.00     0.031 C 
ATOM     58  C   UNL     1      -8.293  -5.846  14.367  1.00  0.00     0.031 A 
BRANCH  45  59
ATOM     59  C   UNL     1     -12.610  -5.058  10.009  1.00  0.00    -0.014 A 
ATOM     60  C   UNL     1     -13.443  -6.048   9.458  1.00  0.00     0.010 A 
ATOM     61  C   UNL     1     -13.140  -3.780  10.262  1.00  0.00     0.010 A 
ATOM     62  C   UNL     1     -14.766  -5.753   9.121  1.00  0.00     0.020 A 
ATOM     63  C   UNL     1     -14.472  -3.489   9.953  1.00  0.00     0.020 A 
ATOM     64  C   UNL     1     -15.270  -4.473   9.365  1.00  0.00     0.054 A 
BRANCH  64  65
ATOM     65  S   UNL     1     -16.996  -4.120   8.933  1.00  0.00     0.124 S 
ATOM     66  O   UNL     1     -16.921  -3.997   7.479  1.00  0.00    -0.237 OA
ATOM     67  O   UNL     1     -17.700  -5.301   9.427  1.00  0.00    -0.237 OA
ATOM     68  O   UNL     1     -17.286  -2.881   9.649  1.00  0.00    -0.744 OA
ENDBRANCH  64  65
ENDBRANCH  45  59
BRANCH  46  69
ATOM     69  C   UNL     1      -2.899  -6.719  11.748  1.00  0.00    -0.014 A 
ATOM     70  C   UNL     1      -2.451  -7.942  12.276  1.00  0.00     0.010 A 
ATOM     71  C   UNL     1      -1.960  -5.715  11.455  1.00  0.00     0.010 A 
ATOM     72  C   UNL     1      -1.091  -8.152  12.523  1.00  0.00     0.020 A 
ATOM     73  C   UNL     1      -0.596  -5.929  11.678  1.00  0.00     0.020 A 
ATOM     74  C   UNL     1      -0.172  -7.144  12.221  1.00  0.00     0.054 A 
BRANCH  74  75
ATOM     75  S   UNL     1       1.595  -7.456  12.497  1.00  0.00     0.124 S 
ATOM     76  O   UNL     1       1.703  -7.325  13.946  1.00  0.00    -0.237 OA
ATOM     77  O   UNL     1       1.764  -8.808  11.968  1.00  0.00    -0.237 OA
ATOM     78  O   UNL     1       2.251  -6.406  11.720  1.00  0.00    -0.744 OA
ENDBRANCH  74  75
ENDBRANCH  46  69
BRANCH  58  79
ATOM     79  C   UNL     1      -8.464  -5.859  15.861  1.00  0.00    -0.014 A 
ATOM     80  C   UNL     1      -8.032  -4.780  16.651  1.00  0.00     0.010 A 
ATOM     81  C   UNL     1      -9.120  -6.943  16.473  1.00  0.00     0.010 A 
ATOM     82  C   UNL     1      -8.230  -4.797  18.034  1.00  0.00     0.020 A 
ATOM     83  C   UNL     1      -9.341  -6.952  17.851  1.00  0.00     0.020 A 
ATOM     84  C   UNL     1      -8.882  -5.884  18.625  1.00  0.00     0.054 A 
BRANCH  84  85
ATOM     85  S   UNL     1      -9.169  -5.862  20.416  1.00  0.00     0.124 S 
ATOM     86  O   UNL     1      -7.844  -6.181  20.939  1.00  0.00    -0.237 OA
ATOM     87  O   UNL     1      -9.626  -4.494  20.652  1.00  0.00    -0.237 OA
ATOM     88  O   UNL     1     -10.184  -6.894  20.616  1.00  0.00    -0.744 OA
ENDBRANCH  84  85
ENDBRANCH  58  79
ENDBRANCH  32  33
ENDBRANCH  24  27
ENDBRANCH  22  23
ENDBRANCH   1  22
TORSDOF 17
