REMARK SMILES C[C@H](NC(=O)c1cccc(NC(=O)c2ccccc2C(=O)NCCCNC(=O)c2ccc(-c3c4nc(c(-c5ccc(S(=O)(=O)[O-])cc5)c5ccc([nH]5)c(-c5ccc(S(=O)(=O)[O-])cc5)c5nc(c(-c6ccc(S(=O)(=O)[O-])cc6)c6ccc3[nH]6)C=C5)C=C4)cc2)c1)c1ccccc1
REMARK SMILES IDX 23 1 22 2 20 3 21 4 19 6 14 7 15 8 16 9 18 10 17 11 12 12
REMARK SMILES IDX 11 13 13 15 10 16 6 17 7 18 89 19 8 20 9 21 4 22 3 23 5 25
REMARK SMILES IDX 2 26 1 27 90 28 91 29 95 30 92 31 94 32 93 33 24 34 25 35
REMARK SMILES IDX 26 36 27 37 28 39 29 40 30 41 88 42 31 43 87 44 32 45 33 46
REMARK SMILES IDX 34 47 81 48 35 49 86 50 80 51 82 52 36 53 85 54 79 55 78 56
REMARK SMILES IDX 37 58 67 59 48 60 66 61 49 62 52 63 65 64 83 65 50 66 51 67
REMARK SMILES IDX 64 69 84 70 53 71 38 72 39 73 47 74 40 75 46 76 41 77 42 78
REMARK SMILES IDX 43 79 44 80 45 81 68 82 69 83 77 84 70 85 76 86 71 87 72 88
REMARK SMILES IDX 73 89 74 90 75 91 54 92 55 93 63 94 56 95 62 96 57 97 58 98
REMARK SMILES IDX 59 99 60 100 61 101
REMARK H PARENT 22 5 11 14 3 24 26 38 82 57 52 68
REMARK Flexibility Score: inf
ROOT
ATOM      1  C   UNL     1       4.046  -4.950  -2.640  1.00  0.00     0.118 C 
ENDROOT
BRANCH   1   2
ATOM      2  N   UNL     1       3.670  -4.998  -1.240  1.00  0.00    -0.352 N 
ATOM      3  C   UNL     1       4.417  -5.129  -0.104  1.00  0.00     0.252 C 
ATOM      4  O   UNL     1       3.820  -5.121   0.974  1.00  0.00    -0.269 OA
ATOM      5  H   UNL     1       2.701  -4.923  -1.079  1.00  0.00     0.163 HD
BRANCH   3   6
ATOM      6  C   UNL     1       5.879  -5.371  -0.103  1.00  0.00     0.052 A 
ATOM      7  C   UNL     1       6.854  -4.695  -0.848  1.00  0.00     0.052 A 
ATOM      8  C   UNL     1       8.200  -5.107  -0.752  1.00  0.00     0.014 A 
ATOM      9  C   UNL     1       8.588  -6.111   0.135  1.00  0.00     0.001 A 
ATOM     10  C   UNL     1       6.295  -6.359   0.817  1.00  0.00     0.014 A 
ATOM     11  C   UNL     1       7.637  -6.721   0.940  1.00  0.00     0.001 A 
BRANCH   7  12
ATOM     12  C   UNL     1       6.626  -3.576  -1.786  1.00  0.00     0.256 C 
ATOM     13  N   UNL     1       5.876  -2.460  -1.498  1.00  0.00    -0.322 N 
ATOM     14  H   UNL     1       5.703  -1.888  -2.280  1.00  0.00     0.170 HD
ATOM     15  O   UNL     1       7.101  -3.686  -2.918  1.00  0.00    -0.269 OA
BRANCH  13  16
ATOM     16  C   UNL     1       5.310  -1.977  -0.312  1.00  0.00     0.042 A 
ATOM     17  C   UNL     1       3.554  -0.677   0.717  1.00  0.00     0.041 A 
ATOM     18  C   UNL     1       4.002  -1.067   1.984  1.00  0.00     0.014 A 
ATOM     19  C   UNL     1       4.222  -1.098  -0.433  1.00  0.00     0.040 A 
ATOM     20  C   UNL     1       5.119  -1.886   2.103  1.00  0.00     0.003 A 
ATOM     21  C   UNL     1       5.779  -2.328   0.957  1.00  0.00     0.026 A 
BRANCH  17  22
ATOM     22  C   UNL     1       2.411   0.243   0.675  1.00  0.00     0.251 C 
ATOM     23  N   UNL     1       1.169  -0.142   0.258  1.00  0.00    -0.346 N 
ATOM     24  H   UNL     1       0.472   0.509   0.499  1.00  0.00     0.164 HD
ATOM     25  O   UNL     1       2.569   1.373   1.134  1.00  0.00    -0.269 OA
BRANCH  23  26
ATOM     26  C   UNL     1       0.628  -1.308  -0.468  1.00  0.00     0.109 C 
ATOM     27  C   UNL     1       1.101  -2.628   0.154  1.00  0.00     0.036 C 
BRANCH  26  28
ATOM     28  C   UNL     1      -0.913  -1.223  -0.574  1.00  0.00    -0.026 A 
ATOM     29  C   UNL     1      -1.576   0.017  -0.692  1.00  0.00     0.006 A 
ATOM     30  C   UNL     1      -1.727  -2.373  -0.611  1.00  0.00     0.006 A 
ATOM     31  C   UNL     1      -2.974   0.104  -0.727  1.00  0.00     0.000 A 
ATOM     32  C   UNL     1      -3.124  -2.288  -0.673  1.00  0.00     0.000 A 
ATOM     33  C   UNL     1      -3.749  -1.049  -0.708  1.00  0.00     0.000 A 
ENDBRANCH  26  28
ENDBRANCH  23  26
ENDBRANCH  17  22
ENDBRANCH  13  16
ENDBRANCH   7  12
ENDBRANCH   3   6
ENDBRANCH   1   2
BRANCH   1  34
ATOM     34  C   UNL     1       2.914  -5.324  -3.583  1.00  0.00     0.042 C 
BRANCH  34  35
ATOM     35  C   UNL     1       1.661  -4.464  -3.442  1.00  0.00     0.118 C 
BRANCH  35  36
ATOM     36  N   UNL     1       1.869  -3.042  -3.697  1.00  0.00    -0.352 N 
ATOM     37  C   UNL     1       1.525  -2.248  -4.769  1.00  0.00     0.251 C 
ATOM     38  H   UNL     1       2.338  -2.565  -2.975  1.00  0.00     0.163 HD
ATOM     39  O   UNL     1       1.891  -1.074  -4.787  1.00  0.00    -0.269 OA
BRANCH  37  40
ATOM     40  C   UNL     1       0.785  -2.817  -5.917  1.00  0.00     0.039 A 
ATOM     41  C   UNL     1       1.217  -2.534  -7.216  1.00  0.00     0.014 A 
ATOM     42  C   UNL     1      -0.290  -3.679  -5.720  1.00  0.00     0.014 A 
ATOM     43  C   UNL     1       0.670  -3.233  -8.297  1.00  0.00     0.010 A 
ATOM     44  C   UNL     1      -0.743  -4.463  -6.775  1.00  0.00     0.010 A 
ATOM     45  C   UNL     1      -0.253  -4.267  -8.075  1.00  0.00    -0.014 A 
BRANCH  45  46
ATOM     46  C   UNL     1      -0.693  -5.192  -9.158  1.00  0.00     0.031 A 
ATOM     47  C   UNL     1      -2.161  -5.379  -9.442  1.00  0.00     0.074 A 
ATOM     48  C   UNL     1       0.214  -5.965  -9.791  1.00  0.00     0.049 A 
ATOM     49  N   UNL     1      -2.750  -6.275 -10.192  1.00  0.00    -0.248 NA
ATOM     50  C   UNL     1      -3.092  -4.469  -8.753  1.00  0.00     0.031 C 
ATOM     51  C   UNL     1       1.664  -5.933  -9.576  1.00  0.00     0.029 A 
ATOM     52  N   UNL     1       0.049  -6.951 -10.735  1.00  0.00    -0.354 N 
ATOM     53  C   UNL     1      -4.115  -6.068 -10.027  1.00  0.00     0.074 A 
ATOM     54  C   UNL     1      -4.266  -4.992  -9.073  1.00  0.00     0.031 C 
ATOM     55  C   UNL     1       2.253  -6.831 -10.381  1.00  0.00     0.029 A 
ATOM     56  C   UNL     1       1.226  -7.546 -11.128  1.00  0.00     0.049 A 
ATOM     57  H   UNL     1      -0.831  -7.207 -11.096  1.00  0.00     0.167 HD
ATOM     58  C   UNL     1      -5.150  -6.703 -10.627  1.00  0.00     0.031 A 
ATOM     59  C   UNL     1       1.457  -8.566 -11.978  1.00  0.00     0.031 A 
ATOM     60  C   UNL     1      -4.998  -7.737 -11.614  1.00  0.00     0.049 A 
ATOM     61  C   UNL     1       0.295  -9.240 -12.651  1.00  0.00     0.074 A 
ATOM     62  C   UNL     1      -5.981  -8.374 -12.350  1.00  0.00     0.029 A 
ATOM     63  N   UNL     1      -3.786  -8.282 -12.008  1.00  0.00    -0.354 N 
ATOM     64  N   UNL     1      -0.986  -8.985 -12.528  1.00  0.00    -0.248 NA
ATOM     65  C   UNL     1       0.607 -10.341 -13.573  1.00  0.00     0.031 C 
ATOM     66  C   UNL     1      -5.366  -9.335 -13.160  1.00  0.00     0.029 A 
ATOM     67  C   UNL     1      -3.997  -9.266 -12.958  1.00  0.00     0.049 A 
ATOM     68  H   UNL     1      -2.905  -8.010 -11.662  1.00  0.00     0.167 HD
ATOM     69  C   UNL     1      -1.631  -9.888 -13.364  1.00  0.00     0.074 A 
ATOM     70  C   UNL     1      -0.601 -10.680 -14.004  1.00  0.00     0.031 C 
ATOM     71  C   UNL     1      -2.960 -10.049 -13.579  1.00  0.00     0.031 A 
BRANCH  58  72
ATOM     72  C   UNL     1      -6.542  -6.289 -10.230  1.00  0.00    -0.014 A 
ATOM     73  C   UNL     1      -7.061  -5.034 -10.599  1.00  0.00     0.010 A 
ATOM     74  C   UNL     1      -7.352  -7.175  -9.497  1.00  0.00     0.010 A 
ATOM     75  C   UNL     1      -8.342  -4.651 -10.195  1.00  0.00     0.020 A 
ATOM     76  C   UNL     1      -8.646  -6.807  -9.115  1.00  0.00     0.020 A 
ATOM     77  C   UNL     1      -9.124  -5.538  -9.449  1.00  0.00     0.054 A 
BRANCH  77  78
ATOM     78  S   UNL     1     -10.786  -5.018  -8.942  1.00  0.00     0.124 S 
ATOM     79  O   UNL     1     -10.490  -4.091  -7.851  1.00  0.00    -0.237 OA
ATOM     80  O   UNL     1     -11.316  -4.406 -10.158  1.00  0.00    -0.237 OA
ATOM     81  O   UNL     1     -11.433  -6.265  -8.542  1.00  0.00    -0.744 OA
ENDBRANCH  77  78
ENDBRANCH  58  72
BRANCH  59  82
ATOM     82  C   UNL     1       2.853  -9.013 -12.239  1.00  0.00    -0.014 A 
ATOM     83  C   UNL     1       3.471  -8.724 -13.468  1.00  0.00     0.010 A 
ATOM     84  C   UNL     1       3.579  -9.710 -11.255  1.00  0.00     0.010 A 
ATOM     85  C   UNL     1       4.785  -9.131 -13.714  1.00  0.00     0.020 A 
ATOM     86  C   UNL     1       4.902 -10.098 -11.489  1.00  0.00     0.020 A 
ATOM     87  C   UNL     1       5.494  -9.814 -12.721  1.00  0.00     0.054 A 
BRANCH  87  88
ATOM     88  S   UNL     1       7.219 -10.279 -13.039  1.00  0.00     0.124 S 
ATOM     89  O   UNL     1       7.066 -11.420 -13.935  1.00  0.00    -0.237 OA
ATOM     90  O   UNL     1       7.768  -9.068 -13.644  1.00  0.00    -0.237 OA
ATOM     91  O   UNL     1       7.738 -10.591 -11.709  1.00  0.00    -0.744 OA
ENDBRANCH  87  88
ENDBRANCH  59  82
BRANCH  71  92
ATOM     92  C   UNL     1      -3.380 -11.119 -14.549  1.00  0.00    -0.014 A 
ATOM     93  C   UNL     1      -3.339 -12.476 -14.184  1.00  0.00     0.010 A 
ATOM     94  C   UNL     1      -3.891 -10.758 -15.809  1.00  0.00     0.010 A 
ATOM     95  C   UNL     1      -3.790 -13.457 -15.070  1.00  0.00     0.020 A 
ATOM     96  C   UNL     1      -4.363 -11.735 -16.688  1.00  0.00     0.020 A 
ATOM     97  C   UNL     1      -4.302 -13.080 -16.316  1.00  0.00     0.054 A 
BRANCH  97  98
ATOM     98  S   UNL     1      -4.944 -14.368 -17.421  1.00  0.00     0.124 S 
ATOM     99  O   UNL     1      -3.716 -14.980 -17.920  1.00  0.00    -0.237 OA
ATOM    100  O   UNL     1      -5.739 -15.198 -16.519  1.00  0.00    -0.237 OA
ATOM    101  O   UNL     1      -5.715 -13.620 -18.412  1.00  0.00    -0.744 OA
ENDBRANCH  97  98
ENDBRANCH  71  92
ENDBRANCH  45  46
ENDBRANCH  37  40
ENDBRANCH  35  36
ENDBRANCH  34  35
ENDBRANCH   1  34
TORSDOF 18
