REMARK SMILES Cc1ccsc1CNC(=O)N[C@@H]1CCCC[C@H]1C(=O)NCCCNC(=O)c1ccc(-c2c3nc(c(-c4ccc(S(=O)(=O)[O-])cc4)c4ccc([nH]4)c(-c4ccc(S(=O)(=O)[O-])cc4)c4nc(c(-c5ccc(S(=O)(=O)[O-])cc5)c5ccc2[nH]5)C=C4)C=C3)cc1
REMARK SMILES IDX 22 1 21 2 20 3 18 4 19 5 17 7 12 8 13 9 14 10 16 11 15 12
REMARK SMILES IDX 11 13 8 14 9 15 10 17 7 19 6 20 1 21 2 22 3 23 4 24 5 25
REMARK SMILES IDX 23 26 24 27 25 28 26 30 27 31 28 32 86 33 29 34 85 35 30 36
REMARK SMILES IDX 31 37 32 38 79 39 33 40 84 41 78 42 80 43 34 44 83 45 77 46
REMARK SMILES IDX 76 47 35 49 65 50 46 51 64 52 47 53 50 54 63 55 81 56 48 57
REMARK SMILES IDX 49 58 62 60 82 61 51 62 36 63 37 64 45 65 38 66 44 67 39 68
REMARK SMILES IDX 40 69 41 70 42 71 43 72 66 73 67 74 75 75 68 76 74 77 69 78
REMARK SMILES IDX 70 79 71 80 72 81 73 82 52 83 53 84 61 85 54 86 60 87 55 88
REMARK SMILES IDX 56 89 57 90 58 91 59 92
REMARK H PARENT 20 6 8 16 11 18 24 29 80 48 50 59
REMARK Flexibility Score: inf
ROOT
ATOM      1  C   UNL     1      -3.760  -4.528  -4.042  1.00  0.00     0.042 C 
ENDROOT
BRANCH   1   2
ATOM      2  C   UNL     1      -2.983  -3.223  -4.007  1.00  0.00     0.117 C 
BRANCH   2   3
ATOM      3  N   UNL     1      -3.328  -2.439  -2.838  1.00  0.00    -0.356 N 
ATOM      4  C   UNL     1      -2.618  -2.138  -1.724  1.00  0.00     0.225 C 
ATOM      5  O   UNL     1      -3.222  -1.562  -0.816  1.00  0.00    -0.275 OA
ATOM      6  H   UNL     1      -4.236  -2.058  -2.856  1.00  0.00     0.163 HD
BRANCH   4   7
ATOM      7  C   UNL     1      -1.131  -2.451  -1.616  1.00  0.00     0.101 C 
ATOM      8  C   UNL     1      -0.843  -3.949  -1.411  1.00  0.00     0.096 C 
ATOM      9  C   UNL     1       0.522  -4.470  -1.878  1.00  0.00     0.026 C 
ATOM     10  C   UNL     1       1.038  -3.773  -3.128  1.00  0.00     0.002 C 
ATOM     11  C   UNL     1      -0.342  -1.716  -2.710  1.00  0.00     0.015 C 
ATOM     12  C   UNL     1       1.055  -2.265  -2.946  1.00  0.00     0.001 C 
BRANCH   8  13
ATOM     13  N   UNL     1      -1.145  -4.437  -0.054  1.00  0.00    -0.335 N 
ATOM     14  N   UNL     1      -0.129  -3.083   1.619  1.00  0.00    -0.333 N 
ATOM     15  C   UNL     1      -0.925  -4.069   1.211  1.00  0.00     0.315 C 
ATOM     16  H   UNL     1      -0.325  -2.806   2.543  1.00  0.00     0.165 HD
ATOM     17  O   UNL     1      -1.524  -4.702   2.086  1.00  0.00    -0.249 OA
ATOM     18  H   UNL     1      -1.657  -5.277  -0.090  1.00  0.00     0.165 HD
BRANCH  14  19
ATOM     19  C   UNL     1       0.951  -2.321   1.040  1.00  0.00     0.164 C 
BRANCH  19  20
ATOM     20  C   UNL     1       0.675  -0.839   0.925  1.00  0.00     0.027 A 
ATOM     21  C   UNL     1       2.941  -0.098  -0.035  1.00  0.00     0.045 C 
ATOM     22  C   UNL     1       1.522   0.124   0.380  1.00  0.00    -0.035 A 
ATOM     23  C   UNL     1       0.848   1.379   0.217  1.00  0.00     0.015 A 
ATOM     24  C   UNL     1      -0.441   1.354   0.692  1.00  0.00     0.065 A 
ATOM     25  S   UNL     1      -0.809  -0.134   1.435  1.00  0.00    -0.147 S 
ENDBRANCH  19  20
ENDBRANCH  14  19
ENDBRANCH   8  13
ENDBRANCH   4   7
ENDBRANCH   2   3
ENDBRANCH   1   2
BRANCH   1  26
ATOM     26  C   UNL     1      -5.266  -4.330  -3.975  1.00  0.00     0.118 C 
BRANCH  26  27
ATOM     27  N   UNL     1      -5.761  -3.495  -5.062  1.00  0.00    -0.352 N 
ATOM     28  C   UNL     1      -6.530  -3.842  -6.146  1.00  0.00     0.251 C 
ATOM     29  H   UNL     1      -5.506  -2.546  -5.013  1.00  0.00     0.163 HD
ATOM     30  O   UNL     1      -6.637  -3.076  -7.095  1.00  0.00    -0.269 OA
BRANCH  28  31
ATOM     31  C   UNL     1      -7.206  -5.155  -6.155  1.00  0.00     0.039 A 
ATOM     32  C   UNL     1      -7.184  -5.928  -7.316  1.00  0.00     0.014 A 
ATOM     33  C   UNL     1      -7.839  -5.625  -5.002  1.00  0.00     0.014 A 
ATOM     34  C   UNL     1      -7.743  -7.206  -7.297  1.00  0.00     0.010 A 
ATOM     35  C   UNL     1      -8.293  -6.935  -4.953  1.00  0.00     0.010 A 
ATOM     36  C   UNL     1      -8.266  -7.734  -6.104  1.00  0.00    -0.014 A 
BRANCH  36  37
ATOM     37  C   UNL     1      -8.810  -9.112  -6.040  1.00  0.00     0.031 A 
ATOM     38  C   UNL     1     -10.255  -9.329  -5.678  1.00  0.00     0.074 A 
ATOM     39  C   UNL     1      -7.992 -10.163  -6.243  1.00  0.00     0.049 A 
ATOM     40  N   UNL     1     -10.904 -10.453  -5.518  1.00  0.00    -0.248 NA
ATOM     41  C   UNL     1     -11.072  -8.127  -5.436  1.00  0.00     0.031 C 
ATOM     42  C   UNL     1      -6.562 -10.079  -6.553  1.00  0.00     0.029 A 
ATOM     43  N   UNL     1      -8.244 -11.511  -6.216  1.00  0.00    -0.354 N 
ATOM     44  C   UNL     1     -12.193 -10.094  -5.142  1.00  0.00     0.074 A 
ATOM     45  C   UNL     1     -12.219  -8.653  -5.035  1.00  0.00     0.031 C 
ATOM     46  C   UNL     1      -6.075 -11.318  -6.725  1.00  0.00     0.029 A 
ATOM     47  C   UNL     1      -7.142 -12.285  -6.491  1.00  0.00     0.049 A 
ATOM     48  H   UNL     1      -9.132 -11.889  -6.020  1.00  0.00     0.167 HD
ATOM     49  C   UNL     1     -13.267 -10.890  -4.929  1.00  0.00     0.031 A 
ATOM     50  C   UNL     1      -7.004 -13.624  -6.542  1.00  0.00     0.031 A 
ATOM     51  C   UNL     1     -13.236 -12.323  -5.047  1.00  0.00     0.049 A 
ATOM     52  C   UNL     1      -8.207 -14.489  -6.284  1.00  0.00     0.074 A 
ATOM     53  C   UNL     1     -14.279 -13.220  -4.908  1.00  0.00     0.029 A 
ATOM     54  N   UNL     1     -12.100 -13.069  -5.329  1.00  0.00    -0.354 N 
ATOM     55  N   UNL     1      -9.436 -14.128  -6.001  1.00  0.00    -0.248 NA
ATOM     56  C   UNL     1      -8.008 -15.942  -6.364  1.00  0.00     0.031 C 
ATOM     57  C   UNL     1     -13.763 -14.512  -5.044  1.00  0.00     0.029 A 
ATOM     58  C   UNL     1     -12.412 -14.417  -5.339  1.00  0.00     0.049 A 
ATOM     59  H   UNL     1     -11.205 -12.694  -5.497  1.00  0.00     0.167 HD
ATOM     60  C   UNL     1     -10.163 -15.309  -5.897  1.00  0.00     0.074 A 
ATOM     61  C   UNL     1      -9.239 -16.392  -6.166  1.00  0.00     0.031 C 
ATOM     62  C   UNL     1     -11.477 -15.482  -5.606  1.00  0.00     0.031 A 
BRANCH  49  63
ATOM     63  C   UNL     1     -14.563 -10.225  -4.543  1.00  0.00    -0.014 A 
ATOM     64  C   UNL     1     -15.265  -9.414  -5.455  1.00  0.00     0.010 A 
ATOM     65  C   UNL     1     -15.106 -10.440  -3.264  1.00  0.00     0.010 A 
ATOM     66  C   UNL     1     -16.461  -8.796  -5.079  1.00  0.00     0.020 A 
ATOM     67  C   UNL     1     -16.319  -9.850  -2.895  1.00  0.00     0.020 A 
ATOM     68  C   UNL     1     -16.980  -9.018  -3.800  1.00  0.00     0.054 A 
BRANCH  68  69
ATOM     69  S   UNL     1     -18.547  -8.224  -3.351  1.00  0.00     0.124 S 
ATOM     70  O   UNL     1     -18.151  -6.823  -3.232  1.00  0.00    -0.237 OA
ATOM     71  O   UNL     1     -19.403  -8.540  -4.492  1.00  0.00    -0.237 OA
ATOM     72  O   UNL     1     -18.920  -8.874  -2.097  1.00  0.00    -0.744 OA
ENDBRANCH  68  69
ENDBRANCH  49  63
BRANCH  50  73
ATOM     73  C   UNL     1      -5.680 -14.225  -6.865  1.00  0.00    -0.014 A 
ATOM     74  C   UNL     1      -5.477 -14.894  -8.085  1.00  0.00     0.010 A 
ATOM     75  C   UNL     1      -4.609 -14.120  -5.958  1.00  0.00     0.010 A 
ATOM     76  C   UNL     1      -4.235 -15.463  -8.384  1.00  0.00     0.020 A 
ATOM     77  C   UNL     1      -3.357 -14.660  -6.267  1.00  0.00     0.020 A 
ATOM     78  C   UNL     1      -3.182 -15.339  -7.474  1.00  0.00     0.054 A 
BRANCH  78  79
ATOM     79  S   UNL     1      -1.565 -16.041  -7.907  1.00  0.00     0.124 S 
ATOM     80  O   UNL     1      -1.816 -17.474  -7.794  1.00  0.00    -0.237 OA
ATOM     81  O   UNL     1      -1.358 -15.539  -9.263  1.00  0.00    -0.237 OA
ATOM     82  O   UNL     1      -0.668 -15.480  -6.900  1.00  0.00    -0.744 OA
ENDBRANCH  78  79
ENDBRANCH  50  73
BRANCH  62  83
ATOM     83  C   UNL     1     -12.005 -16.892  -5.597  1.00  0.00    -0.014 A 
ATOM     84  C   UNL     1     -11.651 -17.799  -4.582  1.00  0.00     0.010 A 
ATOM     85  C   UNL     1     -12.915 -17.296  -6.591  1.00  0.00     0.010 A 
ATOM     86  C   UNL     1     -12.174 -19.095  -4.581  1.00  0.00     0.020 A 
ATOM     87  C   UNL     1     -13.465 -18.580  -6.574  1.00  0.00     0.020 A 
ATOM     88  C   UNL     1     -13.079 -19.476  -5.577  1.00  0.00     0.054 A 
BRANCH  88  89
ATOM     89  S   UNL     1     -13.776 -21.149  -5.526  1.00  0.00     0.124 S 
ATOM     90  O   UNL     1     -12.631 -21.967  -5.917  1.00  0.00    -0.237 OA
ATOM     91  O   UNL     1     -14.194 -21.279  -4.133  1.00  0.00    -0.237 OA
ATOM     92  O   UNL     1     -14.867 -21.101  -6.497  1.00  0.00    -0.744 OA
ENDBRANCH  88  89
ENDBRANCH  62  83
ENDBRANCH  36  37
ENDBRANCH  28  31
ENDBRANCH  26  27
ENDBRANCH   1  26
TORSDOF 16
