REMARK SMILES C[C@@H](C(=O)NCCCNC(=O)c1ccc(-c2c3nc(c(-c4ccc(S(=O)(=O)[O-])cc4)c4ccc([nH]4)c(-c4ccc(S(=O)(=O)[O-])cc4)c4nc(c(-c5ccc(S(=O)(=O)[O-])cc5)c5ccc2[nH]5)C=C4)C=C3)cc1)[C@@H](C)C(=O)c1cccc(Cl)c1
REMARK SMILES IDX 7 1 6 2 5 3 3 4 4 5 2 7 1 8 72 9 73 10 74 11 75 12 76 13
REMARK SMILES IDX 77 14 82 15 78 16 80 17 79 18 81 19 8 20 9 21 10 22 11 24
REMARK SMILES IDX 12 25 13 26 71 27 14 28 70 29 15 30 16 31 17 32 64 33 18 34
REMARK SMILES IDX 69 35 63 36 65 37 19 38 68 39 62 40 61 41 20 43 50 44 31 45
REMARK SMILES IDX 49 46 32 47 35 48 48 49 66 50 33 51 34 52 47 54 67 55 36 56
REMARK SMILES IDX 21 57 22 58 30 59 23 60 29 61 24 62 25 63 26 64 27 65 28 66
REMARK SMILES IDX 51 67 52 68 60 69 53 70 59 71 54 72 55 73 56 74 57 75 58 76
REMARK SMILES IDX 37 77 38 78 46 79 39 80 45 81 40 82 41 83 42 84 43 85 44 86
REMARK H PARENT 5 6 9 23 65 42 35 53
REMARK Flexibility Score: inf
ROOT
ATOM      1  C   UNL     1       4.320   1.096  -0.611  1.00  0.00     0.042 C 
ENDROOT
BRANCH   1   2
ATOM      2  C   UNL     1       3.405   1.765   0.411  1.00  0.00     0.117 C 
BRANCH   2   3
ATOM      3  N   UNL     1       2.316   2.486  -0.226  1.00  0.00    -0.356 N 
ATOM      4  C   UNL     1       0.991   2.192  -0.326  1.00  0.00     0.223 C 
ATOM      5  O   UNL     1       0.296   2.937  -1.014  1.00  0.00    -0.275 OA
ATOM      6  H   UNL     1       2.581   3.330  -0.658  1.00  0.00     0.163 HD
BRANCH   4   7
ATOM      7  C   UNL     1       0.412   0.986   0.411  1.00  0.00     0.086 C 
ATOM      8  C   UNL     1       0.698  -0.280  -0.405  1.00  0.00     0.019 C 
BRANCH   7   9
ATOM      9  C   UNL     1      -1.103   1.170   0.667  1.00  0.00     0.070 C 
ATOM     10  C   UNL     1      -1.698   0.065   1.544  1.00  0.00     0.017 C 
BRANCH   9  11
ATOM     11  C   UNL     1      -1.575   2.528   1.219  1.00  0.00     0.166 C 
ATOM     12  O   UNL     1      -2.485   3.144   0.659  1.00  0.00    -0.294 OA
BRANCH  11  13
ATOM     13  C   UNL     1      -1.133   3.045   2.550  1.00  0.00     0.019 A 
ATOM     14  C   UNL     1      -2.119   3.627   3.365  1.00  0.00     0.012 A 
ATOM     15  C   UNL     1       0.186   3.018   3.003  1.00  0.00     0.032 A 
ATOM     16  C   UNL     1      -1.798   4.142   4.623  1.00  0.00     0.002 A 
ATOM     17  C   UNL     1       0.500   3.527   4.265  1.00  0.00     0.041 A 
ATOM     18  C   UNL     1      -0.484   4.084   5.078  1.00  0.00     0.020 A 
ATOM     19  Cl  UNL     1       2.131   3.475   4.816  1.00  0.00    -0.084 Cl
ENDBRANCH  11  13
ENDBRANCH   9  11
ENDBRANCH   7   9
ENDBRANCH   4   7
ENDBRANCH   2   3
ENDBRANCH   1   2
BRANCH   1  20
ATOM     20  C   UNL     1       5.026   2.064  -1.558  1.00  0.00     0.118 C 
BRANCH  20  21
ATOM     21  N   UNL     1       5.989   2.919  -0.877  1.00  0.00    -0.352 N 
ATOM     22  C   UNL     1       7.354   2.997  -1.015  1.00  0.00     0.251 C 
ATOM     23  H   UNL     1       5.601   3.537  -0.216  1.00  0.00     0.163 HD
ATOM     24  O   UNL     1       8.005   3.663  -0.214  1.00  0.00    -0.269 OA
BRANCH  22  25
ATOM     25  C   UNL     1       8.045   2.260  -2.097  1.00  0.00     0.039 A 
ATOM     26  C   UNL     1       9.201   1.538  -1.789  1.00  0.00     0.014 A 
ATOM     27  C   UNL     1       7.562   2.277  -3.409  1.00  0.00     0.014 A 
ATOM     28  C   UNL     1       9.814   0.754  -2.770  1.00  0.00     0.010 A 
ATOM     29  C   UNL     1       8.134   1.444  -4.369  1.00  0.00     0.010 A 
ATOM     30  C   UNL     1       9.253   0.656  -4.054  1.00  0.00    -0.014 A 
BRANCH  30  31
ATOM     31  C   UNL     1       9.771  -0.316  -5.054  1.00  0.00     0.031 A 
ATOM     32  C   UNL     1      10.351   0.159  -6.358  1.00  0.00     0.074 A 
ATOM     33  C   UNL     1       9.623  -1.637  -4.821  1.00  0.00     0.049 A 
ATOM     34  N   UNL     1      10.749  -0.547  -7.385  1.00  0.00    -0.248 NA
ATOM     35  C   UNL     1      10.486   1.614  -6.543  1.00  0.00     0.031 C 
ATOM     36  C   UNL     1       9.039  -2.225  -3.611  1.00  0.00     0.029 A 
ATOM     37  N   UNL     1       9.929  -2.728  -5.599  1.00  0.00    -0.354 N 
ATOM     38  C   UNL     1      11.156   0.371  -8.345  1.00  0.00     0.074 A 
ATOM     39  C   UNL     1      10.938   1.689  -7.788  1.00  0.00     0.031 C 
ATOM     40  C   UNL     1       9.036  -3.562  -3.726  1.00  0.00     0.029 A 
ATOM     41  C   UNL     1       9.566  -3.930  -5.035  1.00  0.00     0.049 A 
ATOM     42  H   UNL     1      10.367  -2.656  -6.478  1.00  0.00     0.167 HD
ATOM     43  C   UNL     1      11.669   0.135  -9.576  1.00  0.00     0.031 A 
ATOM     44  C   UNL     1       9.620  -5.185  -5.523  1.00  0.00     0.031 A 
ATOM     45  C   UNL     1      11.902  -1.179 -10.117  1.00  0.00     0.049 A 
ATOM     46  C   UNL     1      10.167  -5.411  -6.907  1.00  0.00     0.074 A 
ATOM     47  C   UNL     1      12.506  -1.514 -11.317  1.00  0.00     0.029 A 
ATOM     48  N   UNL     1      11.531  -2.367  -9.510  1.00  0.00    -0.354 N 
ATOM     49  N   UNL     1      10.650  -4.533  -7.753  1.00  0.00    -0.248 NA
ATOM     50  C   UNL     1      10.175  -6.794  -7.404  1.00  0.00     0.031 C 
ATOM     51  C   UNL     1      12.433  -2.901 -11.469  1.00  0.00     0.029 A 
ATOM     52  C   UNL     1      11.844  -3.435 -10.335  1.00  0.00     0.049 A 
ATOM     53  H   UNL     1      11.107  -2.442  -8.624  1.00  0.00     0.167 HD
ATOM     54  C   UNL     1      11.035  -5.261  -8.873  1.00  0.00     0.074 A 
ATOM     55  C   UNL     1      10.755  -6.652  -8.588  1.00  0.00     0.031 C 
ATOM     56  C   UNL     1      11.565  -4.816 -10.038  1.00  0.00     0.031 A 
BRANCH  43  57
ATOM     57  C   UNL     1      12.008   1.313 -10.450  1.00  0.00    -0.014 A 
ATOM     58  C   UNL     1      13.132   2.115 -10.189  1.00  0.00     0.010 A 
ATOM     59  C   UNL     1      11.258   1.545 -11.618  1.00  0.00     0.010 A 
ATOM     60  C   UNL     1      13.494   3.133 -11.076  1.00  0.00     0.020 A 
ATOM     61  C   UNL     1      11.630   2.545 -12.520  1.00  0.00     0.020 A 
ATOM     62  C   UNL     1      12.745   3.337 -12.240  1.00  0.00     0.054 A 
BRANCH  62  63
ATOM     63  S   UNL     1      13.287   4.614 -13.410  1.00  0.00     0.124 S 
ATOM     64  O   UNL     1      12.979   5.841 -12.680  1.00  0.00    -0.237 OA
ATOM     65  O   UNL     1      14.708   4.318 -13.568  1.00  0.00    -0.237 OA
ATOM     66  O   UNL     1      12.466   4.372 -14.594  1.00  0.00    -0.744 OA
ENDBRANCH  62  63
ENDBRANCH  43  57
BRANCH  44  67
ATOM     67  C   UNL     1       9.102  -6.330  -4.721  1.00  0.00    -0.014 A 
ATOM     68  C   UNL     1       9.970  -7.331  -4.251  1.00  0.00     0.010 A 
ATOM     69  C   UNL     1       7.724  -6.442  -4.455  1.00  0.00     0.010 A 
ATOM     70  C   UNL     1       9.466  -8.443  -3.568  1.00  0.00     0.020 A 
ATOM     71  C   UNL     1       7.221  -7.533  -3.743  1.00  0.00     0.020 A 
ATOM     72  C   UNL     1       8.093  -8.538  -3.322  1.00  0.00     0.054 A 
BRANCH  72  73
ATOM     73  S   UNL     1       7.460  -9.984  -2.428  1.00  0.00     0.124 S 
ATOM     74  O   UNL     1       7.557 -11.031  -3.439  1.00  0.00    -0.237 OA
ATOM     75  O   UNL     1       8.391 -10.095  -1.308  1.00  0.00    -0.237 OA
ATOM     76  O   UNL     1       6.101  -9.590  -2.061  1.00  0.00    -0.744 OA
ENDBRANCH  72  73
ENDBRANCH  44  67
BRANCH  56  77
ATOM     77  C   UNL     1      11.897  -5.838 -11.092  1.00  0.00    -0.014 A 
ATOM     78  C   UNL     1      10.881  -6.477 -11.825  1.00  0.00     0.010 A 
ATOM     79  C   UNL     1      13.242  -6.102 -11.410  1.00  0.00     0.010 A 
ATOM     80  C   UNL     1      11.204  -7.372 -12.848  1.00  0.00     0.020 A 
ATOM     81  C   UNL     1      13.569  -6.973 -12.452  1.00  0.00     0.020 A 
ATOM     82  C   UNL     1      12.547  -7.608 -13.160  1.00  0.00     0.054 A 
BRANCH  82  83
ATOM     83  S   UNL     1      12.936  -8.716 -14.542  1.00  0.00     0.124 S 
ATOM     84  O   UNL     1      12.578 -10.022 -13.996  1.00  0.00    -0.237 OA
ATOM     85  O   UNL     1      12.065  -8.219 -15.604  1.00  0.00    -0.237 OA
ATOM     86  O   UNL     1      14.365  -8.505 -14.765  1.00  0.00    -0.744 OA
ENDBRANCH  82  83
ENDBRANCH  56  77
ENDBRANCH  30  31
ENDBRANCH  22  25
ENDBRANCH  20  21
ENDBRANCH   1  20
TORSDOF 16
