REMARK SMILES O=C(CCC(=O)N1CCc2[nH]c3ccc(F)cc3c2C1)NCCCNC(=O)c1ccc(-c2c3nc(c(-c4ccc(S(=O)(=O)[O-])cc4)c4ccc([nH]4)c(-c4ccc(S(=O)(=O)[O-])cc4)c4nc(c(-c5ccc(S(=O)(=O)[O-])cc5)c5ccc2[nH]5)C=C4)C=C3)cc1
REMARK SMILES IDX 23 1 22 2 21 3 1 4 2 5 3 7 4 8 5 9 6 10 7 11 8 12 20 13 9 14
REMARK SMILES IDX 19 15 10 16 18 17 11 18 12 19 17 20 13 22 15 23 14 24 16 25
REMARK SMILES IDX 24 26 25 27 26 28 27 30 28 31 29 32 87 33 30 34 86 35 31 36
REMARK SMILES IDX 32 37 33 38 80 39 34 40 85 41 79 42 81 43 35 44 84 45 78 46
REMARK SMILES IDX 77 47 36 49 66 50 47 51 65 52 48 53 51 54 64 55 82 56 49 57
REMARK SMILES IDX 50 58 63 60 83 61 52 62 37 63 38 64 46 65 39 66 45 67 40 68
REMARK SMILES IDX 41 69 42 70 43 71 44 72 67 73 68 74 76 75 69 76 75 77 70 78
REMARK SMILES IDX 71 79 72 80 73 81 74 82 53 83 54 84 62 85 55 86 61 87 56 88
REMARK SMILES IDX 57 89 58 90 59 91 60 92
REMARK H PARENT 21 6 11 21 25 29 81 48 51 59
REMARK Flexibility Score: inf
ROOT
ATOM      1  C   UNL     1       1.979   3.520  -0.742  1.00  0.00     0.042 C 
ENDROOT
BRANCH   1   2
ATOM      2  C   UNL     1       1.412   2.175  -1.241  1.00  0.00     0.117 C 
BRANCH   2   3
ATOM      3  N   UNL     1       2.001   0.923  -0.755  1.00  0.00    -0.356 N 
ATOM      4  O   UNL     1       1.932   1.275   1.484  1.00  0.00    -0.275 OA
ATOM      5  C   UNL     1       2.335   0.605   0.535  1.00  0.00     0.220 C 
ATOM      6  H   UNL     1       2.177   0.232  -1.433  1.00  0.00     0.163 HD
BRANCH   5   7
ATOM      7  C   UNL     1       3.368  -0.542   0.773  1.00  0.00     0.110 C 
BRANCH   7   8
ATOM      8  C   UNL     1       3.633  -1.685  -0.235  1.00  0.00     0.110 C 
BRANCH   8   9
ATOM      9  C   UNL     1       4.973  -1.793  -1.069  1.00  0.00     0.223 C 
ATOM     10  O   UNL     1       5.745  -2.736  -0.886  1.00  0.00    -0.275 OA
BRANCH   9  11
ATOM     11  N   UNL     1       5.158  -0.892  -2.114  1.00  0.00    -0.338 N 
ATOM     12  C   UNL     1       4.372   0.300  -2.070  1.00  0.00     0.126 C 
ATOM     13  C   UNL     1       5.963  -1.200  -3.356  1.00  0.00     0.157 C 
ATOM     14  C   UNL     1       4.829   1.495  -2.832  1.00  0.00     0.075 C 
ATOM     15  C   UNL     1       5.728  -0.162  -4.454  1.00  0.00     0.000 A 
ATOM     16  C   UNL     1       5.164   1.052  -4.161  1.00  0.00     0.023 A 
ATOM     17  C   UNL     1       6.020  -0.062  -5.862  1.00  0.00     0.008 A 
ATOM     18  N   UNL     1       4.881   1.765  -5.267  1.00  0.00    -0.358 N 
ATOM     19  C   UNL     1       5.480   1.155  -6.327  1.00  0.00     0.046 A 
ATOM     20  C   UNL     1       6.703  -0.848  -6.806  1.00  0.00     0.050 A 
ATOM     21  H   UNL     1       4.336   2.584  -5.303  1.00  0.00     0.166 HD
ATOM     22  C   UNL     1       5.575   1.628  -7.636  1.00  0.00     0.030 A 
ATOM     23  C   UNL     1       6.840  -0.361  -8.115  1.00  0.00     0.123 A 
ATOM     24  C   UNL     1       6.293   0.848  -8.530  1.00  0.00     0.041 A 
ATOM     25  F   UNL     1       7.539  -1.082  -9.003  1.00  0.00    -0.207 F 
ENDBRANCH   9  11
ENDBRANCH   8   9
ENDBRANCH   7   8
ENDBRANCH   5   7
ENDBRANCH   2   3
ENDBRANCH   1   2
BRANCH   1  26
ATOM     26  C   UNL     1       3.406   3.946  -1.126  1.00  0.00     0.118 C 
BRANCH  26  27
ATOM     27  N   UNL     1       3.538   4.393  -2.504  1.00  0.00    -0.352 N 
ATOM     28  C   UNL     1       4.749   4.706  -3.115  1.00  0.00     0.251 C 
ATOM     29  H   UNL     1       2.717   4.481  -3.039  1.00  0.00     0.163 HD
ATOM     30  O   UNL     1       5.862   4.387  -2.723  1.00  0.00    -0.269 OA
BRANCH  28  31
ATOM     31  C   UNL     1       4.572   5.524  -4.334  1.00  0.00     0.039 A 
ATOM     32  C   UNL     1       3.693   6.587  -4.178  1.00  0.00     0.014 A 
ATOM     33  C   UNL     1       5.156   5.250  -5.582  1.00  0.00     0.014 A 
ATOM     34  C   UNL     1       3.288   7.286  -5.285  1.00  0.00     0.010 A 
ATOM     35  C   UNL     1       4.776   6.003  -6.707  1.00  0.00     0.010 A 
ATOM     36  C   UNL     1       3.827   7.015  -6.557  1.00  0.00    -0.014 A 
BRANCH  36  37
ATOM     37  C   UNL     1       3.413   7.995  -7.563  1.00  0.00     0.031 A 
ATOM     38  C   UNL     1       3.593   9.409  -7.114  1.00  0.00     0.074 A 
ATOM     39  C   UNL     1       2.744   7.795  -8.710  1.00  0.00     0.049 A 
ATOM     40  N   UNL     1       2.673  10.181  -6.631  1.00  0.00    -0.248 NA
ATOM     41  C   UNL     1       4.954   9.939  -7.015  1.00  0.00     0.031 C 
ATOM     42  C   UNL     1       2.565   6.601  -9.529  1.00  0.00     0.029 A 
ATOM     43  N   UNL     1       2.043   8.751  -9.386  1.00  0.00    -0.354 N 
ATOM     44  C   UNL     1       3.314  11.342  -6.223  1.00  0.00     0.074 A 
ATOM     45  C   UNL     1       4.727  11.111  -6.419  1.00  0.00     0.031 C 
ATOM     46  C   UNL     1       1.957   6.953 -10.692  1.00  0.00     0.029 A 
ATOM     47  C   UNL     1       1.557   8.350 -10.613  1.00  0.00     0.049 A 
ATOM     48  H   UNL     1       1.896   9.655  -9.027  1.00  0.00     0.167 HD
ATOM     49  C   UNL     1       2.635  12.449  -5.814  1.00  0.00     0.031 A 
ATOM     50  C   UNL     1       0.900   9.136 -11.500  1.00  0.00     0.031 A 
ATOM     51  C   UNL     1       1.262  12.166  -5.496  1.00  0.00     0.049 A 
ATOM     52  C   UNL     1       0.244  10.228 -10.733  1.00  0.00     0.074 A 
ATOM     53  C   UNL     1       0.625  11.435  -4.513  1.00  0.00     0.029 A 
ATOM     54  N   UNL     1       0.309  12.417  -6.454  1.00  0.00    -0.354 N 
ATOM     55  N   UNL     1      -0.771  10.043  -9.937  1.00  0.00    -0.248 NA
ATOM     56  C   UNL     1       0.940  11.495 -10.569  1.00  0.00     0.031 C 
ATOM     57  C   UNL     1      -0.530  10.889  -5.143  1.00  0.00     0.029 A 
ATOM     58  C   UNL     1      -0.538  11.336  -6.467  1.00  0.00     0.049 A 
ATOM     59  H   UNL     1       0.245  13.218  -7.021  1.00  0.00     0.167 HD
ATOM     60  C   UNL     1      -0.605  10.970  -8.918  1.00  0.00     0.074 A 
ATOM     61  C   UNL     1       0.405  11.898  -9.414  1.00  0.00     0.031 C 
ATOM     62  C   UNL     1      -1.113  10.759  -7.667  1.00  0.00     0.031 A 
BRANCH  49  63
ATOM     63  C   UNL     1       3.172  13.847  -5.921  1.00  0.00    -0.014 A 
ATOM     64  C   UNL     1       4.268  14.172  -6.744  1.00  0.00     0.010 A 
ATOM     65  C   UNL     1       2.432  14.920  -5.382  1.00  0.00     0.010 A 
ATOM     66  C   UNL     1       4.621  15.493  -7.016  1.00  0.00     0.020 A 
ATOM     67  C   UNL     1       2.751  16.251  -5.686  1.00  0.00     0.020 A 
ATOM     68  C   UNL     1       3.846  16.526  -6.504  1.00  0.00     0.054 A 
BRANCH  68  69
ATOM     69  S   UNL     1       4.240  18.214  -7.020  1.00  0.00     0.124 S 
ATOM     70  O   UNL     1       5.506  18.451  -6.332  1.00  0.00    -0.237 OA
ATOM     71  O   UNL     1       4.326  18.083  -8.472  1.00  0.00    -0.237 OA
ATOM     72  O   UNL     1       3.106  18.995  -6.533  1.00  0.00    -0.744 OA
ENDBRANCH  68  69
ENDBRANCH  49  63
BRANCH  50  73
ATOM     73  C   UNL     1       1.281   9.310 -12.925  1.00  0.00    -0.014 A 
ATOM     74  C   UNL     1       2.583   8.984 -13.352  1.00  0.00     0.010 A 
ATOM     75  C   UNL     1       0.476  10.088 -13.780  1.00  0.00     0.010 A 
ATOM     76  C   UNL     1       3.099   9.491 -14.546  1.00  0.00     0.020 A 
ATOM     77  C   UNL     1       0.990  10.602 -14.980  1.00  0.00     0.020 A 
ATOM     78  C   UNL     1       2.313  10.330 -15.334  1.00  0.00     0.054 A 
BRANCH  78  79
ATOM     79  S   UNL     1       3.086  11.128 -16.768  1.00  0.00     0.124 S 
ATOM     80  O   UNL     1       4.048  12.025 -16.132  1.00  0.00    -0.237 OA
ATOM     81  O   UNL     1       3.665   9.994 -17.484  1.00  0.00    -0.237 OA
ATOM     82  O   UNL     1       1.970  11.784 -17.444  1.00  0.00    -0.744 OA
ENDBRANCH  78  79
ENDBRANCH  50  73
BRANCH  62  83
ATOM     83  C   UNL     1      -2.109   9.638  -7.456  1.00  0.00    -0.014 A 
ATOM     84  C   UNL     1      -3.285   9.924  -6.736  1.00  0.00     0.010 A 
ATOM     85  C   UNL     1      -1.831   8.293  -7.773  1.00  0.00     0.010 A 
ATOM     86  C   UNL     1      -4.136   8.900  -6.309  1.00  0.00     0.020 A 
ATOM     87  C   UNL     1      -2.695   7.264  -7.372  1.00  0.00     0.020 A 
ATOM     88  C   UNL     1      -3.827   7.574  -6.616  1.00  0.00     0.054 A 
BRANCH  88  89
ATOM     89  S   UNL     1      -4.906   6.264  -5.975  1.00  0.00     0.124 S 
ATOM     90  O   UNL     1      -4.583   6.271  -4.549  1.00  0.00    -0.237 OA
ATOM     91  O   UNL     1      -6.242   6.747  -6.316  1.00  0.00    -0.237 OA
ATOM     92  O   UNL     1      -4.478   5.068  -6.697  1.00  0.00    -0.744 OA
ENDBRANCH  88  89
ENDBRANCH  62  83
ENDBRANCH  36  37
ENDBRANCH  28  31
ENDBRANCH  26  27
ENDBRANCH   1  26
TORSDOF 16
