REMARK SMILES Cc1cc(F)cc(N[C@](C)(C(=O)NCCCNC(=O)c2ccc(-c3c4nc(c(-c5ccc(S(=O)(=O)[O-])cc5)c5ccc([nH]5)c(-c5ccc(S(=O)(=O)[O-])cc5)c5nc(c(-c6ccc(S(=O)(=O)[O-])cc6)c6ccc3[nH]6)C=C5)C=C4)cc2)c2cccc(F)c2)c1
REMARK SMILES IDX 15 1 14 2 13 3 11 4 12 5 9 7 10 8 8 9 7 11 1 12 2 13 3 14
REMARK SMILES IDX 87 15 4 16 5 17 6 18 80 19 81 20 86 21 82 22 84 23 83 24
REMARK SMILES IDX 85 25 16 26 17 27 18 28 19 30 20 31 21 32 79 33 22 34 78 35
REMARK SMILES IDX 23 36 24 37 25 38 72 39 26 40 77 41 71 42 73 43 27 44 76 45
REMARK SMILES IDX 70 46 69 47 28 49 58 50 39 51 57 52 40 53 43 54 56 55 74 56
REMARK SMILES IDX 41 57 42 58 55 60 75 61 44 62 29 63 30 64 38 65 31 66 37 67
REMARK SMILES IDX 32 68 33 69 34 70 35 71 36 72 59 73 60 74 68 75 61 76 67 77
REMARK SMILES IDX 62 78 63 79 64 80 65 81 66 82 45 83 46 84 54 85 47 86 53 87
REMARK SMILES IDX 48 88 49 89 50 90 51 91 52 92
REMARK H PARENT 13 6 8 10 17 29 73 48 43 59
REMARK Flexibility Score: inf
ROOT
ATOM      1  C   UNL     1      -3.943  -6.399   1.257  1.00  0.00     0.042 C 
ENDROOT
BRANCH   1   2
ATOM      2  C   UNL     1      -3.847  -4.954   0.772  1.00  0.00     0.117 C 
BRANCH   2   3
ATOM      3  N   UNL     1      -2.827  -4.226   1.497  1.00  0.00    -0.354 N 
ATOM      4  C   UNL     1      -1.509  -4.001   1.248  1.00  0.00     0.250 C 
ATOM      5  O   UNL     1      -0.854  -3.658   2.247  1.00  0.00    -0.272 OA
ATOM      6  H   UNL     1      -3.150  -3.813   2.330  1.00  0.00     0.163 HD
BRANCH   4   7
ATOM      7  C   UNL     1      -0.799  -4.158  -0.170  1.00  0.00     0.139 C 
ATOM      8  C   UNL     1      -1.640  -3.862  -1.436  1.00  0.00     0.051 C 
BRANCH   7   9
ATOM      9  N   UNL     1       0.314  -3.147  -0.190  1.00  0.00    -0.368 N 
ATOM     10  H   UNL     1       1.226  -3.506  -0.284  1.00  0.00     0.161 HD
BRANCH   9  11
ATOM     11  C   UNL     1       0.204  -1.760  -0.090  1.00  0.00     0.038 A 
ATOM     12  C   UNL     1       2.685   1.168  -0.078  1.00  0.00     0.044 C 
ATOM     13  C   UNL     1       1.400   0.396  -0.056  1.00  0.00    -0.046 A 
ATOM     14  C   UNL     1       0.185   1.069   0.064  1.00  0.00     0.042 A 
ATOM     15  C   UNL     1       1.393  -1.007  -0.149  1.00  0.00     0.029 A 
ATOM     16  C   UNL     1      -0.994   0.341   0.102  1.00  0.00     0.125 A 
ATOM     17  F   UNL     1      -2.161   0.989   0.224  1.00  0.00    -0.207 F 
ATOM     18  C   UNL     1      -0.992  -1.051   0.028  1.00  0.00     0.065 A 
ENDBRANCH   9  11
ENDBRANCH   7   9
BRANCH   7  19
ATOM     19  C   UNL     1      -0.221  -5.609  -0.245  1.00  0.00    -0.011 A 
ATOM     20  C   UNL     1       1.092  -5.950   0.141  1.00  0.00     0.007 A 
ATOM     21  C   UNL     1      -1.052  -6.687  -0.617  1.00  0.00     0.046 A 
ATOM     22  C   UNL     1       1.538  -7.283   0.159  1.00  0.00     0.003 A 
ATOM     23  C   UNL     1      -0.609  -8.009  -0.576  1.00  0.00     0.123 A 
ATOM     24  C   UNL     1       0.680  -8.318  -0.190  1.00  0.00     0.039 A 
ATOM     25  F   UNL     1      -1.462  -8.991  -0.895  1.00  0.00    -0.207 F 
ENDBRANCH   7  19
ENDBRANCH   4   7
ENDBRANCH   2   3
ENDBRANCH   1   2
BRANCH   1  26
ATOM     26  C   UNL     1      -4.635  -6.553   2.606  1.00  0.00     0.118 C 
BRANCH  26  27
ATOM     27  N   UNL     1      -6.060  -6.279   2.520  1.00  0.00    -0.352 N 
ATOM     28  C   UNL     1      -7.137  -7.097   2.760  1.00  0.00     0.251 C 
ATOM     29  H   UNL     1      -6.290  -5.362   2.248  1.00  0.00     0.163 HD
ATOM     30  O   UNL     1      -8.251  -6.727   2.398  1.00  0.00    -0.269 OA
BRANCH  28  31
ATOM     31  C   UNL     1      -6.976  -8.406   3.436  1.00  0.00     0.039 A 
ATOM     32  C   UNL     1      -7.799  -9.467   3.045  1.00  0.00     0.014 A 
ATOM     33  C   UNL     1      -6.079  -8.583   4.493  1.00  0.00     0.014 A 
ATOM     34  C   UNL     1      -7.699 -10.704   3.687  1.00  0.00     0.010 A 
ATOM     35  C   UNL     1      -5.919  -9.840   5.075  1.00  0.00     0.010 A 
ATOM     36  C   UNL     1      -6.745 -10.908   4.696  1.00  0.00    -0.014 A 
BRANCH  36  37
ATOM     37  C   UNL     1      -6.626 -12.218   5.386  1.00  0.00     0.031 A 
ATOM     38  C   UNL     1      -6.928 -12.333   6.857  1.00  0.00     0.074 A 
ATOM     39  C   UNL     1      -6.211 -13.300   4.699  1.00  0.00     0.049 A 
ATOM     40  N   UNL     1      -6.883 -13.389   7.630  1.00  0.00    -0.248 NA
ATOM     41  C   UNL     1      -7.306 -11.095   7.558  1.00  0.00     0.031 C 
ATOM     42  C   UNL     1      -5.847 -13.313   3.280  1.00  0.00     0.029 A 
ATOM     43  N   UNL     1      -6.032 -14.600   5.100  1.00  0.00    -0.354 N 
ATOM     44  C   UNL     1      -7.202 -12.939   8.906  1.00  0.00     0.074 A 
ATOM     45  C   UNL     1      -7.387 -11.508   8.814  1.00  0.00     0.031 C 
ATOM     46  C   UNL     1      -5.533 -14.567   2.919  1.00  0.00     0.029 A 
ATOM     47  C   UNL     1      -5.638 -15.440   4.085  1.00  0.00     0.049 A 
ATOM     48  H   UNL     1      -6.172 -14.903   6.026  1.00  0.00     0.167 HD
ATOM     49  C   UNL     1      -7.351 -13.652  10.049  1.00  0.00     0.031 A 
ATOM     50  C   UNL     1      -5.399 -16.765   4.088  1.00  0.00     0.031 A 
ATOM     51  C   UNL     1      -7.180 -15.078  10.136  1.00  0.00     0.049 A 
ATOM     52  C   UNL     1      -5.578 -17.541   5.362  1.00  0.00     0.074 A 
ATOM     53  C   UNL     1      -7.367 -15.904  11.230  1.00  0.00     0.029 A 
ATOM     54  N   UNL     1      -6.780 -15.890   9.085  1.00  0.00    -0.354 N 
ATOM     55  N   UNL     1      -5.946 -17.108   6.544  1.00  0.00    -0.248 NA
ATOM     56  C   UNL     1      -5.321 -18.986   5.299  1.00  0.00     0.031 C 
ATOM     57  C   UNL     1      -7.036 -17.210  10.852  1.00  0.00     0.029 A 
ATOM     58  C   UNL     1      -6.692 -17.205   9.509  1.00  0.00     0.049 A 
ATOM     59  H   UNL     1      -6.587 -15.577   8.172  1.00  0.00     0.167 HD
ATOM     60  C   UNL     1      -5.990 -18.232   7.362  1.00  0.00     0.074 A 
ATOM     61  C   UNL     1      -5.619 -19.364   6.535  1.00  0.00     0.031 C 
ATOM     62  C   UNL     1      -6.314 -18.319   8.676  1.00  0.00     0.031 A 
BRANCH  49  63
ATOM     63  C   UNL     1      -7.702 -12.883  11.298  1.00  0.00    -0.014 A 
ATOM     64  C   UNL     1      -8.961 -12.272  11.447  1.00  0.00     0.010 A 
ATOM     65  C   UNL     1      -6.755 -12.757  12.330  1.00  0.00     0.010 A 
ATOM     66  C   UNL     1      -9.241 -11.490  12.572  1.00  0.00     0.020 A 
ATOM     67  C   UNL     1      -7.042 -12.001  13.471  1.00  0.00     0.020 A 
ATOM     68  C   UNL     1      -8.273 -11.348  13.570  1.00  0.00     0.054 A 
BRANCH  68  69
ATOM     69  S   UNL     1      -8.647 -10.305  15.006  1.00  0.00     0.124 S 
ATOM     70  O   UNL     1      -8.491  -8.963  14.449  1.00  0.00    -0.237 OA
ATOM     71  O   UNL     1     -10.017 -10.689  15.338  1.00  0.00    -0.237 OA
ATOM     72  O   UNL     1      -7.639 -10.693  15.989  1.00  0.00    -0.744 OA
ENDBRANCH  68  69
ENDBRANCH  49  63
BRANCH  50  73
ATOM     73  C   UNL     1      -5.021 -17.442   2.818  1.00  0.00    -0.014 A 
ATOM     74  C   UNL     1      -5.958 -18.240   2.139  1.00  0.00     0.010 A 
ATOM     75  C   UNL     1      -3.748 -17.247   2.252  1.00  0.00     0.010 A 
ATOM     76  C   UNL     1      -5.631 -18.828   0.914  1.00  0.00     0.020 A 
ATOM     77  C   UNL     1      -3.425 -17.816   1.016  1.00  0.00     0.020 A 
ATOM     78  C   UNL     1      -4.369 -18.606   0.356  1.00  0.00     0.054 A 
BRANCH  78  79
ATOM     79  S   UNL     1      -4.001 -19.306  -1.277  1.00  0.00     0.124 S 
ATOM     80  O   UNL     1      -3.822 -20.721  -0.968  1.00  0.00    -0.237 OA
ATOM     81  O   UNL     1      -5.199 -18.971  -2.042  1.00  0.00    -0.237 OA
ATOM     82  O   UNL     1      -2.792 -18.596  -1.688  1.00  0.00    -0.744 OA
ENDBRANCH  78  79
ENDBRANCH  50  73
BRANCH  62  83
ATOM     83  C   UNL     1      -6.306 -19.688   9.300  1.00  0.00    -0.014 A 
ATOM     84  C   UNL     1      -5.100 -20.348   9.594  1.00  0.00     0.010 A 
ATOM     85  C   UNL     1      -7.525 -20.299   9.646  1.00  0.00     0.010 A 
ATOM     86  C   UNL     1      -5.114 -21.607  10.199  1.00  0.00     0.020 A 
ATOM     87  C   UNL     1      -7.543 -21.546  10.274  1.00  0.00     0.020 A 
ATOM     88  C   UNL     1      -6.336 -22.199  10.534  1.00  0.00     0.054 A 
BRANCH  88  89
ATOM     89  S   UNL     1      -6.328 -23.813  11.362  1.00  0.00     0.124 S 
ATOM     90  O   UNL     1      -6.010 -24.717  10.260  1.00  0.00    -0.237 OA
ATOM     91  O   UNL     1      -5.281 -23.655  12.367  1.00  0.00    -0.237 OA
ATOM     92  O   UNL     1      -7.683 -23.934  11.896  1.00  0.00    -0.744 OA
ENDBRANCH  88  89
ENDBRANCH  62  83
ENDBRANCH  36  37
ENDBRANCH  28  31
ENDBRANCH  26  27
ENDBRANCH   1  26
TORSDOF 16
