REMARK SMILES Cc1ccccc1[C@@H](Cc1ncnn1C(C)C)C(=O)NCCCNC(=O)c1ccc(-c2c3nc(c(-c4ccc(S(=O)(=O)[O-])cc4)c4ccc([nH]4)c(-c4ccc(S(=O)(=O)[O-])cc4)c4nc(c(-c5ccc(S(=O)(=O)[O-])cc5)c5ccc2[nH]5)C=C4)C=C3)cc1
REMARK SMILES IDX 22 1 21 2 20 3 18 4 19 5 8 7 7 8 1 9 2 10 3 11 4 12 6 13
REMARK SMILES IDX 5 14 9 15 10 16 11 17 14 18 12 19 13 20 15 21 16 22 17 23
REMARK SMILES IDX 23 24 24 25 25 26 26 28 27 29 28 30 86 31 29 32 85 33 30 34
REMARK SMILES IDX 31 35 32 36 79 37 33 38 84 39 78 40 80 41 34 42 83 43 77 44
REMARK SMILES IDX 76 45 35 47 65 48 46 49 64 50 47 51 50 52 63 53 81 54 48 55
REMARK SMILES IDX 49 56 62 58 82 59 51 60 36 61 37 62 45 63 38 64 44 65 39 66
REMARK SMILES IDX 40 67 41 68 42 69 43 70 66 71 67 72 75 73 68 74 74 75 69 76
REMARK SMILES IDX 70 77 71 78 72 79 73 80 52 81 53 82 61 83 54 84 60 85 55 86
REMARK SMILES IDX 56 87 57 88 58 89 59 90
REMARK H PARENT 20 6 24 27 80 46 50 57
REMARK Flexibility Score: inf
ROOT
ATOM      1  C   UNL     1      -2.667   2.535   1.321  1.00  0.00     0.042 C 
ENDROOT
BRANCH   1   2
ATOM      2  C   UNL     1      -1.768   3.696   0.948  1.00  0.00     0.117 C 
BRANCH   2   3
ATOM      3  N   UNL     1      -0.397   3.562   1.419  1.00  0.00    -0.355 N 
ATOM      4  C   UNL     1       0.749   3.096   0.865  1.00  0.00     0.228 C 
ATOM      5  O   UNL     1       1.781   3.282   1.528  1.00  0.00    -0.274 OA
ATOM      6  H   UNL     1      -0.275   3.880   2.343  1.00  0.00     0.163 HD
BRANCH   4   7
ATOM      7  C   UNL     1       0.861   2.379  -0.489  1.00  0.00     0.116 C 
BRANCH   7   8
ATOM      8  C   UNL     1       0.373   0.925  -0.441  1.00  0.00    -0.032 A 
ATOM      9  C   UNL     1       2.680  -0.010   0.263  1.00  0.00     0.044 C 
ATOM     10  C   UNL     1       1.202  -0.148  -0.011  1.00  0.00    -0.047 A 
ATOM     11  C   UNL     1       0.665  -1.448   0.113  1.00  0.00     0.004 A 
ATOM     12  C   UNL     1      -0.675  -1.703  -0.149  1.00  0.00     0.000 A 
ATOM     13  C   UNL     1      -0.960   0.616  -0.741  1.00  0.00     0.005 A 
ATOM     14  C   UNL     1      -1.487  -0.669  -0.582  1.00  0.00     0.000 A 
ENDBRANCH   7   8
BRANCH   7  15
ATOM     15  C   UNL     1       0.726   3.274  -1.745  1.00  0.00     0.095 C 
BRANCH  15  16
ATOM     16  C   UNL     1      -0.616   3.728  -2.205  1.00  0.00     0.128 A 
ATOM     17  N   UNL     1      -1.534   2.952  -2.752  1.00  0.00    -0.220 NA
ATOM     18  N   UNL     1      -1.093   5.026  -2.204  1.00  0.00    -0.248 N 
ATOM     19  C   UNL     1      -2.588   3.784  -2.965  1.00  0.00     0.246 A 
ATOM     20  N   UNL     1      -2.358   5.057  -2.670  1.00  0.00    -0.159 NA
BRANCH  18  21
ATOM     21  C   UNL     1      -0.455   6.279  -1.814  1.00  0.00     0.103 C 
ATOM     22  C   UNL     1      -0.681   7.372  -2.864  1.00  0.00     0.033 C 
ATOM     23  C   UNL     1      -0.915   6.770  -0.441  1.00  0.00     0.033 C 
ENDBRANCH  18  21
ENDBRANCH  15  16
ENDBRANCH   7  15
ENDBRANCH   4   7
ENDBRANCH   2   3
ENDBRANCH   1   2
BRANCH   1  24
ATOM     24  C   UNL     1      -3.924   2.984   2.042  1.00  0.00     0.118 C 
BRANCH  24  25
ATOM     25  N   UNL     1      -5.127   3.018   1.212  1.00  0.00    -0.352 N 
ATOM     26  C   UNL     1      -6.445   3.151   1.654  1.00  0.00     0.251 C 
ATOM     27  H   UNL     1      -4.994   2.939   0.240  1.00  0.00     0.163 HD
ATOM     28  O   UNL     1      -7.399   3.059   0.922  1.00  0.00    -0.269 OA
BRANCH  26  29
ATOM     29  C   UNL     1      -6.605   3.453   3.098  1.00  0.00     0.039 A 
ATOM     30  C   UNL     1      -6.827   4.788   3.448  1.00  0.00     0.014 A 
ATOM     31  C   UNL     1      -6.081   2.542   4.008  1.00  0.00     0.014 A 
ATOM     32  C   UNL     1      -6.298   5.269   4.642  1.00  0.00     0.010 A 
ATOM     33  C   UNL     1      -5.435   3.054   5.118  1.00  0.00     0.010 A 
ATOM     34  C   UNL     1      -5.492   4.429   5.409  1.00  0.00    -0.014 A 
BRANCH  34  35
ATOM     35  C   UNL     1      -4.589   4.905   6.458  1.00  0.00     0.031 A 
ATOM     36  C   UNL     1      -4.806   4.469   7.863  1.00  0.00     0.074 A 
ATOM     37  C   UNL     1      -3.518   5.688   6.177  1.00  0.00     0.049 A 
ATOM     38  N   UNL     1      -4.343   5.084   8.901  1.00  0.00    -0.248 NA
ATOM     39  C   UNL     1      -5.657   3.334   8.212  1.00  0.00     0.031 C 
ATOM     40  C   UNL     1      -2.380   5.944   7.060  1.00  0.00     0.029 A 
ATOM     41  N   UNL     1      -3.326   6.590   5.126  1.00  0.00    -0.354 N 
ATOM     42  C   UNL     1      -4.551   4.269   9.992  1.00  0.00     0.074 A 
ATOM     43  C   UNL     1      -5.478   3.267   9.532  1.00  0.00     0.031 C 
ATOM     44  C   UNL     1      -1.810   7.105   6.705  1.00  0.00     0.029 A 
ATOM     45  C   UNL     1      -2.637   7.690   5.666  1.00  0.00     0.049 A 
ATOM     46  H   UNL     1      -3.617   6.476   4.192  1.00  0.00     0.167 HD
ATOM     47  C   UNL     1      -3.800   4.443  11.116  1.00  0.00     0.031 A 
ATOM     48  C   UNL     1      -3.080   8.981   5.647  1.00  0.00     0.031 A 
ATOM     49  C   UNL     1      -3.036   5.690  11.068  1.00  0.00     0.049 A 
ATOM     50  C   UNL     1      -3.176   9.607   7.021  1.00  0.00     0.074 A 
ATOM     51  C   UNL     1      -1.698   5.984  10.868  1.00  0.00     0.029 A 
ATOM     52  N   UNL     1      -3.720   6.899  10.989  1.00  0.00    -0.354 N 
ATOM     53  N   UNL     1      -3.064   8.937   8.133  1.00  0.00    -0.248 NA
ATOM     54  C   UNL     1      -3.478  11.018   7.254  1.00  0.00     0.031 C 
ATOM     55  C   UNL     1      -1.591   7.373  10.591  1.00  0.00     0.029 A 
ATOM     56  C   UNL     1      -2.859   7.925  10.652  1.00  0.00     0.049 A 
ATOM     57  H   UNL     1      -4.685   7.007  11.150  1.00  0.00     0.167 HD
ATOM     58  C   UNL     1      -3.326   9.759   9.198  1.00  0.00     0.074 A 
ATOM     59  C   UNL     1      -3.547  11.061   8.597  1.00  0.00     0.031 C 
ATOM     60  C   UNL     1      -3.368   9.281  10.476  1.00  0.00     0.031 A 
BRANCH  47  61
ATOM     61  C   UNL     1      -3.548   3.350  12.144  1.00  0.00    -0.014 A 
ATOM     62  C   UNL     1      -2.471   3.477  13.047  1.00  0.00     0.010 A 
ATOM     63  C   UNL     1      -4.253   2.133  12.211  1.00  0.00     0.010 A 
ATOM     64  C   UNL     1      -2.075   2.426  13.895  1.00  0.00     0.020 A 
ATOM     65  C   UNL     1      -3.870   1.073  13.045  1.00  0.00     0.020 A 
ATOM     66  C   UNL     1      -2.766   1.218  13.871  1.00  0.00     0.054 A 
BRANCH  66  67
ATOM     67  S   UNL     1      -2.208  -0.162  14.900  1.00  0.00     0.124 S 
ATOM     68  O   UNL     1      -0.858  -0.401  14.398  1.00  0.00    -0.237 OA
ATOM     69  O   UNL     1      -2.293   0.394  16.247  1.00  0.00    -0.237 OA
ATOM     70  O   UNL     1      -3.169  -1.225  14.608  1.00  0.00    -0.744 OA
ENDBRANCH  66  67
ENDBRANCH  47  61
BRANCH  48  71
ATOM     71  C   UNL     1      -3.966   9.315   4.503  1.00  0.00    -0.014 A 
ATOM     72  C   UNL     1      -3.365   9.403   3.231  1.00  0.00     0.010 A 
ATOM     73  C   UNL     1      -5.351   9.099   4.598  1.00  0.00     0.010 A 
ATOM     74  C   UNL     1      -4.094   9.086   2.086  1.00  0.00     0.020 A 
ATOM     75  C   UNL     1      -6.086   8.784   3.448  1.00  0.00     0.020 A 
ATOM     76  C   UNL     1      -5.431   8.708   2.215  1.00  0.00     0.054 A 
BRANCH  76  77
ATOM     77  S   UNL     1      -6.211   7.878   0.800  1.00  0.00     0.124 S 
ATOM     78  O   UNL     1      -6.106   8.887  -0.249  1.00  0.00    -0.237 OA
ATOM     79  O   UNL     1      -5.349   6.707   0.649  1.00  0.00    -0.237 OA
ATOM     80  O   UNL     1      -7.562   7.601   1.278  1.00  0.00    -0.744 OA
ENDBRANCH  76  77
ENDBRANCH  48  71
BRANCH  60  81
ATOM     81  C   UNL     1      -3.831  10.040  11.700  1.00  0.00    -0.014 A 
ATOM     82  C   UNL     1      -4.675  11.161  11.669  1.00  0.00     0.010 A 
ATOM     83  C   UNL     1      -3.495   9.531  12.979  1.00  0.00     0.010 A 
ATOM     84  C   UNL     1      -5.108  11.783  12.852  1.00  0.00     0.020 A 
ATOM     85  C   UNL     1      -3.957  10.114  14.162  1.00  0.00     0.020 A 
ATOM     86  C   UNL     1      -4.741  11.258  14.091  1.00  0.00     0.054 A 
BRANCH  86  87
ATOM     87  S   UNL     1      -5.349  12.028  15.614  1.00  0.00     0.124 S 
ATOM     88  O   UNL     1      -4.313  13.021  15.883  1.00  0.00    -0.237 OA
ATOM     89  O   UNL     1      -6.646  12.570  15.214  1.00  0.00    -0.237 OA
ATOM     90  O   UNL     1      -5.413  10.914  16.556  1.00  0.00    -0.744 OA
ENDBRANCH  86  87
ENDBRANCH  60  81
ENDBRANCH  34  35
ENDBRANCH  26  29
ENDBRANCH  24  25
ENDBRANCH   1  24
TORSDOF 17
