REMARK SMILES CC(=O)c1ccc(O)c(C(=O)NCCCNC(=O)c2ccc(-c3c4nc(c(-c5ccc(S(=O)(=O)[O-])cc5)c5ccc([nH]5)c(-c5ccc(S(=O)(=O)[O-])cc5)c5nc(c(-c6ccc(S(=O)(=O)[O-])cc6)c6ccc3[nH]6)C=C5)C=C4)cc2)c1
REMARK SMILES IDX 15 1 14 2 13 3 12 4 10 5 11 6 9 8 4 9 5 10 79 11 6 12 7 13
REMARK SMILES IDX 2 14 1 15 3 16 8 17 16 19 17 20 18 22 19 23 20 24 78 25
REMARK SMILES IDX 21 26 77 27 22 28 23 29 24 30 71 31 25 32 76 33 70 34 72 35
REMARK SMILES IDX 26 36 75 37 69 38 68 39 27 41 57 42 38 43 56 44 39 45 42 46
REMARK SMILES IDX 55 47 73 48 40 49 41 50 54 52 74 53 43 54 28 55 29 56 37 57
REMARK SMILES IDX 30 58 36 59 31 60 32 61 33 62 34 63 35 64 58 65 59 66 67 67
REMARK SMILES IDX 60 68 66 69 61 70 62 71 63 72 64 73 65 74 44 75 45 76 53 77
REMARK SMILES IDX 46 78 52 79 47 80 48 81 49 82 50 83 51 84
REMARK H PARENT 12 7 8 18 16 21 72 40 42 51
REMARK Flexibility Score: inf
ROOT
ATOM      1  C   UNL     1       0.602  -9.598   2.877  1.00  0.00     0.118 C 
ENDROOT
BRANCH   1   2
ATOM      2  C   UNL     1       1.339  -8.441   2.210  1.00  0.00     0.042 C 
BRANCH   2   3
ATOM      3  C   UNL     1       0.504  -7.679   1.178  1.00  0.00     0.118 C 
BRANCH   3   4
ATOM      4  N   UNL     1      -0.452  -6.803   1.826  1.00  0.00    -0.352 N 
ATOM      5  C   UNL     1      -0.449  -5.464   2.111  1.00  0.00     0.255 C 
ATOM      6  O   UNL     1      -1.442  -5.037   2.708  1.00  0.00    -0.269 OA
ATOM      7  H   UNL     1      -1.269  -7.265   2.123  1.00  0.00     0.163 HD
BRANCH   5   8
ATOM      8  C   UNL     1       0.593  -4.479   1.684  1.00  0.00     0.082 A 
ATOM      9  C   UNL     1       0.949  -2.124   1.076  1.00  0.00     0.018 A 
ATOM     10  C   UNL     1       2.311  -2.365   0.909  1.00  0.00     0.015 A 
ATOM     11  C   UNL     1       0.103  -3.175   1.454  1.00  0.00     0.029 A 
ATOM     12  C   UNL     1       2.821  -3.638   1.163  1.00  0.00     0.048 A 
ATOM     13  C   UNL     1       1.974  -4.679   1.573  1.00  0.00     0.128 A 
BRANCH   9  14
ATOM     14  C   UNL     1       0.363  -0.766   0.896  1.00  0.00     0.159 C 
ATOM     15  C   UNL     1       1.043   0.196  -0.040  1.00  0.00     0.093 C 
ATOM     16  O   UNL     1      -0.672  -0.463   1.483  1.00  0.00    -0.295 OA
ENDBRANCH   9  14
BRANCH  13  17
ATOM     17  O   UNL     1       2.567  -5.857   1.912  1.00  0.00    -0.507 OA
ATOM     18  H   UNL     1       3.494  -5.957   1.825  1.00  0.00     0.293 HD
ENDBRANCH  13  17
ENDBRANCH   5   8
ENDBRANCH   3   4
ENDBRANCH   2   3
ENDBRANCH   1   2
BRANCH   1  19
ATOM     19  N   UNL     1       0.446 -10.732   1.982  1.00  0.00    -0.352 N 
ATOM     20  C   UNL     1       0.837 -12.040   2.129  1.00  0.00     0.251 C 
ATOM     21  H   UNL     1      -0.012 -10.530   1.134  1.00  0.00     0.163 HD
ATOM     22  O   UNL     1       0.804 -12.778   1.147  1.00  0.00    -0.269 OA
BRANCH  20  23
ATOM     23  C   UNL     1       1.301 -12.573   3.434  1.00  0.00     0.039 A 
ATOM     24  C   UNL     1       2.314 -13.539   3.431  1.00  0.00     0.014 A 
ATOM     25  C   UNL     1       0.708 -12.203   4.646  1.00  0.00     0.014 A 
ATOM     26  C   UNL     1       2.747 -14.108   4.632  1.00  0.00     0.010 A 
ATOM     27  C   UNL     1       1.185 -12.724   5.851  1.00  0.00     0.010 A 
ATOM     28  C   UNL     1       2.197 -13.695   5.856  1.00  0.00    -0.014 A 
BRANCH  28  29
ATOM     29  C   UNL     1       2.668 -14.291   7.134  1.00  0.00     0.031 A 
ATOM     30  C   UNL     1       1.752 -15.155   7.961  1.00  0.00     0.074 A 
ATOM     31  C   UNL     1       3.921 -14.041   7.561  1.00  0.00     0.049 A 
ATOM     32  N   UNL     1       2.001 -15.782   9.084  1.00  0.00    -0.248 NA
ATOM     33  C   UNL     1       0.373 -15.322   7.476  1.00  0.00     0.031 C 
ATOM     34  C   UNL     1       4.892 -13.182   6.879  1.00  0.00     0.029 A 
ATOM     35  N   UNL     1       4.596 -14.489   8.669  1.00  0.00    -0.354 N 
ATOM     36  C   UNL     1       0.811 -16.404   9.445  1.00  0.00     0.074 A 
ATOM     37  C   UNL     1      -0.172 -16.043   8.446  1.00  0.00     0.031 C 
ATOM     38  C   UNL     1       6.046 -13.193   7.564  1.00  0.00     0.029 A 
ATOM     39  C   UNL     1       5.892 -14.038   8.745  1.00  0.00     0.049 A 
ATOM     40  H   UNL     1       4.191 -15.079   9.345  1.00  0.00     0.167 HD
ATOM     41  C   UNL     1       0.561 -17.216  10.501  1.00  0.00     0.031 A 
ATOM     42  C   UNL     1       6.854 -14.284   9.655  1.00  0.00     0.031 A 
ATOM     43  C   UNL     1       1.540 -17.586  11.489  1.00  0.00     0.049 A 
ATOM     44  C   UNL     1       6.564 -15.216  10.797  1.00  0.00     0.074 A 
ATOM     45  C   UNL     1       1.398 -18.441  12.568  1.00  0.00     0.029 A 
ATOM     46  N   UNL     1       2.848 -17.124  11.517  1.00  0.00    -0.354 N 
ATOM     47  N   UNL     1       5.449 -15.842  11.086  1.00  0.00    -0.248 NA
ATOM     48  C   UNL     1       7.671 -15.491  11.723  1.00  0.00     0.031 C 
ATOM     49  C   UNL     1       2.610 -18.470  13.269  1.00  0.00     0.029 A 
ATOM     50  C   UNL     1       3.520 -17.667  12.600  1.00  0.00     0.049 A 
ATOM     51  H   UNL     1       3.240 -16.501  10.864  1.00  0.00     0.167 HD
ATOM     52  C   UNL     1       5.726 -16.602  12.217  1.00  0.00     0.074 A 
ATOM     53  C   UNL     1       7.119 -16.372  12.545  1.00  0.00     0.031 C 
ATOM     54  C   UNL     1       4.902 -17.419  12.919  1.00  0.00     0.031 A 
BRANCH  41  55
ATOM     55  C   UNL     1      -0.838 -17.759  10.640  1.00  0.00    -0.014 A 
ATOM     56  C   UNL     1      -1.325 -18.740   9.758  1.00  0.00     0.010 A 
ATOM     57  C   UNL     1      -1.667 -17.303  11.681  1.00  0.00     0.010 A 
ATOM     58  C   UNL     1      -2.631 -19.223   9.885  1.00  0.00     0.020 A 
ATOM     59  C   UNL     1      -2.966 -17.802  11.827  1.00  0.00     0.020 A 
ATOM     60  C   UNL     1      -3.446 -18.745  10.915  1.00  0.00     0.054 A 
BRANCH  60  61
ATOM     61  S   UNL     1      -5.133 -19.395  11.066  1.00  0.00     0.124 S 
ATOM     62  O   UNL     1      -5.822 -18.696   9.985  1.00  0.00    -0.237 OA
ATOM     63  O   UNL     1      -4.945 -20.830  10.866  1.00  0.00    -0.237 OA
ATOM     64  O   UNL     1      -5.534 -19.006  12.416  1.00  0.00    -0.744 OA
ENDBRANCH  60  61
ENDBRANCH  41  55
BRANCH  42  65
ATOM     65  C   UNL     1       8.197 -13.665   9.495  1.00  0.00    -0.014 A 
ATOM     66  C   UNL     1       9.294 -14.442   9.082  1.00  0.00     0.010 A 
ATOM     67  C   UNL     1       8.380 -12.291   9.733  1.00  0.00     0.010 A 
ATOM     68  C   UNL     1      10.555 -13.858   8.923  1.00  0.00     0.020 A 
ATOM     69  C   UNL     1       9.634 -11.700   9.551  1.00  0.00     0.020 A 
ATOM     70  C   UNL     1      10.716 -12.490   9.157  1.00  0.00     0.054 A 
BRANCH  70  71
ATOM     71  S   UNL     1      12.344 -11.737   8.880  1.00  0.00     0.124 S 
ATOM     72  O   UNL     1      13.073 -12.141  10.078  1.00  0.00    -0.237 OA
ATOM     73  O   UNL     1      12.776 -12.363   7.633  1.00  0.00    -0.237 OA
ATOM     74  O   UNL     1      12.044 -10.310   8.778  1.00  0.00    -0.744 OA
ENDBRANCH  70  71
ENDBRANCH  42  65
BRANCH  54  75
ATOM     75  C   UNL     1       5.500 -18.139  14.098  1.00  0.00    -0.014 A 
ATOM     76  C   UNL     1       5.816 -17.455  15.285  1.00  0.00     0.010 A 
ATOM     77  C   UNL     1       5.742 -19.522  14.017  1.00  0.00     0.010 A 
ATOM     78  C   UNL     1       6.412 -18.131  16.352  1.00  0.00     0.020 A 
ATOM     79  C   UNL     1       6.315 -20.207  15.091  1.00  0.00     0.020 A 
ATOM     80  C   UNL     1       6.668 -19.502  16.244  1.00  0.00     0.054 A 
BRANCH  80  81
ATOM     81  S   UNL     1       7.441 -20.364  17.640  1.00  0.00     0.124 S 
ATOM     82  O   UNL     1       8.845 -19.991  17.485  1.00  0.00    -0.237 OA
ATOM     83  O   UNL     1       6.762 -19.785  18.796  1.00  0.00    -0.237 OA
ATOM     84  O   UNL     1       7.137 -21.770  17.387  1.00  0.00    -0.744 OA
ENDBRANCH  80  81
ENDBRANCH  54  75
ENDBRANCH  28  29
ENDBRANCH  20  23
ENDBRANCH   1  19
TORSDOF 15
