REMARK SMILES N#Cc1ccccc1S(=O)(=O)N1CCC(C(=O)NCCCNC(=O)c2ccc(-c3c4nc(c(-c5ccc(S(=O)(=O)[O-])cc5)c5ccc([nH]5)c(-c5ccc(S(=O)(=O)[O-])cc5)c5nc(c(-c6ccc(S(=O)(=O)[O-])cc6)c6ccc3[nH]6)C=C5)C=C4)cc2)CC1
REMARK SMILES IDX 20 1 19 2 18 3 16 4 17 5 15 7 12 8 13 9 86 10 14 11 85 12
REMARK SMILES IDX 9 13 10 14 11 15 8 16 3 17 4 18 5 19 7 20 6 21 2 22 1 23
REMARK SMILES IDX 21 24 22 25 23 26 24 28 25 29 26 30 84 31 27 32 83 33 28 34
REMARK SMILES IDX 29 35 30 36 77 37 31 38 82 39 76 40 78 41 32 42 81 43 75 44
REMARK SMILES IDX 74 45 33 47 63 48 44 49 62 50 45 51 48 52 61 53 79 54 46 55
REMARK SMILES IDX 47 56 60 58 80 59 49 60 34 61 35 62 43 63 36 64 42 65 37 66
REMARK SMILES IDX 38 67 39 68 40 69 41 70 64 71 65 72 73 73 66 74 72 75 67 76
REMARK SMILES IDX 68 77 69 78 70 79 71 80 50 81 51 82 59 83 52 84 58 85 53 86
REMARK SMILES IDX 54 87 55 88 56 89 57 90
REMARK H PARENT 18 6 22 27 78 46 48 57
REMARK Flexibility Score: inf
ROOT
ATOM      1  C   UNL     1      -6.876  -4.164   0.528  1.00  0.00     0.042 C 
ENDROOT
BRANCH   1   2
ATOM      2  C   UNL     1      -6.408  -3.396  -0.696  1.00  0.00     0.117 C 
BRANCH   2   3
ATOM      3  N   UNL     1      -6.949  -2.044  -0.735  1.00  0.00    -0.356 N 
ATOM      4  C   UNL     1      -6.338  -0.836  -0.603  1.00  0.00     0.223 C 
ATOM      5  O   UNL     1      -7.039   0.177  -0.638  1.00  0.00    -0.275 OA
ATOM      6  H   UNL     1      -7.922  -1.997  -0.882  1.00  0.00     0.163 HD
BRANCH   4   7
ATOM      7  C   UNL     1      -4.830  -0.737  -0.443  1.00  0.00     0.081 C 
ATOM      8  N   UNL     1      -2.209  -1.996  -0.249  1.00  0.00    -0.198 NA
ATOM      9  C   UNL     1      -2.912  -1.677   1.004  1.00  0.00     0.103 C 
ATOM     10  C   UNL     1      -2.652  -1.489  -1.557  1.00  0.00     0.103 C 
ATOM     11  C   UNL     1      -4.383  -1.358   0.872  1.00  0.00     0.030 C 
ATOM     12  C   UNL     1      -4.138  -1.262  -1.692  1.00  0.00     0.030 C 
BRANCH   8  13
ATOM     13  S   UNL     1      -0.564  -2.369  -0.103  1.00  0.00     0.244 S 
ATOM     14  O   UNL     1      -0.167  -3.009  -1.341  1.00  0.00    -0.207 OA
ATOM     15  O   UNL     1      -0.372  -3.030   1.171  1.00  0.00    -0.207 OA
BRANCH  13  16
ATOM     16  C   UNL     1       0.424  -0.884  -0.015  1.00  0.00     0.100 A 
ATOM     17  C   UNL     1      -0.005   0.444   0.039  1.00  0.00     0.072 A 
ATOM     18  C   UNL     1       0.956   1.477   0.055  1.00  0.00     0.021 A 
ATOM     19  C   UNL     1       2.319   1.202   0.039  1.00  0.00     0.001 A 
ATOM     20  C   UNL     1       1.812  -1.148  -0.021  1.00  0.00     0.023 A 
ATOM     21  C   UNL     1       2.749  -0.115   0.009  1.00  0.00     0.001 A 
BRANCH  17  22
ATOM     22  C   UNL     1      -1.350   0.917   0.097  1.00  0.00     0.101 C 
ATOM     23  N   UNL     1      -2.396   1.408   0.144  1.00  0.00    -0.192 NA
ENDBRANCH  17  22
ENDBRANCH  13  16
ENDBRANCH   8  13
ENDBRANCH   4   7
ENDBRANCH   2   3
ENDBRANCH   1   2
BRANCH   1  24
ATOM     24  C   UNL     1      -8.382  -4.327   0.589  1.00  0.00     0.118 C 
BRANCH  24  25
ATOM     25  N   UNL     1      -8.899  -5.047  -0.565  1.00  0.00    -0.352 N 
ATOM     26  C   UNL     1      -9.511  -6.271  -0.626  1.00  0.00     0.251 C 
ATOM     27  H   UNL     1      -8.793  -4.586  -1.429  1.00  0.00     0.163 HD
ATOM     28  O   UNL     1      -9.644  -6.828  -1.712  1.00  0.00    -0.269 OA
BRANCH  26  29
ATOM     29  C   UNL     1     -10.001  -6.913   0.611  1.00  0.00     0.039 A 
ATOM     30  C   UNL     1      -9.896  -8.298   0.745  1.00  0.00     0.014 A 
ATOM     31  C   UNL     1     -10.584  -6.152   1.629  1.00  0.00     0.014 A 
ATOM     32  C   UNL     1     -10.349  -8.911   1.913  1.00  0.00     0.010 A 
ATOM     33  C   UNL     1     -10.919  -6.747   2.837  1.00  0.00     0.010 A 
ATOM     34  C   UNL     1     -10.845  -8.138   2.977  1.00  0.00    -0.014 A 
BRANCH  34  35
ATOM     35  C   UNL     1     -11.345  -8.775   4.219  1.00  0.00     0.031 A 
ATOM     36  C   UNL     1     -12.789  -8.607   4.619  1.00  0.00     0.074 A 
ATOM     37  C   UNL     1     -10.499  -9.479   4.995  1.00  0.00     0.049 A 
ATOM     38  N   UNL     1     -13.417  -9.091   5.660  1.00  0.00    -0.248 NA
ATOM     39  C   UNL     1     -13.633  -7.763   3.754  1.00  0.00     0.031 C 
ATOM     40  C   UNL     1      -9.069  -9.669   4.737  1.00  0.00     0.029 A 
ATOM     41  N   UNL     1     -10.722 -10.175   6.155  1.00  0.00    -0.354 N 
ATOM     42  C   UNL     1     -14.716  -8.601   5.580  1.00  0.00     0.074 A 
ATOM     43  C   UNL     1     -14.770  -7.726   4.431  1.00  0.00     0.031 C 
ATOM     44  C   UNL     1      -8.555 -10.470   5.683  1.00  0.00     0.029 A 
ATOM     45  C   UNL     1      -9.604 -10.816   6.636  1.00  0.00     0.049 A 
ATOM     46  H   UNL     1     -11.598 -10.213   6.601  1.00  0.00     0.167 HD
ATOM     47  C   UNL     1     -15.778  -8.877   6.372  1.00  0.00     0.031 A 
ATOM     48  C   UNL     1      -9.446 -11.599   7.720  1.00  0.00     0.031 A 
ATOM     49  C   UNL     1     -15.720  -9.758   7.507  1.00  0.00     0.049 A 
ATOM     50  C   UNL     1     -10.641 -11.891   8.585  1.00  0.00     0.074 A 
ATOM     51  C   UNL     1     -16.747 -10.145   8.349  1.00  0.00     0.029 A 
ATOM     52  N   UNL     1     -14.571 -10.390   7.958  1.00  0.00    -0.354 N 
ATOM     53  N   UNL     1     -11.877 -11.470   8.457  1.00  0.00    -0.248 NA
ATOM     54  C   UNL     1     -10.423 -12.785   9.729  1.00  0.00     0.031 C 
ATOM     55  C   UNL     1     -16.207 -10.965   9.345  1.00  0.00     0.029 A 
ATOM     56  C   UNL     1     -14.859 -11.149   9.079  1.00  0.00     0.049 A 
ATOM     57  H   UNL     1     -13.682 -10.310   7.543  1.00  0.00     0.167 HD
ATOM     58  C   UNL     1     -12.593 -12.078   9.482  1.00  0.00     0.074 A 
ATOM     59  C   UNL     1     -11.653 -12.908  10.209  1.00  0.00     0.031 C 
ATOM     60  C   UNL     1     -13.909 -11.966   9.792  1.00  0.00     0.031 A 
BRANCH  47  61
ATOM     61  C   UNL     1     -17.090  -8.214   6.035  1.00  0.00    -0.014 A 
ATOM     62  C   UNL     1     -17.794  -8.540   4.860  1.00  0.00     0.010 A 
ATOM     63  C   UNL     1     -17.646  -7.274   6.922  1.00  0.00     0.010 A 
ATOM     64  C   UNL     1     -19.003  -7.909   4.557  1.00  0.00     0.020 A 
ATOM     65  C   UNL     1     -18.873  -6.665   6.640  1.00  0.00     0.020 A 
ATOM     66  C   UNL     1     -19.535  -6.974   5.450  1.00  0.00     0.054 A 
BRANCH  66  67
ATOM     67  S   UNL     1     -21.121  -6.193   5.046  1.00  0.00     0.124 S 
ATOM     68  O   UNL     1     -20.750  -5.314   3.939  1.00  0.00    -0.237 OA
ATOM     69  O   UNL     1     -21.957  -7.335   4.687  1.00  0.00    -0.237 OA
ATOM     70  O   UNL     1     -21.498  -5.511   6.281  1.00  0.00    -0.744 OA
ENDBRANCH  66  67
ENDBRANCH  47  61
BRANCH  48  71
ATOM     71  C   UNL     1      -8.111 -12.185   8.027  1.00  0.00    -0.014 A 
ATOM     72  C   UNL     1      -7.891 -13.569   7.912  1.00  0.00     0.010 A 
ATOM     73  C   UNL     1      -7.048 -11.357   8.432  1.00  0.00     0.010 A 
ATOM     74  C   UNL     1      -6.643 -14.117   8.222  1.00  0.00     0.020 A 
ATOM     75  C   UNL     1      -5.790 -11.897   8.711  1.00  0.00     0.020 A 
ATOM     76  C   UNL     1      -5.599 -13.276   8.618  1.00  0.00     0.054 A 
BRANCH  76  77
ATOM     77  S   UNL     1      -3.978 -14.005   8.978  1.00  0.00     0.124 S 
ATOM     78  O   UNL     1      -4.229 -14.698  10.238  1.00  0.00    -0.237 OA
ATOM     79  O   UNL     1      -3.754 -14.862   7.816  1.00  0.00    -0.237 OA
ATOM     80  O   UNL     1      -3.093 -12.845   9.067  1.00  0.00    -0.744 OA
ENDBRANCH  76  77
ENDBRANCH  48  71
BRANCH  60  81
ATOM     81  C   UNL     1     -14.421 -12.805  10.935  1.00  0.00    -0.014 A 
ATOM     82  C   UNL     1     -14.041 -12.553  12.265  1.00  0.00     0.010 A 
ATOM     83  C   UNL     1     -15.320 -13.854  10.667  1.00  0.00     0.010 A 
ATOM     84  C   UNL     1     -14.503 -13.373  13.298  1.00  0.00     0.020 A 
ATOM     85  C   UNL     1     -15.813 -14.652  11.701  1.00  0.00     0.020 A 
ATOM     86  C   UNL     1     -15.382 -14.421  13.008  1.00  0.00     0.054 A 
BRANCH  86  87
ATOM     87  S   UNL     1     -15.970 -15.469  14.366  1.00  0.00     0.124 S 
ATOM     88  O   UNL     1     -14.779 -16.254  14.680  1.00  0.00    -0.237 OA
ATOM     89  O   UNL     1     -16.363 -14.491  15.377  1.00  0.00    -0.237 OA
ATOM     90  O   UNL     1     -17.073 -16.221  13.771  1.00  0.00    -0.744 OA
ENDBRANCH  86  87
ENDBRANCH  60  81
ENDBRANCH  34  35
ENDBRANCH  26  29
ENDBRANCH  24  25
ENDBRANCH   1  24
TORSDOF 16
