REMARK SMILES C[NH+]1CCC([NH+]2CCC(Oc3ccc4ccccc4c3)(C(=O)NCCCNC(=O)c3ccc(-c4c5nc(c(-c6ccc(S(=O)(=O)[O-])cc6)c6ccc([nH]6)c(-c6ccc(S(=O)(=O)[O-])cc6)c6nc(c(-c7ccc(S(=O)(=O)[O-])cc7)c7ccc4[nH]7)C=C6)C=C5)cc3)CC2)CC1
REMARK SMILES IDX 25 1 24 2 23 3 21 4 22 5 9 7 6 8 7 9 91 10 8 12 90 13 5 14
REMARK SMILES IDX 1 15 2 16 3 17 93 18 4 20 92 21 10 22 11 23 12 24 20 25
REMARK SMILES IDX 13 26 19 27 14 28 18 29 15 30 17 31 16 32 26 33 27 34 28 35
REMARK SMILES IDX 29 37 30 38 31 39 89 40 32 41 88 42 33 43 34 44 35 45 82 46
REMARK SMILES IDX 36 47 87 48 81 49 83 50 37 51 86 52 80 53 79 54 38 56 68 57
REMARK SMILES IDX 49 58 67 59 50 60 53 61 66 62 84 63 51 64 52 65 65 67 85 68
REMARK SMILES IDX 54 69 39 70 40 71 48 72 41 73 47 74 42 75 43 76 44 77 45 78
REMARK SMILES IDX 46 79 69 80 70 81 78 82 71 83 77 84 72 85 73 86 74 87 75 88
REMARK SMILES IDX 76 89 55 90 56 91 64 92 57 93 63 94 58 95 59 96 60 97 61 98
REMARK SMILES IDX 62 99
REMARK H PARENT 23 6 6 11 2 19 27 36 83 55 53 66
REMARK Flexibility Score: inf
ROOT
ATOM      1  C   UNL     1       4.726  -1.147   5.537  1.00  0.00     0.042 C 
ENDROOT
BRANCH   1   2
ATOM      2  C   UNL     1       5.831  -1.645   4.610  1.00  0.00     0.118 C 
BRANCH   2   3
ATOM      3  N   UNL     1       5.323  -2.510   3.559  1.00  0.00    -0.353 N 
ATOM      4  C   UNL     1       5.246  -2.324   2.207  1.00  0.00     0.264 C 
ATOM      5  O   UNL     1       4.882  -3.305   1.550  1.00  0.00    -0.270 OA
ATOM      6  H   UNL     1       4.975  -3.376   3.874  1.00  0.00     0.163 HD
BRANCH   4   7
ATOM      7  C   UNL     1       5.593  -0.956   1.544  1.00  0.00     0.197 C 
ATOM      8  N   UNL     1       3.099  -0.114   0.214  1.00  0.00    -0.332 N 
ATOM      9  C   UNL     1       3.216  -0.123   1.676  1.00  0.00     0.267 C 
ATOM     10  C   UNL     1       3.927  -1.169  -0.395  1.00  0.00     0.267 C 
ATOM     11  H   UNL     1       3.469   0.785  -0.098  1.00  0.00     0.348 HD
ATOM     12  C   UNL     1       4.664   0.149   2.059  1.00  0.00     0.120 C 
ATOM     13  C   UNL     1       5.408  -1.062   0.014  1.00  0.00     0.120 C 
BRANCH   8  14
ATOM     14  C   UNL     1       1.696  -0.134  -0.273  1.00  0.00     0.195 C 
ATOM     15  C   UNL     1      -2.615   0.070  -0.237  1.00  0.00     0.332 C 
ATOM     16  N   UNL     1      -1.200   0.018   0.121  1.00  0.00    -0.337 N 
ATOM     17  C   UNL     1      -0.478   1.175  -0.419  1.00  0.00     0.268 C 
ATOM     18  C   UNL     1      -0.586  -1.236  -0.326  1.00  0.00     0.268 C 
ATOM     19  H   UNL     1      -1.135   0.052   1.138  1.00  0.00     0.347 HD
ATOM     20  C   UNL     1       0.968   1.181   0.075  1.00  0.00     0.126 C 
ATOM     21  C   UNL     1       0.854  -1.341   0.179  1.00  0.00     0.126 C 
ENDBRANCH   8  14
BRANCH   7  22
ATOM     22  O   UNL     1       6.989  -0.824   1.913  1.00  0.00    -0.477 OA
BRANCH  22  23
ATOM     23  C   UNL     1       7.697   0.261   1.495  1.00  0.00     0.121 A 
ATOM     24  C   UNL     1       7.471   1.541   1.986  1.00  0.00     0.047 A 
ATOM     25  C   UNL     1       8.799   0.020   0.674  1.00  0.00     0.055 A 
ATOM     26  C   UNL     1       8.267   2.606   1.563  1.00  0.00     0.012 A 
ATOM     27  C   UNL     1       9.637   1.072   0.271  1.00  0.00    -0.015 A 
ATOM     28  C   UNL     1       9.349   2.388   0.701  1.00  0.00    -0.018 A 
ATOM     29  C   UNL     1      10.760   0.849  -0.541  1.00  0.00     0.009 A 
ATOM     30  C   UNL     1      10.166   3.447   0.279  1.00  0.00     0.009 A 
ATOM     31  C   UNL     1      11.574   1.911  -0.939  1.00  0.00     0.001 A 
ATOM     32  C   UNL     1      11.272   3.210  -0.538  1.00  0.00     0.001 A 
ENDBRANCH  22  23
ENDBRANCH   7  22
ENDBRANCH   4   7
ENDBRANCH   2   3
ENDBRANCH   1   2
BRANCH   1  33
ATOM     33  C   UNL     1       4.035  -2.243   6.339  1.00  0.00     0.118 C 
BRANCH  33  34
ATOM     34  N   UNL     1       4.935  -2.909   7.269  1.00  0.00    -0.352 N 
ATOM     35  C   UNL     1       4.900  -2.986   8.637  1.00  0.00     0.251 C 
ATOM     36  H   UNL     1       5.690  -3.379   6.848  1.00  0.00     0.163 HD
ATOM     37  O   UNL     1       5.879  -3.439   9.235  1.00  0.00    -0.269 OA
BRANCH  35  38
ATOM     38  C   UNL     1       3.723  -2.521   9.403  1.00  0.00     0.039 A 
ATOM     39  C   UNL     1       3.931  -1.841  10.607  1.00  0.00     0.014 A 
ATOM     40  C   UNL     1       2.419  -2.785   8.973  1.00  0.00     0.014 A 
ATOM     41  C   UNL     1       2.839  -1.377  11.345  1.00  0.00     0.010 A 
ATOM     42  C   UNL     1       1.333  -2.257   9.671  1.00  0.00     0.010 A 
ATOM     43  C   UNL     1       1.531  -1.552  10.867  1.00  0.00    -0.014 A 
BRANCH  43  44
ATOM     44  C   UNL     1       0.364  -0.997  11.602  1.00  0.00     0.031 A 
ATOM     45  C   UNL     1      -0.680  -1.913  12.183  1.00  0.00     0.074 A 
ATOM     46  C   UNL     1       0.215   0.340  11.698  1.00  0.00     0.049 A 
ATOM     47  N   UNL     1      -1.782  -1.606  12.820  1.00  0.00    -0.248 NA
ATOM     48  C   UNL     1      -0.473  -3.359  12.005  1.00  0.00     0.031 C 
ATOM     49  C   UNL     1       1.131   1.336  11.138  1.00  0.00     0.029 A 
ATOM     50  N   UNL     1      -0.766   1.091  12.295  1.00  0.00    -0.354 N 
ATOM     51  C   UNL     1      -2.407  -2.816  13.101  1.00  0.00     0.074 A 
ATOM     52  C   UNL     1      -1.584  -3.858  12.527  1.00  0.00     0.031 C 
ATOM     53  C   UNL     1       0.682   2.565  11.438  1.00  0.00     0.029 A 
ATOM     54  C   UNL     1      -0.571   2.447  12.178  1.00  0.00     0.049 A 
ATOM     55  H   UNL     1      -1.537   0.696  12.762  1.00  0.00     0.167 HD
ATOM     56  C   UNL     1      -3.553  -3.041  13.789  1.00  0.00     0.031 A 
ATOM     57  C   UNL     1      -1.317   3.482  12.610  1.00  0.00     0.031 A 
ATOM     58  C   UNL     1      -4.364  -2.004  14.370  1.00  0.00     0.049 A 
ATOM     59  C   UNL     1      -2.581   3.208  13.376  1.00  0.00     0.074 A 
ATOM     60  C   UNL     1      -5.508  -2.135  15.139  1.00  0.00     0.029 A 
ATOM     61  N   UNL     1      -4.123  -0.644  14.243  1.00  0.00    -0.354 N 
ATOM     62  N   UNL     1      -3.116   2.053  13.694  1.00  0.00    -0.248 NA
ATOM     63  C   UNL     1      -3.334   4.376  13.853  1.00  0.00     0.031 C 
ATOM     64  C   UNL     1      -5.985  -0.854  15.436  1.00  0.00     0.029 A 
ATOM     65  C   UNL     1      -5.109   0.075  14.898  1.00  0.00     0.049 A 
ATOM     66  H   UNL     1      -3.363  -0.248  13.758  1.00  0.00     0.167 HD
ATOM     67  C   UNL     1      -4.258   2.356  14.428  1.00  0.00     0.074 A 
ATOM     68  C   UNL     1      -4.324   3.800  14.521  1.00  0.00     0.031 C 
ATOM     69  C   UNL     1      -5.168   1.513  14.976  1.00  0.00     0.031 A 
BRANCH  56  70
ATOM     70  C   UNL     1      -4.002  -4.471  13.943  1.00  0.00    -0.014 A 
ATOM     71  C   UNL     1      -3.301  -5.370  14.768  1.00  0.00     0.010 A 
ATOM     72  C   UNL     1      -5.163  -4.915  13.282  1.00  0.00     0.010 A 
ATOM     73  C   UNL     1      -3.724  -6.696  14.892  1.00  0.00     0.020 A 
ATOM     74  C   UNL     1      -5.606  -6.233  13.426  1.00  0.00     0.020 A 
ATOM     75  C   UNL     1      -4.872  -7.120  14.216  1.00  0.00     0.054 A 
BRANCH  75  76
ATOM     76  S   UNL     1      -5.407  -8.843  14.406  1.00  0.00     0.124 S 
ATOM     77  O   UNL     1      -4.421  -9.555  13.597  1.00  0.00    -0.237 OA
ATOM     78  O   UNL     1      -5.305  -9.054  15.848  1.00  0.00    -0.237 OA
ATOM     79  O   UNL     1      -6.768  -8.845  13.874  1.00  0.00    -0.744 OA
ENDBRANCH  75  76
ENDBRANCH  56  70
BRANCH  57  80
ATOM     80  C   UNL     1      -0.874   4.877  12.338  1.00  0.00    -0.014 A 
ATOM     81  C   UNL     1      -0.382   5.686  13.377  1.00  0.00     0.010 A 
ATOM     82  C   UNL     1      -0.922   5.396  11.031  1.00  0.00     0.010 A 
ATOM     83  C   UNL     1       0.041   6.992  13.117  1.00  0.00     0.020 A 
ATOM     84  C   UNL     1      -0.475   6.692  10.763  1.00  0.00     0.020 A 
ATOM     85  C   UNL     1      -0.006   7.487  11.811  1.00  0.00     0.054 A 
BRANCH  85  86
ATOM     86  S   UNL     1       0.604   9.165  11.486  1.00  0.00     0.124 S 
ATOM     87  O   UNL     1      -0.476   9.989  12.019  1.00  0.00    -0.237 OA
ATOM     88  O   UNL     1       1.856   9.197  12.238  1.00  0.00    -0.237 OA
ATOM     89  O   UNL     1       0.758   9.195  10.033  1.00  0.00    -0.744 OA
ENDBRANCH  85  86
ENDBRANCH  57  80
BRANCH  69  90
ATOM     90  C   UNL     1      -6.303   2.131  15.748  1.00  0.00    -0.014 A 
ATOM     91  C   UNL     1      -7.345   2.812  15.092  1.00  0.00     0.010 A 
ATOM     92  C   UNL     1      -6.348   1.994  17.147  1.00  0.00     0.010 A 
ATOM     93  C   UNL     1      -8.392   3.375  15.827  1.00  0.00     0.020 A 
ATOM     94  C   UNL     1      -7.407   2.532  17.882  1.00  0.00     0.020 A 
ATOM     95  C   UNL     1      -8.415   3.234  17.218  1.00  0.00     0.054 A 
BRANCH  95  96
ATOM     96  S   UNL     1      -9.801   3.946  18.146  1.00  0.00     0.124 S 
ATOM     97  O   UNL     1      -9.482   5.371  18.122  1.00  0.00    -0.237 OA
ATOM     98  O   UNL     1     -10.959   3.548  17.351  1.00  0.00    -0.237 OA
ATOM     99  O   UNL     1      -9.704   3.307  19.457  1.00  0.00    -0.744 OA
ENDBRANCH  95  96
ENDBRANCH  69  90
ENDBRANCH  43  44
ENDBRANCH  35  38
ENDBRANCH  33  34
ENDBRANCH   1  33
TORSDOF 16
