REMARK SMILES O=C(NCCCNC(=O)c1cc(S(=O)(=O)Nc2cccc(Cl)c2)ccc1O)c1ccc(-c2c3nc(c(-c4ccc(S(=O)(=O)[O-])cc4)c4ccc([nH]4)c(-c4ccc(S(=O)(=O)[O-])cc4)c4nc(c(-c5ccc(S(=O)(=O)[O-])cc5)c5ccc2[nH]5)C=C4)C=C3)cc1
REMARK SMILES IDX 5 1 4 2 3 3 1 4 2 5 28 7 29 8 87 9 30 10 86 11 31 12 32 13
REMARK SMILES IDX 33 14 80 15 34 16 85 17 79 18 81 19 35 20 84 21 78 22 77 23
REMARK SMILES IDX 36 25 66 26 47 27 65 28 48 29 51 30 64 31 82 32 49 33 50 34
REMARK SMILES IDX 63 36 83 37 52 38 37 39 38 40 46 41 39 42 45 43 40 44 41 45
REMARK SMILES IDX 42 46 43 47 44 48 67 49 68 50 76 51 69 52 75 53 70 54 71 55
REMARK SMILES IDX 72 56 73 57 74 58 53 59 54 60 62 61 55 62 61 63 56 64 57 65
REMARK SMILES IDX 58 66 59 67 60 68 6 69 7 70 8 71 9 73 10 74 11 75 26 76
REMARK SMILES IDX 12 77 25 78 24 79 27 80 13 82 14 83 15 84 16 85 17 87 18 88
REMARK SMILES IDX 23 89 19 90 21 91 20 92 22 93
REMARK H PARENT 3 6 81 24 51 35 7 72 27 81 16 86
REMARK Flexibility Score: inf
ROOT
ATOM      1  C   UNL     1       5.191  -0.555   1.994  1.00  0.00     0.042 C 
ENDROOT
BRANCH   1   2
ATOM      2  C   UNL     1       4.706  -1.123   0.671  1.00  0.00     0.118 C 
BRANCH   2   3
ATOM      3  N   UNL     1       3.261  -1.035   0.518  1.00  0.00    -0.352 N 
ATOM      4  O   UNL     1       1.266  -0.168  -0.023  1.00  0.00    -0.269 OA
ATOM      5  C   UNL     1       2.479  -0.180  -0.218  1.00  0.00     0.251 C 
ATOM      6  H   UNL     1       2.757  -1.706   1.032  1.00  0.00     0.163 HD
BRANCH   5   7
ATOM      7  C   UNL     1       3.071   0.738  -1.218  1.00  0.00     0.039 A 
ATOM      8  C   UNL     1       4.115   0.338  -2.054  1.00  0.00     0.014 A 
ATOM      9  C   UNL     1       2.520   2.016  -1.367  1.00  0.00     0.014 A 
ATOM     10  C   UNL     1       4.705   1.251  -2.925  1.00  0.00     0.010 A 
ATOM     11  C   UNL     1       3.053   2.904  -2.305  1.00  0.00     0.010 A 
ATOM     12  C   UNL     1       4.171   2.539  -3.070  1.00  0.00    -0.014 A 
BRANCH  12  13
ATOM     13  C   UNL     1       4.749   3.475  -4.066  1.00  0.00     0.031 A 
ATOM     14  C   UNL     1       5.395   4.760  -3.631  1.00  0.00     0.074 A 
ATOM     15  C   UNL     1       4.671   3.168  -5.376  1.00  0.00     0.049 A 
ATOM     16  N   UNL     1       5.894   5.719  -4.368  1.00  0.00    -0.248 NA
ATOM     17  C   UNL     1       5.484   5.003  -2.183  1.00  0.00     0.031 C 
ATOM     18  C   UNL     1       4.062   1.953  -5.923  1.00  0.00     0.029 A 
ATOM     19  N   UNL     1       5.102   3.853  -6.483  1.00  0.00    -0.354 N 
ATOM     20  C   UNL     1       6.324   6.696  -3.478  1.00  0.00     0.074 A 
ATOM     21  C   UNL     1       6.019   6.216  -2.147  1.00  0.00     0.031 C 
ATOM     22  C   UNL     1       4.174   1.970  -7.259  1.00  0.00     0.029 A 
ATOM     23  C   UNL     1       4.808   3.219  -7.666  1.00  0.00     0.049 A 
ATOM     24  H   UNL     1       5.575   4.715  -6.435  1.00  0.00     0.167 HD
ATOM     25  C   UNL     1       6.918   7.884  -3.747  1.00  0.00     0.031 A 
ATOM     26  C   UNL     1       4.996   3.607  -8.942  1.00  0.00     0.031 A 
ATOM     27  C   UNL     1       7.225   8.354  -5.071  1.00  0.00     0.049 A 
ATOM     28  C   UNL     1       5.646   4.929  -9.219  1.00  0.00     0.074 A 
ATOM     29  C   UNL     1       7.859   9.527  -5.443  1.00  0.00     0.029 A 
ATOM     30  N   UNL     1       6.915   7.678  -6.242  1.00  0.00    -0.354 N 
ATOM     31  N   UNL     1       6.074   5.824  -8.363  1.00  0.00    -0.248 NA
ATOM     32  C   UNL     1       5.837   5.294 -10.628  1.00  0.00     0.031 C 
ATOM     33  C   UNL     1       7.898   9.577  -6.841  1.00  0.00     0.029 A 
ATOM     34  C   UNL     1       7.325   8.417  -7.338  1.00  0.00     0.049 A 
ATOM     35  H   UNL     1       6.469   6.801  -6.286  1.00  0.00     0.167 HD
ATOM     36  C   UNL     1       6.598   6.858  -9.128  1.00  0.00     0.074 A 
ATOM     37  C   UNL     1       6.440   6.472 -10.517  1.00  0.00     0.031 C 
ATOM     38  C   UNL     1       7.159   8.020  -8.714  1.00  0.00     0.031 A 
BRANCH  25  39
ATOM     39  C   UNL     1       7.232   8.773  -2.574  1.00  0.00    -0.014 A 
ATOM     40  C   UNL     1       8.293   8.480  -1.699  1.00  0.00     0.010 A 
ATOM     41  C   UNL     1       6.448   9.918  -2.343  1.00  0.00     0.010 A 
ATOM     42  C   UNL     1       8.526   9.283  -0.579  1.00  0.00     0.020 A 
ATOM     43  C   UNL     1       6.691  10.735  -1.235  1.00  0.00     0.020 A 
ATOM     44  C   UNL     1       7.712  10.396  -0.345  1.00  0.00     0.054 A 
BRANCH  44  45
ATOM     45  S   UNL     1       8.008  11.405   1.133  1.00  0.00     0.124 S 
ATOM     46  O   UNL     1       7.374  10.601   2.175  1.00  0.00    -0.237 OA
ATOM     47  O   UNL     1       9.466  11.473   1.196  1.00  0.00    -0.237 OA
ATOM     48  O   UNL     1       7.342  12.669   0.828  1.00  0.00    -0.744 OA
ENDBRANCH  44  45
ENDBRANCH  25  39
BRANCH  26  49
ATOM     49  C   UNL     1       4.534   2.714 -10.036  1.00  0.00    -0.014 A 
ATOM     50  C   UNL     1       5.451   1.926 -10.749  1.00  0.00     0.010 A 
ATOM     51  C   UNL     1       3.157   2.570 -10.290  1.00  0.00     0.010 A 
ATOM     52  C   UNL     1       4.998   0.994 -11.687  1.00  0.00     0.020 A 
ATOM     53  C   UNL     1       2.700   1.625 -11.211  1.00  0.00     0.020 A 
ATOM     54  C   UNL     1       3.624   0.842 -11.905  1.00  0.00     0.054 A 
BRANCH  54  55
ATOM     55  S   UNL     1       3.051  -0.458 -13.034  1.00  0.00     0.124 S 
ATOM     56  O   UNL     1       3.267   0.158 -14.339  1.00  0.00    -0.237 OA
ATOM     57  O   UNL     1       3.932  -1.576 -12.707  1.00  0.00    -0.237 OA
ATOM     58  O   UNL     1       1.653  -0.647 -12.651  1.00  0.00    -0.744 OA
ENDBRANCH  54  55
ENDBRANCH  26  49
BRANCH  38  59
ATOM     59  C   UNL     1       7.668   8.958  -9.771  1.00  0.00    -0.014 A 
ATOM     60  C   UNL     1       6.786   9.787 -10.485  1.00  0.00     0.010 A 
ATOM     61  C   UNL     1       9.053   9.072  -9.989  1.00  0.00     0.010 A 
ATOM     62  C   UNL     1       7.282  10.715 -11.404  1.00  0.00     0.020 A 
ATOM     63  C   UNL     1       9.553  10.010 -10.895  1.00  0.00     0.020 A 
ATOM     64  C   UNL     1       8.663  10.823 -11.601  1.00  0.00     0.054 A 
BRANCH  64  65
ATOM     65  S   UNL     1       9.291  12.090 -12.738  1.00  0.00     0.124 S 
ATOM     66  O   UNL     1       9.047  11.477 -14.041  1.00  0.00    -0.237 OA
ATOM     67  O   UNL     1       8.459  13.249 -12.423  1.00  0.00    -0.237 OA
ATOM     68  O   UNL     1      10.697  12.222 -12.364  1.00  0.00    -0.744 OA
ENDBRANCH  64  65
ENDBRANCH  38  59
ENDBRANCH  12  13
ENDBRANCH   5   7
ENDBRANCH   2   3
ENDBRANCH   1   2
BRANCH   1  69
ATOM     69  C   UNL     1       4.654  -1.273   3.220  1.00  0.00     0.118 C 
BRANCH  69  70
ATOM     70  N   UNL     1       5.061  -2.670   3.317  1.00  0.00    -0.352 N 
ATOM     71  C   UNL     1       5.595  -3.344   4.393  1.00  0.00     0.255 C 
ATOM     72  H   UNL     1       4.936  -3.206   2.501  1.00  0.00     0.163 HD
ATOM     73  O   UNL     1       5.884  -4.533   4.298  1.00  0.00    -0.269 OA
BRANCH  71  74
ATOM     74  C   UNL     1       5.928  -2.606   5.630  1.00  0.00     0.082 A 
ATOM     75  C   UNL     1       7.227  -2.741   6.136  1.00  0.00     0.040 A 
ATOM     76  C   UNL     1       5.020  -1.760   6.274  1.00  0.00     0.128 A 
ATOM     77  C   UNL     1       7.649  -1.906   7.174  1.00  0.00     0.088 A 
ATOM     78  C   UNL     1       5.473  -0.853   7.223  1.00  0.00     0.048 A 
ATOM     79  C   UNL     1       6.810  -0.883   7.618  1.00  0.00     0.026 A 
BRANCH  76  80
ATOM     80  O   UNL     1       3.692  -1.792   5.954  1.00  0.00    -0.507 OA
ATOM     81  H   UNL     1       3.379  -2.401   5.314  1.00  0.00     0.293 HD
ENDBRANCH  76  80
BRANCH  77  82
ATOM     82  S   UNL     1       9.186  -2.317   7.981  1.00  0.00     0.261 S 
ATOM     83  O   UNL     1       9.064  -3.689   8.430  1.00  0.00    -0.201 OA
ATOM     84  O   UNL     1      10.248  -1.907   7.091  1.00  0.00    -0.201 OA
BRANCH  82  85
ATOM     85  N   UNL     1       9.346  -1.346   9.345  1.00  0.00    -0.280 N 
ATOM     86  H   UNL     1      10.216  -0.913   9.503  1.00  0.00     0.180 HD
BRANCH  85  87
ATOM     87  C   UNL     1       8.305  -1.109  10.287  1.00  0.00     0.050 A 
ATOM     88  C   UNL     1       7.310  -2.044  10.587  1.00  0.00     0.027 A 
ATOM     89  C   UNL     1       8.234   0.176  10.835  1.00  0.00     0.047 A 
ATOM     90  C   UNL     1       6.183  -1.652  11.316  1.00  0.00     0.004 A 
ATOM     91  C   UNL     1       7.112   0.557  11.567  1.00  0.00     0.043 A 
ATOM     92  C   UNL     1       6.074  -0.344  11.788  1.00  0.00     0.020 A 
ATOM     93  Cl  UNL     1       6.980   2.173  12.142  1.00  0.00    -0.084 Cl
ENDBRANCH  85  87
ENDBRANCH  82  85
ENDBRANCH  77  82
ENDBRANCH  71  74
ENDBRANCH  69  70
ENDBRANCH   1  69
TORSDOF 17
