REMARK SMILES CC(C)CSc1cc2c(cc1Cl)C=C(C(=O)NCCCNC(=O)c1ccc(-c3c4nc(c(-c5ccc(S(=O)(=O)[O-])cc5)c5ccc([nH]5)c(-c5ccc(S(=O)(=O)[O-])cc5)c5nc(c(-c6ccc(S(=O)(=O)[O-])cc6)c6ccc3[nH]6)C=C5)C=C4)cc1)[C@H](C(F)(F)F)O2
REMARK SMILES IDX 19 1 18 2 17 3 15 4 16 5 14 7 6 8 7 9 11 10 8 11 10 12 12 13
REMARK SMILES IDX 9 14 89 15 13 16 84 17 5 18 4 19 2 20 1 21 3 22 85 23 86 24
REMARK SMILES IDX 87 25 88 26 20 27 21 28 22 29 23 31 24 32 25 33 83 34 26 35
REMARK SMILES IDX 82 36 27 37 28 38 29 39 76 40 30 41 81 42 75 43 77 44 31 45
REMARK SMILES IDX 80 46 74 47 73 48 32 50 62 51 43 52 61 53 44 54 47 55 60 56
REMARK SMILES IDX 78 57 45 58 46 59 59 61 79 62 48 63 33 64 34 65 42 66 35 67
REMARK SMILES IDX 41 68 36 69 37 70 38 71 39 72 40 73 63 74 64 75 72 76 65 77
REMARK SMILES IDX 71 78 66 79 67 80 68 81 69 82 70 83 49 84 50 85 58 86 51 87
REMARK SMILES IDX 57 88 52 89 53 90 54 91 55 92 56 93
REMARK H PARENT 17 6 21 30 77 49 47 60
REMARK Flexibility Score: inf
ROOT
ATOM      1  C   UNL     1      -2.758   9.846  -1.007  1.00  0.00     0.042 C 
ENDROOT
BRANCH   1   2
ATOM      2  C   UNL     1      -1.430   9.384  -1.588  1.00  0.00     0.118 C 
BRANCH   2   3
ATOM      3  N   UNL     1      -0.489   8.999  -0.551  1.00  0.00    -0.352 N 
ATOM      4  C   UNL     1      -0.009   7.854  -0.020  1.00  0.00     0.251 C 
ATOM      5  O   UNL     1       0.852   8.010   0.853  1.00  0.00    -0.270 OA
ATOM      6  H   UNL     1      -0.092   9.789  -0.117  1.00  0.00     0.163 HD
BRANCH   4   7
ATOM      7  C   UNL     1      -0.437   6.478  -0.394  1.00  0.00     0.067 C 
ATOM      8  C   UNL     1      -1.113   1.476  -0.471  1.00  0.00     0.030 A 
ATOM      9  C   UNL     1      -1.401   2.526  -1.367  1.00  0.00     0.063 A 
ATOM     10  C   UNL     1      -0.461   1.814   0.729  1.00  0.00     0.055 A 
ATOM     11  C   UNL     1      -1.016   3.835  -1.089  1.00  0.00     0.129 A 
ATOM     12  C   UNL     1       0.039   3.111   0.933  1.00  0.00     0.033 A 
ATOM     13  Cl  UNL     1      -0.301   0.771   2.096  1.00  0.00    -0.083 Cl
ATOM     14  C   UNL     1      -0.237   4.123   0.023  1.00  0.00     0.019 A 
ATOM     15  O   UNL     1      -1.442   4.818  -1.939  1.00  0.00    -0.475 OA
ATOM     16  C   UNL     1       0.223   5.486   0.235  1.00  0.00     0.025 C 
ATOM     17  C   UNL     1      -1.585   6.126  -1.302  1.00  0.00     0.314 C 
BRANCH   8  18
ATOM     18  S   UNL     1      -1.717  -0.104  -1.068  1.00  0.00    -0.124 SA
BRANCH  18  19
ATOM     19  C   UNL     1      -0.802  -1.425  -0.210  1.00  0.00     0.078 C 
BRANCH  19  20
ATOM     20  C   UNL     1       0.656  -1.715  -0.616  1.00  0.00    -0.007 C 
ATOM     21  C   UNL     1       1.636  -0.544  -0.565  1.00  0.00     0.008 C 
ATOM     22  C   UNL     1       1.181  -2.840   0.288  1.00  0.00     0.008 C 
ENDBRANCH  19  20
ENDBRANCH  18  19
ENDBRANCH   8  18
BRANCH  17  23
ATOM     23  C   UNL     1      -2.960   6.276  -0.615  1.00  0.00     0.429 C 
ATOM     24  F   UNL     1      -3.521   5.090  -0.293  1.00  0.00    -0.167 F 
ATOM     25  F   UNL     1      -2.886   6.997   0.529  1.00  0.00    -0.167 F 
ATOM     26  F   UNL     1      -3.826   6.926  -1.432  1.00  0.00    -0.167 F 
ENDBRANCH  17  23
ENDBRANCH   4   7
ENDBRANCH   2   3
ENDBRANCH   1   2
BRANCH   1  27
ATOM     27  C   UNL     1      -2.678  11.246  -0.416  1.00  0.00     0.118 C 
BRANCH  27  28
ATOM     28  N   UNL     1      -2.495  12.263  -1.448  1.00  0.00    -0.352 N 
ATOM     29  C   UNL     1      -3.381  13.190  -1.944  1.00  0.00     0.251 C 
ATOM     30  H   UNL     1      -1.597  12.289  -1.852  1.00  0.00     0.163 HD
ATOM     31  O   UNL     1      -3.121  13.775  -2.993  1.00  0.00    -0.269 OA
BRANCH  29  32
ATOM     32  C   UNL     1      -4.643  13.463  -1.227  1.00  0.00     0.039 A 
ATOM     33  C   UNL     1      -4.661  13.512   0.166  1.00  0.00     0.014 A 
ATOM     34  C   UNL     1      -5.822  13.671  -1.948  1.00  0.00     0.014 A 
ATOM     35  C   UNL     1      -5.874  13.550   0.838  1.00  0.00     0.010 A 
ATOM     36  C   UNL     1      -7.031  13.840  -1.264  1.00  0.00     0.010 A 
ATOM     37  C   UNL     1      -7.074  13.730   0.134  1.00  0.00    -0.014 A 
BRANCH  37  38
ATOM     38  C   UNL     1      -8.351  13.819   0.891  1.00  0.00     0.031 A 
ATOM     39  C   UNL     1      -9.456  12.823   0.661  1.00  0.00     0.074 A 
ATOM     40  C   UNL     1      -8.486  14.779   1.831  1.00  0.00     0.049 A 
ATOM     41  N   UNL     1     -10.632  12.764   1.230  1.00  0.00    -0.248 NA
ATOM     42  C   UNL     1      -9.222  11.760  -0.332  1.00  0.00     0.031 C 
ATOM     43  C   UNL     1      -7.474  15.790   2.150  1.00  0.00     0.029 A 
ATOM     44  N   UNL     1      -9.508  15.050   2.706  1.00  0.00    -0.354 N 
ATOM     45  C   UNL     1     -11.284  11.681   0.652  1.00  0.00     0.074 A 
ATOM     46  C   UNL     1     -10.386  11.123  -0.333  1.00  0.00     0.031 C 
ATOM     47  C   UNL     1      -7.900  16.531   3.181  1.00  0.00     0.029 A 
ATOM     48  C   UNL     1      -9.252  16.116   3.538  1.00  0.00     0.049 A 
ATOM     49  H   UNL     1     -10.345  14.533   2.735  1.00  0.00     0.167 HD
ATOM     50  C   UNL     1     -12.513  11.193   0.933  1.00  0.00     0.031 A 
ATOM     51  C   UNL     1     -10.020  16.719   4.468  1.00  0.00     0.031 A 
ATOM     52  C   UNL     1     -13.381  11.737   1.946  1.00  0.00     0.049 A 
ATOM     53  C   UNL     1     -11.391  16.173   4.738  1.00  0.00     0.074 A 
ATOM     54  C   UNL     1     -14.632  11.283   2.327  1.00  0.00     0.029 A 
ATOM     55  N   UNL     1     -13.096  12.835   2.742  1.00  0.00    -0.354 N 
ATOM     56  N   UNL     1     -11.978  15.134   4.194  1.00  0.00    -0.248 NA
ATOM     57  C   UNL     1     -12.205  16.867   5.744  1.00  0.00     0.031 C 
ATOM     58  C   UNL     1     -15.136  12.152   3.292  1.00  0.00     0.029 A 
ATOM     59  C   UNL     1     -14.163  13.095   3.585  1.00  0.00     0.049 A 
ATOM     60  H   UNL     1     -12.259  13.354   2.712  1.00  0.00     0.167 HD
ATOM     61  C   UNL     1     -13.226  15.043   4.799  1.00  0.00     0.074 A 
ATOM     62  C   UNL     1     -13.297  16.113   5.772  1.00  0.00     0.031 C 
ATOM     63  C   UNL     1     -14.223  14.158   4.558  1.00  0.00     0.031 A 
BRANCH  50  64
ATOM     64  C   UNL     1     -13.025  10.001   0.164  1.00  0.00    -0.014 A 
ATOM     65  C   UNL     1     -14.154  10.147  -0.666  1.00  0.00     0.010 A 
ATOM     66  C   UNL     1     -12.522   8.711   0.411  1.00  0.00     0.010 A 
ATOM     67  C   UNL     1     -14.812   9.025  -1.176  1.00  0.00     0.020 A 
ATOM     68  C   UNL     1     -13.160   7.587  -0.124  1.00  0.00     0.020 A 
ATOM     69  C   UNL     1     -14.322   7.751  -0.883  1.00  0.00     0.054 A 
BRANCH  69  70
ATOM     70  S   UNL     1     -15.252   6.305  -1.465  1.00  0.00     0.124 S 
ATOM     71  O   UNL     1     -16.438   6.340  -0.616  1.00  0.00    -0.237 OA
ATOM     72  O   UNL     1     -15.473   6.617  -2.875  1.00  0.00    -0.237 OA
ATOM     73  O   UNL     1     -14.340   5.189  -1.219  1.00  0.00    -0.744 OA
ENDBRANCH  69  70
ENDBRANCH  50  64
BRANCH  51  74
ATOM     74  C   UNL     1      -9.488  17.916   5.181  1.00  0.00    -0.014 A 
ATOM     75  C   UNL     1      -9.187  19.089   4.460  1.00  0.00     0.010 A 
ATOM     76  C   UNL     1      -9.196  17.871   6.555  1.00  0.00     0.010 A 
ATOM     77  C   UNL     1      -8.543  20.162   5.078  1.00  0.00     0.020 A 
ATOM     78  C   UNL     1      -8.590  18.962   7.189  1.00  0.00     0.020 A 
ATOM     79  C   UNL     1      -8.237  20.086   6.438  1.00  0.00     0.054 A 
BRANCH  79  80
ATOM     80  S   UNL     1      -7.358  21.474   7.206  1.00  0.00     0.124 S 
ATOM     81  O   UNL     1      -6.002  21.287   6.697  1.00  0.00    -0.237 OA
ATOM     82  O   UNL     1      -8.073  22.634   6.681  1.00  0.00    -0.237 OA
ATOM     83  O   UNL     1      -7.527  21.236   8.637  1.00  0.00    -0.744 OA
ENDBRANCH  79  80
ENDBRANCH  51  74
BRANCH  63  84
ATOM     84  C   UNL     1     -15.498  14.284   5.351  1.00  0.00    -0.014 A 
ATOM     85  C   UNL     1     -15.880  13.249   6.226  1.00  0.00     0.010 A 
ATOM     86  C   UNL     1     -16.391  15.343   5.113  1.00  0.00     0.010 A 
ATOM     87  C   UNL     1     -17.149  13.243   6.807  1.00  0.00     0.020 A 
ATOM     88  C   UNL     1     -17.649  15.359   5.721  1.00  0.00     0.020 A 
ATOM     89  C   UNL     1     -18.031  14.293   6.540  1.00  0.00     0.054 A 
BRANCH  89  90
ATOM     90  S   UNL     1     -19.695  14.238   7.258  1.00  0.00     0.124 S 
ATOM     91  O   UNL     1     -20.342  13.203   6.457  1.00  0.00    -0.237 OA
ATOM     92  O   UNL     1     -19.431  13.884   8.650  1.00  0.00    -0.237 OA
ATOM     93  O   UNL     1     -20.203  15.593   7.054  1.00  0.00    -0.744 OA
ENDBRANCH  89  90
ENDBRANCH  63  84
ENDBRANCH  37  38
ENDBRANCH  29  32
ENDBRANCH  27  28
ENDBRANCH   1  27
TORSDOF 17
