REMARK SMILES CC(C)C[C@H](Nc1ncnc2scc(-c3ccccc3)c12)C(=O)NCCCNC(=O)c1ccc(-c2c3nc(c(-c4ccc(S(=O)(=O)[O-])cc4)c4ccc([nH]4)c(-c4ccc(S(=O)(=O)[O-])cc4)c4nc(c(-c5ccc(S(=O)(=O)[O-])cc5)c5ccc2[nH]5)C=C4)C=C3)cc1
REMARK SMILES IDX 26 1 25 2 24 3 22 4 23 5 5 7 4 8 2 9 1 10 3 11 6 12 7 14
REMARK SMILES IDX 8 15 21 16 9 17 11 18 14 19 10 20 12 21 13 22 15 23 16 24
REMARK SMILES IDX 20 25 17 26 19 27 18 28 27 29 28 30 29 31 30 33 31 34 32 35
REMARK SMILES IDX 90 36 33 37 89 38 34 39 35 40 36 41 83 42 37 43 88 44 82 45
REMARK SMILES IDX 84 46 38 47 87 48 81 49 80 50 39 52 69 53 50 54 68 55 51 56
REMARK SMILES IDX 54 57 67 58 85 59 52 60 53 61 66 63 86 64 55 65 40 66 41 67
REMARK SMILES IDX 49 68 42 69 48 70 43 71 44 72 45 73 46 74 47 75 70 76 71 77
REMARK SMILES IDX 79 78 72 79 78 80 73 81 74 82 75 83 76 84 77 85 56 86 57 87
REMARK SMILES IDX 65 88 58 89 64 90 59 91 60 92 61 93 62 94 63 95
REMARK H PARENT 24 6 6 13 28 32 84 51 54 62
REMARK Flexibility Score: inf
ROOT
ATOM      1  C   UNL     1      -3.550   1.601  -4.556  1.00  0.00     0.042 C 
ENDROOT
BRANCH   1   2
ATOM      2  C   UNL     1      -3.249   2.484  -3.352  1.00  0.00     0.117 C 
BRANCH   2   3
ATOM      3  N   UNL     1      -3.756   1.991  -2.078  1.00  0.00    -0.354 N 
ATOM      4  C   UNL     1      -3.140   1.716  -0.889  1.00  0.00     0.242 C 
ATOM      5  O   UNL     1      -3.874   1.343   0.035  1.00  0.00    -0.273 OA
ATOM      6  H   UNL     1      -4.726   1.824  -2.072  1.00  0.00     0.163 HD
BRANCH   4   7
ATOM      7  C   UNL     1      -1.599   1.751  -0.693  1.00  0.00     0.170 C 
BRANCH   7   8
ATOM      8  C   UNL     1      -0.922   3.075  -1.103  1.00  0.00     0.038 C 
BRANCH   8   9
ATOM      9  C   UNL     1      -1.760   4.361  -0.909  1.00  0.00    -0.015 C 
ATOM     10  C   UNL     1      -2.119   4.627   0.551  1.00  0.00     0.007 C 
ATOM     11  C   UNL     1      -1.025   5.563  -1.507  1.00  0.00     0.007 C 
ENDBRANCH   8   9
ENDBRANCH   7   8
BRANCH   7  12
ATOM     12  N   UNL     1      -1.052   0.507  -1.271  1.00  0.00    -0.358 N 
ATOM     13  H   UNL     1      -1.501  -0.331  -1.016  1.00  0.00     0.162 HD
BRANCH  12  14
ATOM     14  C   UNL     1       0.013   0.393  -2.122  1.00  0.00     0.139 A 
ATOM     15  N   UNL     1       1.119   1.092  -1.775  1.00  0.00    -0.219 NA
ATOM     16  C   UNL     1       0.023  -0.387  -3.319  1.00  0.00     0.062 A 
ATOM     17  C   UNL     1       2.195   1.062  -2.559  1.00  0.00     0.225 A 
ATOM     18  C   UNL     1       1.201  -0.240  -4.059  1.00  0.00     0.129 A 
ATOM     19  C   UNL     1      -0.905  -1.308  -4.033  1.00  0.00     0.006 A 
ATOM     20  N   UNL     1       2.304   0.449  -3.724  1.00  0.00    -0.225 NA
ATOM     21  S   UNL     1       1.169  -1.000  -5.572  1.00  0.00    -0.123 S 
ATOM     22  C   UNL     1      -0.395  -1.587  -5.297  1.00  0.00     0.076 A 
BRANCH  19  23
ATOM     23  C   UNL     1      -2.239  -1.889  -3.700  1.00  0.00    -0.017 A 
ATOM     24  C   UNL     1      -2.727  -3.034  -4.359  1.00  0.00     0.009 A 
ATOM     25  C   UNL     1      -3.110  -1.309  -2.781  1.00  0.00     0.009 A 
ATOM     26  C   UNL     1      -4.023  -3.527  -4.134  1.00  0.00     0.001 A 
ATOM     27  C   UNL     1      -4.391  -1.808  -2.516  1.00  0.00     0.001 A 
ATOM     28  C   UNL     1      -4.856  -2.914  -3.208  1.00  0.00     0.000 A 
ENDBRANCH  19  23
ENDBRANCH  12  14
ENDBRANCH   7  12
ENDBRANCH   4   7
ENDBRANCH   2   3
ENDBRANCH   1   2
BRANCH   1  29
ATOM     29  C   UNL     1      -5.001   1.171  -4.713  1.00  0.00     0.118 C 
BRANCH  29  30
ATOM     30  N   UNL     1      -5.776   2.142  -5.470  1.00  0.00    -0.352 N 
ATOM     31  C   UNL     1      -6.415   1.963  -6.671  1.00  0.00     0.251 C 
ATOM     32  H   UNL     1      -5.852   3.039  -5.070  1.00  0.00     0.163 HD
ATOM     33  O   UNL     1      -6.830   2.943  -7.296  1.00  0.00    -0.269 OA
BRANCH  31  34
ATOM     34  C   UNL     1      -6.593   0.603  -7.226  1.00  0.00     0.039 A 
ATOM     35  C   UNL     1      -6.308   0.370  -8.575  1.00  0.00     0.014 A 
ATOM     36  C   UNL     1      -7.065  -0.440  -6.422  1.00  0.00     0.014 A 
ATOM     37  C   UNL     1      -6.458  -0.914  -9.107  1.00  0.00     0.010 A 
ATOM     38  C   UNL     1      -7.156  -1.731  -6.939  1.00  0.00     0.010 A 
ATOM     39  C   UNL     1      -6.868  -1.980  -8.290  1.00  0.00    -0.014 A 
BRANCH  39  40
ATOM     40  C   UNL     1      -7.050  -3.352  -8.831  1.00  0.00     0.031 A 
ATOM     41  C   UNL     1      -8.428  -3.959  -8.875  1.00  0.00     0.074 A 
ATOM     42  C   UNL     1      -5.984  -4.077  -9.222  1.00  0.00     0.049 A 
ATOM     43  N   UNL     1      -8.786  -5.173  -9.206  1.00  0.00    -0.248 NA
ATOM     44  C   UNL     1      -9.547  -3.092  -8.471  1.00  0.00     0.031 C 
ATOM     45  C   UNL     1      -4.595  -3.615  -9.218  1.00  0.00     0.029 A 
ATOM     46  N   UNL     1      -5.904  -5.365  -9.691  1.00  0.00    -0.354 N 
ATOM     47  C   UNL     1     -10.163  -5.225  -9.025  1.00  0.00     0.074 A 
ATOM     48  C   UNL     1     -10.571  -3.931  -8.521  1.00  0.00     0.031 C 
ATOM     49  C   UNL     1      -3.804  -4.599  -9.677  1.00  0.00     0.029 A 
ATOM     50  C   UNL     1      -4.621  -5.774  -9.968  1.00  0.00     0.049 A 
ATOM     51  H   UNL     1      -6.692  -5.942  -9.816  1.00  0.00     0.167 HD
ATOM     52  C   UNL     1     -11.015  -6.249  -9.267  1.00  0.00     0.031 A 
ATOM     53  C   UNL     1      -4.153  -6.963 -10.398  1.00  0.00     0.031 A 
ATOM     54  C   UNL     1     -10.615  -7.528  -9.789  1.00  0.00     0.049 A 
ATOM     55  C   UNL     1      -5.117  -8.089 -10.658  1.00  0.00     0.074 A 
ATOM     56  C   UNL     1     -11.411  -8.615 -10.106  1.00  0.00     0.029 A 
ATOM     57  N   UNL     1      -9.309  -7.891 -10.077  1.00  0.00    -0.354 N 
ATOM     58  N   UNL     1      -6.420  -8.107 -10.511  1.00  0.00    -0.248 NA
ATOM     59  C   UNL     1      -4.549  -9.352 -11.151  1.00  0.00     0.031 C 
ATOM     60  C   UNL     1     -10.581  -9.650 -10.550  1.00  0.00     0.029 A 
ATOM     61  C   UNL     1      -9.274  -9.189 -10.557  1.00  0.00     0.049 A 
ATOM     62  H   UNL     1      -8.522  -7.311  -9.957  1.00  0.00     0.167 HD
ATOM     63  C   UNL     1      -6.831  -9.369 -10.926  1.00  0.00     0.074 A 
ATOM     64  C   UNL     1      -5.639 -10.086 -11.331  1.00  0.00     0.031 C 
ATOM     65  C   UNL     1      -8.083  -9.885 -10.972  1.00  0.00     0.031 A 
BRANCH  52  66
ATOM     66  C   UNL     1     -12.472  -6.029  -8.957  1.00  0.00    -0.014 A 
ATOM     67  C   UNL     1     -13.263  -5.178  -9.749  1.00  0.00     0.010 A 
ATOM     68  C   UNL     1     -13.066  -6.707  -7.877  1.00  0.00     0.010 A 
ATOM     69  C   UNL     1     -14.610  -4.973  -9.440  1.00  0.00     0.020 A 
ATOM     70  C   UNL     1     -14.420  -6.526  -7.581  1.00  0.00     0.020 A 
ATOM     71  C   UNL     1     -15.178  -5.644  -8.353  1.00  0.00     0.054 A 
BRANCH  71  72
ATOM     72  S   UNL     1     -16.932  -5.369  -7.979  1.00  0.00     0.124 S 
ATOM     73  O   UNL     1     -16.903  -4.042  -7.367  1.00  0.00    -0.237 OA
ATOM     74  O   UNL     1     -17.558  -5.439  -9.297  1.00  0.00    -0.237 OA
ATOM     75  O   UNL     1     -17.269  -6.465  -7.073  1.00  0.00    -0.744 OA
ENDBRANCH  71  72
ENDBRANCH  52  66
BRANCH  53  76
ATOM     76  C   UNL     1      -2.694  -7.147 -10.622  1.00  0.00    -0.014 A 
ATOM     77  C   UNL     1      -2.180  -7.239 -11.927  1.00  0.00     0.010 A 
ATOM     78  C   UNL     1      -1.809  -7.217  -9.531  1.00  0.00     0.010 A 
ATOM     79  C   UNL     1      -0.809  -7.415 -12.138  1.00  0.00     0.020 A 
ATOM     80  C   UNL     1      -0.435  -7.368  -9.738  1.00  0.00     0.020 A 
ATOM     81  C   UNL     1       0.055  -7.476 -11.041  1.00  0.00     0.054 A 
BRANCH  81  82
ATOM     82  S   UNL     1       1.837  -7.649 -11.338  1.00  0.00     0.124 S 
ATOM     83  O   UNL     1       1.948  -9.058 -11.700  1.00  0.00    -0.237 OA
ATOM     84  O   UNL     1       2.071  -6.696 -12.421  1.00  0.00    -0.237 OA
ATOM     85  O   UNL     1       2.431  -7.281 -10.055  1.00  0.00    -0.744 OA
ENDBRANCH  81  82
ENDBRANCH  53  76
BRANCH  65  86
ATOM     86  C   UNL     1      -8.250 -11.274 -11.525  1.00  0.00    -0.014 A 
ATOM     87  C   UNL     1      -7.894 -12.408 -10.775  1.00  0.00     0.010 A 
ATOM     88  C   UNL     1      -8.852 -11.445 -12.786  1.00  0.00     0.010 A 
ATOM     89  C   UNL     1      -8.124 -13.690 -11.283  1.00  0.00     0.020 A 
ATOM     90  C   UNL     1      -9.103 -12.724 -13.287  1.00  0.00     0.020 A 
ATOM     91  C   UNL     1      -8.729 -13.840 -12.536  1.00  0.00     0.054 A 
BRANCH  91  92
ATOM     92  S   UNL     1      -9.079 -15.513 -13.144  1.00  0.00     0.124 S 
ATOM     93  O   UNL     1      -7.754 -15.972 -13.551  1.00  0.00    -0.237 OA
ATOM     94  O   UNL     1      -9.639 -16.173 -11.967  1.00  0.00    -0.237 OA
ATOM     95  O   UNL     1     -10.026 -15.293 -14.235  1.00  0.00    -0.744 OA
ENDBRANCH  91  92
ENDBRANCH  65  86
ENDBRANCH  39  40
ENDBRANCH  31  34
ENDBRANCH  29  30
ENDBRANCH   1  29
TORSDOF 18
