REMARK SMILES O=C(NCCCNC(=O)c1cc(Br)n(Cc2ccn(C3CCCC3)n2)c1)c1ccc(-c2c3nc(c(-c4ccc(S(=O)(=O)[O-])cc4)c4ccc([nH]4)c(-c4ccc(S(=O)(=O)[O-])cc4)c4nc(c(-c5ccc(S(=O)(=O)[O-])cc5)c5ccc2[nH]5)C=C4)C=C3)cc1
REMARK SMILES IDX 5 1 4 2 3 3 1 4 2 5 27 7 28 8 86 9 29 10 85 11 30 12 31 13
REMARK SMILES IDX 32 14 79 15 33 16 84 17 78 18 80 19 34 20 83 21 77 22 76 23
REMARK SMILES IDX 35 25 65 26 46 27 64 28 47 29 50 30 63 31 81 32 48 33 49 34
REMARK SMILES IDX 62 36 82 37 51 38 36 39 37 40 45 41 38 42 44 43 39 44 40 45
REMARK SMILES IDX 41 46 42 47 43 48 66 49 67 50 75 51 68 52 74 53 69 54 70 55
REMARK SMILES IDX 71 56 72 57 73 58 52 59 53 60 61 61 54 62 60 63 55 64 56 65
REMARK SMILES IDX 57 66 58 67 59 68 6 69 7 70 8 71 9 73 10 74 11 75 26 76
REMARK SMILES IDX 12 77 14 78 13 79 15 80 16 81 17 82 25 83 18 84 19 85 20 86
REMARK SMILES IDX 21 87 24 88 22 89 23 90
REMARK H PARENT 3 6 80 24 50 35 7 72
REMARK Flexibility Score: inf
ROOT
ATOM      1  C   UNL     1       4.905  -1.775   1.383  1.00  0.00     0.042 C 
ENDROOT
BRANCH   1   2
ATOM      2  C   UNL     1       4.719  -1.160  -0.006  1.00  0.00     0.118 C 
BRANCH   2   3
ATOM      3  N   UNL     1       3.343  -1.054  -0.454  1.00  0.00    -0.352 N 
ATOM      4  O   UNL     1       1.260  -0.404  -0.800  1.00  0.00    -0.269 OA
ATOM      5  C   UNL     1       2.287  -0.243  -0.136  1.00  0.00     0.251 C 
ATOM      6  H   UNL     1       3.116  -1.718  -1.145  1.00  0.00     0.163 HD
BRANCH   5   7
ATOM      7  C   UNL     1       2.284   0.767   0.958  1.00  0.00     0.039 A 
ATOM      8  C   UNL     1       3.421   1.292   1.572  1.00  0.00     0.014 A 
ATOM      9  C   UNL     1       1.023   1.238   1.372  1.00  0.00     0.014 A 
ATOM     10  C   UNL     1       3.306   2.216   2.610  1.00  0.00     0.010 A 
ATOM     11  C   UNL     1       0.904   2.184   2.389  1.00  0.00     0.010 A 
ATOM     12  C   UNL     1       2.050   2.664   3.021  1.00  0.00    -0.014 A 
BRANCH  12  13
ATOM     13  C   UNL     1       2.003   3.753   4.000  1.00  0.00     0.031 A 
ATOM     14  C   UNL     1       2.537   5.069   3.539  1.00  0.00     0.074 A 
ATOM     15  C   UNL     1       1.355   3.696   5.179  1.00  0.00     0.049 A 
ATOM     16  N   UNL     1       3.468   5.797   4.067  1.00  0.00    -0.248 NA
ATOM     17  C   UNL     1       1.972   5.622   2.297  1.00  0.00     0.031 C 
ATOM     18  C   UNL     1       0.475   2.627   5.651  1.00  0.00     0.029 A 
ATOM     19  N   UNL     1       1.243   4.655   6.150  1.00  0.00    -0.354 N 
ATOM     20  C   UNL     1       3.474   6.989   3.345  1.00  0.00     0.074 A 
ATOM     21  C   UNL     1       2.626   6.778   2.198  1.00  0.00     0.031 C 
ATOM     22  C   UNL     1      -0.252   3.088   6.692  1.00  0.00     0.029 A 
ATOM     23  C   UNL     1       0.192   4.433   7.027  1.00  0.00     0.049 A 
ATOM     24  H   UNL     1       1.850   5.428   6.218  1.00  0.00     0.167 HD
ATOM     25  C   UNL     1       3.992   8.149   3.837  1.00  0.00     0.031 A 
ATOM     26  C   UNL     1      -0.340   5.312   7.911  1.00  0.00     0.031 A 
ATOM     27  C   UNL     1       4.871   7.945   4.955  1.00  0.00     0.049 A 
ATOM     28  C   UNL     1       0.637   6.398   8.149  1.00  0.00     0.074 A 
ATOM     29  C   UNL     1       6.025   7.223   5.183  1.00  0.00     0.029 A 
ATOM     30  N   UNL     1       4.430   8.349   6.191  1.00  0.00    -0.354 N 
ATOM     31  N   UNL     1       1.755   6.252   8.801  1.00  0.00    -0.248 NA
ATOM     32  C   UNL     1       0.512   7.640   7.401  1.00  0.00     0.031 C 
ATOM     33  C   UNL     1       5.978   6.858   6.560  1.00  0.00     0.029 A 
ATOM     34  C   UNL     1       4.801   7.386   7.093  1.00  0.00     0.049 A 
ATOM     35  H   UNL     1       3.937   9.177   6.393  1.00  0.00     0.167 HD
ATOM     36  C   UNL     1       2.622   7.176   8.239  1.00  0.00     0.074 A 
ATOM     37  C   UNL     1       1.765   8.089   7.494  1.00  0.00     0.031 C 
ATOM     38  C   UNL     1       3.968   6.948   8.195  1.00  0.00     0.031 A 
BRANCH  25  39
ATOM     39  C   UNL     1       3.389   9.506   3.540  1.00  0.00    -0.014 A 
ATOM     40  C   UNL     1       4.055  10.669   3.978  1.00  0.00     0.010 A 
ATOM     41  C   UNL     1       2.049   9.655   3.120  1.00  0.00     0.010 A 
ATOM     42  C   UNL     1       3.386  11.898   4.075  1.00  0.00     0.020 A 
ATOM     43  C   UNL     1       1.389  10.885   3.163  1.00  0.00     0.020 A 
ATOM     44  C   UNL     1       2.048  11.989   3.687  1.00  0.00     0.054 A 
BRANCH  44  45
ATOM     45  S   UNL     1       1.143  13.534   3.955  1.00  0.00     0.124 S 
ATOM     46  O   UNL     1       0.967  13.522   5.404  1.00  0.00    -0.237 OA
ATOM     47  O   UNL     1       2.070  14.536   3.436  1.00  0.00    -0.237 OA
ATOM     48  O   UNL     1      -0.075  13.354   3.169  1.00  0.00    -0.744 OA
ENDBRANCH  44  45
ENDBRANCH  25  39
BRANCH  26  49
ATOM     49  C   UNL     1      -1.742   5.388   8.393  1.00  0.00    -0.014 A 
ATOM     50  C   UNL     1      -2.083   6.185   9.502  1.00  0.00     0.010 A 
ATOM     51  C   UNL     1      -2.794   4.870   7.611  1.00  0.00     0.010 A 
ATOM     52  C   UNL     1      -3.424   6.493   9.785  1.00  0.00     0.020 A 
ATOM     53  C   UNL     1      -4.133   5.155   7.899  1.00  0.00     0.020 A 
ATOM     54  C   UNL     1      -4.440   5.986   8.971  1.00  0.00     0.054 A 
BRANCH  54  55
ATOM     55  S   UNL     1      -6.155   6.518   9.242  1.00  0.00     0.124 S 
ATOM     56  O   UNL     1      -6.502   5.828  10.480  1.00  0.00    -0.237 OA
ATOM     57  O   UNL     1      -6.027   7.969   9.339  1.00  0.00    -0.237 OA
ATOM     58  O   UNL     1      -6.855   6.040   8.049  1.00  0.00    -0.744 OA
ENDBRANCH  54  55
ENDBRANCH  26  49
BRANCH  38  59
ATOM     59  C   UNL     1       4.567   5.937   9.143  1.00  0.00    -0.014 A 
ATOM     60  C   UNL     1       4.150   4.595   9.216  1.00  0.00     0.010 A 
ATOM     61  C   UNL     1       5.680   6.333   9.910  1.00  0.00     0.010 A 
ATOM     62  C   UNL     1       4.800   3.685  10.060  1.00  0.00     0.020 A 
ATOM     63  C   UNL     1       6.347   5.425  10.738  1.00  0.00     0.020 A 
ATOM     64  C   UNL     1       5.896   4.107  10.818  1.00  0.00     0.054 A 
BRANCH  64  65
ATOM     65  S   UNL     1       6.762   2.905  11.865  1.00  0.00     0.124 S 
ATOM     66  O   UNL     1       5.807   2.679  12.945  1.00  0.00    -0.237 OA
ATOM     67  O   UNL     1       6.971   1.775  10.962  1.00  0.00    -0.237 OA
ATOM     68  O   UNL     1       7.986   3.603  12.257  1.00  0.00    -0.744 OA
ENDBRANCH  64  65
ENDBRANCH  38  59
ENDBRANCH  12  13
ENDBRANCH   5   7
ENDBRANCH   2   3
ENDBRANCH   1   2
BRANCH   1  69
ATOM     69  C   UNL     1       4.353  -3.194   1.528  1.00  0.00     0.118 C 
BRANCH  69  70
ATOM     70  N   UNL     1       4.995  -4.116   0.606  1.00  0.00    -0.352 N 
ATOM     71  C   UNL     1       5.948  -5.064   0.850  1.00  0.00     0.252 C 
ATOM     72  H   UNL     1       4.700  -4.048  -0.331  1.00  0.00     0.163 HD
ATOM     73  O   UNL     1       6.597  -5.509  -0.105  1.00  0.00    -0.269 OA
BRANCH  71  74
ATOM     74  C   UNL     1       6.147  -5.552   2.203  1.00  0.00     0.058 A 
ATOM     75  C   UNL     1       5.168  -6.016   3.130  1.00  0.00     0.049 A 
ATOM     76  C   UNL     1       7.378  -5.782   2.796  1.00  0.00     0.101 A 
ATOM     77  C   UNL     1       5.833  -6.545   4.213  1.00  0.00     0.086 A 
ATOM     78  N   UNL     1       7.179  -6.338   4.041  1.00  0.00    -0.335 N 
ATOM     79  Br  UNL     1       4.969  -7.440   5.609  1.00  0.00    -0.031 Br
BRANCH  78  80
ATOM     80  C   UNL     1       8.257  -6.786   4.921  1.00  0.00     0.180 C 
BRANCH  80  81
ATOM     81  C   UNL     1       8.565  -5.810   6.012  1.00  0.00     0.082 A 
ATOM     82  C   UNL     1       7.686  -5.258   6.975  1.00  0.00     0.047 A 
ATOM     83  N   UNL     1       9.831  -5.410   6.229  1.00  0.00    -0.176 NA
ATOM     84  C   UNL     1       8.475  -4.488   7.791  1.00  0.00     0.109 A 
ATOM     85  N   UNL     1       9.745  -4.598   7.307  1.00  0.00    -0.269 N 
BRANCH  85  86
ATOM     86  C   UNL     1      10.913  -3.959   7.869  1.00  0.00     0.107 C 
ATOM     87  C   UNL     1      12.117  -4.873   8.090  1.00  0.00     0.027 C 
ATOM     88  C   UNL     1      11.495  -2.841   7.007  1.00  0.00     0.027 C 
ATOM     89  C   UNL     1      13.251  -3.891   8.356  1.00  0.00     0.002 C 
ATOM     90  C   UNL     1      12.905  -2.631   7.560  1.00  0.00     0.002 C 
ENDBRANCH  85  86
ENDBRANCH  80  81
ENDBRANCH  78  80
ENDBRANCH  71  74
ENDBRANCH  69  70
ENDBRANCH   1  69
TORSDOF 16
