REMARK SMILES O=C(NCCCNC(=O)[C@@H]1CCC[N@@H+](Cc2nccn2C(F)F)C1)c1ccc(-c2c3nc(c(-c4ccc(S(=O)(=O)[O-])cc4)c4ccc([nH]4)c(-c4ccc(S(=O)(=O)[O-])cc4)c4nc(c(-c5ccc(S(=O)(=O)[O-])cc5)c5ccc2[nH]5)C=C4)C=C3)cc1
REMARK SMILES IDX 5 1 4 2 3 3 1 4 2 5 25 7 26 8 84 9 27 10 83 11 28 12 29 13
REMARK SMILES IDX 30 14 77 15 31 16 82 17 76 18 78 19 32 20 81 21 75 22 74 23
REMARK SMILES IDX 33 25 63 26 44 27 62 28 45 29 48 30 61 31 79 32 46 33 47 34
REMARK SMILES IDX 60 36 80 37 49 38 34 39 35 40 43 41 36 42 42 43 37 44 38 45
REMARK SMILES IDX 39 46 40 47 41 48 64 49 65 50 73 51 66 52 72 53 67 54 68 55
REMARK SMILES IDX 69 56 70 57 71 58 50 59 51 60 59 61 52 62 58 63 53 64 54 65
REMARK SMILES IDX 55 66 56 67 57 68 6 69 7 70 8 71 9 73 10 74 11 75 24 76
REMARK SMILES IDX 12 77 14 78 13 79 15 81 16 82 17 83 20 84 18 85 19 86 21 87
REMARK SMILES IDX 22 88 23 89
REMARK H PARENT 3 6 78 24 48 35 7 72 14 80
REMARK Flexibility Score: inf
ROOT
ATOM      1  C   UNL     1       5.045  -1.806   1.046  1.00  0.00     0.042 C 
ENDROOT
BRANCH   1   2
ATOM      2  C   UNL     1       4.731  -0.991  -0.203  1.00  0.00     0.118 C 
BRANCH   2   3
ATOM      3  N   UNL     1       3.319  -0.847  -0.500  1.00  0.00    -0.352 N 
ATOM      4  O   UNL     1       1.235  -0.141  -0.633  1.00  0.00    -0.269 OA
ATOM      5  C   UNL     1       2.300  -0.076  -0.012  1.00  0.00     0.251 C 
ATOM      6  H   UNL     1       3.024  -1.446  -1.224  1.00  0.00     0.163 HD
BRANCH   5   7
ATOM      7  C   UNL     1       2.362   0.758   1.220  1.00  0.00     0.039 A 
ATOM      8  C   UNL     1       3.521   1.130   1.903  1.00  0.00     0.014 A 
ATOM      9  C   UNL     1       1.120   1.191   1.724  1.00  0.00     0.014 A 
ATOM     10  C   UNL     1       3.439   1.844   3.099  1.00  0.00     0.010 A 
ATOM     11  C   UNL     1       1.032   1.917   2.907  1.00  0.00     0.010 A 
ATOM     12  C   UNL     1       2.194   2.225   3.608  1.00  0.00    -0.014 A 
BRANCH  12  13
ATOM     13  C   UNL     1       2.152   3.163   4.732  1.00  0.00     0.031 A 
ATOM     14  C   UNL     1       2.669   4.518   4.389  1.00  0.00     0.074 A 
ATOM     15  C   UNL     1       1.526   2.927   5.904  1.00  0.00     0.049 A 
ATOM     16  N   UNL     1       3.707   5.123   4.868  1.00  0.00    -0.248 NA
ATOM     17  C   UNL     1       2.030   5.228   3.266  1.00  0.00     0.031 C 
ATOM     18  C   UNL     1       0.724   1.753   6.254  1.00  0.00     0.029 A 
ATOM     19  N   UNL     1       1.364   3.744   6.989  1.00  0.00    -0.354 N 
ATOM     20  C   UNL     1       3.705   6.388   4.282  1.00  0.00     0.074 A 
ATOM     21  C   UNL     1       2.794   6.315   3.169  1.00  0.00     0.031 C 
ATOM     22  C   UNL     1      -0.020   2.031   7.349  1.00  0.00     0.029 A 
ATOM     23  C   UNL     1       0.335   3.352   7.844  1.00  0.00     0.049 A 
ATOM     24  H   UNL     1       1.925   4.537   7.152  1.00  0.00     0.167 HD
ATOM     25  C   UNL     1       4.207   7.476   4.930  1.00  0.00     0.031 A 
ATOM     26  C   UNL     1      -0.236   4.081   8.840  1.00  0.00     0.031 A 
ATOM     27  C   UNL     1       5.066   7.100   6.024  1.00  0.00     0.049 A 
ATOM     28  C   UNL     1       0.703   5.169   9.196  1.00  0.00     0.074 A 
ATOM     29  C   UNL     1       6.201   6.327   6.164  1.00  0.00     0.029 A 
ATOM     30  N   UNL     1       4.560   7.262   7.291  1.00  0.00    -0.354 N 
ATOM     31  N   UNL     1       1.850   4.968   9.778  1.00  0.00    -0.248 NA
ATOM     32  C   UNL     1       0.555   6.455   8.535  1.00  0.00     0.031 C 
ATOM     33  C   UNL     1       6.059   5.685   7.429  1.00  0.00     0.029 A 
ATOM     34  C   UNL     1       4.882   6.151   8.018  1.00  0.00     0.049 A 
ATOM     35  H   UNL     1       4.055   8.042   7.618  1.00  0.00     0.167 HD
ATOM     36  C   UNL     1       2.708   5.882   9.186  1.00  0.00     0.074 A 
ATOM     37  C   UNL     1       1.833   6.841   8.516  1.00  0.00     0.031 C 
ATOM     38  C   UNL     1       4.041   5.609   9.062  1.00  0.00     0.031 A 
BRANCH  25  39
ATOM     39  C   UNL     1       3.535   8.837   4.884  1.00  0.00    -0.014 A 
ATOM     40  C   UNL     1       4.098   9.893   5.631  1.00  0.00     0.010 A 
ATOM     41  C   UNL     1       2.219   9.028   4.410  1.00  0.00     0.010 A 
ATOM     42  C   UNL     1       3.342  11.020   5.984  1.00  0.00     0.020 A 
ATOM     43  C   UNL     1       1.476  10.170   4.711  1.00  0.00     0.020 A 
ATOM     44  C   UNL     1       2.027  11.138   5.535  1.00  0.00     0.054 A 
BRANCH  44  45
ATOM     45  S   UNL     1       1.020  12.531   6.095  1.00  0.00     0.124 S 
ATOM     46  O   UNL     1       0.866  12.237   7.511  1.00  0.00    -0.237 OA
ATOM     47  O   UNL     1       1.867  13.674   5.766  1.00  0.00    -0.237 OA
ATOM     48  O   UNL     1      -0.198  12.414   5.288  1.00  0.00    -0.744 OA
ENDBRANCH  44  45
ENDBRANCH  25  39
BRANCH  26  49
ATOM     49  C   UNL     1      -1.649   4.077   9.310  1.00  0.00    -0.014 A 
ATOM     50  C   UNL     1      -2.033   4.766  10.479  1.00  0.00     0.010 A 
ATOM     51  C   UNL     1      -2.676   3.633   8.454  1.00  0.00     0.010 A 
ATOM     52  C   UNL     1      -3.384   5.061  10.741  1.00  0.00     0.020 A 
ATOM     53  C   UNL     1      -4.024   3.912   8.713  1.00  0.00     0.020 A 
ATOM     54  C   UNL     1      -4.371   4.649   9.842  1.00  0.00     0.054 A 
BRANCH  54  55
ATOM     55  S   UNL     1      -6.090   5.191  10.079  1.00  0.00     0.124 S 
ATOM     56  O   UNL     1      -6.508   4.409  11.239  1.00  0.00    -0.237 OA
ATOM     57  O   UNL     1      -5.947   6.626  10.303  1.00  0.00    -0.237 OA
ATOM     58  O   UNL     1      -6.742   4.827   8.821  1.00  0.00    -0.744 OA
ENDBRANCH  54  55
ENDBRANCH  26  49
BRANCH  38  59
ATOM     59  C   UNL     1       4.638   4.516   9.912  1.00  0.00    -0.014 A 
ATOM     60  C   UNL     1       4.209   3.176   9.903  1.00  0.00     0.010 A 
ATOM     61  C   UNL     1       5.768   4.855  10.678  1.00  0.00     0.010 A 
ATOM     62  C   UNL     1       4.871   2.210  10.677  1.00  0.00     0.020 A 
ATOM     63  C   UNL     1       6.444   3.896  11.432  1.00  0.00     0.020 A 
ATOM     64  C   UNL     1       5.982   2.579  11.440  1.00  0.00     0.054 A 
BRANCH  64  65
ATOM     65  S   UNL     1       6.847   1.329  12.429  1.00  0.00     0.124 S 
ATOM     66  O   UNL     1       5.861   1.000  13.457  1.00  0.00    -0.237 OA
ATOM     67  O   UNL     1       7.113   0.272  11.453  1.00  0.00    -0.237 OA
ATOM     68  O   UNL     1       8.035   2.025  12.913  1.00  0.00    -0.744 OA
ENDBRANCH  64  65
ENDBRANCH  38  59
ENDBRANCH  12  13
ENDBRANCH   5   7
ENDBRANCH   2   3
ENDBRANCH   1   2
BRANCH   1  69
ATOM     69  C   UNL     1       4.503  -3.228   1.014  1.00  0.00     0.117 C 
BRANCH  69  70
ATOM     70  N   UNL     1       5.221  -4.093   0.096  1.00  0.00    -0.356 N 
ATOM     71  C   UNL     1       5.855  -5.285   0.222  1.00  0.00     0.228 C 
ATOM     72  H   UNL     1       5.255  -3.736  -0.821  1.00  0.00     0.163 HD
ATOM     73  O   UNL     1       6.226  -5.776  -0.856  1.00  0.00    -0.275 OA
BRANCH  71  74
ATOM     74  C   UNL     1       6.243  -5.977   1.544  1.00  0.00     0.133 C 
ATOM     75  C   UNL     1       6.327  -7.507   1.320  1.00  0.00     0.025 C 
ATOM     76  C   UNL     1       5.368  -5.785   2.777  1.00  0.00     0.276 C 
ATOM     77  C   UNL     1       4.927  -8.126   1.194  1.00  0.00     0.062 C 
ATOM     78  N   UNL     1       3.999  -6.229   2.476  1.00  0.00    -0.328 N 
ATOM     79  C   UNL     1       3.970  -7.684   2.313  1.00  0.00     0.262 C 
ATOM     80  H   UNL     1       3.714  -5.827   1.583  1.00  0.00     0.348 HD
BRANCH  78  81
ATOM     81  C   UNL     1       3.006  -5.700   3.420  1.00  0.00     0.339 C 
BRANCH  81  82
ATOM     82  C   UNL     1       3.227  -6.059   4.859  1.00  0.00     0.168 A 
ATOM     83  N   UNL     1       4.274  -5.677   5.571  1.00  0.00    -0.236 NA
ATOM     84  N   UNL     1       2.365  -6.792   5.641  1.00  0.00    -0.273 N 
ATOM     85  C   UNL     1       4.100  -6.192   6.824  1.00  0.00     0.131 A 
ATOM     86  C   UNL     1       2.930  -6.905   6.888  1.00  0.00     0.113 A 
BRANCH  84  87
ATOM     87  C   UNL     1       1.087  -7.361   5.269  1.00  0.00     0.450 C 
ATOM     88  F   UNL     1       1.131  -8.719   5.320  1.00  0.00    -0.185 F 
ATOM     89  F   UNL     1       0.110  -6.970   6.129  1.00  0.00    -0.185 F 
ENDBRANCH  84  87
ENDBRANCH  81  82
ENDBRANCH  78  81
ENDBRANCH  71  74
ENDBRANCH  69  70
ENDBRANCH   1  69
TORSDOF 16
