REMARK SMILES O=C(NCCCNC(=O)[C@]1(CCc2ccccc2)C[C@H]2CC[C@@H]1O2)c1ccc(-c2c3nc(c(-c4ccc(S(=O)(=O)[O-])cc4)c4ccc([nH]4)c(-c4ccc(S(=O)(=O)[O-])cc4)c4nc(c(-c5ccc(S(=O)(=O)[O-])cc5)c5ccc2[nH]5)C=C4)C=C3)cc1
REMARK SMILES IDX 5 1 4 2 3 3 1 4 2 5 25 7 26 8 84 9 27 10 83 11 28 12 29 13
REMARK SMILES IDX 30 14 77 15 31 16 82 17 76 18 78 19 32 20 81 21 75 22 74 23
REMARK SMILES IDX 33 25 63 26 44 27 62 28 45 29 48 30 61 31 79 32 46 33 47 34
REMARK SMILES IDX 60 36 80 37 49 38 34 39 35 40 43 41 36 42 42 43 37 44 38 45
REMARK SMILES IDX 39 46 40 47 41 48 64 49 65 50 73 51 66 52 72 53 67 54 68 55
REMARK SMILES IDX 69 56 70 57 71 58 50 59 51 60 59 61 52 62 58 63 53 64 54 65
REMARK SMILES IDX 55 66 56 67 57 68 6 69 7 70 8 71 9 73 10 74 19 75 23 76
REMARK SMILES IDX 20 77 22 78 24 79 21 80 11 81 12 82 13 83 14 84 18 85 15 86
REMARK SMILES IDX 17 87 16 88
REMARK H PARENT 3 6 78 24 48 35 7 72
REMARK Flexibility Score: inf
ROOT
ATOM      1  C   UNL     1       5.022  -0.075   2.066  1.00  0.00     0.042 C 
ENDROOT
BRANCH   1   2
ATOM      2  C   UNL     1       4.579  -0.843   0.834  1.00  0.00     0.118 C 
BRANCH   2   3
ATOM      3  N   UNL     1       3.130  -0.856   0.685  1.00  0.00    -0.352 N 
ATOM      4  O   UNL     1       1.110  -0.072   0.077  1.00  0.00    -0.269 OA
ATOM      5  C   UNL     1       2.321  -0.080  -0.111  1.00  0.00     0.251 C 
ATOM      6  H   UNL     1       2.659  -1.521   1.238  1.00  0.00     0.163 HD
BRANCH   5   7
ATOM      7  C   UNL     1       2.920   0.756  -1.173  1.00  0.00     0.039 A 
ATOM      8  C   UNL     1       3.947   0.254  -1.975  1.00  0.00     0.014 A 
ATOM      9  C   UNL     1       2.440   2.051  -1.381  1.00  0.00     0.014 A 
ATOM     10  C   UNL     1       4.613   1.094  -2.856  1.00  0.00     0.010 A 
ATOM     11  C   UNL     1       3.033   2.858  -2.354  1.00  0.00     0.010 A 
ATOM     12  C   UNL     1       4.144   2.396  -3.079  1.00  0.00    -0.014 A 
BRANCH  12  13
ATOM     13  C   UNL     1       4.770   3.231  -4.132  1.00  0.00     0.031 A 
ATOM     14  C   UNL     1       5.423   4.539  -3.795  1.00  0.00     0.074 A 
ATOM     15  C   UNL     1       4.716   2.803  -5.409  1.00  0.00     0.049 A 
ATOM     16  N   UNL     1       5.933   5.434  -4.602  1.00  0.00    -0.248 NA
ATOM     17  C   UNL     1       5.505   4.896  -2.371  1.00  0.00     0.031 C 
ATOM     18  C   UNL     1       4.111   1.544  -5.852  1.00  0.00     0.029 A 
ATOM     19  N   UNL     1       5.167   3.379  -6.569  1.00  0.00    -0.354 N 
ATOM     20  C   UNL     1       6.363   6.477  -3.789  1.00  0.00     0.074 A 
ATOM     21  C   UNL     1       6.039   6.108  -2.427  1.00  0.00     0.031 C 
ATOM     22  C   UNL     1       4.243   1.434  -7.180  1.00  0.00     0.029 A 
ATOM     23  C   UNL     1       4.864   2.649  -7.692  1.00  0.00     0.049 A 
ATOM     24  H   UNL     1       5.659   4.232  -6.594  1.00  0.00     0.167 HD
ATOM     25  C   UNL     1       6.966   7.635  -4.151  1.00  0.00     0.031 A 
ATOM     26  C   UNL     1       5.020   2.937  -8.998  1.00  0.00     0.031 A 
ATOM     27  C   UNL     1       7.269   7.988  -5.514  1.00  0.00     0.049 A 
ATOM     28  C   UNL     1       5.650   4.241  -9.381  1.00  0.00     0.074 A 
ATOM     29  C   UNL     1       7.908   9.120  -5.988  1.00  0.00     0.029 A 
ATOM     30  N   UNL     1       6.941   7.221  -6.624  1.00  0.00    -0.354 N 
ATOM     31  N   UNL     1       6.079   5.202  -8.599  1.00  0.00    -0.248 NA
ATOM     32  C   UNL     1       5.821   4.502 -10.815  1.00  0.00     0.031 C 
ATOM     33  C   UNL     1       7.910   9.067  -7.386  1.00  0.00     0.029 A 
ATOM     34  C   UNL     1       7.336   7.868  -7.782  1.00  0.00     0.049 A 
ATOM     35  H   UNL     1       6.493   6.344  -6.592  1.00  0.00     0.167 HD
ATOM     36  C   UNL     1       6.595   6.175  -9.444  1.00  0.00     0.074 A 
ATOM     37  C   UNL     1       6.426   5.683 -10.798  1.00  0.00     0.031 C 
ATOM     38  C   UNL     1       7.163   7.363  -9.124  1.00  0.00     0.031 A 
BRANCH  25  39
ATOM     39  C   UNL     1       7.279   8.627  -3.059  1.00  0.00    -0.014 A 
ATOM     40  C   UNL     1       8.261   8.369  -2.085  1.00  0.00     0.010 A 
ATOM     41  C   UNL     1       6.574   9.844  -3.008  1.00  0.00     0.010 A 
ATOM     42  C   UNL     1       8.480   9.275  -1.042  1.00  0.00     0.020 A 
ATOM     43  C   UNL     1       6.813  10.768  -1.986  1.00  0.00     0.020 A 
ATOM     44  C   UNL     1       7.745  10.464  -0.993  1.00  0.00     0.054 A 
BRANCH  44  45
ATOM     45  S   UNL     1       8.021  11.605   0.390  1.00  0.00     0.124 S 
ATOM     46  O   UNL     1       7.375  10.900   1.494  1.00  0.00    -0.237 OA
ATOM     47  O   UNL     1       9.478  11.678   0.460  1.00  0.00    -0.237 OA
ATOM     48  O   UNL     1       7.358  12.835  -0.036  1.00  0.00    -0.744 OA
ENDBRANCH  44  45
ENDBRANCH  25  39
BRANCH  26  49
ATOM     49  C   UNL     1       4.529   1.964 -10.009  1.00  0.00    -0.014 A 
ATOM     50  C   UNL     1       5.430   1.176 -10.743  1.00  0.00     0.010 A 
ATOM     51  C   UNL     1       3.145   1.747 -10.161  1.00  0.00     0.010 A 
ATOM     52  C   UNL     1       4.956   0.178 -11.601  1.00  0.00     0.020 A 
ATOM     53  C   UNL     1       2.670   0.732 -10.994  1.00  0.00     0.020 A 
ATOM     54  C   UNL     1       3.580  -0.045 -11.711  1.00  0.00     0.054 A 
BRANCH  54  55
ATOM     55  S   UNL     1       2.996  -1.415 -12.748  1.00  0.00     0.124 S 
ATOM     56  O   UNL     1       3.241  -0.904 -14.093  1.00  0.00    -0.237 OA
ATOM     57  O   UNL     1       3.856  -2.518 -12.324  1.00  0.00    -0.237 OA
ATOM     58  O   UNL     1       1.590  -1.553 -12.375  1.00  0.00    -0.744 OA
ENDBRANCH  54  55
ENDBRANCH  26  49
BRANCH  38  59
ATOM     59  C   UNL     1       7.691   8.210 -10.250  1.00  0.00    -0.014 A 
ATOM     60  C   UNL     1       6.826   8.932 -11.090  1.00  0.00     0.010 A 
ATOM     61  C   UNL     1       9.082   8.364 -10.397  1.00  0.00     0.010 A 
ATOM     62  C   UNL     1       7.346   9.795 -12.058  1.00  0.00     0.020 A 
ATOM     63  C   UNL     1       9.604   9.244 -11.346  1.00  0.00     0.020 A 
ATOM     64  C   UNL     1       8.731   9.954 -12.173  1.00  0.00     0.054 A 
BRANCH  64  65
ATOM     65  S   UNL     1       9.377  11.154 -13.369  1.00  0.00     0.124 S 
ATOM     66  O   UNL     1       9.127  10.482 -14.641  1.00  0.00    -0.237 OA
ATOM     67  O   UNL     1       8.556  12.335 -13.111  1.00  0.00    -0.237 OA
ATOM     68  O   UNL     1      10.784  11.289 -13.001  1.00  0.00    -0.744 OA
ENDBRANCH  64  65
ENDBRANCH  38  59
ENDBRANCH  12  13
ENDBRANCH   5   7
ENDBRANCH   2   3
ENDBRANCH   1   2
BRANCH   1  69
ATOM     69  C   UNL     1       4.673  -0.780   3.364  1.00  0.00     0.117 C 
BRANCH  69  70
ATOM     70  N   UNL     1       5.401  -2.026   3.514  1.00  0.00    -0.355 N 
ATOM     71  C   UNL     1       6.096  -2.593   4.522  1.00  0.00     0.228 C 
ATOM     72  H   UNL     1       5.385  -2.579   2.700  1.00  0.00     0.163 HD
ATOM     73  O   UNL     1       6.740  -3.605   4.206  1.00  0.00    -0.274 OA
BRANCH  71  74
ATOM     74  C   UNL     1       6.204  -2.052   5.961  1.00  0.00     0.078 C 
ATOM     75  C   UNL     1       5.300  -0.908   6.449  1.00  0.00     0.051 C 
ATOM     76  C   UNL     1       7.572  -1.331   5.938  1.00  0.00     0.134 C 
ATOM     77  C   UNL     1       6.219   0.322   6.331  1.00  0.00     0.120 C 
ATOM     78  C   UNL     1       8.061  -0.810   7.293  1.00  0.00     0.036 C 
ATOM     79  O   UNL     1       7.168  -0.074   5.320  1.00  0.00    -0.374 OA
ATOM     80  C   UNL     1       7.151   0.397   7.534  1.00  0.00     0.035 C 
BRANCH  74  81
ATOM     81  C   UNL     1       6.089  -3.269   6.922  1.00  0.00     0.024 C 
BRANCH  81  82
ATOM     82  C   UNL     1       4.670  -3.889   7.022  1.00  0.00     0.037 C 
BRANCH  82  83
ATOM     83  C   UNL     1       4.209  -4.655   5.805  1.00  0.00    -0.048 A 
ATOM     84  C   UNL     1       3.277  -4.103   4.914  1.00  0.00     0.004 A 
ATOM     85  C   UNL     1       4.758  -5.911   5.514  1.00  0.00     0.004 A 
ATOM     86  C   UNL     1       2.949  -4.766   3.728  1.00  0.00     0.000 A 
ATOM     87  C   UNL     1       4.418  -6.579   4.336  1.00  0.00     0.000 A 
ATOM     88  C   UNL     1       3.525  -6.000   3.437  1.00  0.00     0.000 A 
ENDBRANCH  82  83
ENDBRANCH  81  82
ENDBRANCH  74  81
ENDBRANCH  71  74
ENDBRANCH  69  70
ENDBRANCH   1  69
TORSDOF 16
