REMARK SMILES CO[C@H]1C[C@@H](C(=O)NCCCNC(=O)c2ccc(-c3c4nc(c(-c5ccc(S(=O)(=O)[O-])cc5)c5ccc([nH]5)c(-c5ccc(S(=O)(=O)[O-])cc5)c5nc(c(-c6ccc(S(=O)(=O)[O-])cc6)c6ccc3[nH]6)C=C5)C=C4)cc2)N(C(=O)c2cscc2C)C1
REMARK SMILES IDX 10 1 9 2 8 3 6 4 7 5 5 7 3 8 4 9 84 10 75 11 2 12 1 13 76 14
REMARK SMILES IDX 77 15 78 16 79 17 82 18 80 19 81 20 83 21 11 22 12 23 13 24
REMARK SMILES IDX 14 26 15 27 16 28 74 29 17 30 73 31 18 32 19 33 20 34 67 35
REMARK SMILES IDX 21 36 72 37 66 38 68 39 22 40 71 41 65 42 64 43 23 45 53 46
REMARK SMILES IDX 34 47 52 48 35 49 38 50 51 51 69 52 36 53 37 54 50 56 70 57
REMARK SMILES IDX 39 58 24 59 25 60 33 61 26 62 32 63 27 64 28 65 29 66 30 67
REMARK SMILES IDX 31 68 54 69 55 70 63 71 56 72 62 73 57 74 58 75 59 76 60 77
REMARK SMILES IDX 61 78 40 79 41 80 49 81 42 82 48 83 43 84 44 85 45 86 46 87
REMARK SMILES IDX 47 88
REMARK H PARENT 8 6 12 25 68 44 38 55
REMARK Flexibility Score: inf
ROOT
ATOM      1  C   UNL     1       4.936   0.189   3.738  1.00  0.00     0.042 C 
ENDROOT
BRANCH   1   2
ATOM      2  C   UNL     1       4.835   0.784   2.336  1.00  0.00     0.117 C 
BRANCH   2   3
ATOM      3  N   UNL     1       4.984  -0.186   1.268  1.00  0.00    -0.354 N 
ATOM      4  C   UNL     1       4.098  -0.855   0.491  1.00  0.00     0.242 C 
ATOM      5  O   UNL     1       4.575  -1.355  -0.537  1.00  0.00    -0.273 OA
ATOM      6  H   UNL     1       5.923  -0.403   1.065  1.00  0.00     0.163 HD
BRANCH   4   7
ATOM      7  C   UNL     1       2.619  -1.134   0.836  1.00  0.00     0.177 C 
ATOM      8  C   UNL     1       0.548  -0.855   1.961  1.00  0.00     0.139 C 
ATOM      9  C   UNL     1       1.821  -0.091   1.606  1.00  0.00     0.069 C 
ATOM     10  C   UNL     1       1.137  -2.202   2.385  1.00  0.00     0.152 C 
ATOM     11  N   UNL     1       2.292  -2.407   1.514  1.00  0.00    -0.324 N 
BRANCH   8  12
ATOM     12  O   UNL     1      -0.138  -0.165   2.995  1.00  0.00    -0.380 OA
ATOM     13  C   UNL     1      -1.408  -0.734   3.286  1.00  0.00     0.195 C 
ENDBRANCH   8  12
BRANCH  11  14
ATOM     14  C   UNL     1       2.351  -3.598   0.790  1.00  0.00     0.255 C 
ATOM     15  O   UNL     1       1.338  -4.215   0.471  1.00  0.00    -0.269 OA
BRANCH  14  16
ATOM     16  C   UNL     1       3.688  -4.103   0.475  1.00  0.00     0.053 A 
ATOM     17  C   UNL     1       4.766  -3.987   1.338  1.00  0.00     0.079 A 
ATOM     18  C   UNL     1       4.055  -4.837  -0.718  1.00  0.00    -0.028 A 
ATOM     19  S   UNL     1       6.189  -4.702   0.727  1.00  0.00    -0.151 S 
ATOM     20  C   UNL     1       5.388  -5.204  -0.693  1.00  0.00     0.069 A 
ATOM     21  C   UNL     1       3.125  -5.146  -1.845  1.00  0.00     0.046 C 
ENDBRANCH  14  16
ENDBRANCH  11  14
ENDBRANCH   4   7
ENDBRANCH   2   3
ENDBRANCH   1   2
BRANCH   1  22
ATOM     22  C   UNL     1       6.303  -0.417   4.081  1.00  0.00     0.118 C 
BRANCH  22  23
ATOM     23  N   UNL     1       7.396   0.521   3.881  1.00  0.00    -0.352 N 
ATOM     24  C   UNL     1       8.176   1.220   4.765  1.00  0.00     0.251 C 
ATOM     25  H   UNL     1       7.617   0.685   2.936  1.00  0.00     0.163 HD
ATOM     26  O   UNL     1       8.850   2.154   4.333  1.00  0.00    -0.269 OA
BRANCH  24  27
ATOM     27  C   UNL     1       8.245   0.883   6.206  1.00  0.00     0.039 A 
ATOM     28  C   UNL     1       8.368   1.934   7.125  1.00  0.00     0.014 A 
ATOM     29  C   UNL     1       8.342  -0.438   6.655  1.00  0.00     0.014 A 
ATOM     30  C   UNL     1       8.557   1.667   8.484  1.00  0.00     0.010 A 
ATOM     31  C   UNL     1       8.507  -0.706   8.018  1.00  0.00     0.010 A 
ATOM     32  C   UNL     1       8.626   0.344   8.942  1.00  0.00    -0.014 A 
BRANCH  32  33
ATOM     33  C   UNL     1       8.855   0.052  10.378  1.00  0.00     0.031 A 
ATOM     34  C   UNL     1      10.201  -0.418  10.854  1.00  0.00     0.074 A 
ATOM     35  C   UNL     1       7.850   0.189  11.262  1.00  0.00     0.049 A 
ATOM     36  N   UNL     1      10.553  -0.832  12.045  1.00  0.00    -0.248 NA
ATOM     37  C   UNL     1      11.284  -0.434   9.861  1.00  0.00     0.031 C 
ATOM     38  C   UNL     1       6.494   0.633  10.941  1.00  0.00     0.029 A 
ATOM     39  N   UNL     1       7.820  -0.036  12.615  1.00  0.00    -0.354 N 
ATOM     40  C   UNL     1      11.886  -1.204  11.935  1.00  0.00     0.074 A 
ATOM     41  C   UNL     1      12.287  -0.939  10.568  1.00  0.00     0.031 C 
ATOM     42  C   UNL     1       5.765   0.658  12.069  1.00  0.00     0.029 A 
ATOM     43  C   UNL     1       6.598   0.216  13.186  1.00  0.00     0.049 A 
ATOM     44  H   UNL     1       8.601  -0.350  13.127  1.00  0.00     0.167 HD
ATOM     45  C   UNL     1      12.701  -1.735  12.879  1.00  0.00     0.031 A 
ATOM     46  C   UNL     1       6.189   0.101  14.463  1.00  0.00     0.031 A 
ATOM     47  C   UNL     1      12.330  -1.972  14.247  1.00  0.00     0.049 A 
ATOM     48  C   UNL     1       7.138  -0.389  15.515  1.00  0.00     0.074 A 
ATOM     49  C   UNL     1      13.077  -2.549  15.260  1.00  0.00     0.029 A 
ATOM     50  N   UNL     1      11.111  -1.619  14.802  1.00  0.00    -0.354 N 
ATOM     51  N   UNL     1       8.376  -0.795  15.377  1.00  0.00    -0.248 NA
ATOM     52  C   UNL     1       6.632  -0.436  16.894  1.00  0.00     0.031 C 
ATOM     53  C   UNL     1      12.312  -2.528  16.436  1.00  0.00     0.029 A 
ATOM     54  C   UNL     1      11.092  -1.940  16.149  1.00  0.00     0.049 A 
ATOM     55  H   UNL     1      10.367  -1.201  14.310  1.00  0.00     0.167 HD
ATOM     56  C   UNL     1       8.795  -1.160  16.650  1.00  0.00     0.074 A 
ATOM     57  C   UNL     1       7.686  -0.909  17.548  1.00  0.00     0.031 C 
ATOM     58  C   UNL     1       9.989  -1.673  17.034  1.00  0.00     0.031 A 
BRANCH  45  59
ATOM     59  C   UNL     1      14.078  -2.121  12.427  1.00  0.00    -0.014 A 
ATOM     60  C   UNL     1      15.132  -1.193  12.463  1.00  0.00     0.010 A 
ATOM     61  C   UNL     1      14.309  -3.415  11.927  1.00  0.00     0.010 A 
ATOM     62  C   UNL     1      16.391  -1.540  11.964  1.00  0.00     0.020 A 
ATOM     63  C   UNL     1      15.566  -3.765  11.431  1.00  0.00     0.020 A 
ATOM     64  C   UNL     1      16.594  -2.817  11.432  1.00  0.00     0.054 A 
BRANCH  64  65
ATOM     65  S   UNL     1      18.212  -3.267  10.746  1.00  0.00     0.124 S 
ATOM     66  O   UNL     1      18.014  -3.006   9.322  1.00  0.00    -0.237 OA
ATOM     67  O   UNL     1      19.133  -2.359  11.425  1.00  0.00    -0.237 OA
ATOM     68  O   UNL     1      18.348  -4.674  11.113  1.00  0.00    -0.744 OA
ENDBRANCH  64  65
ENDBRANCH  45  59
BRANCH  46  69
ATOM     69  C   UNL     1       4.792   0.458  14.806  1.00  0.00    -0.014 A 
ATOM     70  C   UNL     1       4.475   1.773  15.185  1.00  0.00     0.010 A 
ATOM     71  C   UNL     1       3.770  -0.498  14.689  1.00  0.00     0.010 A 
ATOM     72  C   UNL     1       3.148   2.134  15.431  1.00  0.00     0.020 A 
ATOM     73  C   UNL     1       2.442  -0.139  14.931  1.00  0.00     0.020 A 
ATOM     74  C   UNL     1       2.139   1.175  15.300  1.00  0.00     0.054 A 
BRANCH  74  75
ATOM     75  S   UNL     1       0.401   1.652  15.516  1.00  0.00     0.124 S 
ATOM     76  O   UNL     1       0.134   1.211  16.881  1.00  0.00    -0.237 OA
ATOM     77  O   UNL     1       0.421   3.099  15.312  1.00  0.00    -0.237 OA
ATOM     78  O   UNL     1      -0.273   0.895  14.464  1.00  0.00    -0.744 OA
ENDBRANCH  74  75
ENDBRANCH  46  69
BRANCH  58  79
ATOM     79  C   UNL     1      10.150  -1.994  18.490  1.00  0.00    -0.014 A 
ATOM     80  C   UNL     1       9.786  -3.260  18.979  1.00  0.00     0.010 A 
ATOM     81  C   UNL     1      10.677  -1.036  19.372  1.00  0.00     0.010 A 
ATOM     82  C   UNL     1       9.927  -3.559  20.337  1.00  0.00     0.020 A 
ATOM     83  C   UNL     1      10.819  -1.331  20.731  1.00  0.00     0.020 A 
ATOM     84  C   UNL     1      10.431  -2.587  21.207  1.00  0.00     0.054 A 
BRANCH  84  85
ATOM     85  S   UNL     1      10.634  -2.975  22.968  1.00  0.00     0.124 S 
ATOM     86  O   UNL     1       9.374  -2.497  23.530  1.00  0.00    -0.237 OA
ATOM     87  O   UNL     1      10.813  -4.426  22.976  1.00  0.00    -0.237 OA
ATOM     88  O   UNL     1      11.819  -2.208  23.344  1.00  0.00    -0.744 OA
ENDBRANCH  84  85
ENDBRANCH  58  79
ENDBRANCH  32  33
ENDBRANCH  24  27
ENDBRANCH  22  23
ENDBRANCH   1  22
TORSDOF 16
