REMARK SMILES CC(C)C[C@H](NC(=O)[C@@H](NC(=O)[C@H](C)NC(=O)CNC(=O)OCc1ccccc1)C(C)C)C(=O)NCCCNC(=O)c1ccc(-c2c3nc(c(-c4ccc(S(=O)(=O)[O-])cc4)c4ccc([nH]4)c(-c4ccc(S(=O)(=O)[O-])cc4)c4nc(c(-c5ccc(S(=O)(=O)[O-])cc5)c5ccc2[nH]5)C=C4)C=C3)cc1
REMARK SMILES IDX 6 1 7 2 8 3 5 5 4 6 2 7 1 8 3 9 33 10 34 11 35 12 36 14
REMARK SMILES IDX 37 15 38 16 39 17 40 18 41 20 42 21 43 22 101 23 44 24
REMARK SMILES IDX 100 25 45 26 46 27 47 28 94 29 48 30 99 31 93 32 95 33 49 34
REMARK SMILES IDX 98 35 92 36 91 37 50 39 80 40 61 41 79 42 62 43 65 44 78 45
REMARK SMILES IDX 96 46 63 47 64 48 77 50 97 51 66 52 51 53 52 54 60 55 53 56
REMARK SMILES IDX 59 57 54 58 55 59 56 60 57 61 58 62 81 63 82 64 90 65 83 66
REMARK SMILES IDX 89 67 84 68 85 69 86 70 87 71 88 72 67 73 68 74 76 75 69 76
REMARK SMILES IDX 75 77 70 78 71 79 72 80 73 81 74 82 9 83 10 84 11 85 12 87
REMARK SMILES IDX 13 88 14 89 15 90 16 91 17 93 18 94 19 95 20 96 21 98 22 99
REMARK SMILES IDX 23 100 24 101 25 102 29 103 26 104 28 105 27 106 30 107
REMARK SMILES IDX 31 108 32 109
REMARK H PARENT 6 4 35 13 39 19 95 38 65 49 10 86 15 92 19 97
REMARK Flexibility Score: inf
ROOT
ATOM      1  N   UNL     1      -4.232  -3.927  -2.744  1.00  0.00    -0.343 N 
ATOM      2  C   UNL     1      -4.104  -2.520  -2.762  1.00  0.00     0.243 C 
ATOM      3  O   UNL     1      -4.396  -2.023  -3.866  1.00  0.00    -0.273 OA
ATOM      4  H   UNL     1      -3.996  -4.388  -3.581  1.00  0.00     0.164 HD
ENDROOT
BRANCH   1   5
ATOM      5  C   UNL     1      -4.671  -4.792  -1.641  1.00  0.00     0.171 C 
BRANCH   5   6
ATOM      6  C   UNL     1      -4.213  -6.175  -0.975  1.00  0.00     0.038 C 
BRANCH   6   7
ATOM      7  C   UNL     1      -3.231  -7.284  -1.393  1.00  0.00    -0.015 C 
ATOM      8  C   UNL     1      -2.490  -7.148  -2.703  1.00  0.00     0.007 C 
ATOM      9  C   UNL     1      -2.222  -7.556  -0.243  1.00  0.00     0.007 C 
ENDBRANCH   6   7
ENDBRANCH   5   6
BRANCH   5  10
ATOM     10  C   UNL     1      -4.081  -3.982  -0.579  1.00  0.00     0.242 C 
ATOM     11  O   UNL     1      -4.799  -3.698   0.372  1.00  0.00    -0.273 OA
ATOM     12  N   UNL     1      -2.717  -3.757  -0.636  1.00  0.00    -0.354 N 
ATOM     13  H   UNL     1      -2.358  -3.314   0.166  1.00  0.00     0.163 HD
BRANCH  12  14
ATOM     14  C   UNL     1      -1.671  -4.054  -1.680  1.00  0.00     0.117 C 
BRANCH  14  15
ATOM     15  C   UNL     1      -1.120  -3.153  -2.873  1.00  0.00     0.042 C 
BRANCH  15  16
ATOM     16  C   UNL     1      -0.353  -1.800  -2.904  1.00  0.00     0.118 C 
BRANCH  16  17
ATOM     17  N   UNL     1       0.689  -1.571  -1.918  1.00  0.00    -0.352 N 
ATOM     18  C   UNL     1       1.531  -0.499  -1.717  1.00  0.00     0.251 C 
ATOM     19  H   UNL     1       0.815  -2.311  -1.282  1.00  0.00     0.163 HD
ATOM     20  O   UNL     1       2.185  -0.436  -0.678  1.00  0.00    -0.269 OA
BRANCH  18  21
ATOM     21  C   UNL     1       1.790   0.484  -2.783  1.00  0.00     0.039 A 
ATOM     22  C   UNL     1       3.108   0.552  -3.250  1.00  0.00     0.014 A 
ATOM     23  C   UNL     1       0.805   1.300  -3.338  1.00  0.00     0.014 A 
ATOM     24  C   UNL     1       3.409   1.341  -4.353  1.00  0.00     0.010 A 
ATOM     25  C   UNL     1       1.091   2.049  -4.472  1.00  0.00     0.010 A 
ATOM     26  C   UNL     1       2.382   2.033  -5.008  1.00  0.00    -0.014 A 
BRANCH  26  27
ATOM     27  C   UNL     1       2.627   2.628  -6.334  1.00  0.00     0.031 A 
ATOM     28  C   UNL     1       2.576   4.109  -6.519  1.00  0.00     0.074 A 
ATOM     29  C   UNL     1       2.838   1.779  -7.359  1.00  0.00     0.049 A 
ATOM     30  N   UNL     1       2.818   4.804  -7.596  1.00  0.00    -0.248 NA
ATOM     31  C   UNL     1       2.175   4.915  -5.354  1.00  0.00     0.031 C 
ATOM     32  C   UNL     1       2.812   0.313  -7.255  1.00  0.00     0.029 A 
ATOM     33  N   UNL     1       3.131   2.008  -8.674  1.00  0.00    -0.354 N 
ATOM     34  C   UNL     1       2.599   6.129  -7.241  1.00  0.00     0.074 A 
ATOM     35  C   UNL     1       2.139   6.135  -5.871  1.00  0.00     0.031 C 
ATOM     36  C   UNL     1       3.146  -0.221  -8.439  1.00  0.00     0.029 A 
ATOM     37  C   UNL     1       3.366   0.858  -9.391  1.00  0.00     0.049 A 
ATOM     38  H   UNL     1       3.171   2.909  -9.069  1.00  0.00     0.167 HD
ATOM     39  C   UNL     1       2.792   7.235  -7.995  1.00  0.00     0.031 A 
ATOM     40  C   UNL     1       3.737   0.702 -10.674  1.00  0.00     0.031 A 
ATOM     41  C   UNL     1       3.240   7.178  -9.362  1.00  0.00     0.049 A 
ATOM     42  C   UNL     1       3.969   1.948 -11.480  1.00  0.00     0.074 A 
ATOM     43  C   UNL     1       3.516   8.219 -10.227  1.00  0.00     0.029 A 
ATOM     44  N   UNL     1       3.474   5.999 -10.061  1.00  0.00    -0.354 N 
ATOM     45  N   UNL     1       3.837   3.202 -11.109  1.00  0.00    -0.248 NA
ATOM     46  C   UNL     1       4.420   1.765 -12.861  1.00  0.00     0.031 C 
ATOM     47  C   UNL     1       3.860   7.669 -11.467  1.00  0.00     0.029 A 
ATOM     48  C   UNL     1       3.870   6.285 -11.355  1.00  0.00     0.049 A 
ATOM     49  H   UNL     1       3.372   5.093  -9.690  1.00  0.00     0.167 HD
ATOM     50  C   UNL     1       4.211   3.962 -12.207  1.00  0.00     0.074 A 
ATOM     51  C   UNL     1       4.603   3.021 -13.242  1.00  0.00     0.031 C 
ATOM     52  C   UNL     1       4.231   5.311 -12.356  1.00  0.00     0.031 A 
BRANCH  39  53
ATOM     53  C   UNL     1       2.511   8.570  -7.358  1.00  0.00    -0.014 A 
ATOM     54  C   UNL     1       3.297   9.050  -6.292  1.00  0.00     0.010 A 
ATOM     55  C   UNL     1       1.454   9.366  -7.833  1.00  0.00     0.010 A 
ATOM     56  C   UNL     1       3.007  10.277  -5.689  1.00  0.00     0.020 A 
ATOM     57  C   UNL     1       1.179  10.610  -7.254  1.00  0.00     0.020 A 
ATOM     58  C   UNL     1       1.950  11.050  -6.175  1.00  0.00     0.054 A 
BRANCH  58  59
ATOM     59  S   UNL     1       1.619  12.655  -5.397  1.00  0.00     0.124 S 
ATOM     60  O   UNL     1       1.086  12.256  -4.096  1.00  0.00    -0.237 OA
ATOM     61  O   UNL     1       2.942  13.273  -5.370  1.00  0.00    -0.237 OA
ATOM     62  O   UNL     1       0.657  13.286  -6.296  1.00  0.00    -0.744 OA
ENDBRANCH  58  59
ENDBRANCH  39  53
BRANCH  40  63
ATOM     63  C   UNL     1       3.945  -0.661 -11.236  1.00  0.00    -0.014 A 
ATOM     64  C   UNL     1       5.230  -1.108 -11.592  1.00  0.00     0.010 A 
ATOM     65  C   UNL     1       2.855  -1.540 -11.386  1.00  0.00     0.010 A 
ATOM     66  C   UNL     1       5.417  -2.393 -12.112  1.00  0.00     0.020 A 
ATOM     67  C   UNL     1       3.043  -2.837 -11.874  1.00  0.00     0.020 A 
ATOM     68  C   UNL     1       4.322  -3.250 -12.248  1.00  0.00     0.054 A 
BRANCH  68  69
ATOM     69  S   UNL     1       4.593  -4.926 -12.890  1.00  0.00     0.124 S 
ATOM     70  O   UNL     1       4.891  -4.669 -14.295  1.00  0.00    -0.237 OA
ATOM     71  O   UNL     1       5.714  -5.396 -12.079  1.00  0.00    -0.237 OA
ATOM     72  O   UNL     1       3.322  -5.601 -12.632  1.00  0.00    -0.744 OA
ENDBRANCH  68  69
ENDBRANCH  40  63
BRANCH  52  73
ATOM     73  C   UNL     1       4.718   5.829 -13.681  1.00  0.00    -0.014 A 
ATOM     74  C   UNL     1       3.967   5.650 -14.856  1.00  0.00     0.010 A 
ATOM     75  C   UNL     1       5.943   6.518 -13.741  1.00  0.00     0.010 A 
ATOM     76  C   UNL     1       4.465   6.097 -16.080  1.00  0.00     0.020 A 
ATOM     77  C   UNL     1       6.423   7.002 -14.957  1.00  0.00     0.020 A 
ATOM     78  C   UNL     1       5.692   6.765 -16.122  1.00  0.00     0.054 A 
BRANCH  78  79
ATOM     79  S   UNL     1       6.315   7.337 -17.724  1.00  0.00     0.124 S 
ATOM     80  O   UNL     1       6.722   6.084 -18.354  1.00  0.00    -0.237 OA
ATOM     81  O   UNL     1       5.144   7.985 -18.309  1.00  0.00    -0.237 OA
ATOM     82  O   UNL     1       7.408   8.239 -17.368  1.00  0.00    -0.744 OA
ENDBRANCH  78  79
ENDBRANCH  52  73
ENDBRANCH  26  27
ENDBRANCH  18  21
ENDBRANCH  16  17
ENDBRANCH  15  16
ENDBRANCH  14  15
ENDBRANCH  12  14
ENDBRANCH   5  10
ENDBRANCH   1   5
BRANCH   2  83
ATOM     83  C   UNL     1      -3.711  -1.408  -1.498  1.00  0.00     0.174 C 
BRANCH  83  84
ATOM     84  N   UNL     1      -5.037  -0.970  -0.924  1.00  0.00    -0.342 N 
ATOM     85  C   UNL     1      -5.636  -0.803   0.295  1.00  0.00     0.242 C 
ATOM     86  H   UNL     1      -5.661  -0.733  -1.647  1.00  0.00     0.164 HD
ATOM     87  O   UNL     1      -6.814  -0.418   0.251  1.00  0.00    -0.273 OA
BRANCH  85  88
ATOM     88  C   UNL     1      -4.927  -0.827   1.697  1.00  0.00     0.168 C 
ATOM     89  C   UNL     1      -4.035   0.405   1.711  1.00  0.00     0.041 C 
BRANCH  88  90
ATOM     90  N   UNL     1      -4.244  -2.076   2.035  1.00  0.00    -0.343 N 
ATOM     91  C   UNL     1      -3.817  -2.727   3.144  1.00  0.00     0.240 C 
ATOM     92  H   UNL     1      -4.032  -2.591   1.223  1.00  0.00     0.164 HD
ATOM     93  O   UNL     1      -3.320  -3.851   3.003  1.00  0.00    -0.273 OA
BRANCH  91  94
ATOM     94  C   UNL     1      -3.866  -2.087   4.511  1.00  0.00     0.219 C 
BRANCH  94  95
ATOM     95  N   UNL     1      -2.775  -1.151   4.614  1.00  0.00    -0.312 N 
ATOM     96  C   UNL     1      -2.920   0.201   4.561  1.00  0.00     0.407 C 
ATOM     97  H   UNL     1      -1.867  -1.512   4.729  1.00  0.00     0.167 HD
ATOM     98  O   UNL     1      -1.977   0.939   4.376  1.00  0.00    -0.225 OA
BRANCH  96  99
ATOM     99  O   UNL     1      -4.222   0.570   4.699  1.00  0.00    -0.445 OA
BRANCH  99 100
ATOM    100  C   UNL     1      -4.514   1.954   4.481  1.00  0.00     0.270 C 
BRANCH 100 101
ATOM    101  C   UNL     1      -4.167   2.850   5.623  1.00  0.00    -0.011 A 
ATOM    102  C   UNL     1      -4.344   4.227   5.442  1.00  0.00     0.007 A 
ATOM    103  C   UNL     1      -3.521   2.371   6.765  1.00  0.00     0.007 A 
ATOM    104  C   UNL     1      -3.807   5.117   6.361  1.00  0.00     0.000 A 
ATOM    105  C   UNL     1      -2.962   3.262   7.667  1.00  0.00     0.000 A 
ATOM    106  C   UNL     1      -3.096   4.633   7.458  1.00  0.00     0.000 A 
ENDBRANCH 100 101
ENDBRANCH  99 100
ENDBRANCH  96  99
ENDBRANCH  94  95
ENDBRANCH  91  94
ENDBRANCH  88  90
ENDBRANCH  85  88
ENDBRANCH  83  84
BRANCH  83 107
ATOM    107  C   UNL     1      -2.433  -0.997  -0.537  1.00  0.00     0.015 C 
ATOM    108  C   UNL     1      -1.284  -1.712   0.239  1.00  0.00     0.010 C 
ATOM    109  C   UNL     1      -1.945   0.449  -0.768  1.00  0.00     0.010 C 
ENDBRANCH  83 107
ENDBRANCH   2  83
TORSDOF 26
