REMARK SMILES C/C(C(=O)NCCCNC(=O)c1ccc(-c2c3nc(c(-c4ccc(S(=O)(=O)[O-])cc4)c4ccc([nH]4)c(-c4ccc(S(=O)(=O)[O-])cc4)c4nc(c(-c5ccc(S(=O)(=O)[O-])cc5)c5ccc2[nH]5)C=C4)C=C3)cc1)=C(\C)C(=O)NCc1cscc1C
REMARK SMILES IDX 7 1 6 2 5 3 3 4 4 5 2 7 1 8 72 9 73 10 74 11 75 12 76 13
REMARK SMILES IDX 77 15 78 16 79 17 82 18 80 19 81 20 83 21 8 22 9 23 10 24
REMARK SMILES IDX 11 26 12 27 13 28 71 29 14 30 70 31 15 32 16 33 17 34 64 35
REMARK SMILES IDX 18 36 69 37 63 38 65 39 19 40 68 41 62 42 61 43 20 45 50 46
REMARK SMILES IDX 31 47 49 48 32 49 35 50 48 51 66 52 33 53 34 54 47 56 67 57
REMARK SMILES IDX 36 58 21 59 22 60 30 61 23 62 29 63 24 64 25 65 26 66 27 67
REMARK SMILES IDX 28 68 51 69 52 70 60 71 53 72 59 73 54 74 55 75 56 76 57 77
REMARK SMILES IDX 58 78 37 79 38 80 46 81 39 82 45 83 40 84 41 85 42 86 43 87
REMARK SMILES IDX 44 88
REMARK H PARENT 5 6 76 14 9 25 65 44 35 55
REMARK Flexibility Score: inf
ROOT
ATOM      1  C   UNL     1      -0.872   0.953  -2.641  1.00  0.00     0.042 C 
ENDROOT
BRANCH   1   2
ATOM      2  C   UNL     1       0.097   1.822  -1.829  1.00  0.00     0.118 C 
BRANCH   2   3
ATOM      3  N   UNL     1      -0.523   2.258  -0.586  1.00  0.00    -0.352 N 
ATOM      4  C   UNL     1      -0.502   1.770   0.688  1.00  0.00     0.247 C 
ATOM      5  O   UNL     1      -1.394   2.130   1.455  1.00  0.00    -0.270 OA
ATOM      6  H   UNL     1      -1.069   3.071  -0.684  1.00  0.00     0.163 HD
BRANCH   4   7
ATOM      7  C   UNL     1       0.532   0.779   1.135  1.00  0.00     0.022 C 
ATOM      8  C   UNL     1       0.739  -0.432   0.270  1.00  0.00     0.051 C 
ATOM      9  C   UNL     1       1.136   0.890   2.351  1.00  0.00     0.022 C 
ATOM     10  C   UNL     1       2.159  -0.109   2.802  1.00  0.00     0.051 C 
BRANCH   9  11
ATOM     11  C   UNL     1       0.892   2.086   3.223  1.00  0.00     0.247 C 
ATOM     12  O   UNL     1       0.798   3.213   2.734  1.00  0.00    -0.270 OA
ATOM     13  N   UNL     1       0.804   1.998   4.577  1.00  0.00    -0.348 N 
ATOM     14  H   UNL     1       0.289   2.736   4.977  1.00  0.00     0.164 HD
BRANCH  13  15
ATOM     15  C   UNL     1       1.302   1.056   5.566  1.00  0.00     0.153 C 
BRANCH  15  16
ATOM     16  C   UNL     1       2.665   1.526   6.038  1.00  0.00    -0.015 A 
ATOM     17  C   UNL     1       2.994   2.864   6.213  1.00  0.00     0.070 A 
ATOM     18  C   UNL     1       3.799   0.686   6.391  1.00  0.00    -0.035 A 
ATOM     19  S   UNL     1       4.593   3.121   6.736  1.00  0.00    -0.152 S 
ATOM     20  C   UNL     1       4.892   1.447   6.773  1.00  0.00     0.068 A 
ATOM     21  C   UNL     1       3.852  -0.808   6.370  1.00  0.00     0.045 C 
ENDBRANCH  15  16
ENDBRANCH  13  15
ENDBRANCH   9  11
ENDBRANCH   4   7
ENDBRANCH   2   3
ENDBRANCH   1   2
BRANCH   1  22
ATOM     22  C   UNL     1      -2.011   1.739  -3.290  1.00  0.00     0.118 C 
BRANCH  22  23
ATOM     23  N   UNL     1      -1.559   2.506  -4.441  1.00  0.00    -0.352 N 
ATOM     24  C   UNL     1      -1.960   2.446  -5.754  1.00  0.00     0.251 C 
ATOM     25  H   UNL     1      -0.858   3.171  -4.249  1.00  0.00     0.163 HD
ATOM     26  O   UNL     1      -1.290   3.017  -6.610  1.00  0.00    -0.269 OA
BRANCH  24  27
ATOM     27  C   UNL     1      -3.177   1.699  -6.148  1.00  0.00     0.039 A 
ATOM     28  C   UNL     1      -3.156   0.954  -7.333  1.00  0.00     0.014 A 
ATOM     29  C   UNL     1      -4.354   1.774  -5.399  1.00  0.00     0.014 A 
ATOM     30  C   UNL     1      -4.294   0.249  -7.738  1.00  0.00     0.010 A 
ATOM     31  C   UNL     1      -5.469   1.021  -5.770  1.00  0.00     0.010 A 
ATOM     32  C   UNL     1      -5.454   0.256  -6.947  1.00  0.00    -0.014 A 
BRANCH  32  33
ATOM     33  C   UNL     1      -6.661  -0.521  -7.335  1.00  0.00     0.031 A 
ATOM     34  C   UNL     1      -7.946   0.191  -7.670  1.00  0.00     0.074 A 
ATOM     35  C   UNL     1      -6.621  -1.868  -7.324  1.00  0.00     0.049 A 
ATOM     36  N   UNL     1      -9.120  -0.315  -7.951  1.00  0.00    -0.248 NA
ATOM     37  C   UNL     1      -7.912   1.662  -7.667  1.00  0.00     0.031 C 
ATOM     38  C   UNL     1      -5.448  -2.678  -6.988  1.00  0.00     0.029 A 
ATOM     39  N   UNL     1      -7.598  -2.796  -7.592  1.00  0.00    -0.354 N 
ATOM     40  C   UNL     1      -9.968   0.773  -8.135  1.00  0.00     0.074 A 
ATOM     41  C   UNL     1      -9.182   1.964  -7.894  1.00  0.00     0.031 C 
ATOM     42  C   UNL     1      -5.768  -3.978  -7.088  1.00  0.00     0.029 A 
ATOM     43  C   UNL     1      -7.176  -4.097  -7.454  1.00  0.00     0.049 A 
ATOM     44  H   UNL     1      -8.514  -2.552  -7.858  1.00  0.00     0.167 HD
ATOM     45  C   UNL     1     -11.276   0.782  -8.487  1.00  0.00     0.031 A 
ATOM     46  C   UNL     1      -7.847  -5.257  -7.595  1.00  0.00     0.031 A 
ATOM     47  C   UNL     1     -12.052  -0.404  -8.739  1.00  0.00     0.049 A 
ATOM     48  C   UNL     1      -9.300  -5.223  -7.982  1.00  0.00     0.074 A 
ATOM     49  C   UNL     1     -13.370  -0.499  -9.151  1.00  0.00     0.029 A 
ATOM     50  N   UNL     1     -11.581  -1.702  -8.605  1.00  0.00    -0.354 N 
ATOM     51  N   UNL     1     -10.069  -4.184  -8.202  1.00  0.00    -0.248 NA
ATOM     52  C   UNL     1      -9.973  -6.519  -8.149  1.00  0.00     0.031 C 
ATOM     53  C   UNL     1     -13.710  -1.854  -9.221  1.00  0.00     0.029 A 
ATOM     54  C   UNL     1     -12.588  -2.604  -8.907  1.00  0.00     0.049 A 
ATOM     55  H   UNL     1     -10.667  -1.946  -8.334  1.00  0.00     0.167 HD
ATOM     56  C   UNL     1     -11.309  -4.700  -8.562  1.00  0.00     0.074 A 
ATOM     57  C   UNL     1     -11.183  -6.143  -8.541  1.00  0.00     0.031 C 
ATOM     58  C   UNL     1     -12.447  -4.038  -8.884  1.00  0.00     0.031 A 
BRANCH  45  59
ATOM     59  C   UNL     1     -11.955   2.121  -8.615  1.00  0.00    -0.014 A 
ATOM     60  C   UNL     1     -11.639   2.998  -9.668  1.00  0.00     0.010 A 
ATOM     61  C   UNL     1     -12.947   2.494  -7.690  1.00  0.00     0.010 A 
ATOM     62  C   UNL     1     -12.270   4.242  -9.768  1.00  0.00     0.020 A 
ATOM     63  C   UNL     1     -13.601   3.726  -7.803  1.00  0.00     0.020 A 
ATOM     64  C   UNL     1     -13.243   4.600  -8.831  1.00  0.00     0.054 A 
BRANCH  64  65
ATOM     65  S   UNL     1     -14.056   6.213  -8.994  1.00  0.00     0.124 S 
ATOM     66  O   UNL     1     -13.004   7.125  -8.553  1.00  0.00    -0.237 OA
ATOM     67  O   UNL     1     -14.377   6.269 -10.418  1.00  0.00    -0.237 OA
ATOM     68  O   UNL     1     -15.209   6.113  -8.102  1.00  0.00    -0.744 OA
ENDBRANCH  64  65
ENDBRANCH  45  59
BRANCH  46  69
ATOM     69  C   UNL     1      -7.143  -6.552  -7.382  1.00  0.00    -0.014 A 
ATOM     70  C   UNL     1      -6.846  -7.389  -8.472  1.00  0.00     0.010 A 
ATOM     71  C   UNL     1      -6.749  -6.945  -6.090  1.00  0.00     0.010 A 
ATOM     72  C   UNL     1      -6.183  -8.603  -8.272  1.00  0.00     0.020 A 
ATOM     73  C   UNL     1      -6.061  -8.146  -5.890  1.00  0.00     0.020 A 
ATOM     74  C   UNL     1      -5.792  -8.973  -6.982  1.00  0.00     0.054 A 
BRANCH  74  75
ATOM     75  S   UNL     1      -4.881 -10.526  -6.753  1.00  0.00     0.124 S 
ATOM     76  O   UNL     1      -5.935 -11.522  -6.912  1.00  0.00    -0.237 OA
ATOM     77  O   UNL     1      -3.892 -10.473  -7.827  1.00  0.00    -0.237 OA
ATOM     78  O   UNL     1      -4.331 -10.403  -5.405  1.00  0.00    -0.744 OA
ENDBRANCH  74  75
ENDBRANCH  46  69
BRANCH  58  79
ATOM     79  C   UNL     1     -13.642  -4.864  -9.278  1.00  0.00    -0.014 A 
ATOM     80  C   UNL     1     -14.375  -5.590  -8.323  1.00  0.00     0.010 A 
ATOM     81  C   UNL     1     -14.070  -4.865 -10.619  1.00  0.00     0.010 A 
ATOM     82  C   UNL     1     -15.500  -6.325  -8.707  1.00  0.00     0.020 A 
ATOM     83  C   UNL     1     -15.210  -5.577 -11.001  1.00  0.00     0.020 A 
ATOM     84  C   UNL     1     -15.910  -6.314 -10.044  1.00  0.00     0.054 A 
BRANCH  84  85
ATOM     85  S   UNL     1     -17.402  -7.236 -10.509  1.00  0.00     0.124 S 
ATOM     86  O   UNL     1     -16.927  -8.616 -10.479  1.00  0.00    -0.237 OA
ATOM     87  O   UNL     1     -18.346  -6.872  -9.455  1.00  0.00    -0.237 OA
ATOM     88  O   UNL     1     -17.730  -6.718 -11.835  1.00  0.00    -0.744 OA
ENDBRANCH  84  85
ENDBRANCH  58  79
ENDBRANCH  32  33
ENDBRANCH  24  27
ENDBRANCH  22  23
ENDBRANCH   1  22
TORSDOF 16
