REMARK SMILES Cc1ccccc1[C@@H]1[NH2+][C@@H](C(=O)NCCCNC(=O)c2ccc(-c3c4nc(c(-c5ccc(S(=O)(=O)[O-])cc5)c5ccc([nH]5)c(-c5ccc(S(=O)(=O)[O-])cc5)c5nc(c(-c6ccc(S(=O)(=O)[O-])cc6)c6ccc3[nH]6)C=C5)C=C4)cc2)CC2=c3ccccc3=N[C@H]21
REMARK SMILES IDX 16 1 15 2 14 3 13 4 11 5 12 6 10 8 8 9 9 10 89 11 81 14
REMARK SMILES IDX 88 15 80 16 82 17 87 18 83 19 86 20 84 21 85 22 7 23 1 24
REMARK SMILES IDX 2 25 3 26 4 27 6 28 5 29 17 30 18 31 19 33 20 34 21 35 79 36
REMARK SMILES IDX 22 37 78 38 23 39 24 40 25 41 72 42 26 43 77 44 71 45 73 46
REMARK SMILES IDX 27 47 76 48 70 49 69 50 28 52 58 53 39 54 57 55 40 56 43 57
REMARK SMILES IDX 56 58 74 59 41 60 42 61 55 63 75 64 44 65 29 66 30 67 38 68
REMARK SMILES IDX 31 69 37 70 32 71 33 72 34 73 35 74 36 75 59 76 60 77 68 78
REMARK SMILES IDX 61 79 67 80 62 81 63 82 64 83 65 84 66 85 45 86 46 87 54 88
REMARK SMILES IDX 47 89 53 90 48 91 49 92 50 93 51 94 52 95
REMARK H PARENT 13 7 9 12 9 13 17 32 73 51 43 62
REMARK Flexibility Score: inf
ROOT
ATOM      1  C   UNL     1      -4.019   7.580  -0.651  1.00  0.00     0.118 C 
ENDROOT
BRANCH   1   2
ATOM      2  C   UNL     1      -3.346   6.552   0.230  1.00  0.00     0.042 C 
BRANCH   2   3
ATOM      3  C   UNL     1      -4.019   5.193   0.139  1.00  0.00     0.118 C 
BRANCH   3   4
ATOM      4  N   UNL     1      -3.559   4.362  -0.961  1.00  0.00    -0.351 N 
ATOM      5  C   UNL     1      -2.457   3.573  -1.115  1.00  0.00     0.278 C 
ATOM      6  O   UNL     1      -2.592   2.634  -1.914  1.00  0.00    -0.268 OA
ATOM      7  H   UNL     1      -4.157   4.370  -1.744  1.00  0.00     0.163 HD
BRANCH   5   8
ATOM      8  C   UNL     1      -1.046   3.863  -0.483  1.00  0.00     0.277 C 
ATOM      9  C   UNL     1       0.730   2.207   0.416  1.00  0.00     0.243 C 
ATOM     10  N   UNL     1      -0.163   2.664  -0.682  1.00  0.00    -0.327 N 
ATOM     11  C   UNL     1       0.693   2.919   1.806  1.00  0.00     0.196 C 
ATOM     12  H   UNL     1      -0.776   1.881  -0.909  1.00  0.00     0.347 HD
ATOM     13  H   UNL     1       0.491   2.972  -1.403  1.00  0.00     0.347 HD
ATOM     14  C   UNL     1      -0.646   3.532   1.953  1.00  0.00    -0.024 C 
ATOM     15  N   UNL     1       0.792   1.964   2.954  1.00  0.00    -0.270 NA
ATOM     16  C   UNL     1      -0.996   4.499   0.905  1.00  0.00     0.109 C 
ATOM     17  C   UNL     1      -1.338   3.016   2.955  1.00  0.00     0.002 A 
ATOM     18  C   UNL     1      -0.358   2.095   3.546  1.00  0.00     0.066 A 
ATOM     19  C   UNL     1      -2.672   3.125   3.438  1.00  0.00     0.010 A 
ATOM     20  C   UNL     1      -0.792   1.398   4.774  1.00  0.00     0.028 A 
ATOM     21  C   UNL     1      -3.026   2.392   4.504  1.00  0.00     0.001 A 
ATOM     22  C   UNL     1      -2.058   1.558   5.198  1.00  0.00     0.002 A 
BRANCH   9  23
ATOM     23  C   UNL     1       2.184   2.059  -0.051  1.00  0.00     0.015 A 
ATOM     24  C   UNL     1       2.653   4.583  -0.323  1.00  0.00     0.045 C 
ATOM     25  C   UNL     1       3.070   3.139  -0.278  1.00  0.00    -0.042 A 
ATOM     26  C   UNL     1       4.447   2.876  -0.412  1.00  0.00     0.004 A 
ATOM     27  C   UNL     1       4.938   1.573  -0.412  1.00  0.00     0.000 A 
ATOM     28  C   UNL     1       2.695   0.747  -0.141  1.00  0.00     0.010 A 
ATOM     29  C   UNL     1       4.056   0.506  -0.317  1.00  0.00     0.001 A 
ENDBRANCH   9  23
ENDBRANCH   5   8
ENDBRANCH   3   4
ENDBRANCH   2   3
ENDBRANCH   1   2
BRANCH   1  30
ATOM     30  N   UNL     1      -4.854   8.453   0.158  1.00  0.00    -0.352 N 
ATOM     31  C   UNL     1      -4.437   9.704   0.607  1.00  0.00     0.251 C 
ATOM     32  H   UNL     1      -5.757   8.145   0.400  1.00  0.00     0.163 HD
ATOM     33  O   UNL     1      -4.214   9.956   1.771  1.00  0.00    -0.269 OA
BRANCH  31  34
ATOM     34  C   UNL     1      -4.352  10.726  -0.469  1.00  0.00     0.039 A 
ATOM     35  C   UNL     1      -5.570  11.352  -0.766  1.00  0.00     0.014 A 
ATOM     36  C   UNL     1      -3.427  10.441  -1.464  1.00  0.00     0.014 A 
ATOM     37  C   UNL     1      -6.023  11.356  -2.069  1.00  0.00     0.010 A 
ATOM     38  C   UNL     1      -3.922  10.304  -2.733  1.00  0.00     0.010 A 
ATOM     39  C   UNL     1      -5.238  10.702  -3.002  1.00  0.00    -0.014 A 
BRANCH  39  40
ATOM     40  C   UNL     1      -5.653  10.462  -4.359  1.00  0.00     0.031 A 
ATOM     41  C   UNL     1      -5.213  11.474  -5.320  1.00  0.00     0.074 A 
ATOM     42  C   UNL     1      -6.199   9.258  -4.623  1.00  0.00     0.049 A 
ATOM     43  N   UNL     1      -5.686  11.624  -6.498  1.00  0.00    -0.248 NA
ATOM     44  C   UNL     1      -4.200  12.479  -4.977  1.00  0.00     0.031 C 
ATOM     45  C   UNL     1      -6.398   8.566  -5.890  1.00  0.00     0.029 A 
ATOM     46  N   UNL     1      -6.948   8.508  -3.707  1.00  0.00    -0.354 N 
ATOM     47  C   UNL     1      -4.777  12.412  -7.171  1.00  0.00     0.074 A 
ATOM     48  C   UNL     1      -3.989  13.058  -6.158  1.00  0.00     0.031 C 
ATOM     49  C   UNL     1      -7.433   7.712  -5.748  1.00  0.00     0.029 A 
ATOM     50  C   UNL     1      -8.026   7.993  -4.445  1.00  0.00     0.049 A 
ATOM     51  H   UNL     1      -6.759   8.371  -2.750  1.00  0.00     0.167 HD
ATOM     52  C   UNL     1      -4.649  12.228  -8.511  1.00  0.00     0.031 A 
ATOM     53  C   UNL     1      -9.261   8.557  -4.269  1.00  0.00     0.031 A 
ATOM     54  C   UNL     1      -5.676  11.295  -8.982  1.00  0.00     0.049 A 
ATOM     55  C   UNL     1      -9.774   9.227  -5.535  1.00  0.00     0.074 A 
ATOM     56  C   UNL     1      -5.661   9.947  -9.300  1.00  0.00     0.029 A 
ATOM     57  N   UNL     1      -7.006  11.625  -8.758  1.00  0.00    -0.354 N 
ATOM     58  N   UNL     1      -9.019   9.719  -6.483  1.00  0.00    -0.248 NA
ATOM     59  C   UNL     1     -11.192   9.349  -5.840  1.00  0.00     0.031 C 
ATOM     60  C   UNL     1      -7.001   9.463  -9.217  1.00  0.00     0.029 A 
ATOM     61  C   UNL     1      -7.824  10.518  -8.862  1.00  0.00     0.049 A 
ATOM     62  H   UNL     1      -7.325  12.533  -8.550  1.00  0.00     0.167 HD
ATOM     63  C   UNL     1      -9.800  10.169  -7.524  1.00  0.00     0.074 A 
ATOM     64  C   UNL     1     -11.156   9.939  -7.048  1.00  0.00     0.031 C 
ATOM     65  C   UNL     1      -9.265  10.686  -8.679  1.00  0.00     0.031 A 
BRANCH  52  66
ATOM     66  C   UNL     1      -3.431  12.631  -9.305  1.00  0.00    -0.014 A 
ATOM     67  C   UNL     1      -3.175  11.979 -10.527  1.00  0.00     0.010 A 
ATOM     68  C   UNL     1      -2.479  13.591  -8.905  1.00  0.00     0.010 A 
ATOM     69  C   UNL     1      -2.023  12.234 -11.283  1.00  0.00     0.020 A 
ATOM     70  C   UNL     1      -1.308  13.842  -9.639  1.00  0.00     0.020 A 
ATOM     71  C   UNL     1      -1.089  13.161 -10.829  1.00  0.00     0.054 A 
BRANCH  71  72
ATOM     72  S   UNL     1       0.383  13.485 -11.829  1.00  0.00     0.124 S 
ATOM     73  O   UNL     1       1.012  12.168 -11.899  1.00  0.00    -0.237 OA
ATOM     74  O   UNL     1      -0.192  13.976 -13.078  1.00  0.00    -0.237 OA
ATOM     75  O   UNL     1       1.121  14.479 -11.052  1.00  0.00    -0.744 OA
ENDBRANCH  71  72
ENDBRANCH  52  66
BRANCH  53  76
ATOM     76  C   UNL     1      -9.527   9.008  -2.857  1.00  0.00    -0.014 A 
ATOM     77  C   UNL     1      -9.385   8.056  -1.816  1.00  0.00     0.010 A 
ATOM     78  C   UNL     1      -9.611  10.362  -2.491  1.00  0.00     0.010 A 
ATOM     79  C   UNL     1      -9.218   8.442  -0.479  1.00  0.00     0.020 A 
ATOM     80  C   UNL     1      -9.472  10.755  -1.140  1.00  0.00     0.020 A 
ATOM     81  C   UNL     1      -9.242   9.794  -0.147  1.00  0.00     0.054 A 
BRANCH  81  82
ATOM     82  S   UNL     1      -8.976  10.302   1.584  1.00  0.00     0.124 S 
ATOM     83  O   UNL     1      -8.937   9.031   2.307  1.00  0.00    -0.237 OA
ATOM     84  O   UNL     1      -7.704  11.008   1.526  1.00  0.00    -0.237 OA
ATOM     85  O   UNL     1     -10.142  11.137   1.850  1.00  0.00    -0.744 OA
ENDBRANCH  81  82
ENDBRANCH  53  76
BRANCH  65  86
ATOM     86  C   UNL     1     -10.000  11.444  -9.781  1.00  0.00    -0.014 A 
ATOM     87  C   UNL     1     -11.387  11.512  -9.941  1.00  0.00     0.010 A 
ATOM     88  C   UNL     1      -9.237  12.187 -10.726  1.00  0.00     0.010 A 
ATOM     89  C   UNL     1     -11.976  12.324 -10.925  1.00  0.00     0.020 A 
ATOM     90  C   UNL     1      -9.805  13.012 -11.697  1.00  0.00     0.020 A 
ATOM     91  C   UNL     1     -11.182  13.081 -11.784  1.00  0.00     0.054 A 
BRANCH  91  92
ATOM     92  S   UNL     1     -11.973  14.138 -13.013  1.00  0.00     0.124 S 
ATOM     93  O   UNL     1     -12.680  13.164 -13.842  1.00  0.00    -0.237 OA
ATOM     94  O   UNL     1     -12.822  14.992 -12.186  1.00  0.00    -0.237 OA
ATOM     95  O   UNL     1     -10.857  14.818 -13.665  1.00  0.00    -0.744 OA
ENDBRANCH  91  92
ENDBRANCH  65  86
ENDBRANCH  39  40
ENDBRANCH  31  34
ENDBRANCH   1  30
TORSDOF 14
