REMARK SMILES Cc1cnc(N2CCO[C@H](CC(=O)NCCCNC(=O)c3ccc(-c4c5nc(c(-c6ccc(S(=O)(=O)[O-])cc6)c6ccc([nH]6)c(-c6ccc(S(=O)(=O)[O-])cc6)c6nc(c(-c7ccc(S(=O)(=O)[O-])cc7)c7ccc4[nH]7)C=C6)C=C5)cc3)C2)c([N+](=O)[O-])c1
REMARK SMILES IDX 16 1 15 2 14 3 12 4 13 5 11 7 10 8 6 9 7 10 81 11 8 12 9 13
REMARK SMILES IDX 5 14 1 15 2 16 3 17 86 18 4 19 82 20 83 21 84 22 85 23 17 24
REMARK SMILES IDX 18 25 19 26 20 28 21 29 22 30 80 31 23 32 79 33 24 34 25 35
REMARK SMILES IDX 26 36 73 37 27 38 78 39 72 40 74 41 28 42 77 43 71 44 70 45
REMARK SMILES IDX 29 47 59 48 40 49 58 50 41 51 44 52 57 53 75 54 42 55 43 56
REMARK SMILES IDX 56 58 76 59 45 60 30 61 31 62 39 63 32 64 38 65 33 66 34 67
REMARK SMILES IDX 35 68 36 69 37 70 60 71 61 72 69 73 62 74 68 75 63 76 64 77
REMARK SMILES IDX 65 78 66 79 67 80 46 81 47 82 55 83 48 84 54 85 49 86 50 87
REMARK SMILES IDX 51 88 52 89 53 90
REMARK H PARENT 14 6 18 27 74 46 44 57
REMARK Flexibility Score: inf
ROOT
ATOM      1  C   UNL     1      -7.854   2.867   2.274  1.00  0.00     0.042 C 
ENDROOT
BRANCH   1   2
ATOM      2  C   UNL     1      -6.491   3.538   2.378  1.00  0.00     0.117 C 
BRANCH   2   3
ATOM      3  N   UNL     1      -5.753   3.053   3.528  1.00  0.00    -0.356 N 
ATOM      4  C   UNL     1      -4.723   2.168   3.557  1.00  0.00     0.222 C 
ATOM      5  O   UNL     1      -4.319   1.749   4.642  1.00  0.00    -0.275 OA
ATOM      6  H   UNL     1      -6.036   3.410   4.401  1.00  0.00     0.163 HD
BRANCH   4   7
ATOM      7  C   UNL     1      -4.069   1.750   2.268  1.00  0.00     0.133 C 
BRANCH   7   8
ATOM      8  C   UNL     1      -4.771   0.548   1.614  1.00  0.00     0.147 C 
ATOM      9  N   UNL     1      -3.040   0.356  -0.042  1.00  0.00    -0.346 N 
ATOM     10  C   UNL     1      -3.932   0.669  -1.158  1.00  0.00     0.147 C 
ATOM     11  C   UNL     1      -3.708  -0.400   1.020  1.00  0.00     0.151 C 
ATOM     12  C   UNL     1      -5.120   1.485  -0.611  1.00  0.00     0.182 C 
ATOM     13  O   UNL     1      -5.717   0.929   0.582  1.00  0.00    -0.374 OA
BRANCH   9  14
ATOM     14  C   UNL     1      -1.682   0.265  -0.172  1.00  0.00     0.208 A 
ATOM     15  C   UNL     1       2.562  -0.340  -0.027  1.00  0.00     0.046 C 
ATOM     16  C   UNL     1       1.091  -0.091  -0.107  1.00  0.00    -0.026 A 
ATOM     17  C   UNL     1       0.184  -1.138  -0.054  1.00  0.00     0.117 A 
ATOM     18  C   UNL     1       0.568   1.193  -0.212  1.00  0.00     0.094 A 
ATOM     19  N   UNL     1      -1.161  -0.983  -0.080  1.00  0.00    -0.233 NA
ATOM     20  C   UNL     1      -0.825   1.366  -0.243  1.00  0.00     0.311 A 
BRANCH  20  21
ATOM     21  N   UNL     1      -1.319   2.729  -0.183  1.00  0.00     0.066 N 
ATOM     22  O   UNL     1      -2.205   3.078  -0.974  1.00  0.00    -0.258 OA
ATOM     23  O   UNL     1      -0.759   3.494   0.618  1.00  0.00    -0.258 OA
ENDBRANCH  20  21
ENDBRANCH   9  14
ENDBRANCH   7   8
ENDBRANCH   4   7
ENDBRANCH   2   3
ENDBRANCH   1   2
BRANCH   1  24
ATOM     24  C   UNL     1      -8.798   3.256   3.405  1.00  0.00     0.118 C 
BRANCH  24  25
ATOM     25  N   UNL     1      -9.114   4.678   3.397  1.00  0.00    -0.352 N 
ATOM     26  C   UNL     1     -10.335   5.305   3.380  1.00  0.00     0.251 C 
ATOM     27  H   UNL     1      -8.335   5.280   3.404  1.00  0.00     0.163 HD
ATOM     28  O   UNL     1     -10.395   6.512   3.170  1.00  0.00    -0.269 OA
BRANCH  26  29
ATOM     29  C   UNL     1     -11.569   4.523   3.598  1.00  0.00     0.039 A 
ATOM     30  C   UNL     1     -12.683   4.784   2.798  1.00  0.00     0.014 A 
ATOM     31  C   UNL     1     -11.632   3.546   4.596  1.00  0.00     0.014 A 
ATOM     32  C   UNL     1     -13.843   4.025   2.962  1.00  0.00     0.010 A 
ATOM     33  C   UNL     1     -12.759   2.739   4.703  1.00  0.00     0.010 A 
ATOM     34  C   UNL     1     -13.879   2.975   3.893  1.00  0.00    -0.014 A 
BRANCH  34  35
ATOM     35  C   UNL     1     -15.077   2.111   4.036  1.00  0.00     0.031 A 
ATOM     36  C   UNL     1     -15.843   2.088   5.330  1.00  0.00     0.074 A 
ATOM     37  C   UNL     1     -15.435   1.298   3.022  1.00  0.00     0.049 A 
ATOM     38  N   UNL     1     -16.879   1.361   5.662  1.00  0.00    -0.248 NA
ATOM     39  C   UNL     1     -15.367   2.980   6.399  1.00  0.00     0.031 C 
ATOM     40  C   UNL     1     -14.751   1.204   1.730  1.00  0.00     0.029 A 
ATOM     41  N   UNL     1     -16.461   0.394   2.921  1.00  0.00    -0.354 N 
ATOM     42  C   UNL     1     -17.167   1.694   6.980  1.00  0.00     0.074 A 
ATOM     43  C   UNL     1     -16.164   2.647   7.403  1.00  0.00     0.031 C 
ATOM     44  C   UNL     1     -15.397   0.318   0.956  1.00  0.00     0.029 A 
ATOM     45  C   UNL     1     -16.509  -0.253   1.709  1.00  0.00     0.049 A 
ATOM     46  H   UNL     1     -17.103   0.223   3.648  1.00  0.00     0.167 HD
ATOM     47  C   UNL     1     -18.185   1.261   7.763  1.00  0.00     0.031 A 
ATOM     48  C   UNL     1     -17.349  -1.202   1.254  1.00  0.00     0.031 A 
ATOM     49  C   UNL     1     -19.178   0.310   7.337  1.00  0.00     0.049 A 
ATOM     50  C   UNL     1     -18.457  -1.687   2.147  1.00  0.00     0.074 A 
ATOM     51  C   UNL     1     -20.278  -0.157   8.034  1.00  0.00     0.029 A 
ATOM     52  N   UNL     1     -19.188  -0.325   6.103  1.00  0.00    -0.354 N 
ATOM     53  N   UNL     1     -18.753  -1.315   3.370  1.00  0.00    -0.248 NA
ATOM     54  C   UNL     1     -19.351  -2.714   1.595  1.00  0.00     0.031 C 
ATOM     55  C   UNL     1     -20.920  -1.118   7.245  1.00  0.00     0.029 A 
ATOM     56  C   UNL     1     -20.258  -1.201   6.029  1.00  0.00     0.049 A 
ATOM     57  H   UNL     1     -18.530  -0.175   5.386  1.00  0.00     0.167 HD
ATOM     58  C   UNL     1     -19.884  -2.041   3.724  1.00  0.00     0.074 A 
ATOM     59  C   UNL     1     -20.225  -2.865   2.582  1.00  0.00     0.031 C 
ATOM     60  C   UNL     1     -20.581  -2.022   4.888  1.00  0.00     0.031 A 
BRANCH  47  61
ATOM     61  C   UNL     1     -18.255   1.803   9.168  1.00  0.00    -0.014 A 
ATOM     62  C   UNL     1     -18.547   3.158   9.414  1.00  0.00     0.010 A 
ATOM     63  C   UNL     1     -18.030   0.947  10.261  1.00  0.00     0.010 A 
ATOM     64  C   UNL     1     -18.550   3.658  10.718  1.00  0.00     0.020 A 
ATOM     65  C   UNL     1     -18.064   1.436  11.570  1.00  0.00     0.020 A 
ATOM     66  C   UNL     1     -18.299   2.795  11.788  1.00  0.00     0.054 A 
BRANCH  66  67
ATOM     67  S   UNL     1     -18.297   3.473  13.470  1.00  0.00     0.124 S 
ATOM     68  O   UNL     1     -17.042   4.221  13.491  1.00  0.00    -0.237 OA
ATOM     69  O   UNL     1     -19.512   4.284  13.492  1.00  0.00    -0.237 OA
ATOM     70  O   UNL     1     -18.328   2.287  14.323  1.00  0.00    -0.744 OA
ENDBRANCH  66  67
ENDBRANCH  47  61
BRANCH  48  71
ATOM     71  C   UNL     1     -17.187  -1.729  -0.128  1.00  0.00    -0.014 A 
ATOM     72  C   UNL     1     -18.112  -1.389  -1.130  1.00  0.00     0.010 A 
ATOM     73  C   UNL     1     -16.084  -2.537  -0.461  1.00  0.00     0.010 A 
ATOM     74  C   UNL     1     -17.941  -1.850  -2.438  1.00  0.00     0.020 A 
ATOM     75  C   UNL     1     -15.895  -2.978  -1.774  1.00  0.00     0.020 A 
ATOM     76  C   UNL     1     -16.829  -2.636  -2.754  1.00  0.00     0.054 A 
BRANCH  76  77
ATOM     77  S   UNL     1     -16.590  -3.159  -4.475  1.00  0.00     0.124 S 
ATOM     78  O   UNL     1     -17.637  -4.163  -4.636  1.00  0.00    -0.237 OA
ATOM     79  O   UNL     1     -16.787  -1.914  -5.212  1.00  0.00    -0.237 OA
ATOM     80  O   UNL     1     -15.222  -3.673  -4.489  1.00  0.00    -0.744 OA
ENDBRANCH  76  77
ENDBRANCH  48  71
BRANCH  60  81
ATOM     81  C   UNL     1     -21.805  -2.895   4.978  1.00  0.00    -0.014 A 
ATOM     82  C   UNL     1     -21.700  -4.294   5.073  1.00  0.00     0.010 A 
ATOM     83  C   UNL     1     -23.078  -2.299   5.025  1.00  0.00     0.010 A 
ATOM     84  C   UNL     1     -22.849  -5.082   5.184  1.00  0.00     0.020 A 
ATOM     85  C   UNL     1     -24.227  -3.080   5.166  1.00  0.00     0.020 A 
ATOM     86  C   UNL     1     -24.106  -4.469   5.232  1.00  0.00     0.054 A 
BRANCH  86  87
ATOM     87  S   UNL     1     -25.578  -5.511   5.425  1.00  0.00     0.124 S 
ATOM     88  O   UNL     1     -25.688  -6.130   4.107  1.00  0.00    -0.237 OA
ATOM     89  O   UNL     1     -25.194  -6.409   6.511  1.00  0.00    -0.237 OA
ATOM     90  O   UNL     1     -26.636  -4.559   5.757  1.00  0.00    -0.744 OA
ENDBRANCH  86  87
ENDBRANCH  60  81
ENDBRANCH  34  35
ENDBRANCH  26  29
ENDBRANCH  24  25
ENDBRANCH   1  24
TORSDOF 16
