REMARK SMILES C[C@H]1[C@H](C(=O)NCCCNC(=O)c2ccc(-c3c4nc(c(-c5ccc(S(=O)(=O)[O-])cc5)c5ccc([nH]5)c(-c5ccc(S(=O)(=O)[O-])cc5)c5nc(c(-c6ccc(S(=O)(=O)[O-])cc6)c6ccc3[nH]6)C=C5)C=C4)cc2)CCN1C(=O)Nc1ccc(F)c(Cl)c1
REMARK SMILES IDX 8 1 7 2 6 3 4 4 5 5 3 7 1 8 2 9 75 10 73 11 74 12 76 13
REMARK SMILES IDX 77 14 78 15 79 17 80 18 86 19 81 20 84 21 82 22 85 23 83 24
REMARK SMILES IDX 9 25 10 26 11 27 12 29 13 30 14 31 72 32 15 33 71 34 16 35
REMARK SMILES IDX 17 36 18 37 65 38 19 39 70 40 64 41 66 42 20 43 69 44 63 45
REMARK SMILES IDX 62 46 21 48 51 49 32 50 50 51 33 52 36 53 49 54 67 55 34 56
REMARK SMILES IDX 35 57 48 59 68 60 37 61 22 62 23 63 31 64 24 65 30 66 25 67
REMARK SMILES IDX 26 68 27 69 28 70 29 71 52 72 53 73 61 74 54 75 60 76 55 77
REMARK SMILES IDX 56 78 57 79 58 80 59 81 38 82 39 83 47 84 40 85 46 86 41 87
REMARK SMILES IDX 42 88 43 89 44 90 45 91
REMARK H PARENT 6 6 78 16 10 28 66 47 36 58
REMARK Flexibility Score: inf
ROOT
ATOM      1  C   UNL     1      -0.586   0.257   4.173  1.00  0.00     0.042 C 
ENDROOT
BRANCH   1   2
ATOM      2  C   UNL     1      -1.315   0.747   2.927  1.00  0.00     0.117 C 
BRANCH   2   3
ATOM      3  N   UNL     1      -0.711   1.931   2.332  1.00  0.00    -0.356 N 
ATOM      4  C   UNL     1      -0.333   2.240   1.065  1.00  0.00     0.225 C 
ATOM      5  O   UNL     1       0.063   3.396   0.876  1.00  0.00    -0.275 OA
ATOM      6  H   UNL     1      -0.542   2.653   2.979  1.00  0.00     0.163 HD
BRANCH   4   7
ATOM      7  C   UNL     1      -0.320   1.256  -0.098  1.00  0.00     0.102 C 
ATOM      8  C   UNL     1       1.738   0.262  -1.182  1.00  0.00     0.032 C 
ATOM      9  C   UNL     1       0.811   0.225   0.035  1.00  0.00     0.096 C 
ATOM     10  N   UNL     1       0.145  -1.073   0.173  1.00  0.00    -0.321 N 
ATOM     11  C   UNL     1      -1.609   0.483  -0.332  1.00  0.00     0.037 C 
ATOM     12  C   UNL     1      -1.216  -0.984  -0.333  1.00  0.00     0.122 C 
BRANCH  10  13
ATOM     13  C   UNL     1       0.642  -2.330   0.413  1.00  0.00     0.322 C 
ATOM     14  O   UNL     1      -0.068  -3.325   0.226  1.00  0.00    -0.248 OA
ATOM     15  N   UNL     1       1.943  -2.570   0.709  1.00  0.00    -0.308 N 
ATOM     16  H   UNL     1       2.242  -3.458   0.406  1.00  0.00     0.171 HD
BRANCH  15  17
ATOM     17  C   UNL     1       2.960  -1.850   1.345  1.00  0.00     0.044 A 
ATOM     18  C   UNL     1       4.287  -2.159   1.032  1.00  0.00     0.029 A 
ATOM     19  C   UNL     1       2.704  -0.882   2.307  1.00  0.00     0.049 A 
ATOM     20  C   UNL     1       5.331  -1.399   1.569  1.00  0.00     0.043 A 
ATOM     21  C   UNL     1       3.737  -0.107   2.834  1.00  0.00     0.078 A 
ATOM     22  C   UNL     1       5.048  -0.356   2.445  1.00  0.00     0.141 A 
ATOM     23  Cl  UNL     1       3.362   1.174   3.922  1.00  0.00    -0.081 Cl
ATOM     24  F   UNL     1       6.056   0.401   2.899  1.00  0.00    -0.205 F 
ENDBRANCH  15  17
ENDBRANCH  10  13
ENDBRANCH   4   7
ENDBRANCH   2   3
ENDBRANCH   1   2
BRANCH   1  25
ATOM     25  C   UNL     1      -0.567   1.219   5.352  1.00  0.00     0.118 C 
BRANCH  25  26
ATOM     26  N   UNL     1      -1.770   1.140   6.158  1.00  0.00    -0.352 N 
ATOM     27  C   UNL     1      -2.007   0.542   7.374  1.00  0.00     0.251 C 
ATOM     28  H   UNL     1      -2.553   1.592   5.767  1.00  0.00     0.163 HD
ATOM     29  O   UNL     1      -3.172   0.454   7.759  1.00  0.00    -0.269 OA
BRANCH  27  30
ATOM     30  C   UNL     1      -0.915  -0.017   8.216  1.00  0.00     0.039 A 
ATOM     31  C   UNL     1      -1.187  -1.164   8.972  1.00  0.00     0.014 A 
ATOM     32  C   UNL     1       0.333   0.596   8.347  1.00  0.00     0.014 A 
ATOM     33  C   UNL     1      -0.207  -1.712   9.809  1.00  0.00     0.010 A 
ATOM     34  C   UNL     1       1.341  -0.003   9.110  1.00  0.00     0.010 A 
ATOM     35  C   UNL     1       1.079  -1.153   9.867  1.00  0.00    -0.014 A 
BRANCH  35  36
ATOM     36  C   UNL     1       2.137  -1.748  10.733  1.00  0.00     0.031 A 
ATOM     37  C   UNL     1       2.731  -0.960  11.876  1.00  0.00     0.074 A 
ATOM     38  C   UNL     1       2.593  -2.991  10.480  1.00  0.00     0.049 A 
ATOM     39  N   UNL     1       3.666  -1.312  12.723  1.00  0.00    -0.248 NA
ATOM     40  C   UNL     1       2.225   0.407  12.079  1.00  0.00     0.031 C 
ATOM     41  C   UNL     1       2.146  -3.851   9.381  1.00  0.00     0.029 A 
ATOM     42  N   UNL     1       3.535  -3.751  11.131  1.00  0.00    -0.354 N 
ATOM     43  C   UNL     1       3.870  -0.208  13.546  1.00  0.00     0.074 A 
ATOM     44  C   UNL     1       2.999   0.841  13.063  1.00  0.00     0.031 C 
ATOM     45  C   UNL     1       2.790  -5.027   9.452  1.00  0.00     0.029 A 
ATOM     46  C   UNL     1       3.719  -4.996  10.578  1.00  0.00     0.049 A 
ATOM     47  H   UNL     1       4.032  -3.433  11.919  1.00  0.00     0.167 HD
ATOM     48  C   UNL     1       4.689  -0.081  14.619  1.00  0.00     0.031 A 
ATOM     49  C   UNL     1       4.540  -6.005  10.931  1.00  0.00     0.031 A 
ATOM     50  C   UNL     1       5.548  -1.125  15.114  1.00  0.00     0.049 A 
ATOM     51  C   UNL     1       5.428  -5.849  12.134  1.00  0.00     0.074 A 
ATOM     52  C   UNL     1       6.375  -1.105  16.224  1.00  0.00     0.029 A 
ATOM     53  N   UNL     1       5.689  -2.376  14.534  1.00  0.00    -0.354 N 
ATOM     54  N   UNL     1       5.562  -4.816  12.931  1.00  0.00    -0.248 NA
ATOM     55  C   UNL     1       6.265  -7.003  12.494  1.00  0.00     0.031 C 
ATOM     56  C   UNL     1       7.047  -2.331  16.293  1.00  0.00     0.029 A 
ATOM     57  C   UNL     1       6.601  -3.131  15.254  1.00  0.00     0.049 A 
ATOM     58  H   UNL     1       5.212  -2.683  13.730  1.00  0.00     0.167 HD
ATOM     59  C   UNL     1       6.485  -5.202  13.898  1.00  0.00     0.074 A 
ATOM     60  C   UNL     1       6.860  -6.568  13.597  1.00  0.00     0.031 C 
ATOM     61  C   UNL     1       6.976  -4.487  14.940  1.00  0.00     0.031 A 
BRANCH  48  62
ATOM     62  C   UNL     1       4.691   1.246  15.334  1.00  0.00    -0.014 A 
ATOM     63  C   UNL     1       3.585   1.658  16.099  1.00  0.00     0.010 A 
ATOM     64  C   UNL     1       5.822   2.081  15.263  1.00  0.00     0.010 A 
ATOM     65  C   UNL     1       3.588   2.900  16.739  1.00  0.00     0.020 A 
ATOM     66  C   UNL     1       5.840   3.312  15.925  1.00  0.00     0.020 A 
ATOM     67  C   UNL     1       4.714   3.723  16.642  1.00  0.00     0.054 A 
BRANCH  67  68
ATOM     68  S   UNL     1       4.695   5.327  17.489  1.00  0.00     0.124 S 
ATOM     69  O   UNL     1       3.825   6.115  16.619  1.00  0.00    -0.237 OA
ATOM     70  O   UNL     1       4.139   4.995  18.798  1.00  0.00    -0.237 OA
ATOM     71  O   UNL     1       6.099   5.731  17.497  1.00  0.00    -0.744 OA
ENDBRANCH  67  68
ENDBRANCH  48  62
BRANCH  49  72
ATOM     72  C   UNL     1       4.545  -7.264  10.138  1.00  0.00    -0.014 A 
ATOM     73  C   UNL     1       3.969  -8.437  10.656  1.00  0.00     0.010 A 
ATOM     74  C   UNL     1       5.105  -7.287   8.848  1.00  0.00     0.010 A 
ATOM     75  C   UNL     1       3.963  -9.615   9.902  1.00  0.00     0.020 A 
ATOM     76  C   UNL     1       5.078  -8.455   8.082  1.00  0.00     0.020 A 
ATOM     77  C   UNL     1       4.515  -9.615   8.617  1.00  0.00     0.054 A 
BRANCH  77  78
ATOM     78  S   UNL     1       4.437 -11.134   7.628  1.00  0.00     0.124 S 
ATOM     79  O   UNL     1       5.490 -11.944   8.233  1.00  0.00    -0.237 OA
ATOM     80  O   UNL     1       3.071 -11.595   7.860  1.00  0.00    -0.237 OA
ATOM     81  O   UNL     1       4.706 -10.669   6.269  1.00  0.00    -0.744 OA
ENDBRANCH  77  78
ENDBRANCH  49  72
BRANCH  61  82
ATOM     82  C   UNL     1       7.962  -5.176  15.844  1.00  0.00    -0.014 A 
ATOM     83  C   UNL     1       9.279  -5.435  15.422  1.00  0.00     0.010 A 
ATOM     84  C   UNL     1       7.575  -5.542  17.146  1.00  0.00     0.010 A 
ATOM     85  C   UNL     1      10.179  -6.083  16.273  1.00  0.00     0.020 A 
ATOM     86  C   UNL     1       8.480  -6.168  18.008  1.00  0.00     0.020 A 
ATOM     87  C   UNL     1       9.771  -6.450  17.559  1.00  0.00     0.054 A 
BRANCH  87  88
ATOM     88  S   UNL     1      10.963  -7.269  18.654  1.00  0.00     0.124 S 
ATOM     89  O   UNL     1      10.988  -8.626  18.116  1.00  0.00    -0.237 OA
ATOM     90  O   UNL     1      12.181  -6.489  18.448  1.00  0.00    -0.237 OA
ATOM     91  O   UNL     1      10.363  -7.135  19.980  1.00  0.00    -0.744 OA
ENDBRANCH  87  88
ENDBRANCH  61  82
ENDBRANCH  35  36
ENDBRANCH  27  30
ENDBRANCH  25  26
ENDBRANCH   1  25
TORSDOF 15
