REMARK SMILES O=C(/C=C/[C@@]12C=C(O)C(=O)C=C1C(=O)C1=Cc3cc(O)c(O)cc3O[C@@H](c3ccc(O)c(O)c3)[C@@H]12)NCCCNC(=O)c1ccc(-c2c3nc(c(-c4ccc(S(=O)(=O)[O-])cc4)c4ccc([nH]4)c(-c4ccc(S(=O)(=O)[O-])cc4)c4nc(c(-c5ccc(S(=O)(=O)[O-])cc5)c5ccc2[nH]5)C=C4)C=C3)cc1
REMARK SMILES IDX 1 1 2 2 36 3 3 5 4 6 5 7 6 8 12 9 35 10 7 11 11 12 13 13
REMARK SMILES IDX 15 14 9 16 14 17 16 18 10 19 8 20 17 22 18 23 24 24 19 25
REMARK SMILES IDX 23 26 21 27 25 28 26 29 27 31 28 32 34 33 29 34 32 35 30 36
REMARK SMILES IDX 33 37 31 39 20 41 22 43 37 45 38 46 39 47 40 48 41 49 42 51
REMARK SMILES IDX 43 52 44 53 102 54 45 55 101 56 46 57 47 58 48 59 95 60
REMARK SMILES IDX 49 61 100 62 94 63 96 64 50 65 99 66 93 67 92 68 51 70 81 71
REMARK SMILES IDX 62 72 80 73 63 74 66 75 79 76 97 77 64 78 65 79 78 81 98 82
REMARK SMILES IDX 67 83 52 84 53 85 61 86 54 87 60 88 55 89 56 90 57 91 58 92
REMARK SMILES IDX 59 93 82 94 83 95 91 96 84 97 90 98 85 99 86 100 87 101
REMARK SMILES IDX 88 102 89 103 68 104 69 105 77 106 70 107 76 108 71 109
REMARK SMILES IDX 72 110 73 111 74 112 75 113
REMARK H PARENT 36 4 8 21 33 38 31 40 20 42 22 44 40 50 96 69 66 80
REMARK Flexibility Score: 80.00
ROOT
ATOM      1  O   UNL     1       0.834  -0.065  -0.181  1.00  0.00    -0.270 OA
ATOM      2  C   UNL     1       2.054  -0.007  -0.111  1.00  0.00     0.243 C 
ATOM      3  N   UNL     1       2.784   1.153  -0.087  1.00  0.00    -0.352 N 
ATOM      4  H   UNL     1       3.765   1.092  -0.024  1.00  0.00     0.163 HD
ENDROOT
BRANCH   2   5
ATOM      5  C   UNL     1       2.841  -1.265   0.020  1.00  0.00     0.068 C 
ATOM      6  C   UNL     1       4.127  -1.411  -0.348  1.00  0.00    -0.005 C 
BRANCH   6   7
ATOM      7  C   UNL     1       5.020  -2.659  -0.214  1.00  0.00     0.051 C 
ATOM      8  C   UNL     1       5.943  -2.360   0.941  1.00  0.00     0.040 C 
ATOM      9  C   UNL     1       4.226  -3.913   0.076  1.00  0.00     0.018 C 
ATOM     10  C   UNL     1       5.618  -2.982  -1.643  1.00  0.00     0.087 CG0
ATOM     11  C   UNL     1       5.946  -3.039   2.099  1.00  0.00     0.160 C 
ATOM     12  C   UNL     1       4.187  -4.636   1.198  1.00  0.00     0.065 C 
ATOM     13  C   UNL     1       3.665  -4.424  -1.183  1.00  0.00     0.186 C 
ATOM     14  C   UNL     1       4.516  -3.843  -2.241  1.00  0.00     0.009 C 
ATOM     15  G   UNL     1       6.970  -3.751  -1.756  1.00  0.00     0.000 G0
ATOM     16  C   UNL     1       5.048  -4.215   2.318  1.00  0.00     0.220 C 
ATOM     17  O   UNL     1       2.762  -5.217  -1.312  1.00  0.00    -0.289 OA
ATOM     18  C   UNL     1       4.359  -4.166  -3.523  1.00  0.00     0.020 C 
ATOM     19  O   UNL     1       5.096  -4.837   3.373  1.00  0.00    -0.286 OA
BRANCH  11  20
ATOM     20  O   UNL     1       6.806  -2.687   3.119  1.00  0.00    -0.504 OA
ATOM     21  H   UNL     1       7.382  -1.956   3.015  1.00  0.00     0.293 HD
ENDBRANCH  11  20
BRANCH  18  22
ATOM     22  C   UNL     1       5.371  -3.752  -4.487  1.00  0.00     0.021 A 
ATOM     23  C   UNL     1       4.938  -3.316  -5.750  1.00  0.00     0.062 A 
ATOM     24  C   UNL     1       6.748  -3.876  -4.214  1.00  0.00     0.131 A 
ATOM     25  C   UNL     1       5.876  -3.029  -6.731  1.00  0.00     0.158 A 
ATOM     26  C   UNL     1       7.675  -3.636  -5.233  1.00  0.00     0.097 A 
ATOM     27  C   UNL     1       7.233  -3.199  -6.474  1.00  0.00     0.161 A 
BRANCH  24  28
ATOM     28  O   UNL     1       7.268  -4.369  -3.042  1.00  0.00    -0.484 OA
BRANCH  28  29
ATOM     29  C   UNL     1       6.970  -3.751  -1.756  1.00  0.00     0.213 CG0
ATOM     30  G   UNL     1       5.618  -2.982  -1.643  1.00  0.00     0.000 G0
BRANCH  29  31
ATOM     31  C   UNL     1       8.180  -2.903  -1.355  1.00  0.00    -0.003 A 
ATOM     32  C   UNL     1       8.734  -3.016  -0.066  1.00  0.00     0.011 A 
ATOM     33  C   UNL     1       8.752  -1.965  -2.229  1.00  0.00     0.057 A 
ATOM     34  C   UNL     1       9.717  -2.126   0.384  1.00  0.00     0.050 A 
ATOM     35  C   UNL     1       9.795  -1.140  -1.805  1.00  0.00     0.157 A 
ATOM     36  C   UNL     1      10.235  -1.177  -0.487  1.00  0.00     0.157 A 
BRANCH  35  37
ATOM     37  O   UNL     1      10.371  -0.274  -2.689  1.00  0.00    -0.504 OA
ATOM     38  H   UNL     1      11.072   0.283  -2.411  1.00  0.00     0.293 HD
ENDBRANCH  35  37
BRANCH  36  39
ATOM     39  O   UNL     1      11.183  -0.290  -0.068  1.00  0.00    -0.504 OA
ATOM     40  H   UNL     1      11.484  -0.310   0.819  1.00  0.00     0.293 HD
ENDBRANCH  36  39
ENDBRANCH  29  31
ENDBRANCH  28  29
ENDBRANCH  24  28
BRANCH  25  41
ATOM     41  O   UNL     1       5.512  -2.598  -7.977  1.00  0.00    -0.504 OA
ATOM     42  H   UNL     1       4.607  -2.473  -8.183  1.00  0.00     0.293 HD
ENDBRANCH  25  41
BRANCH  27  43
ATOM     43  O   UNL     1       8.146  -2.945  -7.457  1.00  0.00    -0.504 OA
ATOM     44  H   UNL     1       7.859  -2.650  -8.299  1.00  0.00     0.293 HD
ENDBRANCH  27  43
ENDBRANCH  18  22
ENDBRANCH   6   7
ENDBRANCH   2   5
BRANCH   3  45
ATOM     45  C   UNL     1       2.172   2.466  -0.151  1.00  0.00     0.118 C 
BRANCH  45  46
ATOM     46  C   UNL     1       2.382   3.261   1.134  1.00  0.00     0.042 C 
BRANCH  46  47
ATOM     47  C   UNL     1       3.840   3.570   1.466  1.00  0.00     0.118 C 
BRANCH  47  48
ATOM     48  N   UNL     1       4.490   4.444   0.499  1.00  0.00    -0.352 N 
ATOM     49  C   UNL     1       5.248   5.575   0.702  1.00  0.00     0.251 C 
ATOM     50  H   UNL     1       4.368   4.187  -0.444  1.00  0.00     0.163 HD
ATOM     51  O   UNL     1       5.614   6.235  -0.267  1.00  0.00    -0.269 OA
BRANCH  49  52
ATOM     52  C   UNL     1       5.587   6.021   2.074  1.00  0.00     0.039 A 
ATOM     53  C   UNL     1       5.994   5.113   3.053  1.00  0.00     0.014 A 
ATOM     54  C   UNL     1       5.488   7.381   2.388  1.00  0.00     0.014 A 
ATOM     55  C   UNL     1       6.129   5.534   4.373  1.00  0.00     0.010 A 
ATOM     56  C   UNL     1       5.704   7.815   3.700  1.00  0.00     0.010 A 
ATOM     57  C   UNL     1       5.972   6.887   4.718  1.00  0.00    -0.014 A 
BRANCH  57  58
ATOM     58  C   UNL     1       6.078   7.296   6.145  1.00  0.00     0.031 A 
ATOM     59  C   UNL     1       4.880   7.832   6.885  1.00  0.00     0.074 A 
ATOM     60  C   UNL     1       7.241   7.111   6.802  1.00  0.00     0.049 A 
ATOM     61  N   UNL     1       4.774   8.154   8.150  1.00  0.00    -0.248 NA
ATOM     62  C   UNL     1       3.642   8.034   6.114  1.00  0.00     0.031 C 
ATOM     63  C   UNL     1       8.469   6.588   6.201  1.00  0.00     0.029 A 
ATOM     64  N   UNL     1       7.571   7.300   8.121  1.00  0.00    -0.354 N 
ATOM     65  C   UNL     1       3.469   8.599   8.324  1.00  0.00     0.074 A 
ATOM     66  C   UNL     1       2.827   8.543   7.029  1.00  0.00     0.031 C 
ATOM     67  C   UNL     1       9.394   6.432   7.159  1.00  0.00     0.029 A 
ATOM     68  C   UNL     1       8.849   6.897   8.432  1.00  0.00     0.049 A 
ATOM     69  H   UNL     1       6.952   7.688   8.781  1.00  0.00     0.167 HD
ATOM     70  C   UNL     1       2.854   9.002   9.462  1.00  0.00     0.031 A 
ATOM     71  C   UNL     1       9.514   6.893   9.605  1.00  0.00     0.031 A 
ATOM     72  C   UNL     1       3.489   9.046  10.754  1.00  0.00     0.049 A 
ATOM     73  C   UNL     1       8.823   7.377  10.847  1.00  0.00     0.074 A 
ATOM     74  C   UNL     1       2.936   9.429  11.964  1.00  0.00     0.029 A 
ATOM     75  N   UNL     1       4.804   8.694  11.009  1.00  0.00    -0.354 N 
ATOM     76  N   UNL     1       7.585   7.787  10.989  1.00  0.00    -0.248 NA
ATOM     77  C   UNL     1       9.612   7.401  12.086  1.00  0.00     0.031 C 
ATOM     78  C   UNL     1       3.932   9.360  12.941  1.00  0.00     0.029 A 
ATOM     79  C   UNL     1       5.088   8.872  12.352  1.00  0.00     0.049 A 
ATOM     80  H   UNL     1       5.443   8.365  10.335  1.00  0.00     0.167 HD
ATOM     81  C   UNL     1       7.445   8.109  12.333  1.00  0.00     0.074 A 
ATOM     82  C   UNL     1       8.716   7.829  12.968  1.00  0.00     0.031 C 
ATOM     83  C   UNL     1       6.357   8.598  12.978  1.00  0.00     0.031 A 
BRANCH  70  84
ATOM     84  C   UNL     1       1.411   9.428   9.382  1.00  0.00    -0.014 A 
ATOM     85  C   UNL     1       1.067  10.776   9.592  1.00  0.00     0.010 A 
ATOM     86  C   UNL     1       0.387   8.478   9.217  1.00  0.00     0.010 A 
ATOM     87  C   UNL     1      -0.273  11.164   9.666  1.00  0.00     0.020 A 
ATOM     88  C   UNL     1      -0.955   8.867   9.265  1.00  0.00     0.020 A 
ATOM     89  C   UNL     1      -1.277  10.204   9.512  1.00  0.00     0.054 A 
BRANCH  89  90
ATOM     90  S   UNL     1      -3.012  10.721   9.626  1.00  0.00     0.124 S 
ATOM     91  O   UNL     1      -3.198  10.860  11.067  1.00  0.00    -0.237 OA
ATOM     92  O   UNL     1      -3.027  11.967   8.863  1.00  0.00    -0.237 OA
ATOM     93  O   UNL     1      -3.738   9.614   9.005  1.00  0.00    -0.744 OA
ENDBRANCH  89  90
ENDBRANCH  70  84
BRANCH  71  94
ATOM     94  C   UNL     1      10.908   6.373   9.641  1.00  0.00    -0.014 A 
ATOM     95  C   UNL     1      11.944   7.073   8.995  1.00  0.00     0.010 A 
ATOM     96  C   UNL     1      11.188   5.130  10.234  1.00  0.00     0.010 A 
ATOM     97  C   UNL     1      13.217   6.510   8.883  1.00  0.00     0.020 A 
ATOM     98  C   UNL     1      12.469   4.576  10.149  1.00  0.00     0.020 A 
ATOM     99  C   UNL     1      13.466   5.256   9.444  1.00  0.00     0.054 A 
BRANCH  99 100
ATOM    100  S   UNL     1      15.106   4.511   9.229  1.00  0.00     0.124 S 
ATOM    101  O   UNL     1      15.024   4.004   7.861  1.00  0.00    -0.237 OA
ATOM    102  O   UNL     1      16.004   5.645   9.427  1.00  0.00    -0.237 OA
ATOM    103  O   UNL     1      15.156   3.490  10.272  1.00  0.00    -0.744 OA
ENDBRANCH  99 100
ENDBRANCH  71  94
BRANCH  83 104
ATOM    104  C   UNL     1       6.469   8.876  14.453  1.00  0.00    -0.014 A 
ATOM    105  C   UNL     1       5.748   8.087  15.369  1.00  0.00     0.010 A 
ATOM    106  C   UNL     1       7.174   9.999  14.921  1.00  0.00     0.010 A 
ATOM    107  C   UNL     1       5.700   8.435  16.721  1.00  0.00     0.020 A 
ATOM    108  C   UNL     1       7.149  10.336  16.278  1.00  0.00     0.020 A 
ATOM    109  C   UNL     1       6.391   9.566  17.164  1.00  0.00     0.054 A 
BRANCH 109 110
ATOM    110  S   UNL     1       6.288  10.026  18.916  1.00  0.00     0.124 S 
ATOM    111  O   UNL     1       4.976  10.663  18.990  1.00  0.00    -0.237 OA
ATOM    112  O   UNL     1       6.401   8.737  19.596  1.00  0.00    -0.237 OA
ATOM    113  O   UNL     1       7.428  10.920  19.102  1.00  0.00    -0.744 OA
ENDBRANCH 109 110
ENDBRANCH  83 104
ENDBRANCH  57  58
ENDBRANCH  49  52
ENDBRANCH  47  48
ENDBRANCH  46  47
ENDBRANCH  45  46
ENDBRANCH   3  45
TORSDOF 20
