REMARK SMILES Cc1nc(=O)[nH]c(C)c1CC(=O)Nc1sccc1C(=O)NCCCNC(=O)c1ccc(-c2c3nc(c(-c4ccc(S(=O)(=O)[O-])cc4)c4ccc([nH]4)c(-c4ccc(S(=O)(=O)[O-])cc4)c4nc(c(-c5ccc(S(=O)(=O)[O-])cc5)c5ccc2[nH]5)C=C4)C=C3)cc1
REMARK SMILES IDX 23 1 22 2 21 3 19 4 20 5 18 7 14 8 15 9 16 10 17 11 13 12
REMARK SMILES IDX 11 13 12 14 10 16 9 17 1 18 2 19 3 20 4 21 7 22 5 23 6 24
REMARK SMILES IDX 8 25 24 27 25 28 26 29 27 31 28 32 29 33 87 34 30 35 86 36
REMARK SMILES IDX 31 37 32 38 33 39 80 40 34 41 85 42 79 43 81 44 35 45 84 46
REMARK SMILES IDX 78 47 77 48 36 50 66 51 47 52 65 53 48 54 51 55 64 56 82 57
REMARK SMILES IDX 49 58 50 59 63 61 83 62 52 63 37 64 38 65 46 66 39 67 45 68
REMARK SMILES IDX 40 69 41 70 42 71 43 72 44 73 67 74 68 75 76 76 69 77 75 78
REMARK SMILES IDX 70 79 71 80 72 81 73 82 74 83 53 84 54 85 62 86 55 87 61 88
REMARK SMILES IDX 56 89 57 90 58 91 59 92 60 93
REMARK H PARENT 21 6 13 15 6 26 25 30 81 49 51 60
REMARK Flexibility Score: inf
ROOT
ATOM      1  C   UNL     1      -3.983   0.119   3.143  1.00  0.00     0.042 C 
ENDROOT
BRANCH   1   2
ATOM      2  C   UNL     1      -2.764  -0.652   2.678  1.00  0.00     0.118 C 
BRANCH   2   3
ATOM      3  N   UNL     1      -1.615   0.162   2.373  1.00  0.00    -0.352 N 
ATOM      4  C   UNL     1      -0.286  -0.169   2.316  1.00  0.00     0.254 C 
ATOM      5  O   UNL     1       0.494   0.764   2.118  1.00  0.00    -0.269 OA
ATOM      6  H   UNL     1      -1.816   1.105   2.175  1.00  0.00     0.163 HD
BRANCH   4   7
ATOM      7  C   UNL     1       0.221  -1.523   2.575  1.00  0.00     0.074 A 
ATOM      8  C   UNL     1      -0.349  -2.779   2.440  1.00  0.00     0.108 A 
ATOM      9  S   UNL     1       0.528  -3.991   3.280  1.00  0.00    -0.126 S 
ATOM     10  C   UNL     1       1.863  -2.962   3.501  1.00  0.00     0.068 A 
ATOM     11  C   UNL     1       1.570  -1.683   3.094  1.00  0.00     0.028 A 
BRANCH   8  12
ATOM     12  N   UNL     1      -1.489  -3.329   1.912  1.00  0.00    -0.317 N 
ATOM     13  C   UNL     1      -2.156  -3.112   0.750  1.00  0.00     0.229 C 
ATOM     14  O   UNL     1      -3.351  -3.440   0.732  1.00  0.00    -0.274 OA
ATOM     15  H   UNL     1      -1.903  -4.012   2.487  1.00  0.00     0.170 HD
BRANCH  13  16
ATOM     16  C   UNL     1      -1.485  -2.727  -0.568  1.00  0.00     0.139 C 
BRANCH  16  17
ATOM     17  C   UNL     1      -0.663  -1.486  -0.677  1.00  0.00     0.002 A 
ATOM     18  C   UNL     1       1.526  -2.904  -0.482  1.00  0.00     0.067 C 
ATOM     19  C   UNL     1       0.837  -1.563  -0.640  1.00  0.00     0.049 A 
ATOM     20  N   UNL     1       1.634  -0.554  -0.784  1.00  0.00    -0.198 NA
ATOM     21  C   UNL     1       1.105   0.689  -0.977  1.00  0.00     0.345 A 
ATOM     22  C   UNL     1      -1.135  -0.258  -0.971  1.00  0.00     0.022 A 
ATOM     23  O   UNL     1       1.793   1.698  -1.105  1.00  0.00    -0.246 OA
ATOM     24  N   UNL     1      -0.257   0.787  -1.089  1.00  0.00    -0.310 N 
ATOM     25  C   UNL     1      -2.575   0.117  -1.194  1.00  0.00     0.065 C 
ATOM     26  H   UNL     1      -0.634   1.679  -1.267  1.00  0.00     0.171 HD
ENDBRANCH  16  17
ENDBRANCH  13  16
ENDBRANCH   8  12
ENDBRANCH   4   7
ENDBRANCH   2   3
ENDBRANCH   1   2
BRANCH   1  27
ATOM     27  C   UNL     1      -4.721   0.850   2.030  1.00  0.00     0.118 C 
BRANCH  27  28
ATOM     28  N   UNL     1      -5.300  -0.013   1.001  1.00  0.00    -0.352 N 
ATOM     29  C   UNL     1      -6.499   0.122   0.334  1.00  0.00     0.251 C 
ATOM     30  H   UNL     1      -4.760  -0.797   0.750  1.00  0.00     0.163 HD
ATOM     31  O   UNL     1      -6.820  -0.674  -0.542  1.00  0.00    -0.269 OA
BRANCH  29  32
ATOM     32  C   UNL     1      -7.429   1.190   0.752  1.00  0.00     0.039 A 
ATOM     33  C   UNL     1      -8.720   0.827   1.140  1.00  0.00     0.014 A 
ATOM     34  C   UNL     1      -6.979   2.501   0.912  1.00  0.00     0.014 A 
ATOM     35  C   UNL     1      -9.520   1.758   1.801  1.00  0.00     0.010 A 
ATOM     36  C   UNL     1      -7.735   3.389   1.668  1.00  0.00     0.010 A 
ATOM     37  C   UNL     1      -9.007   3.024   2.134  1.00  0.00    -0.014 A 
BRANCH  37  38
ATOM     38  C   UNL     1      -9.780   3.950   3.001  1.00  0.00     0.031 A 
ATOM     39  C   UNL     1     -10.193   5.303   2.492  1.00  0.00     0.074 A 
ATOM     40  C   UNL     1     -10.072   3.585   4.268  1.00  0.00     0.049 A 
ATOM     41  N   UNL     1     -10.898   6.227   3.092  1.00  0.00    -0.248 NA
ATOM     42  C   UNL     1      -9.731   5.683   1.146  1.00  0.00     0.031 C 
ATOM     43  C   UNL     1      -9.659   2.331   4.908  1.00  0.00     0.029 A 
ATOM     44  N   UNL     1     -10.793   4.226   5.244  1.00  0.00    -0.354 N 
ATOM     45  C   UNL     1     -10.956   7.294   2.204  1.00  0.00     0.074 A 
ATOM     46  C   UNL     1     -10.156   6.934   1.055  1.00  0.00     0.031 C 
ATOM     47  C   UNL     1     -10.181   2.272   6.143  1.00  0.00     0.029 A 
ATOM     48  C   UNL     1     -10.933   3.494   6.401  1.00  0.00     0.049 A 
ATOM     49  H   UNL     1     -11.175   5.126   5.127  1.00  0.00     0.167 HD
ATOM     50  C   UNL     1     -11.639   8.458   2.317  1.00  0.00     0.031 A 
ATOM     51  C   UNL     1     -11.604   3.769   7.537  1.00  0.00     0.031 A 
ATOM     52  C   UNL     1     -12.441   8.809   3.458  1.00  0.00     0.049 A 
ATOM     53  C   UNL     1     -12.367   5.062   7.634  1.00  0.00     0.074 A 
ATOM     54  C   UNL     1     -13.223   9.934   3.648  1.00  0.00     0.029 A 
ATOM     55  N   UNL     1     -12.562   8.039   4.606  1.00  0.00    -0.354 N 
ATOM     56  N   UNL     1     -12.485   6.018   6.743  1.00  0.00    -0.248 NA
ATOM     57  C   UNL     1     -13.103   5.303   8.882  1.00  0.00     0.031 C 
ATOM     58  C   UNL     1     -13.772   9.872   4.933  1.00  0.00     0.029 A 
ATOM     59  C   UNL     1     -13.384   8.678   5.519  1.00  0.00     0.049 A 
ATOM     60  H   UNL     1     -12.128   7.167   4.750  1.00  0.00     0.167 HD
ATOM     61  C   UNL     1     -13.324   6.967   7.317  1.00  0.00     0.074 A 
ATOM     62  C   UNL     1     -13.706   6.453   8.617  1.00  0.00     0.031 C 
ATOM     63  C   UNL     1     -13.739   8.158   6.816  1.00  0.00     0.031 A 
BRANCH  50  64
ATOM     64  C   UNL     1     -11.547   9.430   1.170  1.00  0.00    -0.014 A 
ATOM     65  C   UNL     1     -12.127   9.137  -0.078  1.00  0.00     0.010 A 
ATOM     66  C   UNL     1     -10.896  10.664   1.347  1.00  0.00     0.010 A 
ATOM     67  C   UNL     1     -12.018  10.037  -1.140  1.00  0.00     0.020 A 
ATOM     68  C   UNL     1     -10.813  11.583   0.296  1.00  0.00     0.020 A 
ATOM     69  C   UNL     1     -11.360  11.255  -0.946  1.00  0.00     0.054 A 
BRANCH  69  70
ATOM     70  S   UNL     1     -11.256  12.415  -2.337  1.00  0.00     0.124 S 
ATOM     71  O   UNL     1     -10.289  11.753  -3.208  1.00  0.00    -0.237 OA
ATOM     72  O   UNL     1     -12.630  12.444  -2.832  1.00  0.00    -0.237 OA
ATOM     73  O   UNL     1     -10.792  13.655  -1.720  1.00  0.00    -0.744 OA
ENDBRANCH  69  70
ENDBRANCH  50  64
BRANCH  51  74
ATOM     74  C   UNL     1     -11.611   2.788   8.660  1.00  0.00    -0.014 A 
ATOM     75  C   UNL     1     -12.786   2.092   8.995  1.00  0.00     0.010 A 
ATOM     76  C   UNL     1     -10.439   2.540   9.397  1.00  0.00     0.010 A 
ATOM     77  C   UNL     1     -12.794   1.182  10.058  1.00  0.00     0.020 A 
ATOM     78  C   UNL     1     -10.435   1.610  10.441  1.00  0.00     0.020 A 
ATOM     79  C   UNL     1     -11.617   0.945  10.772  1.00  0.00     0.054 A 
BRANCH  79  80
ATOM     80  S   UNL     1     -11.638  -0.278  12.114  1.00  0.00     0.124 S 
ATOM     81  O   UNL     1     -12.382   0.425  13.154  1.00  0.00    -0.237 OA
ATOM     82  O   UNL     1     -12.325  -1.410  11.497  1.00  0.00    -0.237 OA
ATOM     83  O   UNL     1     -10.221  -0.498  12.396  1.00  0.00    -0.744 OA
ENDBRANCH  79  80
ENDBRANCH  51  74
BRANCH  63  84
ATOM     84  C   UNL     1     -14.668   8.975   7.674  1.00  0.00    -0.014 A 
ATOM     85  C   UNL     1     -14.216   9.590   8.855  1.00  0.00     0.010 A 
ATOM     86  C   UNL     1     -16.007   9.149   7.279  1.00  0.00     0.010 A 
ATOM     87  C   UNL     1     -15.099  10.321   9.653  1.00  0.00     0.020 A 
ATOM     88  C   UNL     1     -16.885   9.908   8.057  1.00  0.00     0.020 A 
ATOM     89  C   UNL     1     -16.430  10.470   9.251  1.00  0.00     0.054 A 
BRANCH  89  90
ATOM     90  S   UNL     1     -17.555  11.432  10.299  1.00  0.00     0.124 S 
ATOM     91  O   UNL     1     -17.782  10.520  11.416  1.00  0.00    -0.237 OA
ATOM     92  O   UNL     1     -16.766  12.622  10.609  1.00  0.00    -0.237 OA
ATOM     93  O   UNL     1     -18.713  11.667   9.440  1.00  0.00    -0.744 OA
ENDBRANCH  89  90
ENDBRANCH  63  84
ENDBRANCH  37  38
ENDBRANCH  29  32
ENDBRANCH  27  28
ENDBRANCH   1  27
TORSDOF 16
