REMARK SMILES Cc1cc(F)ccc1CCNc1ccc(Cl)c(C(=O)NCCCNC(=O)c2ccc(-c3c4nc(c(-c5ccc(S(=O)(=O)[O-])cc5)c5ccc([nH]5)c(-c5ccc(S(=O)(=O)[O-])cc5)c5nc(c(-c6ccc(S(=O)(=O)[O-])cc6)c6ccc3[nH]6)C=C5)C=C4)cc2)n1
REMARK SMILES IDX 21 1 20 2 18 3 19 4 17 6 12 7 13 8 87 9 14 10 15 11 16 12
REMARK SMILES IDX 11 13 10 15 9 16 8 17 1 18 2 19 3 20 4 21 7 22 5 23 6 24
REMARK SMILES IDX 22 25 23 26 24 27 25 28 26 30 27 31 28 32 86 33 29 34 85 35
REMARK SMILES IDX 30 36 31 37 32 38 79 39 33 40 84 41 78 42 80 43 34 44 83 45
REMARK SMILES IDX 77 46 76 47 35 49 65 50 46 51 64 52 47 53 50 54 63 55 81 56
REMARK SMILES IDX 48 57 49 58 62 60 82 61 51 62 36 63 37 64 45 65 38 66 44 67
REMARK SMILES IDX 39 68 40 69 41 70 42 71 43 72 66 73 67 74 75 75 68 76 74 77
REMARK SMILES IDX 69 78 70 79 71 80 72 81 73 82 52 83 53 84 61 85 54 86 60 87
REMARK SMILES IDX 55 88 56 89 57 90 58 91 59 92
REMARK H PARENT 20 5 11 14 24 29 80 48 50 59
REMARK Flexibility Score: inf
ROOT
ATOM      1  C   UNL     1       2.471 -10.159  -0.552  1.00  0.00     0.118 C 
ENDROOT
BRANCH   1   2
ATOM      2  N   UNL     1       1.637  -9.017  -0.808  1.00  0.00    -0.351 N 
ATOM      3  C   UNL     1       1.685  -7.675  -0.540  1.00  0.00     0.271 C 
ATOM      4  O   UNL     1       0.858  -7.030  -1.204  1.00  0.00    -0.267 OA
ATOM      5  H   UNL     1       0.822  -9.262  -1.303  1.00  0.00     0.163 HD
BRANCH   3   6
ATOM      6  C   UNL     1       2.514  -6.923   0.484  1.00  0.00     0.149 A 
ATOM      7  C   UNL     1       2.462  -4.819   1.558  1.00  0.00     0.126 A 
ATOM      8  C   UNL     1       3.564  -5.130   2.319  1.00  0.00     0.048 A 
ATOM      9  N   UNL     1       1.903  -5.714   0.735  1.00  0.00    -0.224 NA
ATOM     10  C   UNL     1       4.194  -6.342   2.097  1.00  0.00     0.027 A 
ATOM     11  C   UNL     1       3.724  -7.218   1.108  1.00  0.00     0.072 A 
ATOM     12  Cl  UNL     1       4.899  -8.397   0.690  1.00  0.00    -0.082 Cl
BRANCH   7  13
ATOM     13  N   UNL     1       1.921  -3.551   1.531  1.00  0.00    -0.370 N 
ATOM     14  H   UNL     1       0.972  -3.399   1.744  1.00  0.00     0.162 HD
BRANCH  13  15
ATOM     15  C   UNL     1       2.802  -2.436   1.176  1.00  0.00     0.119 C 
BRANCH  15  16
ATOM     16  C   UNL     1       2.483  -1.865  -0.221  1.00  0.00     0.057 C 
BRANCH  16  17
ATOM     17  C   UNL     1       1.234  -1.005  -0.226  1.00  0.00    -0.043 A 
ATOM     18  C   UNL     1       2.501   1.211   0.148  1.00  0.00     0.045 C 
ATOM     19  C   UNL     1       1.248   0.388   0.015  1.00  0.00    -0.045 A 
ATOM     20  C   UNL     1       0.023   1.076   0.087  1.00  0.00     0.043 A 
ATOM     21  C   UNL     1      -1.182   0.401  -0.063  1.00  0.00     0.123 A 
ATOM     22  C   UNL     1      -0.004  -1.654  -0.420  1.00  0.00     0.007 A 
ATOM     23  F   UNL     1      -2.334   1.077   0.036  1.00  0.00    -0.207 F 
ATOM     24  C   UNL     1      -1.206  -0.959  -0.323  1.00  0.00     0.039 A 
ENDBRANCH  16  17
ENDBRANCH  15  16
ENDBRANCH  13  15
ENDBRANCH   7  13
ENDBRANCH   3   6
ENDBRANCH   1   2
BRANCH   1  25
ATOM     25  C   UNL     1       1.929 -11.111   0.498  1.00  0.00     0.042 C 
BRANCH  25  26
ATOM     26  C   UNL     1       1.274 -12.336  -0.126  1.00  0.00     0.118 C 
BRANCH  26  27
ATOM     27  N   UNL     1       2.194 -13.082  -0.985  1.00  0.00    -0.352 N 
ATOM     28  C   UNL     1       2.630 -14.377  -0.928  1.00  0.00     0.251 C 
ATOM     29  H   UNL     1       2.564 -12.562  -1.734  1.00  0.00     0.163 HD
ATOM     30  O   UNL     1       3.577 -14.722  -1.639  1.00  0.00    -0.269 OA
BRANCH  28  31
ATOM     31  C   UNL     1       1.979 -15.352  -0.036  1.00  0.00     0.039 A 
ATOM     32  C   UNL     1       2.750 -16.363   0.544  1.00  0.00     0.014 A 
ATOM     33  C   UNL     1       0.603 -15.303   0.191  1.00  0.00     0.014 A 
ATOM     34  C   UNL     1       2.139 -17.303   1.372  1.00  0.00     0.010 A 
ATOM     35  C   UNL     1       0.021 -16.160   1.112  1.00  0.00     0.010 A 
ATOM     36  C   UNL     1       0.773 -17.197   1.676  1.00  0.00    -0.014 A 
BRANCH  36  37
ATOM     37  C   UNL     1       0.086 -18.207   2.514  1.00  0.00     0.031 A 
ATOM     38  C   UNL     1      -1.036 -19.021   1.921  1.00  0.00     0.074 A 
ATOM     39  C   UNL     1       0.437 -18.354   3.805  1.00  0.00     0.049 A 
ATOM     40  N   UNL     1      -1.797 -19.915   2.495  1.00  0.00    -0.248 NA
ATOM     41  C   UNL     1      -1.373 -18.771   0.507  1.00  0.00     0.031 C 
ATOM     42  C   UNL     1       1.475 -17.586   4.497  1.00  0.00     0.029 A 
ATOM     43  N   UNL     1      -0.043 -19.204   4.767  1.00  0.00    -0.354 N 
ATOM     44  C   UNL     1      -2.711 -20.311   1.524  1.00  0.00     0.074 A 
ATOM     45  C   UNL     1      -2.457 -19.514   0.348  1.00  0.00     0.031 C 
ATOM     46  C   UNL     1       1.581 -18.028   5.760  1.00  0.00     0.029 A 
ATOM     47  C   UNL     1       0.592 -19.079   5.979  1.00  0.00     0.049 A 
ATOM     48  H   UNL     1      -0.773 -19.844   4.605  1.00  0.00     0.167 HD
ATOM     49  C   UNL     1      -3.658 -21.276   1.595  1.00  0.00     0.031 A 
ATOM     50  C   UNL     1       0.398 -19.740   7.136  1.00  0.00     0.031 A 
ATOM     51  C   UNL     1      -3.881 -22.086   2.761  1.00  0.00     0.049 A 
ATOM     52  C   UNL     1      -0.647 -20.822   7.183  1.00  0.00     0.074 A 
ATOM     53  C   UNL     1      -4.772 -23.131   2.925  1.00  0.00     0.029 A 
ATOM     54  N   UNL     1      -3.197 -21.947   3.959  1.00  0.00    -0.354 N 
ATOM     55  N   UNL     1      -1.463 -21.223   6.237  1.00  0.00    -0.248 NA
ATOM     56  C   UNL     1      -0.780 -21.556   8.447  1.00  0.00     0.031 C 
ATOM     57  C   UNL     1      -4.664 -23.590   4.241  1.00  0.00     0.029 A 
ATOM     58  C   UNL     1      -3.656 -22.878   4.874  1.00  0.00     0.049 A 
ATOM     59  H   UNL     1      -2.491 -21.284   4.134  1.00  0.00     0.167 HD
ATOM     60  C   UNL     1      -2.177 -22.286   6.779  1.00  0.00     0.074 A 
ATOM     61  C   UNL     1      -1.687 -22.470   8.130  1.00  0.00     0.031 C 
ATOM     62  C   UNL     1      -3.146 -23.047   6.211  1.00  0.00     0.031 A 
BRANCH  49  63
ATOM     63  C   UNL     1      -4.514 -21.507   0.377  1.00  0.00    -0.014 A 
ATOM     64  C   UNL     1      -3.972 -22.043  -0.807  1.00  0.00     0.010 A 
ATOM     65  C   UNL     1      -5.891 -21.221   0.427  1.00  0.00     0.010 A 
ATOM     66  C   UNL     1      -4.780 -22.250  -1.927  1.00  0.00     0.020 A 
ATOM     67  C   UNL     1      -6.710 -21.458  -0.681  1.00  0.00     0.020 A 
ATOM     68  C   UNL     1      -6.145 -21.958  -1.857  1.00  0.00     0.054 A 
BRANCH  68  69
ATOM     69  S   UNL     1      -7.177 -22.275  -3.314  1.00  0.00     0.124 S 
ATOM     70  O   UNL     1      -6.743 -21.219  -4.226  1.00  0.00    -0.237 OA
ATOM     71  O   UNL     1      -6.786 -23.630  -3.692  1.00  0.00    -0.237 OA
ATOM     72  O   UNL     1      -8.541 -22.140  -2.810  1.00  0.00    -0.744 OA
ENDBRANCH  68  69
ENDBRANCH  49  63
BRANCH  50  73
ATOM     73  C   UNL     1       1.230 -19.420   8.328  1.00  0.00    -0.014 A 
ATOM     74  C   UNL     1       2.175 -20.342   8.811  1.00  0.00     0.010 A 
ATOM     75  C   UNL     1       1.083 -18.186   8.988  1.00  0.00     0.010 A 
ATOM     76  C   UNL     1       2.934 -20.052   9.949  1.00  0.00     0.020 A 
ATOM     77  C   UNL     1       1.863 -17.878  10.106  1.00  0.00     0.020 A 
ATOM     78  C   UNL     1       2.772 -18.820  10.589  1.00  0.00     0.054 A 
BRANCH  78  79
ATOM     79  S   UNL     1       3.789 -18.451  12.046  1.00  0.00     0.124 S 
ATOM     80  O   UNL     1       3.196 -19.319  13.058  1.00  0.00    -0.237 OA
ATOM     81  O   UNL     1       5.129 -18.825  11.597  1.00  0.00    -0.237 OA
ATOM     82  O   UNL     1       3.587 -17.019  12.250  1.00  0.00    -0.744 OA
ENDBRANCH  78  79
ENDBRANCH  50  73
BRANCH  62  83
ATOM     83  C   UNL     1      -3.692 -24.190   7.025  1.00  0.00    -0.014 A 
ATOM     84  C   UNL     1      -4.500 -23.972   8.155  1.00  0.00     0.010 A 
ATOM     85  C   UNL     1      -3.417 -25.509   6.621  1.00  0.00     0.010 A 
ATOM     86  C   UNL     1      -4.978 -25.055   8.896  1.00  0.00     0.020 A 
ATOM     87  C   UNL     1      -3.923 -26.594   7.339  1.00  0.00     0.020 A 
ATOM     88  C   UNL     1      -4.683 -26.359   8.486  1.00  0.00     0.054 A 
BRANCH  88  89
ATOM     89  S   UNL     1      -5.329 -27.748   9.455  1.00  0.00     0.124 S 
ATOM     90  O   UNL     1      -4.485 -27.704  10.646  1.00  0.00    -0.237 OA
ATOM     91  O   UNL     1      -6.726 -27.373   9.660  1.00  0.00    -0.237 OA
ATOM     92  O   UNL     1      -5.121 -28.904   8.587  1.00  0.00    -0.744 OA
ENDBRANCH  88  89
ENDBRANCH  62  83
ENDBRANCH  36  37
ENDBRANCH  28  31
ENDBRANCH  26  27
ENDBRANCH  25  26
ENDBRANCH   1  25
TORSDOF 17
