REMARK SMILES C[C@@H]1[C@@H](C(=O)NCCCNC(=O)c2ccc(-c3c4nc(c(-c5ccc(S(=O)(=O)[O-])cc5)c5ccc([nH]5)c(-c5ccc(S(=O)(=O)[O-])cc5)c5nc(c(-c6ccc(S(=O)(=O)[O-])cc6)c6ccc3[nH]6)C=C5)C=C4)cc2)CC[N@@H+]1C[C@H]1Cc2ccccc2O1
REMARK SMILES IDX 8 1 7 2 6 3 4 4 5 5 3 7 1 8 2 9 75 10 73 11 74 12 76 14
REMARK SMILES IDX 77 15 78 16 85 17 79 18 84 19 80 20 83 21 81 22 82 23 9 24
REMARK SMILES IDX 10 25 11 26 12 28 13 29 14 30 72 31 15 32 71 33 16 34 17 35
REMARK SMILES IDX 18 36 65 37 19 38 70 39 64 40 66 41 20 42 69 43 63 44 62 45
REMARK SMILES IDX 21 47 51 48 32 49 50 50 33 51 36 52 49 53 67 54 34 55 35 56
REMARK SMILES IDX 48 58 68 59 37 60 22 61 23 62 31 63 24 64 30 65 25 66 26 67
REMARK SMILES IDX 27 68 28 69 29 70 52 71 53 72 61 73 54 74 60 75 55 76 56 77
REMARK SMILES IDX 57 78 58 79 59 80 38 81 39 82 47 83 40 84 46 85 41 86 42 87
REMARK SMILES IDX 43 88 44 89 45 90
REMARK H PARENT 6 6 75 13 10 27 66 46 36 57
REMARK Flexibility Score: inf
ROOT
ATOM      1  C   UNL     1       2.251   0.201  -2.849  1.00  0.00     0.042 C 
ENDROOT
BRANCH   1   2
ATOM      2  C   UNL     1       1.575   1.282  -2.016  1.00  0.00     0.117 C 
BRANCH   2   3
ATOM      3  N   UNL     1       0.175   1.470  -2.359  1.00  0.00    -0.356 N 
ATOM      4  C   UNL     1      -0.986   1.143  -1.741  1.00  0.00     0.229 C 
ATOM      5  O   UNL     1      -2.018   1.561  -2.284  1.00  0.00    -0.275 OA
ATOM      6  H   UNL     1       0.043   1.931  -3.219  1.00  0.00     0.163 HD
BRANCH   4   7
ATOM      7  C   UNL     1      -1.119   0.243  -0.515  1.00  0.00     0.142 C 
ATOM      8  C   UNL     1      -1.068   0.772   1.951  1.00  0.00     0.076 C 
ATOM      9  C   UNL     1      -0.223   0.508   0.702  1.00  0.00     0.193 C 
ATOM     10  N   UNL     1       0.669  -0.654   0.768  1.00  0.00    -0.329 N 
ATOM     11  C   UNL     1      -0.921  -1.226  -0.857  1.00  0.00     0.081 C 
ATOM     12  C   UNL     1       0.458  -1.561  -0.340  1.00  0.00     0.263 C 
ATOM     13  H   UNL     1       1.572  -0.192   0.663  1.00  0.00     0.348 HD
BRANCH  10  14
ATOM     14  C   UNL     1       1.215  -1.176   2.010  1.00  0.00     0.308 C 
BRANCH  14  15
ATOM     15  C   UNL     1       0.329  -2.150   2.810  1.00  0.00     0.232 C 
ATOM     16  C   UNL     1       0.094  -3.507   2.136  1.00  0.00     0.090 C 
ATOM     17  O   UNL     1       0.918  -2.420   4.119  1.00  0.00    -0.484 OA
ATOM     18  C   UNL     1      -0.163  -4.306   3.350  1.00  0.00    -0.002 A 
ATOM     19  C   UNL     1       0.370  -3.639   4.443  1.00  0.00     0.123 A 
ATOM     20  C   UNL     1      -0.774  -5.538   3.480  1.00  0.00     0.007 A 
ATOM     21  C   UNL     1       0.324  -4.176   5.709  1.00  0.00     0.047 A 
ATOM     22  C   UNL     1      -0.860  -6.087   4.758  1.00  0.00     0.001 A 
ATOM     23  C   UNL     1      -0.312  -5.412   5.865  1.00  0.00     0.004 A 
ENDBRANCH  14  15
ENDBRANCH  10  14
ENDBRANCH   4   7
ENDBRANCH   2   3
ENDBRANCH   1   2
BRANCH   1  24
ATOM     24  C   UNL     1       2.622   0.628  -4.260  1.00  0.00     0.118 C 
BRANCH  24  25
ATOM     25  N   UNL     1       3.709   1.593  -4.290  1.00  0.00    -0.352 N 
ATOM     26  C   UNL     1       5.009   1.478  -4.720  1.00  0.00     0.251 C 
ATOM     27  H   UNL     1       3.472   2.484  -3.943  1.00  0.00     0.163 HD
ATOM     28  O   UNL     1       5.793   2.391  -4.471  1.00  0.00    -0.269 OA
BRANCH  26  29
ATOM     29  C   UNL     1       5.486   0.280  -5.454  1.00  0.00     0.039 A 
ATOM     30  C   UNL     1       6.798  -0.159  -5.240  1.00  0.00     0.014 A 
ATOM     31  C   UNL     1       4.689  -0.381  -6.391  1.00  0.00     0.014 A 
ATOM     32  C   UNL     1       7.284  -1.281  -5.921  1.00  0.00     0.010 A 
ATOM     33  C   UNL     1       5.138  -1.555  -6.992  1.00  0.00     0.010 A 
ATOM     34  C   UNL     1       6.448  -2.007  -6.782  1.00  0.00    -0.014 A 
BRANCH  34  35
ATOM     35  C   UNL     1       6.932  -3.212  -7.507  1.00  0.00     0.031 A 
ATOM     36  C   UNL     1       6.964  -3.222  -9.014  1.00  0.00     0.074 A 
ATOM     37  C   UNL     1       7.287  -4.316  -6.819  1.00  0.00     0.049 A 
ATOM     38  N   UNL     1       7.270  -4.200  -9.828  1.00  0.00    -0.248 NA
ATOM     39  C   UNL     1       6.570  -1.978  -9.697  1.00  0.00     0.031 C 
ATOM     40  C   UNL     1       7.266  -4.452  -5.361  1.00  0.00     0.029 A 
ATOM     41  N   UNL     1       7.730  -5.539  -7.259  1.00  0.00    -0.354 N 
ATOM     42  C   UNL     1       7.077  -3.700 -11.112  1.00  0.00     0.074 A 
ATOM     43  C   UNL     1       6.582  -2.349 -10.969  1.00  0.00     0.031 C 
ATOM     44  C   UNL     1       7.707  -5.676  -5.027  1.00  0.00     0.029 A 
ATOM     45  C   UNL     1       8.004  -6.425  -6.244  1.00  0.00     0.049 A 
ATOM     46  H   UNL     1       7.842  -5.760  -8.212  1.00  0.00     0.167 HD
ATOM     47  C   UNL     1       7.310  -4.300 -12.304  1.00  0.00     0.031 A 
ATOM     48  C   UNL     1       8.443  -7.698  -6.286  1.00  0.00     0.031 A 
ATOM     49  C   UNL     1       7.835  -5.631 -12.446  1.00  0.00     0.049 A 
ATOM     50  C   UNL     1       8.714  -8.338  -7.620  1.00  0.00     0.074 A 
ATOM     51  C   UNL     1       8.160  -6.309 -13.608  1.00  0.00     0.029 A 
ATOM     52  N   UNL     1       8.122  -6.483 -11.391  1.00  0.00    -0.354 N 
ATOM     53  N   UNL     1       8.567  -7.831  -8.820  1.00  0.00    -0.248 NA
ATOM     54  C   UNL     1       9.221  -9.717  -7.603  1.00  0.00     0.031 C 
ATOM     55  C   UNL     1       8.611  -7.586 -13.257  1.00  0.00     0.029 A 
ATOM     56  C   UNL     1       8.610  -7.685 -11.874  1.00  0.00     0.049 A 
ATOM     57  H   UNL     1       7.997  -6.266 -10.439  1.00  0.00     0.167 HD
ATOM     58  C   UNL     1       8.986  -8.821  -9.702  1.00  0.00     0.074 A 
ATOM     59  C   UNL     1       9.404  -9.950  -8.896  1.00  0.00     0.031 C 
ATOM     60  C   UNL     1       9.023  -8.796 -11.057  1.00  0.00     0.031 A 
BRANCH  47  61
ATOM     61  C   UNL     1       6.999  -3.512 -13.550  1.00  0.00    -0.014 A 
ATOM     62  C   UNL     1       7.788  -2.410 -13.927  1.00  0.00     0.010 A 
ATOM     63  C   UNL     1       5.919  -3.892 -14.367  1.00  0.00     0.010 A 
ATOM     64  C   UNL     1       7.473  -1.673 -15.072  1.00  0.00     0.020 A 
ATOM     65  C   UNL     1       5.618  -3.174 -15.528  1.00  0.00     0.020 A 
ATOM     66  C   UNL     1       6.385  -2.056 -15.861  1.00  0.00     0.054 A 
BRANCH  66  67
ATOM     67  S   UNL     1       6.005  -1.088 -17.348  1.00  0.00     0.124 S 
ATOM     68  O   UNL     1       5.385   0.105 -16.778  1.00  0.00    -0.237 OA
ATOM     69  O   UNL     1       7.322  -0.886 -17.947  1.00  0.00    -0.237 OA
ATOM     70  O   UNL     1       5.106  -1.956 -18.105  1.00  0.00    -0.744 OA
ENDBRANCH  66  67
ENDBRANCH  47  61
BRANCH  48  71
ATOM     71  C   UNL     1       8.678  -8.444  -5.020  1.00  0.00    -0.014 A 
ATOM     72  C   UNL     1       9.989  -8.706  -4.584  1.00  0.00     0.010 A 
ATOM     73  C   UNL     1       7.595  -8.879  -4.235  1.00  0.00     0.010 A 
ATOM     74  C   UNL     1      10.213  -9.403  -3.393  1.00  0.00     0.020 A 
ATOM     75  C   UNL     1       7.816  -9.555  -3.031  1.00  0.00     0.020 A 
ATOM     76  C   UNL     1       9.125  -9.822  -2.623  1.00  0.00     0.054 A 
BRANCH  76  77
ATOM     77  S   UNL     1       9.439 -10.675  -1.052  1.00  0.00     0.124 S 
ATOM     78  O   UNL     1       9.821 -12.009  -1.503  1.00  0.00    -0.237 OA
ATOM     79  O   UNL     1      10.510  -9.873  -0.465  1.00  0.00    -0.237 OA
ATOM     80  O   UNL     1       8.156 -10.590  -0.358  1.00  0.00    -0.744 OA
ENDBRANCH  76  77
ENDBRANCH  48  71
BRANCH  60  81
ATOM     81  C   UNL     1       9.563 -10.014 -11.755  1.00  0.00    -0.014 A 
ATOM     82  C   UNL     1       8.805 -11.193 -11.849  1.00  0.00     0.010 A 
ATOM     83  C   UNL     1      10.825  -9.955 -12.374  1.00  0.00     0.010 A 
ATOM     84  C   UNL     1       9.311 -12.304 -12.528  1.00  0.00     0.020 A 
ATOM     85  C   UNL     1      11.325 -11.056 -13.073  1.00  0.00     0.020 A 
ATOM     86  C   UNL     1      10.569 -12.229 -13.135  1.00  0.00     0.054 A 
BRANCH  86  87
ATOM     87  S   UNL     1      11.187 -13.667 -14.051  1.00  0.00     0.124 S 
ATOM     88  O   UNL     1      11.600 -14.559 -12.972  1.00  0.00    -0.237 OA
ATOM     89  O   UNL     1      10.012 -14.097 -14.807  1.00  0.00    -0.237 OA
ATOM     90  O   UNL     1      12.274 -13.121 -14.861  1.00  0.00    -0.744 OA
ENDBRANCH  86  87
ENDBRANCH  60  81
ENDBRANCH  34  35
ENDBRANCH  26  29
ENDBRANCH  24  25
ENDBRANCH   1  24
TORSDOF 15
