REMARK SMILES [NH3+][C@@]1(C(=O)NCCCNC(=O)c2ccc(-c3c4nc(c(-c5ccc(S(=O)(=O)[O-])cc5)c5ccc([nH]5)c(-c5ccc(S(=O)(=O)[O-])cc5)c5nc(c(-c6ccc(S(=O)(=O)[O-])cc6)c6ccc3[nH]6)C=C5)C=C4)cc2)CCC[C@@H]1CCOC1CCCCC1
REMARK SMILES IDX 6 1 5 2 3 3 4 4 2 6 72 7 75 8 73 9 74 10 1 11 76 15 77 16
REMARK SMILES IDX 78 17 79 18 80 19 84 20 81 21 83 22 82 23 7 24 8 25 9 26
REMARK SMILES IDX 10 27 11 29 12 30 13 31 71 32 14 33 70 34 15 35 16 36 17 37
REMARK SMILES IDX 64 38 18 39 69 40 63 41 65 42 19 43 68 44 62 45 61 46 20 48
REMARK SMILES IDX 50 49 31 50 49 51 32 52 35 53 48 54 66 55 33 56 34 57 47 59
REMARK SMILES IDX 67 60 36 61 21 62 22 63 30 64 23 65 29 66 24 67 25 68 26 69
REMARK SMILES IDX 27 70 28 71 51 72 52 73 60 74 53 75 59 76 54 77 55 78 56 79
REMARK SMILES IDX 57 80 58 81 37 82 38 83 46 84 39 85 45 86 40 87 41 88 42 89
REMARK SMILES IDX 43 90 44 91
REMARK H PARENT 5 5 1 12 1 13 1 14 9 28 65 47 35 58
REMARK Flexibility Score: inf
ROOT
ATOM      1  C   UNL     1      -2.732  -1.019   2.697  1.00  0.00     0.118 C 
ENDROOT
BRANCH   1   2
ATOM      2  N   UNL     1      -2.273  -0.306   1.419  1.00  0.00    -0.351 N 
ATOM      3  C   UNL     1      -1.236  -0.059   0.527  1.00  0.00     0.281 C 
ATOM      4  O   UNL     1      -1.633   0.582  -0.469  1.00  0.00    -0.268 OA
ATOM      5  H   UNL     1      -3.052   0.195   1.085  1.00  0.00     0.163 HD
BRANCH   3   6
ATOM      6  C   UNL     1       0.481  -0.425   0.572  1.00  0.00     0.176 C 
ATOM      7  C   UNL     1       0.574  -2.264   1.030  1.00  0.00     0.079 C 
ATOM      8  C   UNL     1       1.560   0.673   1.773  1.00  0.00     0.063 C 
ATOM      9  C   UNL     1       1.386  -2.425   2.857  1.00  0.00     0.008 C 
ATOM     10  C   UNL     1       2.185  -0.448   3.262  1.00  0.00     0.011 C 
BRANCH   6  11
ATOM     11  N   UNL     1       0.959  -0.186  -0.809  1.00  0.00    -0.345 N 
ATOM     12  H   UNL     1       0.411  -0.749  -1.460  1.00  0.00     0.345 HD
ATOM     13  H   UNL     1       1.942  -0.447  -0.878  1.00  0.00     0.345 HD
ATOM     14  H   UNL     1       0.852   0.801  -1.040  1.00  0.00     0.345 HD
ENDBRANCH   6  11
BRANCH   8  15
ATOM     15  C   UNL     1       0.979   1.938   2.451  1.00  0.00     0.039 C 
BRANCH  15  16
ATOM     16  C   UNL     1      -0.107   1.725   3.533  1.00  0.00     0.161 C 
BRANCH  16  17
ATOM     17  O   UNL     1       0.131   0.745   4.591  1.00  0.00    -0.378 OA
BRANCH  17  18
ATOM     18  C   UNL     1       0.277  -0.685   4.287  1.00  0.00     0.118 C 
ATOM     19  C   UNL     1       0.470  -0.860   2.621  1.00  0.00     0.032 C 
ATOM     20  C   UNL     1       1.325  -1.509   5.292  1.00  0.00     0.032 C 
ATOM     21  C   UNL     1       2.391  -1.385   1.713  1.00  0.00     0.003 C 
ATOM     22  C   UNL     1       2.747  -2.310   4.760  1.00  0.00     0.003 C 
ATOM     23  C   UNL     1       3.535  -2.146   3.131  1.00  0.00     0.000 C 
ENDBRANCH  17  18
ENDBRANCH  16  17
ENDBRANCH  15  16
ENDBRANCH   8  15
ENDBRANCH   3   6
ENDBRANCH   1   2
BRANCH   1  24
ATOM     24  C   UNL     1      -2.841  -0.170   3.994  1.00  0.00     0.042 C 
BRANCH  24  25
ATOM     25  C   UNL     1      -4.151  -0.046   4.749  1.00  0.00     0.118 C 
BRANCH  25  26
ATOM     26  N   UNL     1      -4.495  -1.241   5.516  1.00  0.00    -0.352 N 
ATOM     27  C   UNL     1      -4.680  -1.411   6.876  1.00  0.00     0.251 C 
ATOM     28  H   UNL     1      -4.613  -2.057   4.977  1.00  0.00     0.163 HD
ATOM     29  O   UNL     1      -4.709  -2.555   7.329  1.00  0.00    -0.269 OA
BRANCH  27  30
ATOM     30  C   UNL     1      -4.843  -0.252   7.795  1.00  0.00     0.039 A 
ATOM     31  C   UNL     1      -4.522  -0.379   9.153  1.00  0.00     0.014 A 
ATOM     32  C   UNL     1      -5.353   0.960   7.335  1.00  0.00     0.014 A 
ATOM     33  C   UNL     1      -4.691   0.712  10.013  1.00  0.00     0.010 A 
ATOM     34  C   UNL     1      -5.334   2.087   8.141  1.00  0.00     0.010 A 
ATOM     35  C   UNL     1      -5.074   1.966   9.506  1.00  0.00    -0.014 A 
BRANCH  35  36
ATOM     36  C   UNL     1      -5.278   3.140  10.389  1.00  0.00     0.031 A 
ATOM     37  C   UNL     1      -6.618   3.839  10.421  1.00  0.00     0.074 A 
ATOM     38  C   UNL     1      -4.253   3.582  11.143  1.00  0.00     0.049 A 
ATOM     39  N   UNL     1      -7.002   4.847  11.161  1.00  0.00    -0.248 NA
ATOM     40  C   UNL     1      -7.653   3.376   9.477  1.00  0.00     0.031 C 
ATOM     41  C   UNL     1      -2.896   3.027  11.133  1.00  0.00     0.029 A 
ATOM     42  N   UNL     1      -4.194   4.579  12.080  1.00  0.00    -0.354 N 
ATOM     43  C   UNL     1      -8.304   5.135  10.763  1.00  0.00     0.074 A 
ATOM     44  C   UNL     1      -8.616   4.264   9.658  1.00  0.00     0.031 C 
ATOM     45  C   UNL     1      -2.165   3.634  12.079  1.00  0.00     0.029 A 
ATOM     46  C   UNL     1      -2.979   4.660  12.718  1.00  0.00     0.049 A 
ATOM     47  H   UNL     1      -4.949   5.180  12.277  1.00  0.00     0.167 HD
ATOM     48  C   UNL     1      -9.179   6.019  11.296  1.00  0.00     0.031 A 
ATOM     49  C   UNL     1      -2.571   5.468  13.714  1.00  0.00     0.031 A 
ATOM     50  C   UNL     1      -8.855   6.876  12.402  1.00  0.00     0.049 A 
ATOM     51  C   UNL     1      -3.558   6.449  14.284  1.00  0.00     0.074 A 
ATOM     52  C   UNL     1      -9.670   7.777  13.061  1.00  0.00     0.029 A 
ATOM     53  N   UNL     1      -7.609   6.941  13.009  1.00  0.00    -0.354 N 
ATOM     54  N   UNL     1      -4.810   6.651  13.946  1.00  0.00    -0.248 NA
ATOM     55  C   UNL     1      -3.081   7.294  15.384  1.00  0.00     0.031 C 
ATOM     56  C   UNL     1      -8.893   8.446  14.012  1.00  0.00     0.029 A 
ATOM     57  C   UNL     1      -7.622   7.892  14.013  1.00  0.00     0.049 A 
ATOM     58  H   UNL     1      -6.830   6.391  12.761  1.00  0.00     0.167 HD
ATOM     59  C   UNL     1      -5.283   7.625  14.817  1.00  0.00     0.074 A 
ATOM     60  C   UNL     1      -4.187   7.946  15.711  1.00  0.00     0.031 C 
ATOM     61  C   UNL     1      -6.510   8.203  14.878  1.00  0.00     0.031 A 
BRANCH  48  62
ATOM     62  C   UNL     1     -10.556   6.105  10.682  1.00  0.00    -0.014 A 
ATOM     63  C   UNL     1     -11.460   5.027  10.747  1.00  0.00     0.010 A 
ATOM     64  C   UNL     1     -10.966   7.297  10.059  1.00  0.00     0.010 A 
ATOM     65  C   UNL     1     -12.729   5.127  10.169  1.00  0.00     0.020 A 
ATOM     66  C   UNL     1     -12.248   7.415   9.514  1.00  0.00     0.020 A 
ATOM     67  C   UNL     1     -13.117   6.324   9.561  1.00  0.00     0.054 A 
BRANCH  67  68
ATOM     68  S   UNL     1     -14.787   6.440   8.862  1.00  0.00     0.124 S 
ATOM     69  O   UNL     1     -14.705   5.521   7.730  1.00  0.00    -0.237 OA
ATOM     70  O   UNL     1     -15.626   5.996   9.972  1.00  0.00    -0.237 OA
ATOM     71  O   UNL     1     -14.919   7.851   8.509  1.00  0.00    -0.744 OA
ENDBRANCH  67  68
ENDBRANCH  48  62
BRANCH  49  72
ATOM     72  C   UNL     1      -1.181   5.365  14.238  1.00  0.00    -0.014 A 
ATOM     73  C   UNL     1      -0.930   4.932  15.553  1.00  0.00     0.010 A 
ATOM     74  C   UNL     1      -0.091   5.692  13.411  1.00  0.00     0.010 A 
ATOM     75  C   UNL     1       0.380   4.855  16.037  1.00  0.00     0.020 A 
ATOM     76  C   UNL     1       1.221   5.578  13.877  1.00  0.00     0.020 A 
ATOM     77  C   UNL     1       1.447   5.174  15.193  1.00  0.00     0.054 A 
BRANCH  77  78
ATOM     78  S   UNL     1       3.139   5.030  15.829  1.00  0.00     0.124 S 
ATOM     79  O   UNL     1       3.190   6.111  16.808  1.00  0.00    -0.237 OA
ATOM     80  O   UNL     1       3.152   3.676  16.378  1.00  0.00    -0.237 OA
ATOM     81  O   UNL     1       3.970   5.222  14.642  1.00  0.00    -0.744 OA
ENDBRANCH  77  78
ENDBRANCH  49  72
BRANCH  61  82
ATOM     82  C   UNL     1      -6.739   9.202  15.981  1.00  0.00    -0.014 A 
ATOM     83  C   UNL     1      -6.055  10.429  16.023  1.00  0.00     0.010 A 
ATOM     84  C   UNL     1      -7.669   8.900  16.994  1.00  0.00     0.010 A 
ATOM     85  C   UNL     1      -6.240  11.302  17.097  1.00  0.00     0.020 A 
ATOM     86  C   UNL     1      -7.894   9.792  18.043  1.00  0.00     0.020 A 
ATOM     87  C   UNL     1      -7.156  10.974  18.102  1.00  0.00     0.054 A 
BRANCH  87  88
ATOM     88  S   UNL     1      -7.372  12.121  19.487  1.00  0.00     0.124 S 
ATOM     89  O   UNL     1      -6.105  11.979  20.199  1.00  0.00    -0.237 OA
ATOM     90  O   UNL     1      -7.576  13.400  18.812  1.00  0.00    -0.237 OA
ATOM     91  O   UNL     1      -8.543  11.599  20.190  1.00  0.00    -0.744 OA
ENDBRANCH  87  88
ENDBRANCH  61  82
ENDBRANCH  35  36
ENDBRANCH  27  30
ENDBRANCH  25  26
ENDBRANCH  24  25
ENDBRANCH   1  24
TORSDOF 18
