REMARK SMILES Cc1cccc(NC(=O)COc2ccc(N3C[C@@H](C(=O)NCCCNC(=O)c4ccc(-c5c6nc(c(-c7ccc(S(=O)(=O)[O-])cc7)c7ccc([nH]7)c(-c7ccc(S(=O)(=O)[O-])cc7)c7nc(c(-c8ccc(S(=O)(=O)[O-])cc8)c8ccc5[nH]8)C=C7)C=C6)cc4)CC3=O)cc2)c1
REMARK SMILES IDX 22 1 21 2 19 3 20 4 18 6 16 7 17 8 89 9 88 10 90 11 15 12
REMARK SMILES IDX 12 13 13 14 92 15 14 16 91 17 11 18 10 19 8 20 7 21 9 23
REMARK SMILES IDX 6 24 1 25 2 26 3 27 93 28 4 29 5 30 23 31 24 32 25 33 26 34
REMARK SMILES IDX 27 36 28 37 29 38 87 39 30 40 86 41 31 42 32 43 33 44 80 45
REMARK SMILES IDX 34 46 85 47 79 48 81 49 35 50 84 51 78 52 77 53 36 55 66 56
REMARK SMILES IDX 47 57 65 58 48 59 51 60 64 61 82 62 49 63 50 64 63 66 83 67
REMARK SMILES IDX 52 68 37 69 38 70 46 71 39 72 45 73 40 74 41 75 42 76 43 77
REMARK SMILES IDX 44 78 67 79 68 80 76 81 69 82 75 83 70 84 71 85 72 86 73 87
REMARK SMILES IDX 74 88 53 89 54 90 62 91 55 92 61 93 56 94 57 95 58 96 59 97
REMARK SMILES IDX 60 98
REMARK H PARENT 21 5 7 22 25 35 81 54 51 65
REMARK Flexibility Score: inf
ROOT
ATOM      1  C   UNL     1      -6.803   4.939  -7.117  1.00  0.00     0.117 C 
ENDROOT
BRANCH   1   2
ATOM      2  N   UNL     1      -7.381   4.182  -8.224  1.00  0.00    -0.356 N 
ATOM      3  C   UNL     1      -6.963   3.098  -8.916  1.00  0.00     0.225 C 
ATOM      4  O   UNL     1      -7.644   2.726  -9.873  1.00  0.00    -0.275 OA
ATOM      5  H   UNL     1      -8.250   4.531  -8.527  1.00  0.00     0.163 HD
BRANCH   3   6
ATOM      6  C   UNL     1      -5.732   2.320  -8.529  1.00  0.00     0.107 C 
ATOM      7  N   UNL     1      -4.679   2.141  -6.431  1.00  0.00    -0.312 N 
ATOM      8  C   UNL     1      -5.864   1.733  -7.143  1.00  0.00     0.139 C 
ATOM      9  C   UNL     1      -3.863   2.988  -7.177  1.00  0.00     0.227 C 
ATOM     10  C   UNL     1      -4.437   3.106  -8.565  1.00  0.00     0.116 C 
ATOM     11  O   UNL     1      -2.818   3.526  -6.841  1.00  0.00    -0.274 OA
BRANCH   7  12
ATOM     12  C   UNL     1      -4.495   1.792  -5.075  1.00  0.00     0.044 A 
ATOM     13  C   UNL     1      -4.227   1.098  -2.363  1.00  0.00     0.120 A 
ATOM     14  C   UNL     1      -4.829   0.218  -3.258  1.00  0.00     0.048 A 
ATOM     15  C   UNL     1      -3.737   2.316  -2.826  1.00  0.00     0.048 A 
ATOM     16  C   UNL     1      -4.989   0.574  -4.595  1.00  0.00     0.030 A 
ATOM     17  C   UNL     1      -3.851   2.651  -4.181  1.00  0.00     0.030 A 
BRANCH  13  18
ATOM     18  O   UNL     1      -4.111   0.623  -1.092  1.00  0.00    -0.484 OA
BRANCH  18  19
ATOM     19  C   UNL     1      -4.266   1.551  -0.036  1.00  0.00     0.329 C 
BRANCH  19  20
ATOM     20  C   UNL     1      -3.139   2.525   0.297  1.00  0.00     0.262 C 
ATOM     21  N   UNL     1      -1.823   2.181   0.327  1.00  0.00    -0.323 N 
ATOM     22  H   UNL     1      -1.232   2.959   0.447  1.00  0.00     0.170 HD
ATOM     23  O   UNL     1      -3.409   3.707   0.550  1.00  0.00    -0.271 OA
BRANCH  21  24
ATOM     24  C   UNL     1      -1.112   0.975   0.227  1.00  0.00     0.041 A 
ATOM     25  C   UNL     1       2.599   0.107  -0.077  1.00  0.00     0.044 C 
ATOM     26  C   UNL     1       1.110  -0.035   0.021  1.00  0.00    -0.049 A 
ATOM     27  C   UNL     1       0.527  -1.303   0.034  1.00  0.00     0.003 A 
ATOM     28  C   UNL     1       0.282   1.094   0.112  1.00  0.00     0.029 A 
ATOM     29  C   UNL     1      -0.853  -1.434   0.163  1.00  0.00     0.002 A 
ATOM     30  C   UNL     1      -1.665  -0.301   0.277  1.00  0.00     0.026 A 
ENDBRANCH  21  24
ENDBRANCH  19  20
ENDBRANCH  18  19
ENDBRANCH  13  18
ENDBRANCH   7  12
ENDBRANCH   3   6
ENDBRANCH   1   2
BRANCH   1  31
ATOM     31  C   UNL     1      -6.010   6.161  -7.575  1.00  0.00     0.042 C 
BRANCH  31  32
ATOM     32  C   UNL     1      -6.670   6.894  -8.726  1.00  0.00     0.118 C 
BRANCH  32  33
ATOM     33  N   UNL     1      -8.005   7.270  -8.346  1.00  0.00    -0.352 N 
ATOM     34  C   UNL     1      -8.352   8.459  -7.750  1.00  0.00     0.251 C 
ATOM     35  H   UNL     1      -8.726   6.625  -8.527  1.00  0.00     0.163 HD
ATOM     36  O   UNL     1      -9.057   8.343  -6.763  1.00  0.00    -0.269 OA
BRANCH  34  37
ATOM     37  C   UNL     1      -8.089   9.761  -8.507  1.00  0.00     0.039 A 
ATOM     38  C   UNL     1      -9.185  10.617  -8.346  1.00  0.00     0.014 A 
ATOM     39  C   UNL     1      -7.651   9.552  -9.812  1.00  0.00     0.014 A 
ATOM     40  C   UNL     1     -10.160  10.614  -9.325  1.00  0.00     0.010 A 
ATOM     41  C   UNL     1      -8.632   9.371 -10.742  1.00  0.00     0.010 A 
ATOM     42  C   UNL     1      -9.912   9.831 -10.435  1.00  0.00    -0.014 A 
BRANCH  42  43
ATOM     43  C   UNL     1     -10.922   9.398 -11.360  1.00  0.00     0.031 A 
ATOM     44  C   UNL     1     -10.999  10.183 -12.591  1.00  0.00     0.074 A 
ATOM     45  C   UNL     1     -11.476   8.202 -11.063  1.00  0.00     0.049 A 
ATOM     46  N   UNL     1     -11.990  10.192 -13.397  1.00  0.00    -0.248 NA
ATOM     47  C   UNL     1      -9.934  11.113 -12.989  1.00  0.00     0.031 C 
ATOM     48  C   UNL     1     -12.238   7.257 -11.868  1.00  0.00     0.029 A 
ATOM     49  N   UNL     1     -11.624   7.717  -9.757  1.00  0.00    -0.354 N 
ATOM     50  C   UNL     1     -11.504  10.722 -14.574  1.00  0.00     0.074 A 
ATOM     51  C   UNL     1     -10.313  11.445 -14.223  1.00  0.00     0.031 C 
ATOM     52  C   UNL     1     -13.008   6.516 -11.039  1.00  0.00     0.029 A 
ATOM     53  C   UNL     1     -12.876   7.098  -9.704  1.00  0.00     0.049 A 
ATOM     54  H   UNL     1     -10.974   7.796  -9.022  1.00  0.00     0.167 HD
ATOM     55  C   UNL     1     -12.030  10.259 -15.739  1.00  0.00     0.031 A 
ATOM     56  C   UNL     1     -13.880   7.769  -9.057  1.00  0.00     0.031 A 
ATOM     57  C   UNL     1     -13.127   9.331 -15.446  1.00  0.00     0.049 A 
ATOM     58  C   UNL     1     -14.949   8.242 -10.042  1.00  0.00     0.074 A 
ATOM     59  C   UNL     1     -13.218   7.949 -15.428  1.00  0.00     0.029 A 
ATOM     60  N   UNL     1     -14.185   9.796 -14.675  1.00  0.00    -0.354 N 
ATOM     61  N   UNL     1     -14.749   8.531 -11.305  1.00  0.00    -0.248 NA
ATOM     62  C   UNL     1     -16.353   8.336  -9.672  1.00  0.00     0.031 C 
ATOM     63  C   UNL     1     -14.322   7.593 -14.595  1.00  0.00     0.029 A 
ATOM     64  C   UNL     1     -14.895   8.756 -14.106  1.00  0.00     0.049 A 
ATOM     65  H   UNL     1     -14.403  10.748 -14.550  1.00  0.00     0.167 HD
ATOM     66  C   UNL     1     -15.950   8.790 -11.928  1.00  0.00     0.074 A 
ATOM     67  C   UNL     1     -16.916   8.677 -10.845  1.00  0.00     0.031 C 
ATOM     68  C   UNL     1     -16.059   9.062 -13.273  1.00  0.00     0.031 A 
BRANCH  55  69
ATOM     69  C   UNL     1     -11.348  10.388 -17.078  1.00  0.00    -0.014 A 
ATOM     70  C   UNL     1     -11.647   9.447 -18.081  1.00  0.00     0.010 A 
ATOM     71  C   UNL     1     -10.402  11.379 -17.417  1.00  0.00     0.010 A 
ATOM     72  C   UNL     1     -11.020   9.465 -19.334  1.00  0.00     0.020 A 
ATOM     73  C   UNL     1      -9.747  11.396 -18.660  1.00  0.00     0.020 A 
ATOM     74  C   UNL     1     -10.068  10.440 -19.615  1.00  0.00     0.054 A 
BRANCH  74  75
ATOM     75  S   UNL     1      -9.302  10.459 -21.256  1.00  0.00     0.124 S 
ATOM     76  O   UNL     1      -8.679   9.139 -21.328  1.00  0.00    -0.237 OA
ATOM     77  O   UNL     1     -10.452  10.660 -22.133  1.00  0.00    -0.237 OA
ATOM     78  O   UNL     1      -8.367  11.580 -21.191  1.00  0.00    -0.744 OA
ENDBRANCH  74  75
ENDBRANCH  55  69
BRANCH  56  79
ATOM     79  C   UNL     1     -13.423   8.512  -7.818  1.00  0.00    -0.014 A 
ATOM     80  C   UNL     1     -12.767   7.794  -6.782  1.00  0.00     0.010 A 
ATOM     81  C   UNL     1     -13.347   9.913  -7.765  1.00  0.00     0.010 A 
ATOM     82  C   UNL     1     -11.976   8.440  -5.809  1.00  0.00     0.020 A 
ATOM     83  C   UNL     1     -12.563  10.565  -6.781  1.00  0.00     0.020 A 
ATOM     84  C   UNL     1     -11.837   9.826  -5.838  1.00  0.00     0.054 A 
BRANCH  84  85
ATOM     85  S   UNL     1     -10.779  10.674  -4.596  1.00  0.00     0.124 S 
ATOM     86  O   UNL     1     -11.013   9.895  -3.381  1.00  0.00    -0.237 OA
ATOM     87  O   UNL     1      -9.423  10.598  -5.127  1.00  0.00    -0.237 OA
ATOM     88  O   UNL     1     -11.331  12.028  -4.572  1.00  0.00    -0.744 OA
ENDBRANCH  84  85
ENDBRANCH  56  79
BRANCH  68  89
ATOM     89  C   UNL     1     -17.263   9.667 -13.996  1.00  0.00    -0.014 A 
ATOM     90  C   UNL     1     -18.536   9.847 -13.448  1.00  0.00     0.010 A 
ATOM     91  C   UNL     1     -17.097  10.156 -15.323  1.00  0.00     0.010 A 
ATOM     92  C   UNL     1     -19.556  10.510 -14.149  1.00  0.00     0.020 A 
ATOM     93  C   UNL     1     -18.088  10.848 -16.021  1.00  0.00     0.020 A 
ATOM     94  C   UNL     1     -19.321  11.021 -15.423  1.00  0.00     0.054 A 
BRANCH  94  95
ATOM     95  S   UNL     1     -20.645  11.900 -16.275  1.00  0.00     0.124 S 
ATOM     96  O   UNL     1     -21.644  10.848 -16.447  1.00  0.00    -0.237 OA
ATOM     97  O   UNL     1     -20.992  12.945 -15.315  1.00  0.00    -0.237 OA
ATOM     98  O   UNL     1     -20.019  12.372 -17.507  1.00  0.00    -0.744 OA
ENDBRANCH  94  95
ENDBRANCH  68  89
ENDBRANCH  42  43
ENDBRANCH  34  37
ENDBRANCH  32  33
ENDBRANCH  31  32
ENDBRANCH   1  31
TORSDOF 18
