REMARK SMILES CCOc1ccc(-n2nnc(-c3nc(C)c(C(=O)NCCCNC(=O)c4ccc(-c5c6nc(c(-c7ccc(S(=O)(=O)[O-])cc7)c7ccc([nH]7)c(-c7ccc(S(=O)(=O)[O-])cc7)c7nc(c(-c8ccc(S(=O)(=O)[O-])cc8)c8ccc5[nH]8)C=C7)C=C6)cc4)s3)c2C)cc1
REMARK SMILES IDX 20 1 19 2 17 3 18 4 16 6 12 7 13 8 86 9 14 10 15 11 11 12
REMARK SMILES IDX 8 13 9 14 87 15 10 16 88 17 7 18 4 19 5 20 90 21 6 22 89 23
REMARK SMILES IDX 3 24 2 25 1 26 21 27 22 28 23 29 24 30 25 32 26 33 27 34
REMARK SMILES IDX 85 35 28 36 84 37 29 38 30 39 31 40 78 41 32 42 83 43 77 44
REMARK SMILES IDX 79 45 33 46 82 47 76 48 75 49 34 51 64 52 45 53 63 54 46 55
REMARK SMILES IDX 49 56 62 57 80 58 47 59 48 60 61 62 81 63 50 64 35 65 36 66
REMARK SMILES IDX 44 67 37 68 43 69 38 70 39 71 40 72 41 73 42 74 65 75 66 76
REMARK SMILES IDX 74 77 67 78 73 79 68 80 69 81 70 82 71 83 72 84 51 85 52 86
REMARK SMILES IDX 60 87 53 88 59 89 54 90 55 91 56 92 57 93 58 94
REMARK H PARENT 19 5 23 31 79 50 49 61
REMARK Flexibility Score: inf
ROOT
ATOM      1  C   UNL     1       8.390   7.144   3.326  1.00  0.00     0.118 C 
ENDROOT
BRANCH   1   2
ATOM      2  N   UNL     1       9.749   7.585   3.023  1.00  0.00    -0.351 N 
ATOM      3  C   UNL     1      10.845   6.861   2.585  1.00  0.00     0.263 C 
ATOM      4  O   UNL     1      11.826   7.507   2.224  1.00  0.00    -0.268 OA
ATOM      5  H   UNL     1       9.911   8.547   3.151  1.00  0.00     0.163 HD
BRANCH   3   6
ATOM      6  C   UNL     1      10.750   5.425   2.455  1.00  0.00     0.115 A 
ATOM      7  C   UNL     1       9.845   3.213   2.504  1.00  0.00     0.146 A 
ATOM      8  N   UNL     1      10.571   3.356   1.414  1.00  0.00    -0.239 NA
ATOM      9  S   UNL     1      10.115   4.414   3.692  1.00  0.00    -0.107 S 
ATOM     10  C   UNL     1      11.261   4.573   1.486  1.00  0.00     0.062 A 
ATOM     11  C   UNL     1      12.338   4.857   0.498  1.00  0.00     0.068 C 
BRANCH   7  12
ATOM     12  C   UNL     1       8.710   2.259   2.682  1.00  0.00     0.145 A 
ATOM     13  N   UNL     1       6.659   1.541   2.851  1.00  0.00    -0.217 N 
ATOM     14  N   UNL     1       7.401   0.915   3.794  1.00  0.00    -0.061 NA
ATOM     15  C   UNL     1       7.430   2.493   2.201  1.00  0.00     0.072 A 
ATOM     16  N   UNL     1       8.655   1.330   3.683  1.00  0.00    -0.127 NA
ATOM     17  C   UNL     1       6.895   3.645   1.426  1.00  0.00     0.069 C 
BRANCH  13  18
ATOM     18  C   UNL     1       5.283   1.256   2.690  1.00  0.00     0.067 A 
ATOM     19  C   UNL     1       2.537   0.869   2.372  1.00  0.00     0.119 A 
ATOM     20  C   UNL     1       3.111   0.770   3.641  1.00  0.00     0.048 A 
ATOM     21  C   UNL     1       3.332   1.164   1.268  1.00  0.00     0.048 A 
ATOM     22  C   UNL     1       4.492   0.937   3.802  1.00  0.00     0.032 A 
ATOM     23  C   UNL     1       4.705   1.338   1.420  1.00  0.00     0.032 A 
BRANCH  19  24
ATOM     24  O   UNL     1       1.175   0.821   2.264  1.00  0.00    -0.494 OA
BRANCH  24  25
ATOM     25  C   UNL     1       0.685  -0.316   1.541  1.00  0.00     0.226 C 
ATOM     26  C   UNL     1       0.652  -0.096   0.036  1.00  0.00     0.049 C 
ENDBRANCH  24  25
ENDBRANCH  19  24
ENDBRANCH  13  18
ENDBRANCH   7  12
ENDBRANCH   3   6
ENDBRANCH   1   2
BRANCH   1  27
ATOM     27  C   UNL     1       8.162   6.871   4.818  1.00  0.00     0.042 C 
BRANCH  27  28
ATOM     28  C   UNL     1       7.904   8.145   5.589  1.00  0.00     0.118 C 
BRANCH  28  29
ATOM     29  N   UNL     1       6.572   8.719   5.341  1.00  0.00    -0.352 N 
ATOM     30  C   UNL     1       6.003   9.849   5.927  1.00  0.00     0.251 C 
ATOM     31  H   UNL     1       6.014   8.247   4.681  1.00  0.00     0.163 HD
ATOM     32  O   UNL     1       4.801  10.034   5.908  1.00  0.00    -0.269 OA
BRANCH  30  33
ATOM     33  C   UNL     1       6.921  10.819   6.555  1.00  0.00     0.039 A 
ATOM     34  C   UNL     1       6.667  11.494   7.751  1.00  0.00     0.014 A 
ATOM     35  C   UNL     1       8.143  10.949   5.923  1.00  0.00     0.014 A 
ATOM     36  C   UNL     1       7.697  12.264   8.295  1.00  0.00     0.010 A 
ATOM     37  C   UNL     1       9.213  11.315   6.667  1.00  0.00     0.010 A 
ATOM     38  C   UNL     1       8.974  12.163   7.725  1.00  0.00    -0.014 A 
BRANCH  38  39
ATOM     39  C   UNL     1      10.148  12.887   8.173  1.00  0.00     0.031 A 
ATOM     40  C   UNL     1      10.551  12.582   9.561  1.00  0.00     0.074 A 
ATOM     41  C   UNL     1      10.964  13.522   7.296  1.00  0.00     0.049 A 
ATOM     42  N   UNL     1      10.419  13.341  10.594  1.00  0.00    -0.248 NA
ATOM     43  C   UNL     1      10.988  11.211   9.875  1.00  0.00     0.031 C 
ATOM     44  C   UNL     1      10.885  13.594   5.825  1.00  0.00     0.029 A 
ATOM     45  N   UNL     1      12.141  14.143   7.542  1.00  0.00    -0.354 N 
ATOM     46  C   UNL     1      10.985  12.639  11.648  1.00  0.00     0.074 A 
ATOM     47  C   UNL     1      11.098  11.272  11.203  1.00  0.00     0.031 C 
ATOM     48  C   UNL     1      12.076  13.991   5.320  1.00  0.00     0.029 A 
ATOM     49  C   UNL     1      12.934  14.378   6.423  1.00  0.00     0.049 A 
ATOM     50  H   UNL     1      12.418  14.409   8.448  1.00  0.00     0.167 HD
ATOM     51  C   UNL     1      11.569  13.284  12.696  1.00  0.00     0.031 A 
ATOM     52  C   UNL     1      14.214  14.833   6.423  1.00  0.00     0.031 A 
ATOM     53  C   UNL     1      11.294  14.701  12.662  1.00  0.00     0.049 A 
ATOM     54  C   UNL     1      14.424  15.485   7.744  1.00  0.00     0.074 A 
ATOM     55  C   UNL     1      10.143  15.464  12.687  1.00  0.00     0.029 A 
ATOM     56  N   UNL     1      12.271  15.512  12.127  1.00  0.00    -0.354 N 
ATOM     57  N   UNL     1      13.761  16.546   8.123  1.00  0.00    -0.248 NA
ATOM     58  C   UNL     1      14.961  14.670   8.823  1.00  0.00     0.031 C 
ATOM     59  C   UNL     1      10.364  16.485  11.714  1.00  0.00     0.029 A 
ATOM     60  C   UNL     1      11.664  16.347  11.220  1.00  0.00     0.049 A 
ATOM     61  H   UNL     1      13.230  15.496  12.353  1.00  0.00     0.167 HD
ATOM     62  C   UNL     1      13.423  16.304   9.449  1.00  0.00     0.074 A 
ATOM     63  C   UNL     1      14.261  15.169   9.848  1.00  0.00     0.031 C 
ATOM     64  C   UNL     1      12.296  16.838  10.011  1.00  0.00     0.031 A 
BRANCH  51  65
ATOM     65  C   UNL     1      12.705  12.716  13.503  1.00  0.00    -0.014 A 
ATOM     66  C   UNL     1      13.140  13.418  14.643  1.00  0.00     0.010 A 
ATOM     67  C   UNL     1      13.527  11.666  13.042  1.00  0.00     0.010 A 
ATOM     68  C   UNL     1      14.367  13.126  15.251  1.00  0.00     0.020 A 
ATOM     69  C   UNL     1      14.731  11.337  13.666  1.00  0.00     0.020 A 
ATOM     70  C   UNL     1      15.160  12.094  14.747  1.00  0.00     0.054 A 
BRANCH  70  71
ATOM     71  S   UNL     1      16.791  11.798  15.471  1.00  0.00     0.124 S 
ATOM     72  O   UNL     1      17.498  13.028  15.129  1.00  0.00    -0.237 OA
ATOM     73  O   UNL     1      16.473  11.620  16.885  1.00  0.00    -0.237 OA
ATOM     74  O   UNL     1      17.256  10.595  14.785  1.00  0.00    -0.744 OA
ENDBRANCH  70  71
ENDBRANCH  51  65
BRANCH  52  75
ATOM     75  C   UNL     1      15.331  14.397   5.539  1.00  0.00    -0.014 A 
ATOM     76  C   UNL     1      16.544  15.110   5.471  1.00  0.00     0.010 A 
ATOM     77  C   UNL     1      15.306  13.106   4.968  1.00  0.00     0.010 A 
ATOM     78  C   UNL     1      17.699  14.530   4.908  1.00  0.00     0.020 A 
ATOM     79  C   UNL     1      16.450  12.524   4.405  1.00  0.00     0.020 A 
ATOM     80  C   UNL     1      17.650  13.230   4.397  1.00  0.00     0.054 A 
BRANCH  80  81
ATOM     81  S   UNL     1      19.181  12.421   3.835  1.00  0.00     0.124 S 
ATOM     82  O   UNL     1      19.492  13.156   2.612  1.00  0.00    -0.237 OA
ATOM     83  O   UNL     1      20.090  12.648   4.955  1.00  0.00    -0.237 OA
ATOM     84  O   UNL     1      18.783  11.029   3.638  1.00  0.00    -0.744 OA
ENDBRANCH  80  81
ENDBRANCH  52  75
BRANCH  64  85
ATOM     85  C   UNL     1      11.513  17.870   9.219  1.00  0.00    -0.014 A 
ATOM     86  C   UNL     1      10.882  17.605   7.985  1.00  0.00     0.010 A 
ATOM     87  C   UNL     1      11.269  19.110   9.832  1.00  0.00     0.010 A 
ATOM     88  C   UNL     1      10.054  18.564   7.374  1.00  0.00     0.020 A 
ATOM     89  C   UNL     1      10.435  20.063   9.239  1.00  0.00     0.020 A 
ATOM     90  C   UNL     1       9.839  19.791   8.007  1.00  0.00     0.054 A 
BRANCH  90  91
ATOM     91  S   UNL     1       8.749  21.021   7.234  1.00  0.00     0.124 S 
ATOM     92  O   UNL     1       9.504  21.414   6.048  1.00  0.00    -0.237 OA
ATOM     93  O   UNL     1       7.528  20.261   6.978  1.00  0.00    -0.237 OA
ATOM     94  O   UNL     1       8.618  22.061   8.254  1.00  0.00    -0.744 OA
ENDBRANCH  90  91
ENDBRANCH  64  85
ENDBRANCH  38  39
ENDBRANCH  30  33
ENDBRANCH  28  29
ENDBRANCH  27  28
ENDBRANCH   1  27
TORSDOF 17
