REMARK SMILES N#CCC[NH2+]C1(C(=O)NCCCNC(=O)c2ccc(-c3c4nc(c(-c5ccc(S(=O)(=O)[O-])cc5)c5ccc([nH]5)c(-c5ccc(S(=O)(=O)[O-])cc5)c5nc(c(-c6ccc(S(=O)(=O)[O-])cc6)c6ccc3[nH]6)C=C5)C=C4)cc2)CC1
REMARK SMILES IDX 10 1 9 2 7 3 8 4 6 6 76 7 77 8 5 9 4 12 3 13 2 14 1 15 11 16
REMARK SMILES IDX 12 17 13 18 14 19 15 21 16 22 17 23 75 24 18 25 74 26 19 27
REMARK SMILES IDX 20 28 21 29 68 30 22 31 73 32 67 33 69 34 23 35 72 36 66 37
REMARK SMILES IDX 65 38 24 40 54 41 35 42 53 43 36 44 39 45 52 46 70 47 37 48
REMARK SMILES IDX 38 49 51 51 71 52 40 53 25 54 26 55 34 56 27 57 33 58 28 59
REMARK SMILES IDX 29 60 30 61 31 62 32 63 55 64 56 65 64 66 57 67 63 68 58 69
REMARK SMILES IDX 59 70 60 71 61 72 62 73 41 74 42 75 50 76 43 77 49 78 44 79
REMARK SMILES IDX 45 80 46 81 47 82 48 83
REMARK H PARENT 9 5 5 10 5 11 13 20 69 39 39 50
REMARK Flexibility Score: inf
ROOT
ATOM      1  C   UNL     1       7.403  -3.341  -0.516  1.00  0.00     0.118 C 
ENDROOT
BRANCH   1   2
ATOM      2  N   UNL     1       6.803  -2.557  -1.581  1.00  0.00    -0.351 N 
ATOM      3  C   UNL     1       5.486  -2.478  -1.938  1.00  0.00     0.281 C 
ATOM      4  O   UNL     1       5.128  -1.677  -2.797  1.00  0.00    -0.268 OA
ATOM      5  H   UNL     1       7.426  -2.013  -2.116  1.00  0.00     0.163 HD
BRANCH   3   6
ATOM      6  C   UNL     1       4.462  -3.312  -1.212  1.00  0.00     0.176 C 
ATOM      7  C   UNL     1       4.556  -4.821  -1.078  1.00  0.00     0.086 C 
ATOM      8  C   UNL     1       3.656  -4.249  -2.117  1.00  0.00     0.086 C 
BRANCH   6   9
ATOM      9  N   UNL     1       3.668  -2.594  -0.177  1.00  0.00    -0.333 N 
ATOM     10  H   UNL     1       2.827  -2.244  -0.635  1.00  0.00     0.347 HD
ATOM     11  H   UNL     1       3.531  -3.292   0.554  1.00  0.00     0.347 HD
BRANCH   9  12
ATOM     12  C   UNL     1       4.284  -1.455   0.528  1.00  0.00     0.276 C 
BRANCH  12  13
ATOM     13  C   UNL     1       3.846  -0.045   0.061  1.00  0.00     0.181 C 
BRANCH  13  14
ATOM     14  C   UNL     1       2.326  -0.045   0.061  1.00  0.00     0.068 C 
ATOM     15  N   UNL     1       1.065  -0.045   0.061  1.00  0.00    -0.198 NA
ENDBRANCH  13  14
ENDBRANCH  12  13
ENDBRANCH   9  12
ENDBRANCH   6   9
ENDBRANCH   3   6
ENDBRANCH   1   2
BRANCH   1  16
ATOM     16  C   UNL     1       8.893  -3.529  -0.736  1.00  0.00     0.042 C 
BRANCH  16  17
ATOM     17  C   UNL     1       9.682  -2.260  -0.457  1.00  0.00     0.118 C 
BRANCH  17  18
ATOM     18  N   UNL     1       9.918  -2.049   0.965  1.00  0.00    -0.352 N 
ATOM     19  C   UNL     1      11.103  -1.686   1.565  1.00  0.00     0.251 C 
ATOM     20  H   UNL     1       9.146  -2.180   1.561  1.00  0.00     0.163 HD
ATOM     21  O   UNL     1      11.217  -1.670   2.783  1.00  0.00    -0.269 OA
BRANCH  19  22
ATOM     22  C   UNL     1      12.245  -1.355   0.689  1.00  0.00     0.039 A 
ATOM     23  C   UNL     1      13.424  -2.094   0.796  1.00  0.00     0.014 A 
ATOM     24  C   UNL     1      12.086  -0.397  -0.318  1.00  0.00     0.014 A 
ATOM     25  C   UNL     1      14.429  -1.916  -0.156  1.00  0.00     0.010 A 
ATOM     26  C   UNL     1      13.057  -0.277  -1.305  1.00  0.00     0.010 A 
ATOM     27  C   UNL     1      14.238  -1.033  -1.232  1.00  0.00    -0.014 A 
BRANCH  27  28
ATOM     28  C   UNL     1      15.268  -0.867  -2.286  1.00  0.00     0.031 A 
ATOM     29  C   UNL     1      15.951   0.463  -2.454  1.00  0.00     0.074 A 
ATOM     30  C   UNL     1      15.533  -1.877  -3.138  1.00  0.00     0.049 A 
ATOM     31  N   UNL     1      16.819   0.836  -3.358  1.00  0.00    -0.248 NA
ATOM     32  C   UNL     1      15.581   1.521  -1.500  1.00  0.00     0.031 C 
ATOM     33  C   UNL     1      14.894  -3.195  -3.119  1.00  0.00     0.029 A 
ATOM     34  N   UNL     1      16.404  -1.946  -4.196  1.00  0.00    -0.354 N 
ATOM     35  C   UNL     1      17.078   2.175  -3.098  1.00  0.00     0.074 A 
ATOM     36  C   UNL     1      16.239   2.562  -1.986  1.00  0.00     0.031 C 
ATOM     37  C   UNL     1      15.407  -3.946  -4.108  1.00  0.00     0.029 A 
ATOM     38  C   UNL     1      16.390  -3.158  -4.845  1.00  0.00     0.049 A 
ATOM     39  H   UNL     1      16.985  -1.198  -4.465  1.00  0.00     0.167 HD
ATOM     40  C   UNL     1      17.953   3.006  -3.713  1.00  0.00     0.031 A 
ATOM     41  C   UNL     1      17.089  -3.585  -5.915  1.00  0.00     0.031 A 
ATOM     42  C   UNL     1      18.805   2.615  -4.801  1.00  0.00     0.049 A 
ATOM     43  C   UNL     1      18.087  -2.662  -6.557  1.00  0.00     0.074 A 
ATOM     44  C   UNL     1      19.768   3.363  -5.455  1.00  0.00     0.029 A 
ATOM     45  N   UNL     1      18.798   1.362  -5.395  1.00  0.00    -0.354 N 
ATOM     46  N   UNL     1      18.368  -1.417  -6.253  1.00  0.00    -0.248 NA
ATOM     47  C   UNL     1      18.872  -3.205  -7.673  1.00  0.00     0.031 C 
ATOM     48  C   UNL     1      20.325   2.569  -6.464  1.00  0.00     0.029 A 
ATOM     49  C   UNL     1      19.734   1.316  -6.413  1.00  0.00     0.049 A 
ATOM     50  H   UNL     1      18.213   0.615  -5.131  1.00  0.00     0.167 HD
ATOM     51  C   UNL     1      19.376  -1.033  -7.130  1.00  0.00     0.074 A 
ATOM     52  C   UNL     1      19.665  -2.182  -7.965  1.00  0.00     0.031 C 
ATOM     53  C   UNL     1      20.005   0.163  -7.233  1.00  0.00     0.031 A 
BRANCH  40  54
ATOM     54  C   UNL     1      18.019   4.421  -3.206  1.00  0.00    -0.014 A 
ATOM     55  C   UNL     1      18.578   4.712  -1.948  1.00  0.00     0.010 A 
ATOM     56  C   UNL     1      17.503   5.470  -3.987  1.00  0.00     0.010 A 
ATOM     57  C   UNL     1      18.561   6.018  -1.452  1.00  0.00     0.020 A 
ATOM     58  C   UNL     1      17.509   6.783  -3.505  1.00  0.00     0.020 A 
ATOM     59  C   UNL     1      18.015   7.043  -2.229  1.00  0.00     0.054 A 
BRANCH  59  60
ATOM     60  S   UNL     1      17.987   8.727  -1.558  1.00  0.00     0.124 S 
ATOM     61  O   UNL     1      16.849   8.665  -0.643  1.00  0.00    -0.237 OA
ATOM     62  O   UNL     1      19.297   8.845  -0.921  1.00  0.00    -0.237 OA
ATOM     63  O   UNL     1      17.795   9.566  -2.738  1.00  0.00    -0.744 OA
ENDBRANCH  59  60
ENDBRANCH  40  54
BRANCH  41  64
ATOM     64  C   UNL     1      16.883  -4.967  -6.424  1.00  0.00    -0.014 A 
ATOM     65  C   UNL     1      17.836  -5.969  -6.169  1.00  0.00     0.010 A 
ATOM     66  C   UNL     1      15.714  -5.298  -7.133  1.00  0.00     0.010 A 
ATOM     67  C   UNL     1      17.627  -7.276  -6.618  1.00  0.00     0.020 A 
ATOM     68  C   UNL     1      15.492  -6.608  -7.566  1.00  0.00     0.020 A 
ATOM     69  C   UNL     1      16.454  -7.588  -7.311  1.00  0.00     0.054 A 
BRANCH  69  70
ATOM     70  S   UNL     1      16.163  -9.307  -7.816  1.00  0.00     0.124 S 
ATOM     71  O   UNL     1      17.013  -9.425  -8.996  1.00  0.00    -0.237 OA
ATOM     72  O   UNL     1      16.599 -10.061  -6.643  1.00  0.00    -0.237 OA
ATOM     73  O   UNL     1      14.724  -9.346  -8.070  1.00  0.00    -0.744 OA
ENDBRANCH  69  70
ENDBRANCH  41  64
BRANCH  53  74
ATOM     74  C   UNL     1      21.085   0.287  -8.272  1.00  0.00    -0.014 A 
ATOM     75  C   UNL     1      20.765   0.422  -9.634  1.00  0.00     0.010 A 
ATOM     76  C   UNL     1      22.432   0.334  -7.871  1.00  0.00     0.010 A 
ATOM     77  C   UNL     1      21.779   0.580 -10.582  1.00  0.00     0.020 A 
ATOM     78  C   UNL     1      23.447   0.513  -8.814  1.00  0.00     0.020 A 
ATOM     79  C   UNL     1      23.114   0.623 -10.166  1.00  0.00     0.054 A 
BRANCH  79  80
ATOM     80  S   UNL     1      24.411   0.883 -11.407  1.00  0.00     0.124 S 
ATOM     81  O   UNL     1      24.523  -0.442 -12.010  1.00  0.00    -0.237 OA
ATOM     82  O   UNL     1      23.836   1.917 -12.264  1.00  0.00    -0.237 OA
ATOM     83  O   UNL     1      25.564   1.308 -10.617  1.00  0.00    -0.744 OA
ENDBRANCH  79  80
ENDBRANCH  53  74
ENDBRANCH  27  28
ENDBRANCH  19  22
ENDBRANCH  17  18
ENDBRANCH  16  17
ENDBRANCH   1  16
TORSDOF 17
