REMARK SMILES CC1=C2C(=O)N(C[C@H]3CCCO3)C(=O)N=C2S[C@@H]1C(=O)NCCCNC(=O)c1ccc(-c2c3nc(c(-c4ccc(S(=O)(=O)[O-])cc4)c4ccc([nH]4)c(-c4ccc(S(=O)(=O)[O-])cc4)c4nc(c(-c5ccc(S(=O)(=O)[O-])cc5)c5ccc2[nH]5)C=C4)C=C3)cc1
REMARK SMILES IDX 23 1 22 2 21 3 19 4 20 5 18 7 1 8 2 9 3 10 4 11 16 12 17 13
REMARK SMILES IDX 5 14 6 15 15 16 13 17 14 18 7 19 8 20 9 21 12 22 10 23 11 24
REMARK SMILES IDX 24 25 25 26 26 27 27 29 28 30 29 31 87 32 30 33 86 34 31 35
REMARK SMILES IDX 32 36 33 37 80 38 34 39 85 40 79 41 81 42 35 43 84 44 78 45
REMARK SMILES IDX 77 46 36 48 66 49 47 50 65 51 48 52 51 53 64 54 82 55 49 56
REMARK SMILES IDX 50 57 63 59 83 60 52 61 37 62 38 63 46 64 39 65 45 66 40 67
REMARK SMILES IDX 41 68 42 69 43 70 44 71 67 72 68 73 76 74 69 75 75 76 70 77
REMARK SMILES IDX 71 78 72 79 73 80 74 81 53 82 54 83 62 84 55 85 61 86 56 87
REMARK SMILES IDX 57 88 58 89 59 90 60 91
REMARK H PARENT 21 6 25 28 81 47 51 58
REMARK Flexibility Score: inf
ROOT
ATOM      1  C   UNL     1       2.096  -1.841   7.742  1.00  0.00     0.042 C 
ENDROOT
BRANCH   1   2
ATOM      2  C   UNL     1       1.772  -2.804   6.609  1.00  0.00     0.117 C 
BRANCH   2   3
ATOM      3  N   UNL     1       1.781  -4.191   7.041  1.00  0.00    -0.355 N 
ATOM      4  C   UNL     1       0.769  -5.084   7.237  1.00  0.00     0.237 C 
ATOM      5  O   UNL     1       1.090  -6.224   7.593  1.00  0.00    -0.273 OA
ATOM      6  H   UNL     1       2.678  -4.551   7.225  1.00  0.00     0.163 HD
BRANCH   4   7
ATOM      7  C   UNL     1      -0.705  -4.753   6.975  1.00  0.00     0.169 C 
ATOM      8  C   UNL     1      -0.553  -5.033   4.415  1.00  0.00     0.042 C 
ATOM      9  C   UNL     1      -0.990  -4.227   5.597  1.00  0.00    -0.035 C 
ATOM     10  C   UNL     1      -1.637  -3.054   5.556  1.00  0.00     0.073 C 
ATOM     11  C   UNL     1      -1.994  -2.224   4.412  1.00  0.00     0.264 C 
ATOM     12  C   UNL     1      -2.003  -2.532   6.857  1.00  0.00     0.116 C 
ATOM     13  S   UNL     1      -1.336  -3.497   8.139  1.00  0.00    -0.087 SA
ATOM     14  O   UNL     1      -1.320  -2.237   3.392  1.00  0.00    -0.268 OA
ATOM     15  N   UNL     1      -3.074  -1.417   4.672  1.00  0.00    -0.256 N 
ATOM     16  N   UNL     1      -2.727  -1.496   7.051  1.00  0.00    -0.186 NA
ATOM     17  C   UNL     1      -3.303  -0.891   5.956  1.00  0.00     0.351 C 
ATOM     18  O   UNL     1      -4.035   0.082   6.111  1.00  0.00    -0.246 OA
BRANCH  15  19
ATOM     19  C   UNL     1      -4.062  -1.122   3.634  1.00  0.00     0.163 C 
BRANCH  19  20
ATOM     20  C   UNL     1      -3.644  -0.926   2.161  1.00  0.00     0.138 C 
ATOM     21  C   UNL     1      -3.295  -2.166   1.346  1.00  0.00     0.036 C 
ATOM     22  O   UNL     1      -4.821  -0.413   1.474  1.00  0.00    -0.376 OA
ATOM     23  C   UNL     1      -4.636  -2.731   0.969  1.00  0.00     0.031 C 
ATOM     24  C   UNL     1      -5.461  -1.484   0.759  1.00  0.00     0.160 C 
ENDBRANCH  19  20
ENDBRANCH  15  19
ENDBRANCH   4   7
ENDBRANCH   2   3
ENDBRANCH   1   2
BRANCH   1  25
ATOM     25  C   UNL     1       3.543  -1.926   8.209  1.00  0.00     0.118 C 
BRANCH  25  26
ATOM     26  N   UNL     1       4.483  -1.520   7.172  1.00  0.00    -0.352 N 
ATOM     27  C   UNL     1       5.376  -0.477   7.150  1.00  0.00     0.251 C 
ATOM     28  H   UNL     1       4.477  -2.080   6.362  1.00  0.00     0.163 HD
ATOM     29  O   UNL     1       5.931  -0.180   6.096  1.00  0.00    -0.269 OA
BRANCH  27  30
ATOM     30  C   UNL     1       5.655   0.291   8.381  1.00  0.00     0.039 A 
ATOM     31  C   UNL     1       5.741   1.684   8.305  1.00  0.00     0.014 A 
ATOM     32  C   UNL     1       5.846  -0.359   9.603  1.00  0.00     0.014 A 
ATOM     33  C   UNL     1       5.940   2.429   9.470  1.00  0.00     0.010 A 
ATOM     34  C   UNL     1       5.973   0.386  10.771  1.00  0.00     0.010 A 
ATOM     35  C   UNL     1       6.017   1.787  10.716  1.00  0.00    -0.014 A 
BRANCH  35  36
ATOM     36  C   UNL     1       6.119   2.558  11.980  1.00  0.00     0.031 A 
ATOM     37  C   UNL     1       7.341   2.437  12.847  1.00  0.00     0.074 A 
ATOM     38  C   UNL     1       5.070   3.301  12.387  1.00  0.00     0.049 A 
ATOM     39  N   UNL     1       7.567   2.952  14.027  1.00  0.00    -0.248 NA
ATOM     40  C   UNL     1       8.442   1.607  12.331  1.00  0.00     0.031 C 
ATOM     41  C   UNL     1       3.810   3.464  11.656  1.00  0.00     0.029 A 
ATOM     42  N   UNL     1       4.892   4.046  13.524  1.00  0.00    -0.354 N 
ATOM     43  C   UNL     1       8.823   2.493  14.406  1.00  0.00     0.074 A 
ATOM     44  C   UNL     1       9.294   1.628  13.345  1.00  0.00     0.031 C 
ATOM     45  C   UNL     1       2.998   4.273  12.355  1.00  0.00     0.029 A 
ATOM     46  C   UNL     1       3.661   4.654  13.597  1.00  0.00     0.049 A 
ATOM     47  H   UNL     1       5.580   4.137  14.223  1.00  0.00     0.167 HD
ATOM     48  C   UNL     1       9.526   2.775  15.529  1.00  0.00     0.031 A 
ATOM     49  C   UNL     1       3.120   5.424  14.561  1.00  0.00     0.031 A 
ATOM     50  C   UNL     1       9.063   3.648  16.574  1.00  0.00     0.049 A 
ATOM     51  C   UNL     1       3.921   5.727  15.795  1.00  0.00     0.074 A 
ATOM     52  C   UNL     1       9.728   4.046  17.721  1.00  0.00     0.029 A 
ATOM     53  N   UNL     1       7.819   4.260  16.600  1.00  0.00    -0.354 N 
ATOM     54  N   UNL     1       5.130   5.326  16.109  1.00  0.00    -0.248 NA
ATOM     55  C   UNL     1       3.287   6.588  16.802  1.00  0.00     0.031 C 
ATOM     56  C   UNL     1       8.871   4.870  18.459  1.00  0.00     0.029 A 
ATOM     57  C   UNL     1       7.688   5.017  17.752  1.00  0.00     0.049 A 
ATOM     58  H   UNL     1       7.130   4.169  15.903  1.00  0.00     0.167 HD
ATOM     59  C   UNL     1       5.408   5.901  17.344  1.00  0.00     0.074 A 
ATOM     60  C   UNL     1       4.247   6.688  17.711  1.00  0.00     0.031 C 
ATOM     61  C   UNL     1       6.523   5.787  18.105  1.00  0.00     0.031 A 
BRANCH  48  62
ATOM     62  C   UNL     1      10.873   2.124  15.683  1.00  0.00    -0.014 A 
ATOM     63  C   UNL     1      11.970   2.537  14.905  1.00  0.00     0.010 A 
ATOM     64  C   UNL     1      11.053   1.105  16.636  1.00  0.00     0.010 A 
ATOM     65  C   UNL     1      13.212   1.914  15.047  1.00  0.00     0.020 A 
ATOM     66  C   UNL     1      12.301   0.495  16.797  1.00  0.00     0.020 A 
ATOM     67  C   UNL     1      13.368   0.891  15.987  1.00  0.00     0.054 A 
BRANCH  67  68
ATOM     68  S   UNL     1      14.994   0.106  16.161  1.00  0.00     0.124 S 
ATOM     69  O   UNL     1      15.030  -0.770  14.993  1.00  0.00    -0.237 OA
ATOM     70  O   UNL     1      15.909   1.243  16.120  1.00  0.00    -0.237 OA
ATOM     71  O   UNL     1      14.912  -0.577  17.450  1.00  0.00    -0.744 OA
ENDBRANCH  67  68
ENDBRANCH  48  62
BRANCH  49  72
ATOM     72  C   UNL     1       1.749   5.970  14.387  1.00  0.00    -0.014 A 
ATOM     73  C   UNL     1       1.562   7.330  14.086  1.00  0.00     0.010 A 
ATOM     74  C   UNL     1       0.626   5.130  14.497  1.00  0.00     0.010 A 
ATOM     75  C   UNL     1       0.275   7.845  13.910  1.00  0.00     0.020 A 
ATOM     76  C   UNL     1      -0.661   5.637  14.300  1.00  0.00     0.020 A 
ATOM     77  C   UNL     1      -0.829   6.994  14.018  1.00  0.00     0.054 A 
BRANCH  77  78
ATOM     78  S   UNL     1      -2.488   7.670  13.730  1.00  0.00     0.124 S 
ATOM     79  O   UNL     1      -2.755   8.363  14.986  1.00  0.00    -0.237 OA
ATOM     80  O   UNL     1      -2.285   8.528  12.565  1.00  0.00    -0.237 OA
ATOM     81  O   UNL     1      -3.301   6.481  13.484  1.00  0.00    -0.744 OA
ENDBRANCH  77  78
ENDBRANCH  49  72
BRANCH  61  82
ATOM     82  C   UNL     1       6.548   6.544  19.404  1.00  0.00    -0.014 A 
ATOM     83  C   UNL     1       5.818   6.093  20.517  1.00  0.00     0.010 A 
ATOM     84  C   UNL     1       7.347   7.695  19.523  1.00  0.00     0.010 A 
ATOM     85  C   UNL     1       5.865   6.797  21.722  1.00  0.00     0.020 A 
ATOM     86  C   UNL     1       7.412   8.390  20.733  1.00  0.00     0.020 A 
ATOM     87  C   UNL     1       6.660   7.944  21.822  1.00  0.00     0.054 A 
BRANCH  87  88
ATOM     88  S   UNL     1       6.740   8.819  23.409  1.00  0.00     0.124 S 
ATOM     89  O   UNL     1       5.480   9.557  23.412  1.00  0.00    -0.237 OA
ATOM     90  O   UNL     1       6.832   7.729  24.376  1.00  0.00    -0.237 OA
ATOM     91  O   UNL     1       7.944   9.639  23.289  1.00  0.00    -0.744 OA
ENDBRANCH  87  88
ENDBRANCH  61  82
ENDBRANCH  35  36
ENDBRANCH  27  30
ENDBRANCH  25  26
ENDBRANCH   1  25
TORSDOF 15
