REMARK SMILES O=C(Cc1ccc(NC(=O)C2CCCC2)cc1)NCCCNC(=O)c1ccc(-c2c3nc(c(-c4ccc(S(=O)(=O)[O-])cc4)c4ccc([nH]4)c(-c4ccc(S(=O)(=O)[O-])cc4)c4nc(c(-c5ccc(S(=O)(=O)[O-])cc5)c5ccc2[nH]5)C=C4)C=C3)cc1
REMARK SMILES IDX 20 1 19 2 18 3 1 4 2 5 3 7 4 8 5 9 17 10 6 11 16 12 7 13
REMARK SMILES IDX 8 14 9 15 10 17 11 18 12 19 15 20 13 21 14 22 21 23 22 24
REMARK SMILES IDX 23 25 24 27 25 28 26 29 84 30 27 31 83 32 28 33 29 34 30 35
REMARK SMILES IDX 77 36 31 37 82 38 76 39 78 40 32 41 81 42 75 43 74 44 33 46
REMARK SMILES IDX 63 47 44 48 62 49 45 50 48 51 61 52 79 53 46 54 47 55 60 57
REMARK SMILES IDX 80 58 49 59 34 60 35 61 43 62 36 63 42 64 37 65 38 66 39 67
REMARK SMILES IDX 40 68 41 69 64 70 65 71 73 72 66 73 72 74 67 75 68 76 69 77
REMARK SMILES IDX 70 78 71 79 50 80 51 81 59 82 52 83 58 84 53 85 54 86 55 87
REMARK SMILES IDX 56 88 57 89
REMARK H PARENT 18 6 8 16 22 26 78 45 48 56
REMARK Flexibility Score: inf
ROOT
ATOM      1  C   UNL     1       2.399   2.097  -2.834  1.00  0.00     0.042 C 
ENDROOT
BRANCH   1   2
ATOM      2  C   UNL     1       2.136   0.659  -2.395  1.00  0.00     0.117 C 
BRANCH   2   3
ATOM      3  N   UNL     1       2.849   0.334  -1.175  1.00  0.00    -0.356 N 
ATOM      4  O   UNL     1       1.006   0.074   0.173  1.00  0.00    -0.275 OA
ATOM      5  C   UNL     1       2.225   0.106   0.033  1.00  0.00     0.224 C 
ATOM      6  H   UNL     1       3.831   0.274  -1.211  1.00  0.00     0.163 HD
BRANCH   5   7
ATOM      7  C   UNL     1       3.181  -0.040   1.211  1.00  0.00     0.135 C 
BRANCH   7   8
ATOM      8  C   UNL     1       4.014  -1.296   1.147  1.00  0.00    -0.039 A 
ATOM      9  C   UNL     1       3.514  -2.489   1.670  1.00  0.00     0.006 A 
ATOM     10  C   UNL     1       5.267  -1.311   0.524  1.00  0.00     0.006 A 
ATOM     11  C   UNL     1       4.212  -3.686   1.496  1.00  0.00     0.026 A 
ATOM     12  C   UNL     1       5.943  -2.520   0.321  1.00  0.00     0.026 A 
ATOM     13  C   UNL     1       5.376  -3.730   0.732  1.00  0.00     0.041 A 
BRANCH  13  14
ATOM     14  N   UNL     1       6.010  -4.910   0.303  1.00  0.00    -0.326 N 
ATOM     15  C   UNL     1       5.552  -6.183   0.088  1.00  0.00     0.227 C 
ATOM     16  H   UNL     1       6.971  -4.799   0.122  1.00  0.00     0.169 HD
ATOM     17  O   UNL     1       6.376  -7.033  -0.264  1.00  0.00    -0.274 OA
BRANCH  15  18
ATOM     18  C   UNL     1       4.084  -6.537   0.256  1.00  0.00     0.079 C 
ATOM     19  C   UNL     1       3.133  -5.794  -0.683  1.00  0.00     0.013 C 
ATOM     20  C   UNL     1       3.730  -7.988  -0.089  1.00  0.00     0.013 C 
ATOM     21  C   UNL     1       1.815  -6.513  -0.441  1.00  0.00     0.001 C 
ATOM     22  C   UNL     1       2.206  -7.977  -0.250  1.00  0.00     0.001 C 
ENDBRANCH  15  18
ENDBRANCH  13  14
ENDBRANCH   7   8
ENDBRANCH   5   7
ENDBRANCH   2   3
ENDBRANCH   1   2
BRANCH   1  23
ATOM     23  C   UNL     1       3.867   2.421  -3.107  1.00  0.00     0.118 C 
BRANCH  23  24
ATOM     24  N   UNL     1       4.427   1.665  -4.217  1.00  0.00    -0.352 N 
ATOM     25  C   UNL     1       5.092   2.101  -5.339  1.00  0.00     0.251 C 
ATOM     26  H   UNL     1       4.312   0.689  -4.155  1.00  0.00     0.163 HD
ATOM     27  O   UNL     1       5.362   1.299  -6.227  1.00  0.00    -0.269 OA
BRANCH  25  28
ATOM     28  C   UNL     1       5.458   3.528  -5.496  1.00  0.00     0.039 A 
ATOM     29  C   UNL     1       5.262   4.137  -6.739  1.00  0.00     0.014 A 
ATOM     30  C   UNL     1       6.007   4.263  -4.442  1.00  0.00     0.014 A 
ATOM     31  C   UNL     1       5.551   5.495  -6.904  1.00  0.00     0.010 A 
ATOM     32  C   UNL     1       6.226   5.633  -4.587  1.00  0.00     0.010 A 
ATOM     33  C   UNL     1       5.999   6.266  -5.819  1.00  0.00    -0.014 A 
BRANCH  33  34
ATOM     34  C   UNL     1       6.219   7.731  -5.952  1.00  0.00     0.031 A 
ATOM     35  C   UNL     1       7.592   8.318  -5.759  1.00  0.00     0.074 A 
ATOM     36  C   UNL     1       5.169   8.545  -6.187  1.00  0.00     0.049 A 
ATOM     37  N   UNL     1       7.962   9.574  -5.779  1.00  0.00    -0.248 NA
ATOM     38  C   UNL     1       8.688   7.375  -5.488  1.00  0.00     0.031 C 
ATOM     39  C   UNL     1       3.781   8.108  -6.361  1.00  0.00     0.029 A 
ATOM     40  N   UNL     1       5.103   9.911  -6.315  1.00  0.00    -0.354 N 
ATOM     41  C   UNL     1       9.326   9.572  -5.510  1.00  0.00     0.074 A 
ATOM     42  C   UNL     1       9.708   8.195  -5.281  1.00  0.00     0.031 C 
ATOM     43  C   UNL     1       3.009   9.181  -6.598  1.00  0.00     0.029 A 
ATOM     44  C   UNL     1       3.833  10.384  -6.547  1.00  0.00     0.049 A 
ATOM     45  H   UNL     1       5.892  10.496  -6.247  1.00  0.00     0.167 HD
ATOM     46  C   UNL     1      10.188  10.618  -5.474  1.00  0.00     0.031 A 
ATOM     47  C   UNL     1       3.376  11.644  -6.691  1.00  0.00     0.031 A 
ATOM     48  C   UNL     1       9.807  11.987  -5.705  1.00  0.00     0.049 A 
ATOM     49  C   UNL     1       4.347  12.791  -6.618  1.00  0.00     0.074 A 
ATOM     50  C   UNL     1      10.616  13.110  -5.741  1.00  0.00     0.029 A 
ATOM     51  N   UNL     1       8.510  12.424  -5.934  1.00  0.00    -0.354 N 
ATOM     52  N   UNL     1       5.644  12.762  -6.428  1.00  0.00    -0.248 NA
ATOM     53  C   UNL     1       3.793  14.141  -6.790  1.00  0.00     0.031 C 
ATOM     54  C   UNL     1       9.802  14.231  -5.928  1.00  0.00     0.029 A 
ATOM     55  C   UNL     1       8.493  13.801  -6.080  1.00  0.00     0.049 A 
ATOM     56  H   UNL     1       7.719  11.840  -5.985  1.00  0.00     0.167 HD
ATOM     57  C   UNL     1       6.065  14.086  -6.484  1.00  0.00     0.074 A 
ATOM     58  C   UNL     1       4.887  14.888  -6.745  1.00  0.00     0.031 C 
ATOM     59  C   UNL     1       7.315  14.591  -6.335  1.00  0.00     0.031 A 
BRANCH  46  60
ATOM     60  C   UNL     1      11.633  10.323  -5.159  1.00  0.00    -0.014 A 
ATOM     61  C   UNL     1      12.449   9.625  -6.069  1.00  0.00     0.010 A 
ATOM     62  C   UNL     1      12.196  10.789  -3.957  1.00  0.00     0.010 A 
ATOM     63  C   UNL     1      13.786   9.361  -5.763  1.00  0.00     0.020 A 
ATOM     64  C   UNL     1      13.542  10.554  -3.661  1.00  0.00     0.020 A 
ATOM     65  C   UNL     1      14.324   9.825  -4.559  1.00  0.00     0.054 A 
BRANCH  65  66
ATOM     66  S   UNL     1      16.068   9.483  -4.197  1.00  0.00     0.124 S 
ATOM     67  O   UNL     1      16.043   8.046  -3.930  1.00  0.00    -0.237 OA
ATOM     68  O   UNL     1      16.734   9.880  -5.435  1.00  0.00    -0.237 OA
ATOM     69  O   UNL     1      16.355  10.325  -3.039  1.00  0.00    -0.744 OA
ENDBRANCH  65  66
ENDBRANCH  46  60
BRANCH  47  70
ATOM     70  C   UNL     1       1.925  11.887  -6.925  1.00  0.00    -0.014 A 
ATOM     71  C   UNL     1       1.470  12.366  -8.167  1.00  0.00     0.010 A 
ATOM     72  C   UNL     1       0.987  11.634  -5.907  1.00  0.00     0.010 A 
ATOM     73  C   UNL     1       0.109  12.606  -8.379  1.00  0.00     0.020 A 
ATOM     74  C   UNL     1      -0.378  11.842  -6.126  1.00  0.00     0.020 A 
ATOM     75  C   UNL     1      -0.807  12.339  -7.357  1.00  0.00     0.054 A 
BRANCH  75  76
ATOM     76  S   UNL     1      -2.573  12.611  -7.673  1.00  0.00     0.124 S 
ATOM     77  O   UNL     1      -2.657  14.067  -7.692  1.00  0.00    -0.237 OA
ATOM     78  O   UNL     1      -2.767  11.948  -8.961  1.00  0.00    -0.237 OA
ATOM     79  O   UNL     1      -3.227  11.959  -6.541  1.00  0.00    -0.744 OA
ENDBRANCH  75  76
ENDBRANCH  47  70
BRANCH  59  80
ATOM     80  C   UNL     1       7.485  16.082  -6.482  1.00  0.00    -0.014 A 
ATOM     81  C   UNL     1       7.000  16.973  -5.508  1.00  0.00     0.010 A 
ATOM     82  C   UNL     1       8.190  16.593  -7.587  1.00  0.00     0.010 A 
ATOM     83  C   UNL     1       7.188  18.351  -5.655  1.00  0.00     0.020 A 
ATOM     84  C   UNL     1       8.408  17.967  -7.721  1.00  0.00     0.020 A 
ATOM     85  C   UNL     1       7.892  18.838  -6.760  1.00  0.00     0.054 A 
BRANCH  85  86
ATOM     86  S   UNL     1       8.161  20.627  -6.903  1.00  0.00     0.124 S 
ATOM     87  O   UNL     1       6.825  21.108  -7.245  1.00  0.00    -0.237 OA
ATOM     88  O   UNL     1       8.636  20.986  -5.570  1.00  0.00    -0.237 OA
ATOM     89  O   UNL     1       9.156  20.745  -7.966  1.00  0.00    -0.744 OA
ENDBRANCH  85  86
ENDBRANCH  59  80
ENDBRANCH  33  34
ENDBRANCH  25  28
ENDBRANCH  23  24
ENDBRANCH   1  23
TORSDOF 16
