REMARK SMILES O=C(NCCCNC(=O)c1cccc(OS(=O)(=O)c2cccc([N+](=O)[O-])c2)c1)c1ccc(-c2c3nc(c(-c4ccc(S(=O)(=O)[O-])cc4)c4ccc([nH]4)c(-c4ccc(S(=O)(=O)[O-])cc4)c4nc(c(-c5ccc(S(=O)(=O)[O-])cc5)c5ccc2[nH]5)C=C4)C=C3)cc1
REMARK SMILES IDX 5 1 4 2 3 3 1 4 2 5 29 7 30 8 88 9 31 10 87 11 32 12 33 13
REMARK SMILES IDX 34 14 81 15 35 16 86 17 80 18 82 19 36 20 85 21 79 22 78 23
REMARK SMILES IDX 37 25 67 26 48 27 66 28 49 29 52 30 65 31 83 32 50 33 51 34
REMARK SMILES IDX 64 36 84 37 53 38 38 39 39 40 47 41 40 42 46 43 41 44 42 45
REMARK SMILES IDX 43 46 44 47 45 48 68 49 69 50 77 51 70 52 76 53 71 54 72 55
REMARK SMILES IDX 73 56 74 57 75 58 54 59 55 60 63 61 56 62 62 63 57 64 58 65
REMARK SMILES IDX 59 66 60 67 61 68 6 69 7 70 8 71 9 73 10 74 11 75 28 76
REMARK SMILES IDX 12 77 14 78 13 79 15 80 16 81 17 82 18 83 19 84 20 85 27 86
REMARK SMILES IDX 21 87 23 88 22 89 24 90 25 91 26 92
REMARK H PARENT 3 6 82 24 52 35 7 72
REMARK Flexibility Score: inf
ROOT
ATOM      1  C   UNL     1       4.879  -2.354  -0.666  1.00  0.00     0.042 C 
ENDROOT
BRANCH   1   2
ATOM      2  C   UNL     1       4.481  -0.932  -1.020  1.00  0.00     0.118 C 
BRANCH   2   3
ATOM      3  N   UNL     1       3.041  -0.703  -0.975  1.00  0.00    -0.352 N 
ATOM      4  O   UNL     1       1.067   0.050  -0.191  1.00  0.00    -0.269 OA
ATOM      5  C   UNL     1       2.293   0.102  -0.145  1.00  0.00     0.251 C 
ATOM      6  H   UNL     1       2.521  -1.204  -1.645  1.00  0.00     0.163 HD
BRANCH   5   7
ATOM      7  C   UNL     1       2.963   0.993   0.828  1.00  0.00     0.039 A 
ATOM      8  C   UNL     1       4.107   1.705   0.473  1.00  0.00     0.014 A 
ATOM      9  C   UNL     1       2.457   1.098   2.127  1.00  0.00     0.014 A 
ATOM     10  C   UNL     1       4.867   2.322   1.458  1.00  0.00     0.010 A 
ATOM     11  C   UNL     1       3.156   1.835   3.090  1.00  0.00     0.010 A 
ATOM     12  C   UNL     1       4.400   2.404   2.780  1.00  0.00    -0.014 A 
BRANCH  12  13
ATOM     13  C   UNL     1       5.226   3.114   3.794  1.00  0.00     0.031 A 
ATOM     14  C   UNL     1       5.752   2.402   5.015  1.00  0.00     0.074 A 
ATOM     15  C   UNL     1       5.550   4.405   3.577  1.00  0.00     0.049 A 
ATOM     16  N   UNL     1       6.537   2.861   5.959  1.00  0.00    -0.248 NA
ATOM     17  C   UNL     1       5.343   1.002   5.211  1.00  0.00     0.031 C 
ATOM     18  C   UNL     1       5.101   5.207   2.434  1.00  0.00     0.029 A 
ATOM     19  N   UNL     1       6.357   5.262   4.282  1.00  0.00    -0.354 N 
ATOM     20  C   UNL     1       6.690   1.822   6.871  1.00  0.00     0.074 A 
ATOM     21  C   UNL     1       5.896   0.716   6.381  1.00  0.00     0.031 C 
ATOM     22  C   UNL     1       5.695   6.407   2.476  1.00  0.00     0.029 A 
ATOM     23  C   UNL     1       6.502   6.493   3.687  1.00  0.00     0.049 A 
ATOM     24  H   UNL     1       6.790   5.018   5.131  1.00  0.00     0.167 HD
ATOM     25  C   UNL     1       7.426   1.791   8.010  1.00  0.00     0.031 A 
ATOM     26  C   UNL     1       7.197   7.580   4.072  1.00  0.00     0.031 A 
ATOM     27  C   UNL     1       8.221   2.893   8.488  1.00  0.00     0.049 A 
ATOM     28  C   UNL     1       7.985   7.524   5.348  1.00  0.00     0.074 A 
ATOM     29  C   UNL     1       9.031   2.946   9.610  1.00  0.00     0.029 A 
ATOM     30  N   UNL     1       8.304   4.137   7.879  1.00  0.00    -0.354 N 
ATOM     31  N   UNL     1       8.141   6.520   6.177  1.00  0.00    -0.248 NA
ATOM     32  C   UNL     1       8.696   8.748   5.736  1.00  0.00     0.031 C 
ATOM     33  C   UNL     1       9.555   4.239   9.712  1.00  0.00     0.029 A 
ATOM     34  C   UNL     1       9.130   4.972   8.616  1.00  0.00     0.049 A 
ATOM     35  H   UNL     1       7.844   4.390   7.046  1.00  0.00     0.167 HD
ATOM     36  C   UNL     1       8.993   6.983   7.172  1.00  0.00     0.074 A 
ATOM     37  C   UNL     1       9.331   8.350   6.830  1.00  0.00     0.031 C 
ATOM     38  C   UNL     1       9.456   6.332   8.268  1.00  0.00     0.031 A 
BRANCH  25  39
ATOM     39  C   UNL     1       7.380   0.533   8.843  1.00  0.00    -0.014 A 
ATOM     40  C   UNL     1       7.979  -0.662   8.408  1.00  0.00     0.010 A 
ATOM     41  C   UNL     1       6.766   0.564  10.110  1.00  0.00     0.010 A 
ATOM     42  C   UNL     1       7.927  -1.812   9.203  1.00  0.00     0.020 A 
ATOM     43  C   UNL     1       6.737  -0.575  10.921  1.00  0.00     0.020 A 
ATOM     44  C   UNL     1       7.302  -1.762  10.453  1.00  0.00     0.054 A 
BRANCH  44  45
ATOM     45  S   UNL     1       7.261  -3.265  11.468  1.00  0.00     0.124 S 
ATOM     46  O   UNL     1       6.296  -4.090  10.744  1.00  0.00    -0.237 OA
ATOM     47  O   UNL     1       8.645  -3.727  11.413  1.00  0.00    -0.237 OA
ATOM     48  O   UNL     1       6.816  -2.791  12.776  1.00  0.00    -0.744 OA
ENDBRANCH  44  45
ENDBRANCH  25  39
BRANCH  26  49
ATOM     49  C   UNL     1       7.168   8.811   3.235  1.00  0.00    -0.014 A 
ATOM     50  C   UNL     1       8.322   9.245   2.559  1.00  0.00     0.010 A 
ATOM     51  C   UNL     1       5.976   9.546   3.096  1.00  0.00     0.010 A 
ATOM     52  C   UNL     1       8.288  10.402   1.776  1.00  0.00     0.020 A 
ATOM     53  C   UNL     1       5.930  10.683   2.287  1.00  0.00     0.020 A 
ATOM     54  C   UNL     1       7.091  11.112   1.643  1.00  0.00     0.054 A 
BRANCH  54  55
ATOM     55  S   UNL     1       7.061  12.585   0.586  1.00  0.00     0.124 S 
ATOM     56  O   UNL     1       7.803  13.551   1.390  1.00  0.00    -0.237 OA
ATOM     57  O   UNL     1       7.732  12.118  -0.625  1.00  0.00    -0.237 OA
ATOM     58  O   UNL     1       5.635  12.864   0.429  1.00  0.00    -0.744 OA
ENDBRANCH  54  55
ENDBRANCH  26  49
BRANCH  38  59
ATOM     59  C   UNL     1      10.422   7.077   9.152  1.00  0.00    -0.014 A 
ATOM     60  C   UNL     1      10.009   8.164   9.944  1.00  0.00     0.010 A 
ATOM     61  C   UNL     1      11.765   6.662   9.206  1.00  0.00     0.010 A 
ATOM     62  C   UNL     1      10.932   8.851  10.736  1.00  0.00     0.020 A 
ATOM     63  C   UNL     1      12.684   7.326  10.022  1.00  0.00     0.020 A 
ATOM     64  C   UNL     1      12.265   8.429  10.767  1.00  0.00     0.054 A 
BRANCH  64  65
ATOM     65  S   UNL     1      13.441   9.323  11.819  1.00  0.00     0.124 S 
ATOM     66  O   UNL     1      13.633  10.564  11.073  1.00  0.00    -0.237 OA
ATOM     67  O   UNL     1      12.710   9.454  13.078  1.00  0.00    -0.237 OA
ATOM     68  O   UNL     1      14.603   8.440  11.869  1.00  0.00    -0.744 OA
ENDBRANCH  64  65
ENDBRANCH  38  59
ENDBRANCH  12  13
ENDBRANCH   5   7
ENDBRANCH   2   3
ENDBRANCH   1   2
BRANCH   1  69
ATOM     69  C   UNL     1       4.445  -3.392  -1.686  1.00  0.00     0.118 C 
BRANCH  69  70
ATOM     70  N   UNL     1       5.040  -3.171  -3.002  1.00  0.00    -0.352 N 
ATOM     71  C   UNL     1       5.853  -3.989  -3.750  1.00  0.00     0.251 C 
ATOM     72  H   UNL     1       4.825  -2.305  -3.417  1.00  0.00     0.163 HD
ATOM     73  O   UNL     1       6.402  -3.565  -4.761  1.00  0.00    -0.269 OA
BRANCH  71  74
ATOM     74  C   UNL     1       6.061  -5.391  -3.334  1.00  0.00     0.043 A 
ATOM     75  C   UNL     1       7.345  -5.935  -3.336  1.00  0.00     0.014 A 
ATOM     76  C   UNL     1       4.968  -6.164  -2.939  1.00  0.00     0.062 A 
ATOM     77  C   UNL     1       7.536  -7.234  -2.864  1.00  0.00     0.005 A 
ATOM     78  C   UNL     1       5.165  -7.426  -2.389  1.00  0.00     0.143 A 
ATOM     79  C   UNL     1       6.451  -7.969  -2.371  1.00  0.00     0.048 A 
BRANCH  78  80
ATOM     80  O   UNL     1       4.160  -8.179  -1.831  1.00  0.00    -0.379 OA
BRANCH  80  81
ATOM     81  S   UNL     1       2.736  -7.494  -1.404  1.00  0.00     0.339 S 
ATOM     82  O   UNL     1       2.991  -6.444  -0.439  1.00  0.00    -0.181 OA
ATOM     83  O   UNL     1       1.961  -7.240  -2.606  1.00  0.00    -0.181 OA
BRANCH  81  84
ATOM     84  C   UNL     1       1.852  -8.768  -0.541  1.00  0.00     0.112 A 
ATOM     85  C   UNL     1       0.836  -8.396   0.348  1.00  0.00     0.024 A 
ATOM     86  C   UNL     1       2.159 -10.110  -0.768  1.00  0.00     0.109 A 
ATOM     87  C   UNL     1       0.102  -9.380   1.009  1.00  0.00     0.009 A 
ATOM     88  C   UNL     1       1.415 -11.088  -0.097  1.00  0.00     0.270 A 
ATOM     89  C   UNL     1       0.387 -10.729   0.788  1.00  0.00     0.086 A 
BRANCH  88  90
ATOM     90  N   UNL     1       1.709 -12.507  -0.336  1.00  0.00     0.062 N 
ATOM     91  O   UNL     1       1.014 -13.348   0.251  1.00  0.00    -0.258 OA
ATOM     92  O   UNL     1       2.632 -12.777  -1.117  1.00  0.00    -0.258 OA
ENDBRANCH  88  90
ENDBRANCH  81  84
ENDBRANCH  80  81
ENDBRANCH  78  80
ENDBRANCH  71  74
ENDBRANCH  69  70
ENDBRANCH   1  69
TORSDOF 17
