REMARK SMILES O=C(NCCCNC(=O)[C@@H]1CCCC[C@@H]1NS(=O)(=O)c1ccc2ccccc2c1)c1ccc(-c2c3nc(c(-c4ccc(S(=O)(=O)[O-])cc4)c4ccc([nH]4)c(-c4ccc(S(=O)(=O)[O-])cc4)c4nc(c(-c5ccc(S(=O)(=O)[O-])cc5)c5ccc2[nH]5)C=C4)C=C3)cc1
REMARK SMILES IDX 5 1 4 2 3 3 1 4 2 5 30 7 31 8 89 9 32 10 88 11 33 12 34 13
REMARK SMILES IDX 35 14 82 15 36 16 87 17 81 18 83 19 37 20 86 21 80 22 79 23
REMARK SMILES IDX 38 25 68 26 49 27 67 28 50 29 53 30 66 31 84 32 51 33 52 34
REMARK SMILES IDX 65 36 85 37 54 38 39 39 40 40 48 41 41 42 47 43 42 44 43 45
REMARK SMILES IDX 44 46 45 47 46 48 69 49 70 50 78 51 71 52 77 53 72 54 73 55
REMARK SMILES IDX 74 56 75 57 76 58 55 59 56 60 64 61 57 62 63 63 58 64 59 65
REMARK SMILES IDX 60 66 61 67 62 68 6 69 7 70 8 71 9 73 10 74 11 75 15 76
REMARK SMILES IDX 12 77 14 78 13 79 16 80 17 82 18 83 19 84 20 85 21 86 29 87
REMARK SMILES IDX 22 88 28 89 23 90 27 91 24 92 26 93 25 94
REMARK H PARENT 3 6 83 24 53 35 7 72 16 81
REMARK Flexibility Score: inf
ROOT
ATOM      1  C   UNL     1       4.561  -1.025  -3.027  1.00  0.00     0.042 C 
ENDROOT
BRANCH   1   2
ATOM      2  C   UNL     1       4.234  -0.638  -1.583  1.00  0.00     0.118 C 
BRANCH   2   3
ATOM      3  N   UNL     1       2.853  -0.326  -1.258  1.00  0.00    -0.352 N 
ATOM      4  O   UNL     1       1.047  -0.134   0.087  1.00  0.00    -0.269 OA
ATOM      5  C   UNL     1       2.235  -0.413  -0.030  1.00  0.00     0.251 C 
ATOM      6  H   UNL     1       2.291  -0.015  -2.005  1.00  0.00     0.163 HD
BRANCH   5   7
ATOM      7  C   UNL     1       3.019  -0.863   1.140  1.00  0.00     0.039 A 
ATOM      8  C   UNL     1       4.213  -0.222   1.475  1.00  0.00     0.014 A 
ATOM      9  C   UNL     1       2.569  -1.954   1.889  1.00  0.00     0.014 A 
ATOM     10  C   UNL     1       5.024  -0.753   2.473  1.00  0.00     0.010 A 
ATOM     11  C   UNL     1       3.356  -2.446   2.935  1.00  0.00     0.010 A 
ATOM     12  C   UNL     1       4.606  -1.872   3.213  1.00  0.00    -0.014 A 
BRANCH  12  13
ATOM     13  C   UNL     1       5.480  -2.399   4.294  1.00  0.00     0.031 A 
ATOM     14  C   UNL     1       6.116  -3.759   4.185  1.00  0.00     0.074 A 
ATOM     15  C   UNL     1       5.729  -1.618   5.364  1.00  0.00     0.049 A 
ATOM     16  N   UNL     1       6.920  -4.361   5.026  1.00  0.00    -0.248 NA
ATOM     17  C   UNL     1       5.809  -4.550   2.982  1.00  0.00     0.031 C 
ATOM     18  C   UNL     1       5.163  -0.284   5.583  1.00  0.00     0.029 A 
ATOM     19  N   UNL     1       6.531  -1.821   6.457  1.00  0.00    -0.354 N 
ATOM     20  C   UNL     1       7.210  -5.598   4.461  1.00  0.00     0.074 A 
ATOM     21  C   UNL     1       6.470  -5.676   3.220  1.00  0.00     0.031 C 
ATOM     22  C   UNL     1       5.663   0.225   6.718  1.00  0.00     0.029 A 
ATOM     23  C   UNL     1       6.538  -0.765   7.336  1.00  0.00     0.049 A 
ATOM     24  H   UNL     1       7.051  -2.645   6.599  1.00  0.00     0.167 HD
ATOM     25  C   UNL     1       8.027  -6.574   4.930  1.00  0.00     0.031 A 
ATOM     26  C   UNL     1       7.162  -0.612   8.519  1.00  0.00     0.031 A 
ATOM     27  C   UNL     1       8.751  -6.494   6.173  1.00  0.00     0.049 A 
ATOM     28  C   UNL     1       8.039  -1.720   9.027  1.00  0.00     0.074 A 
ATOM     29  C   UNL     1       9.601  -7.431   6.737  1.00  0.00     0.029 A 
ATOM     30  N   UNL     1       8.716  -5.415   7.044  1.00  0.00    -0.354 N 
ATOM     31  N   UNL     1       8.308  -2.877   8.470  1.00  0.00    -0.248 NA
ATOM     32  C   UNL     1       8.703  -1.499  10.318  1.00  0.00     0.031 C 
ATOM     33  C   UNL     1      10.045  -6.936   7.969  1.00  0.00     0.029 A 
ATOM     34  C   UNL     1       9.517  -5.668   8.146  1.00  0.00     0.049 A 
ATOM     35  H   UNL     1       8.197  -4.591   6.901  1.00  0.00     0.167 HD
ATOM     36  C   UNL     1       9.182  -3.519   9.339  1.00  0.00     0.074 A 
ATOM     37  C   UNL     1       9.420  -2.607  10.441  1.00  0.00     0.031 C 
ATOM     38  C   UNL     1       9.733  -4.754   9.239  1.00  0.00     0.031 A 
BRANCH  25  39
ATOM     39  C   UNL     1       8.174  -7.825   4.100  1.00  0.00    -0.014 A 
ATOM     40  C   UNL     1       8.894  -7.812   2.892  1.00  0.00     0.010 A 
ATOM     41  C   UNL     1       7.640  -9.043   4.561  1.00  0.00     0.010 A 
ATOM     42  C   UNL     1       9.050  -8.984   2.146  1.00  0.00     0.020 A 
ATOM     43  C   UNL     1       7.816 -10.223   3.831  1.00  0.00     0.020 A 
ATOM     44  C   UNL     1       8.508 -10.182   2.619  1.00  0.00     0.054 A 
BRANCH  44  45
ATOM     45  S   UNL     1       8.751 -11.692   1.642  1.00  0.00     0.124 S 
ATOM     46  O   UNL     1       7.861 -11.461   0.507  1.00  0.00    -0.237 OA
ATOM     47  O   UNL     1      10.179 -11.650   1.338  1.00  0.00    -0.237 OA
ATOM     48  O   UNL     1       8.341 -12.762   2.547  1.00  0.00    -0.744 OA
ENDBRANCH  44  45
ENDBRANCH  25  39
BRANCH  26  49
ATOM     49  C   UNL     1       6.949   0.630   9.312  1.00  0.00    -0.014 A 
ATOM     50  C   UNL     1       7.987   1.558   9.499  1.00  0.00     0.010 A 
ATOM     51  C   UNL     1       5.686   0.893   9.875  1.00  0.00     0.010 A 
ATOM     52  C   UNL     1       7.773   2.715  10.254  1.00  0.00     0.020 A 
ATOM     53  C   UNL     1       5.459   2.064  10.602  1.00  0.00     0.020 A 
ATOM     54  C   UNL     1       6.510   2.960  10.801  1.00  0.00     0.054 A 
BRANCH  54  55
ATOM     55  S   UNL     1       6.239   4.486  11.743  1.00  0.00     0.124 S 
ATOM     56  O   UNL     1       6.897   4.180  13.009  1.00  0.00    -0.237 OA
ATOM     57  O   UNL     1       6.897   5.492  10.913  1.00  0.00    -0.237 OA
ATOM     58  O   UNL     1       4.783   4.596  11.803  1.00  0.00    -0.744 OA
ENDBRANCH  54  55
ENDBRANCH  26  49
BRANCH  38  59
ATOM     59  C   UNL     1      10.664  -5.175  10.344  1.00  0.00    -0.014 A 
ATOM     60  C   UNL     1      10.178  -5.485  11.627  1.00  0.00     0.010 A 
ATOM     61  C   UNL     1      12.044  -5.274  10.090  1.00  0.00     0.010 A 
ATOM     62  C   UNL     1      11.061  -5.840  12.649  1.00  0.00     0.020 A 
ATOM     63  C   UNL     1      12.927  -5.656  11.103  1.00  0.00     0.020 A 
ATOM     64  C   UNL     1      12.431  -5.917  12.382  1.00  0.00     0.054 A 
BRANCH  64  65
ATOM     65  S   UNL     1      13.557  -6.393  13.722  1.00  0.00     0.124 S 
ATOM     66  O   UNL     1      13.603  -5.174  14.526  1.00  0.00    -0.237 OA
ATOM     67  O   UNL     1      12.867  -7.525  14.335  1.00  0.00    -0.237 OA
ATOM     68  O   UNL     1      14.798  -6.729  13.028  1.00  0.00    -0.744 OA
ENDBRANCH  64  65
ENDBRANCH  38  59
ENDBRANCH  12  13
ENDBRANCH   5   7
ENDBRANCH   2   3
ENDBRANCH   1   2
BRANCH   1  69
ATOM     69  C   UNL     1       3.651  -0.554  -4.158  1.00  0.00     0.117 C 
BRANCH  69  70
ATOM     70  N   UNL     1       4.000   0.701  -4.799  1.00  0.00    -0.356 N 
ATOM     71  C   UNL     1       4.732   0.986  -5.908  1.00  0.00     0.224 C 
ATOM     72  H   UNL     1       3.638   1.495  -4.345  1.00  0.00     0.163 HD
ATOM     73  O   UNL     1       4.490   2.050  -6.494  1.00  0.00    -0.275 OA
BRANCH  71  74
ATOM     74  C   UNL     1       5.870   0.138  -6.439  1.00  0.00     0.096 C 
ATOM     75  C   UNL     1       5.741  -1.372  -6.330  1.00  0.00     0.015 C 
ATOM     76  C   UNL     1       7.253   0.710  -6.052  1.00  0.00     0.082 C 
ATOM     77  C   UNL     1       6.821  -2.057  -7.149  1.00  0.00     0.001 C 
ATOM     78  C   UNL     1       8.393  -0.119  -6.687  1.00  0.00     0.021 C 
ATOM     79  C   UNL     1       8.194  -1.639  -6.642  1.00  0.00     0.002 C 
BRANCH  76  80
ATOM     80  N   UNL     1       7.467   0.795  -4.585  1.00  0.00    -0.207 NA
ATOM     81  H   UNL     1       8.212   0.137  -4.356  1.00  0.00     0.141 HD
BRANCH  80  82
ATOM     82  S   UNL     1       7.891   2.289  -3.877  1.00  0.00     0.240 S 
ATOM     83  O   UNL     1       8.598   1.950  -2.663  1.00  0.00    -0.207 OA
ATOM     84  O   UNL     1       8.484   3.139  -4.886  1.00  0.00    -0.207 OA
BRANCH  82  85
ATOM     85  C   UNL     1       6.314   2.960  -3.404  1.00  0.00     0.083 A 
ATOM     86  C   UNL     1       5.751   2.587  -2.184  1.00  0.00     0.022 A 
ATOM     87  C   UNL     1       5.604   3.775  -4.287  1.00  0.00     0.030 A 
ATOM     88  C   UNL     1       4.406   2.866  -1.931  1.00  0.00     0.010 A 
ATOM     89  C   UNL     1       4.236   4.011  -4.066  1.00  0.00    -0.017 A 
ATOM     90  C   UNL     1       3.616   3.494  -2.904  1.00  0.00    -0.018 A 
ATOM     91  C   UNL     1       3.442   4.629  -5.044  1.00  0.00     0.009 A 
ATOM     92  C   UNL     1       2.217   3.534  -2.791  1.00  0.00     0.009 A 
ATOM     93  C   UNL     1       2.051   4.639  -4.931  1.00  0.00     0.001 A 
ATOM     94  C   UNL     1       1.438   4.072  -3.817  1.00  0.00     0.001 A 
ENDBRANCH  82  85
ENDBRANCH  80  82
ENDBRANCH  76  80
ENDBRANCH  71  74
ENDBRANCH  69  70
ENDBRANCH   1  69
TORSDOF 16
