REMARK SMILES CN(C)c1ccc(CCC(=O)N2C[C@@H](C(=O)NCCCNC(=O)c3ccc(-c4c5nc(c(-c6ccc(S(=O)(=O)[O-])cc6)c6ccc([nH]6)c(-c6ccc(S(=O)(=O)[O-])cc6)c6nc(c(-c7ccc(S(=O)(=O)[O-])cc7)c7ccc4[nH]7)C=C6)C=C5)cc3)[C@H](c3cccnc3)C2)cc1
REMARK SMILES IDX 18 1 17 2 15 3 16 4 14 6 12 7 13 8 91 9 84 10 10 11 11 12
REMARK SMILES IDX 9 13 8 14 7 15 4 16 5 17 93 18 6 19 92 20 2 21 1 22 3 23
REMARK SMILES IDX 85 24 86 25 90 26 87 27 89 28 88 29 19 30 20 31 21 32 22 33
REMARK SMILES IDX 23 35 24 36 25 37 83 38 26 39 82 40 27 41 28 42 29 43 76 44
REMARK SMILES IDX 30 45 81 46 75 47 77 48 31 49 80 50 74 51 73 52 32 54 62 55
REMARK SMILES IDX 43 56 61 57 44 58 47 59 60 60 78 61 45 62 46 63 59 65 79 66
REMARK SMILES IDX 48 67 33 68 34 69 42 70 35 71 41 72 36 73 37 74 38 75 39 76
REMARK SMILES IDX 40 77 63 78 64 79 72 80 65 81 71 82 66 83 67 84 68 85 69 86
REMARK SMILES IDX 70 87 49 88 50 89 58 90 51 91 57 92 52 93 53 94 54 95 55 96
REMARK SMILES IDX 56 97
REMARK H PARENT 17 5 21 34 77 53 47 64
REMARK Flexibility Score: inf
ROOT
ATOM      1  C   UNL     1      -2.941   2.793  -2.084  1.00  0.00     0.117 C 
ENDROOT
BRANCH   1   2
ATOM      2  N   UNL     1      -1.645   2.155  -2.201  1.00  0.00    -0.356 N 
ATOM      3  C   UNL     1      -0.671   2.286  -3.137  1.00  0.00     0.225 C 
ATOM      4  O   UNL     1       0.069   1.323  -3.349  1.00  0.00    -0.275 OA
ATOM      5  H   UNL     1      -1.435   1.520  -1.479  1.00  0.00     0.163 HD
BRANCH   3   6
ATOM      6  C   UNL     1      -0.397   3.587  -3.845  1.00  0.00     0.107 C 
ATOM      7  N   UNL     1      -0.190   5.863  -3.383  1.00  0.00    -0.341 N 
ATOM      8  C   UNL     1      -0.022   4.581  -2.800  1.00  0.00     0.133 C 
ATOM      9  C   UNL     1      -1.126   5.795  -4.510  1.00  0.00     0.128 C 
ATOM     10  C   UNL     1      -1.435   4.273  -4.738  1.00  0.00     0.054 C 
BRANCH   7  11
ATOM     11  C   UNL     1       0.362   6.995  -2.826  1.00  0.00     0.222 C 
ATOM     12  O   UNL     1      -0.048   8.121  -3.110  1.00  0.00    -0.275 OA
BRANCH  11  13
ATOM     13  C   UNL     1       1.624   6.814  -1.942  1.00  0.00     0.105 C 
BRANCH  13  14
ATOM     14  C   UNL     1       1.499   6.352  -0.470  1.00  0.00     0.045 C 
BRANCH  14  15
ATOM     15  C   UNL     1       1.432   4.859  -0.168  1.00  0.00    -0.047 A 
ATOM     16  C   UNL     1       1.087   2.030   0.113  1.00  0.00     0.036 A 
ATOM     17  C   UNL     1       0.168   2.937   0.656  1.00  0.00     0.026 A 
ATOM     18  C   UNL     1       2.225   2.566  -0.501  1.00  0.00     0.026 A 
ATOM     19  C   UNL     1       0.334   4.327   0.522  1.00  0.00     0.006 A 
ATOM     20  C   UNL     1       2.413   3.958  -0.616  1.00  0.00     0.006 A 
BRANCH  16  21
ATOM     21  N   UNL     1       0.870   0.658   0.254  1.00  0.00    -0.378 N 
ATOM     22  C   UNL     1       1.494   0.066   1.430  1.00  0.00     0.143 C 
ATOM     23  C   UNL     1       0.847  -0.190  -0.938  1.00  0.00     0.143 C 
ENDBRANCH  16  21
ENDBRANCH  14  15
ENDBRANCH  13  14
ENDBRANCH  11  13
ENDBRANCH   7  11
BRANCH  10  24
ATOM     24  C   UNL     1      -1.285   3.634  -6.111  1.00  0.00    -0.024 A 
ATOM     25  C   UNL     1      -1.428   2.236  -6.228  1.00  0.00     0.007 A 
ATOM     26  C   UNL     1      -0.871   4.300  -7.255  1.00  0.00     0.115 A 
ATOM     27  C   UNL     1      -1.062   1.571  -7.390  1.00  0.00     0.020 A 
ATOM     28  N   UNL     1      -0.533   3.682  -8.414  1.00  0.00    -0.264 NA
ATOM     29  C   UNL     1      -0.614   2.333  -8.447  1.00  0.00     0.111 A 
ENDBRANCH  10  24
ENDBRANCH   3   6
ENDBRANCH   1   2
BRANCH   1  30
ATOM     30  C   UNL     1      -3.957   2.052  -2.951  1.00  0.00     0.042 C 
BRANCH  30  31
ATOM     31  C   UNL     1      -4.172   0.603  -2.515  1.00  0.00     0.118 C 
BRANCH  31  32
ATOM     32  N   UNL     1      -5.052   0.518  -1.363  1.00  0.00    -0.352 N 
ATOM     33  C   UNL     1      -6.286  -0.077  -1.263  1.00  0.00     0.251 C 
ATOM     34  H   UNL     1      -4.718   0.945  -0.541  1.00  0.00     0.163 HD
ATOM     35  O   UNL     1      -7.003   0.184  -0.303  1.00  0.00    -0.269 OA
BRANCH  33  36
ATOM     36  C   UNL     1      -6.751  -1.025  -2.304  1.00  0.00     0.039 A 
ATOM     37  C   UNL     1      -8.088  -0.978  -2.707  1.00  0.00     0.014 A 
ATOM     38  C   UNL     1      -5.898  -1.998  -2.834  1.00  0.00     0.014 A 
ATOM     39  C   UNL     1      -8.563  -1.891  -3.654  1.00  0.00     0.010 A 
ATOM     40  C   UNL     1      -6.356  -2.864  -3.827  1.00  0.00     0.010 A 
ATOM     41  C   UNL     1      -7.700  -2.837  -4.230  1.00  0.00    -0.014 A 
BRANCH  41  42
ATOM     42  C   UNL     1      -8.200  -3.837  -5.211  1.00  0.00     0.031 A 
ATOM     43  C   UNL     1      -8.200  -5.303  -4.858  1.00  0.00     0.074 A 
ATOM     44  C   UNL     1      -8.626  -3.439  -6.426  1.00  0.00     0.049 A 
ATOM     45  N   UNL     1      -8.552  -6.329  -5.590  1.00  0.00    -0.248 NA
ATOM     46  C   UNL     1      -7.721  -5.664  -3.513  1.00  0.00     0.031 C 
ATOM     47  C   UNL     1      -8.658  -2.055  -6.902  1.00  0.00     0.029 A 
ATOM     48  N   UNL     1      -9.113  -4.165  -7.484  1.00  0.00    -0.354 N 
ATOM     49  C   UNL     1      -8.324  -7.453  -4.804  1.00  0.00     0.074 A 
ATOM     50  C   UNL     1      -7.756  -6.987  -3.557  1.00  0.00     0.031 C 
ATOM     51  C   UNL     1      -9.164  -2.030  -8.147  1.00  0.00     0.029 A 
ATOM     52  C   UNL     1      -9.457  -3.396  -8.571  1.00  0.00     0.049 A 
ATOM     53  H   UNL     1      -9.207  -5.145  -7.467  1.00  0.00     0.167 HD
ATOM     54  C   UNL     1      -8.582  -8.754  -5.081  1.00  0.00     0.031 A 
ATOM     55  C   UNL     1      -9.952  -3.749  -9.774  1.00  0.00     0.031 A 
ATOM     56  C   UNL     1      -9.162  -9.218  -6.313  1.00  0.00     0.049 A 
ATOM     57  C   UNL     1     -10.223  -5.202 -10.062  1.00  0.00     0.074 A 
ATOM     58  C   UNL     1      -9.494 -10.512  -6.675  1.00  0.00     0.029 A 
ATOM     59  N   UNL     1      -9.505  -8.404  -7.382  1.00  0.00    -0.354 N 
ATOM     60  N   UNL     1     -10.036  -6.245  -9.289  1.00  0.00    -0.248 NA
ATOM     61  C   UNL     1     -10.787  -5.522 -11.381  1.00  0.00     0.031 C 
ATOM     62  C   UNL     1     -10.001 -10.486  -7.979  1.00  0.00     0.029 A 
ATOM     63  C   UNL     1     -10.036  -9.169  -8.407  1.00  0.00     0.049 A 
ATOM     64  H   UNL     1      -9.389  -7.427  -7.408  1.00  0.00     0.167 HD
ATOM     65  C   UNL     1     -10.495  -7.340 -10.014  1.00  0.00     0.074 A 
ATOM     66  C   UNL     1     -10.976  -6.831 -11.282  1.00  0.00     0.031 C 
ATOM     67  C   UNL     1     -10.522  -8.648  -9.659  1.00  0.00     0.031 A 
BRANCH  54  68
ATOM     68  C   UNL     1      -8.237  -9.772  -4.025  1.00  0.00    -0.014 A 
ATOM     69  C   UNL     1      -8.975  -9.855  -2.830  1.00  0.00     0.010 A 
ATOM     70  C   UNL     1      -7.187 -10.682  -4.245  1.00  0.00     0.010 A 
ATOM     71  C   UNL     1      -8.642 -10.800  -1.856  1.00  0.00     0.020 A 
ATOM     72  C   UNL     1      -6.869 -11.648  -3.285  1.00  0.00     0.020 A 
ATOM     73  C   UNL     1      -7.587 -11.688  -2.088  1.00  0.00     0.054 A 
BRANCH  73  74
ATOM     74  S   UNL     1      -7.188 -12.915  -0.813  1.00  0.00     0.124 S 
ATOM     75  O   UNL     1      -6.541 -12.091   0.204  1.00  0.00    -0.237 OA
ATOM     76  O   UNL     1      -8.501 -13.443  -0.452  1.00  0.00    -0.237 OA
ATOM     77  O   UNL     1      -6.310 -13.858  -1.502  1.00  0.00    -0.744 OA
ENDBRANCH  73  74
ENDBRANCH  54  68
BRANCH  55  78
ATOM     78  C   UNL     1     -10.249  -2.706 -10.794  1.00  0.00    -0.014 A 
ATOM     79  C   UNL     1     -11.579  -2.397 -11.130  1.00  0.00     0.010 A 
ATOM     80  C   UNL     1      -9.203  -2.021 -11.439  1.00  0.00     0.010 A 
ATOM     81  C   UNL     1     -11.858  -1.441 -12.111  1.00  0.00     0.020 A 
ATOM     82  C   UNL     1      -9.479  -1.044 -12.400  1.00  0.00     0.020 A 
ATOM     83  C   UNL     1     -10.805  -0.771 -12.741  1.00  0.00     0.054 A 
BRANCH  83  84
ATOM     84  S   UNL     1     -11.191   0.491 -13.985  1.00  0.00     0.124 S 
ATOM     85  O   UNL     1     -11.595  -0.323 -15.127  1.00  0.00    -0.237 OA
ATOM     86  O   UNL     1     -12.258   1.254 -13.342  1.00  0.00    -0.237 OA
ATOM     87  O   UNL     1      -9.930   1.212 -14.142  1.00  0.00    -0.744 OA
ENDBRANCH  83  84
ENDBRANCH  55  78
BRANCH  67  88
ATOM     88  C   UNL     1     -11.140  -9.619 -10.629  1.00  0.00    -0.014 A 
ATOM     89  C   UNL     1     -10.488  -9.982 -11.820  1.00  0.00     0.010 A 
ATOM     90  C   UNL     1     -12.376 -10.214 -10.314  1.00  0.00     0.010 A 
ATOM     91  C   UNL     1     -11.078 -10.899 -12.696  1.00  0.00     0.020 A 
ATOM     92  C   UNL     1     -12.955 -11.151 -11.174  1.00  0.00     0.020 A 
ATOM     93  C   UNL     1     -12.309 -11.475 -12.368  1.00  0.00     0.054 A 
BRANCH  93  94
ATOM     94  S   UNL     1     -13.037 -12.691 -13.501  1.00  0.00     0.124 S 
ATOM     95  O   UNL     1     -13.528 -11.842 -14.582  1.00  0.00    -0.237 OA
ATOM     96  O   UNL     1     -11.896 -13.540 -13.837  1.00  0.00    -0.237 OA
ATOM     97  O   UNL     1     -14.071 -13.338 -12.697  1.00  0.00    -0.744 OA
ENDBRANCH  93  94
ENDBRANCH  67  88
ENDBRANCH  41  42
ENDBRANCH  33  36
ENDBRANCH  31  32
ENDBRANCH  30  31
ENDBRANCH   1  30
TORSDOF 19
