REMARK SMILES Cc1c(NC(=O)c2cccc(-c3cc4ccccc4oc3=O)c2)cccc1C(=O)NCCCNC(=O)c1ccc(-c2c3nc(c(-c4ccc(S(=O)(=O)[O-])cc4)c4ccc([nH]4)c(-c4ccc(S(=O)(=O)[O-])cc4)c4nc(c(-c5ccc(S(=O)(=O)[O-])cc5)c5ccc2[nH]5)C=C4)C=C3)cc1
REMARK SMILES IDX 32 1 31 2 30 3 28 4 29 5 27 7 1 8 2 9 3 10 24 11 26 12 25 13
REMARK SMILES IDX 4 14 5 15 6 17 7 18 8 19 23 20 9 21 11 22 10 23 12 24 13 25
REMARK SMILES IDX 21 26 14 27 20 28 22 29 15 30 19 31 16 32 18 33 17 34 33 35
REMARK SMILES IDX 34 36 35 37 36 39 37 40 38 41 96 42 39 43 95 44 40 45 41 46
REMARK SMILES IDX 42 47 89 48 43 49 94 50 88 51 90 52 44 53 93 54 87 55 86 56
REMARK SMILES IDX 45 58 75 59 56 60 74 61 57 62 60 63 73 64 91 65 58 66 59 67
REMARK SMILES IDX 72 69 92 70 61 71 46 72 47 73 55 74 48 75 54 76 49 77 50 78
REMARK SMILES IDX 51 79 52 80 53 81 76 82 77 83 85 84 78 85 84 86 79 87 80 88
REMARK SMILES IDX 81 89 82 90 83 91 62 92 63 93 71 94 64 95 70 96 65 97 66 98
REMARK SMILES IDX 67 99 68 100 69 101
REMARK H PARENT 30 6 4 16 34 38 90 57 60 68
REMARK Flexibility Score: inf
ROOT
ATOM      1  C   UNL     1       4.526  -0.042   0.637  1.00  0.00     0.042 C 
ENDROOT
BRANCH   1   2
ATOM      2  C   UNL     1       3.310   0.700   1.445  1.00  0.00     0.118 C 
BRANCH   2   3
ATOM      3  N   UNL     1       2.374   1.581   0.695  1.00  0.00    -0.352 N 
ATOM      4  C   UNL     1       1.000   1.675   0.520  1.00  0.00     0.251 C 
ATOM      5  O   UNL     1       0.506   2.734   0.121  1.00  0.00    -0.269 OA
ATOM      6  H   UNL     1       2.853   2.280   0.194  1.00  0.00     0.163 HD
BRANCH   4   7
ATOM      7  C   UNL     1       0.033   0.554   0.756  1.00  0.00     0.044 A 
ATOM      8  C   UNL     1       1.625  -1.283   0.002  1.00  0.00     0.047 C 
ATOM      9  C   UNL     1       0.362  -0.801   0.660  1.00  0.00    -0.015 A 
ATOM     10  C   UNL     1      -0.599  -1.780   0.981  1.00  0.00     0.045 A 
ATOM     11  C   UNL     1      -1.941  -1.446   1.159  1.00  0.00     0.026 A 
ATOM     12  C   UNL     1      -1.338   0.879   0.914  1.00  0.00     0.014 A 
ATOM     13  C   UNL     1      -2.319  -0.111   1.076  1.00  0.00     0.003 A 
BRANCH  10  14
ATOM     14  N   UNL     1      -0.130  -3.093   1.091  1.00  0.00    -0.322 N 
ATOM     15  C   UNL     1      -0.539  -4.247   0.480  1.00  0.00     0.255 C 
ATOM     16  H   UNL     1       0.624  -3.206   1.714  1.00  0.00     0.170 HD
ATOM     17  O   UNL     1       0.024  -5.302   0.777  1.00  0.00    -0.269 OA
BRANCH  15  18
ATOM     18  C   UNL     1      -1.565  -4.255  -0.590  1.00  0.00     0.040 A 
ATOM     19  C   UNL     1      -2.304  -5.429  -0.749  1.00  0.00     0.014 A 
ATOM     20  C   UNL     1      -1.736  -3.204  -1.502  1.00  0.00     0.022 A 
ATOM     21  C   UNL     1      -3.259  -5.521  -1.756  1.00  0.00     0.001 A 
ATOM     22  C   UNL     1      -2.698  -3.277  -2.518  1.00  0.00    -0.010 A 
ATOM     23  C   UNL     1      -3.466  -4.446  -2.622  1.00  0.00     0.009 A 
BRANCH  22  24
ATOM     24  C   UNL     1      -2.834  -2.251  -3.591  1.00  0.00     0.068 A 
ATOM     25  C   UNL     1      -2.652  -0.925  -3.395  1.00  0.00     0.028 A 
ATOM     26  C   UNL     1      -2.179  -2.669  -4.873  1.00  0.00     0.344 A 
ATOM     27  C   UNL     1      -1.229  -0.513  -3.446  1.00  0.00     0.018 A 
ATOM     28  O   UNL     1      -0.805  -2.430  -4.888  1.00  0.00    -0.422 OA
ATOM     29  O   UNL     1      -2.778  -3.280  -5.749  1.00  0.00    -0.246 OA
ATOM     30  C   UNL     1      -0.760   0.650  -2.841  1.00  0.00     0.012 A 
ATOM     31  C   UNL     1      -0.325  -1.360  -4.101  1.00  0.00     0.138 A 
ATOM     32  C   UNL     1       0.615   0.904  -2.830  1.00  0.00     0.001 A 
ATOM     33  C   UNL     1       1.046  -1.149  -4.037  1.00  0.00     0.048 A 
ATOM     34  C   UNL     1       1.516  -0.011  -3.385  1.00  0.00     0.004 A 
ENDBRANCH  22  24
ENDBRANCH  15  18
ENDBRANCH  10  14
ENDBRANCH   4   7
ENDBRANCH   2   3
ENDBRANCH   1   2
BRANCH   1  35
ATOM     35  C   UNL     1       5.966   0.619   0.807  1.00  0.00     0.118 C 
BRANCH  35  36
ATOM     36  N   UNL     1       7.309   0.269   0.080  1.00  0.00    -0.352 N 
ATOM     37  C   UNL     1       8.561   0.990  -0.212  1.00  0.00     0.251 C 
ATOM     38  H   UNL     1       7.319  -0.653  -0.264  1.00  0.00     0.163 HD
ATOM     39  O   UNL     1       9.538   0.541   0.416  1.00  0.00    -0.269 OA
BRANCH  37  40
ATOM     40  C   UNL     1       8.962   2.161  -1.234  1.00  0.00     0.039 A 
ATOM     41  C   UNL     1       9.889   3.192  -0.860  1.00  0.00     0.014 A 
ATOM     42  C   UNL     1       8.447   2.373  -2.511  1.00  0.00     0.014 A 
ATOM     43  C   UNL     1       9.812   4.537  -1.431  1.00  0.00     0.010 A 
ATOM     44  C   UNL     1       8.355   3.698  -3.069  1.00  0.00     0.010 A 
ATOM     45  C   UNL     1       8.817   4.834  -2.385  1.00  0.00    -0.014 A 
BRANCH  45  46
ATOM     46  C   UNL     1       8.000   6.147  -2.427  1.00  0.00     0.031 A 
ATOM     47  C   UNL     1       8.223   7.125  -3.485  1.00  0.00     0.074 A 
ATOM     48  C   UNL     1       6.922   6.556  -1.677  1.00  0.00     0.049 A 
ATOM     49  N   UNL     1       8.481   8.381  -3.301  1.00  0.00    -0.248 NA
ATOM     50  C   UNL     1       8.022   6.726  -4.865  1.00  0.00     0.031 C 
ATOM     51  C   UNL     1       6.018   7.726  -1.718  1.00  0.00     0.029 A 
ATOM     52  N   UNL     1       6.328   5.910  -0.619  1.00  0.00    -0.354 N 
ATOM     53  C   UNL     1       8.152   8.984  -4.496  1.00  0.00     0.074 A 
ATOM     54  C   UNL     1       8.108   7.909  -5.474  1.00  0.00     0.031 C 
ATOM     55  C   UNL     1       5.352   7.836  -0.539  1.00  0.00     0.029 A 
ATOM     56  C   UNL     1       5.827   6.782   0.336  1.00  0.00     0.049 A 
ATOM     57  H   UNL     1       6.264   4.931  -0.547  1.00  0.00     0.167 HD
ATOM     58  C   UNL     1       7.608  10.238  -4.556  1.00  0.00     0.031 A 
ATOM     59  C   UNL     1       6.412   6.840   1.581  1.00  0.00     0.031 A 
ATOM     60  C   UNL     1       7.186  10.748  -3.237  1.00  0.00     0.049 A 
ATOM     61  C   UNL     1       7.107   8.155   1.757  1.00  0.00     0.074 A 
ATOM     62  C   UNL     1       5.936  11.030  -2.698  1.00  0.00     0.029 A 
ATOM     63  N   UNL     1       8.063  10.751  -2.155  1.00  0.00    -0.354 N 
ATOM     64  N   UNL     1       7.122   9.067   0.836  1.00  0.00    -0.248 NA
ATOM     65  C   UNL     1       7.894   8.531   2.920  1.00  0.00     0.031 C 
ATOM     66  C   UNL     1       6.069  11.174  -1.288  1.00  0.00     0.029 A 
ATOM     67  C   UNL     1       7.404  11.020  -0.963  1.00  0.00     0.049 A 
ATOM     68  H   UNL     1       9.031  10.584  -2.227  1.00  0.00     0.167 HD
ATOM     69  C   UNL     1       7.934  10.094   1.190  1.00  0.00     0.074 A 
ATOM     70  C   UNL     1       8.365   9.731   2.532  1.00  0.00     0.031 C 
ATOM     71  C   UNL     1       8.156  11.103   0.298  1.00  0.00     0.031 A 
BRANCH  58  72
ATOM     72  C   UNL     1       7.158  10.850  -5.877  1.00  0.00    -0.014 A 
ATOM     73  C   UNL     1       6.232  11.910  -5.923  1.00  0.00     0.010 A 
ATOM     74  C   UNL     1       7.673  10.438  -7.126  1.00  0.00     0.010 A 
ATOM     75  C   UNL     1       5.785  12.458  -7.139  1.00  0.00     0.020 A 
ATOM     76  C   UNL     1       7.187  10.920  -8.348  1.00  0.00     0.020 A 
ATOM     77  C   UNL     1       6.250  11.942  -8.348  1.00  0.00     0.054 A 
BRANCH  77  78
ATOM     78  S   UNL     1       5.692  12.666  -9.912  1.00  0.00     0.124 S 
ATOM     79  O   UNL     1       4.240  12.552  -9.820  1.00  0.00    -0.237 OA
ATOM     80  O   UNL     1       6.226  14.023  -9.832  1.00  0.00    -0.237 OA
ATOM     81  O   UNL     1       6.312  11.818 -10.930  1.00  0.00    -0.744 OA
ENDBRANCH  77  78
ENDBRANCH  58  72
BRANCH  59  82
ATOM     82  C   UNL     1       6.965   5.527   2.192  1.00  0.00    -0.014 A 
ATOM     83  C   UNL     1       5.979   4.605   2.588  1.00  0.00     0.010 A 
ATOM     84  C   UNL     1       7.972   4.981   1.419  1.00  0.00     0.010 A 
ATOM     85  C   UNL     1       5.539   3.640   1.671  1.00  0.00     0.020 A 
ATOM     86  C   UNL     1       7.502   4.038   0.489  1.00  0.00     0.020 A 
ATOM     87  C   UNL     1       6.236   3.501   0.490  1.00  0.00     0.054 A 
BRANCH  87  88
ATOM     88  S   UNL     1       5.316   3.013  -1.260  1.00  0.00     0.124 S 
ATOM     89  O   UNL     1       3.943   2.890  -0.783  1.00  0.00    -0.237 OA
ATOM     90  O   UNL     1       5.524   4.128  -2.149  1.00  0.00    -0.237 OA
ATOM     91  O   UNL     1       5.898   1.756  -1.726  1.00  0.00    -0.744 OA
ENDBRANCH  87  88
ENDBRANCH  59  82
BRANCH  71  92
ATOM     92  C   UNL     1       9.060  12.291   0.496  1.00  0.00    -0.014 A 
ATOM     93  C   UNL     1       9.819  12.547   1.643  1.00  0.00     0.010 A 
ATOM     94  C   UNL     1       9.168  13.234  -0.556  1.00  0.00     0.010 A 
ATOM     95  C   UNL     1      10.649  13.668   1.734  1.00  0.00     0.020 A 
ATOM     96  C   UNL     1      10.011  14.340  -0.493  1.00  0.00     0.020 A 
ATOM     97  C   UNL     1      10.746  14.552   0.662  1.00  0.00     0.054 A 
BRANCH  97  98
ATOM     98  S   UNL     1      11.852  15.966   0.805  1.00  0.00     0.124 S 
ATOM     99  O   UNL     1      11.211  16.747   1.861  1.00  0.00    -0.237 OA
ATOM    100  O   UNL     1      13.117  15.335   1.172  1.00  0.00    -0.237 OA
ATOM    101  O   UNL     1      11.823  16.571  -0.524  1.00  0.00    -0.744 OA
ENDBRANCH  97  98
ENDBRANCH  71  92
ENDBRANCH  45  46
ENDBRANCH  37  40
ENDBRANCH  35  36
ENDBRANCH   1  35
TORSDOF 16
