REMARK SMILES CCCN(CCC)c1cc(C(=O)NCCCNC(=O)c2ccc(-c3c4nc(c(-c5ccc(S(=O)(=O)[O-])cc5)c5ccc([nH]5)c(-c5ccc(S(=O)(=O)[O-])cc5)c5nc(c(-c6ccc(S(=O)(=O)[O-])cc6)c6ccc3[nH]6)C=C5)C=C4)cc2)cc(C(F)(F)F)c1
REMARK SMILES IDX 15 1 14 2 13 3 11 4 12 5 10 7 8 8 9 9 86 10 81 11 80 12 4 13
REMARK SMILES IDX 3 14 2 15 1 16 5 17 6 18 7 19 82 20 83 21 84 22 85 23 16 24
REMARK SMILES IDX 17 25 18 26 19 28 20 29 21 30 79 31 22 32 78 33 23 34 24 35
REMARK SMILES IDX 25 36 72 37 26 38 77 39 71 40 73 41 27 42 76 43 70 44 69 45
REMARK SMILES IDX 28 47 58 48 39 49 57 50 40 51 43 52 56 53 74 54 41 55 42 56
REMARK SMILES IDX 55 58 75 59 44 60 29 61 30 62 38 63 31 64 37 65 32 66 33 67
REMARK SMILES IDX 34 68 35 69 36 70 59 71 60 72 68 73 61 74 67 75 62 76 63 77
REMARK SMILES IDX 64 78 65 79 66 80 45 81 46 82 54 83 47 84 53 85 48 86 49 87
REMARK SMILES IDX 50 88 51 89 52 90
REMARK H PARENT 13 6 17 27 73 46 43 57
REMARK Flexibility Score: inf
ROOT
ATOM      1  C   UNL     1      -0.556  -6.353   3.952  1.00  0.00     0.042 C 
ENDROOT
BRANCH   1   2
ATOM      2  C   UNL     1       0.769  -5.848   3.416  1.00  0.00     0.118 C 
BRANCH   2   3
ATOM      3  N   UNL     1       1.240  -6.455   2.174  1.00  0.00    -0.352 N 
ATOM      4  C   UNL     1       1.853  -5.894   1.068  1.00  0.00     0.251 C 
ATOM      5  O   UNL     1       2.258  -6.630   0.170  1.00  0.00    -0.269 OA
ATOM      6  H   UNL     1       1.096  -7.427   2.114  1.00  0.00     0.163 HD
BRANCH   4   7
ATOM      7  C   UNL     1       1.895  -4.417   0.888  1.00  0.00     0.042 A 
ATOM      8  C   UNL     1       1.104  -2.613  -0.545  1.00  0.00     0.038 A 
ATOM      9  C   UNL     1       1.588  -3.910  -0.382  1.00  0.00     0.039 A 
ATOM     10  C   UNL     1       0.928  -1.872   0.624  1.00  0.00     0.039 A 
ATOM     11  C   UNL     1       1.405  -2.294   1.870  1.00  0.00     0.058 A 
ATOM     12  C   UNL     1       2.003  -3.546   1.962  1.00  0.00     0.027 A 
BRANCH   8  13
ATOM     13  N   UNL     1       0.750  -2.086  -1.772  1.00  0.00    -0.372 N 
BRANCH  13  14
ATOM     14  C   UNL     1       1.376  -0.832  -2.221  1.00  0.00     0.116 C 
BRANCH  14  15
ATOM     15  C   UNL     1       0.537   0.430  -1.960  1.00  0.00     0.018 C 
ATOM     16  C   UNL     1       0.833   1.154  -0.647  1.00  0.00     0.006 C 
ENDBRANCH  14  15
ENDBRANCH  13  14
BRANCH  13  17
ATOM     17  C   UNL     1      -0.284  -2.712  -2.612  1.00  0.00     0.116 C 
BRANCH  17  18
ATOM     18  C   UNL     1       0.198  -3.959  -3.364  1.00  0.00     0.018 C 
ATOM     19  C   UNL     1      -0.306  -5.264  -2.749  1.00  0.00     0.006 C 
ENDBRANCH  17  18
ENDBRANCH  13  17
ENDBRANCH   8  13
BRANCH  11  20
ATOM     20  C   UNL     1       1.100  -1.511   3.118  1.00  0.00     0.416 C 
ATOM     21  F   UNL     1       0.007  -2.008   3.763  1.00  0.00    -0.166 F 
ATOM     22  F   UNL     1       2.115  -1.547   4.024  1.00  0.00    -0.166 F 
ATOM     23  F   UNL     1       0.840  -0.196   2.888  1.00  0.00    -0.166 F 
ENDBRANCH  11  20
ENDBRANCH   4   7
ENDBRANCH   2   3
ENDBRANCH   1   2
BRANCH   1  24
ATOM     24  C   UNL     1      -0.599  -7.825   4.301  1.00  0.00     0.118 C 
BRANCH  24  25
ATOM     25  N   UNL     1       0.378  -8.206   5.311  1.00  0.00    -0.352 N 
ATOM     26  C   UNL     1       0.230  -8.552   6.635  1.00  0.00     0.251 C 
ATOM     27  H   UNL     1       1.309  -8.217   4.991  1.00  0.00     0.163 HD
ATOM     28  O   UNL     1       1.231  -8.675   7.333  1.00  0.00    -0.269 OA
BRANCH  26  29
ATOM     29  C   UNL     1      -1.114  -8.745   7.231  1.00  0.00     0.039 A 
ATOM     30  C   UNL     1      -1.341  -8.321   8.544  1.00  0.00     0.014 A 
ATOM     31  C   UNL     1      -2.145  -9.357   6.519  1.00  0.00     0.014 A 
ATOM     32  C   UNL     1      -2.618  -8.436   9.103  1.00  0.00     0.010 A 
ATOM     33  C   UNL     1      -3.439  -9.360   7.029  1.00  0.00     0.010 A 
ATOM     34  C   UNL     1      -3.691  -8.911   8.332  1.00  0.00    -0.014 A 
BRANCH  34  35
ATOM     35  C   UNL     1      -5.078  -8.963   8.866  1.00  0.00     0.031 A 
ATOM     36  C   UNL     1      -5.812 -10.278   8.940  1.00  0.00     0.074 A 
ATOM     37  C   UNL     1      -5.706  -7.820   9.212  1.00  0.00     0.049 A 
ATOM     38  N   UNL     1      -7.049 -10.514   9.298  1.00  0.00    -0.248 NA
ATOM     39  C   UNL     1      -5.070 -11.482   8.530  1.00  0.00     0.031 C 
ATOM     40  C   UNL     1      -5.124  -6.477   9.143  1.00  0.00     0.029 A 
ATOM     41  N   UNL     1      -6.977  -7.604   9.685  1.00  0.00    -0.354 N 
ATOM     42  C   UNL     1      -7.236 -11.882   9.133  1.00  0.00     0.074 A 
ATOM     43  C   UNL     1      -6.008 -12.415   8.588  1.00  0.00     0.031 C 
ATOM     44  C   UNL     1      -6.021  -5.584   9.591  1.00  0.00     0.029 A 
ATOM     45  C   UNL     1      -7.258  -6.279   9.930  1.00  0.00     0.049 A 
ATOM     46  H   UNL     1      -7.626  -8.328   9.835  1.00  0.00     0.167 HD
ATOM     47  C   UNL     1      -8.323 -12.634   9.432  1.00  0.00     0.031 A 
ATOM     48  C   UNL     1      -8.386  -5.687  10.369  1.00  0.00     0.031 A 
ATOM     49  C   UNL     1      -9.538 -12.102   9.990  1.00  0.00     0.049 A 
ATOM     50  C   UNL     1      -9.585  -6.541  10.683  1.00  0.00     0.074 A 
ATOM     51  C   UNL     1     -10.674 -12.787  10.383  1.00  0.00     0.029 A 
ATOM     52  N   UNL     1      -9.776 -10.758  10.232  1.00  0.00    -0.354 N 
ATOM     53  N   UNL     1      -9.718  -7.842  10.584  1.00  0.00    -0.248 NA
ATOM     54  C   UNL     1     -10.781  -5.847  11.178  1.00  0.00     0.031 C 
ATOM     55  C   UNL     1     -11.622 -11.850  10.806  1.00  0.00     0.029 A 
ATOM     56  C   UNL     1     -11.052 -10.589  10.744  1.00  0.00     0.049 A 
ATOM     57  H   UNL     1      -9.134 -10.031  10.065  1.00  0.00     0.167 HD
ATOM     58  C   UNL     1     -11.003  -8.126  11.035  1.00  0.00     0.074 A 
ATOM     59  C   UNL     1     -11.599  -6.863  11.420  1.00  0.00     0.031 C 
ATOM     60  C   UNL     1     -11.631  -9.325  11.123  1.00  0.00     0.031 A 
BRANCH  47  61
ATOM     61  C   UNL     1      -8.247 -14.114   9.155  1.00  0.00    -0.014 A 
ATOM     62  C   UNL     1      -7.392 -14.951   9.896  1.00  0.00     0.010 A 
ATOM     63  C   UNL     1      -9.072 -14.685   8.169  1.00  0.00     0.010 A 
ATOM     64  C   UNL     1      -7.330 -16.321   9.625  1.00  0.00     0.020 A 
ATOM     65  C   UNL     1      -9.038 -16.059   7.917  1.00  0.00     0.020 A 
ATOM     66  C   UNL     1      -8.154 -16.866   8.636  1.00  0.00     0.054 A 
BRANCH  66  67
ATOM     67  S   UNL     1      -8.070 -18.651   8.324  1.00  0.00     0.124 S 
ATOM     68  O   UNL     1      -6.766 -18.782   7.678  1.00  0.00    -0.237 OA
ATOM     69  O   UNL     1      -8.164 -19.214   9.668  1.00  0.00    -0.237 OA
ATOM     70  O   UNL     1      -9.220 -18.908   7.462  1.00  0.00    -0.744 OA
ENDBRANCH  66  67
ENDBRANCH  47  61
BRANCH  48  71
ATOM     71  C   UNL     1      -8.430  -4.209  10.552  1.00  0.00    -0.014 A 
ATOM     72  C   UNL     1      -8.509  -3.649  11.839  1.00  0.00     0.010 A 
ATOM     73  C   UNL     1      -8.382  -3.350   9.437  1.00  0.00     0.010 A 
ATOM     74  C   UNL     1      -8.561  -2.262  12.009  1.00  0.00     0.020 A 
ATOM     75  C   UNL     1      -8.401  -1.963   9.604  1.00  0.00     0.020 A 
ATOM     76  C   UNL     1      -8.503  -1.427  10.889  1.00  0.00     0.054 A 
BRANCH  76  77
ATOM     77  S   UNL     1      -8.524   0.370  11.137  1.00  0.00     0.124 S 
ATOM     78  O   UNL     1      -9.905   0.605  11.544  1.00  0.00    -0.237 OA
ATOM     79  O   UNL     1      -7.516   0.555  12.178  1.00  0.00    -0.237 OA
ATOM     80  O   UNL     1      -8.159   0.901   9.825  1.00  0.00    -0.744 OA
ENDBRANCH  76  77
ENDBRANCH  48  71
BRANCH  60  81
ATOM     81  C   UNL     1     -13.025  -9.338  11.695  1.00  0.00    -0.014 A 
ATOM     82  C   UNL     1     -14.116  -8.813  10.980  1.00  0.00     0.010 A 
ATOM     83  C   UNL     1     -13.252  -9.941  12.946  1.00  0.00     0.010 A 
ATOM     84  C   UNL     1     -15.403  -8.861  11.521  1.00  0.00     0.020 A 
ATOM     85  C   UNL     1     -14.542 -10.021  13.475  1.00  0.00     0.020 A 
ATOM     86  C   UNL     1     -15.608  -9.466  12.765  1.00  0.00     0.054 A 
BRANCH  86  87
ATOM     87  S   UNL     1     -17.296  -9.556  13.424  1.00  0.00     0.124 S 
ATOM     88  O   UNL     1     -17.553  -8.166  13.791  1.00  0.00    -0.237 OA
ATOM     89  O   UNL     1     -18.058 -10.056  12.282  1.00  0.00    -0.237 OA
ATOM     90  O   UNL     1     -17.182 -10.486  14.545  1.00  0.00    -0.744 OA
ENDBRANCH  86  87
ENDBRANCH  60  81
ENDBRANCH  34  35
ENDBRANCH  26  29
ENDBRANCH  24  25
ENDBRANCH   1  24
TORSDOF 19
