REMARK SMILES O=C1NC(=O)/C(=C/c2ccc(OCc3cn(-c4ccc(C(=O)NCCCNC(=O)c5ccc(-c6c7nc(c(-c8ccc(S(=O)(=O)[O-])cc8)c8ccc([nH]8)c(-c8ccc(S(=O)(=O)[O-])cc8)c8nc(c(-c9ccc(S(=O)(=O)[O-])cc9)c9ccc6[nH]9)C=C8)C=C7)cc5)cc4)nn3)cc2)S1
REMARK SMILES IDX 24 1 23 2 21 3 22 4 20 6 17 7 18 8 91 9 19 10 90 11 16 12
REMARK SMILES IDX 14 13 15 14 93 15 92 16 13 17 12 18 11 19 8 20 9 21 95 22
REMARK SMILES IDX 10 23 94 24 7 25 1 26 2 27 3 28 96 29 4 30 6 32 5 33 25 34
REMARK SMILES IDX 26 35 27 36 28 37 29 39 30 40 31 41 89 42 32 43 88 44 33 45
REMARK SMILES IDX 34 46 35 47 82 48 36 49 87 50 81 51 83 52 37 53 86 54 80 55
REMARK SMILES IDX 79 56 38 58 68 59 49 60 67 61 50 62 53 63 66 64 84 65 51 66
REMARK SMILES IDX 52 67 65 69 85 70 54 71 39 72 40 73 48 74 41 75 47 76 42 77
REMARK SMILES IDX 43 78 44 79 45 80 46 81 69 82 70 83 78 84 71 85 77 86 72 87
REMARK SMILES IDX 73 88 74 89 75 90 76 91 55 92 56 93 64 94 57 95 63 96 58 97
REMARK SMILES IDX 59 98 60 99 61 100 62 101
REMARK H PARENT 23 5 3 31 27 38 83 57 53 68
REMARK Flexibility Score: inf
ROOT
ATOM      1  C   UNL     1      -7.435  10.669  -0.944  1.00  0.00     0.118 C 
ENDROOT
BRANCH   1   2
ATOM      2  N   UNL     1      -8.176   9.735  -0.111  1.00  0.00    -0.352 N 
ATOM      3  C   UNL     1      -7.771   8.670   0.658  1.00  0.00     0.251 C 
ATOM      4  O   UNL     1      -8.620   8.096   1.337  1.00  0.00    -0.269 OA
ATOM      5  H   UNL     1      -9.147   9.894  -0.095  1.00  0.00     0.163 HD
BRANCH   3   6
ATOM      6  C   UNL     1      -6.348   8.239   0.754  1.00  0.00     0.039 A 
ATOM      7  C   UNL     1      -3.659   7.587   1.158  1.00  0.00     0.066 A 
ATOM      8  C   UNL     1      -4.621   7.159   2.080  1.00  0.00     0.029 A 
ATOM      9  C   UNL     1      -4.038   8.258   0.001  1.00  0.00     0.029 A 
ATOM     10  C   UNL     1      -5.959   7.516   1.891  1.00  0.00     0.016 A 
ATOM     11  C   UNL     1      -5.384   8.518  -0.217  1.00  0.00     0.016 A 
BRANCH   7  12
ATOM     12  N   UNL     1      -2.299   7.325   1.379  1.00  0.00    -0.220 N 
ATOM     13  C   UNL     1      -0.122   7.349   1.396  1.00  0.00     0.120 A 
ATOM     14  C   UNL     1      -1.215   8.067   0.966  1.00  0.00     0.144 A 
ATOM     15  N   UNL     1      -0.570   6.250   2.079  1.00  0.00    -0.131 NA
ATOM     16  N   UNL     1      -1.889   6.265   2.098  1.00  0.00    -0.062 NA
BRANCH  13  17
ATOM     17  C   UNL     1       1.337   7.660   1.333  1.00  0.00     0.289 C 
BRANCH  17  18
ATOM     18  O   UNL     1       2.080   6.989   0.300  1.00  0.00    -0.487 OA
BRANCH  18  19
ATOM     19  C   UNL     1       2.201   5.627   0.361  1.00  0.00     0.119 A 
ATOM     20  C   UNL     1       2.214   2.826   0.120  1.00  0.00    -0.024 A 
ATOM     21  C   UNL     1       2.696   3.623  -0.921  1.00  0.00     0.012 A 
ATOM     22  C   UNL     1       1.822   3.435   1.314  1.00  0.00     0.012 A 
ATOM     23  C   UNL     1       2.679   5.018  -0.802  1.00  0.00     0.047 A 
ATOM     24  C   UNL     1       1.857   4.824   1.444  1.00  0.00     0.047 A 
BRANCH  20  25
ATOM     25  C   UNL     1       2.140   1.370  -0.015  1.00  0.00     0.029 C 
ATOM     26  O   UNL     1      -2.447  -0.721   0.026  1.00  0.00    -0.261 OA
ATOM     27  C   UNL     1      -1.254  -0.435  -0.003  1.00  0.00     0.290 C 
ATOM     28  N   UNL     1      -0.236  -1.324  -0.046  1.00  0.00    -0.282 N 
ATOM     29  S   UNL     1      -0.623   1.196   0.009  1.00  0.00    -0.022 SA
ATOM     30  C   UNL     1       1.039  -0.840  -0.076  1.00  0.00     0.265 C 
ATOM     31  H   UNL     1      -0.410  -2.293  -0.056  1.00  0.00     0.174 HD
ATOM     32  C   UNL     1       1.012   0.646  -0.034  1.00  0.00     0.083 C 
ATOM     33  O   UNL     1       2.045  -1.527  -0.113  1.00  0.00    -0.268 OA
ENDBRANCH  20  25
ENDBRANCH  18  19
ENDBRANCH  17  18
ENDBRANCH  13  17
ENDBRANCH   7  12
ENDBRANCH   3   6
ENDBRANCH   1   2
BRANCH   1  34
ATOM     34  C   UNL     1      -7.349  10.192  -2.403  1.00  0.00     0.042 C 
BRANCH  34  35
ATOM     35  C   UNL     1      -8.573  10.596  -3.191  1.00  0.00     0.118 C 
BRANCH  35  36
ATOM     36  N   UNL     1      -8.624  12.045  -3.449  1.00  0.00    -0.352 N 
ATOM     37  C   UNL     1      -9.598  12.771  -4.123  1.00  0.00     0.251 C 
ATOM     38  H   UNL     1      -7.869  12.568  -3.097  1.00  0.00     0.163 HD
ATOM     39  O   UNL     1      -9.357  13.888  -4.564  1.00  0.00    -0.269 OA
BRANCH  37  40
ATOM     40  C   UNL     1     -10.929  12.162  -4.273  1.00  0.00     0.039 A 
ATOM     41  C   UNL     1     -11.736  12.272  -5.408  1.00  0.00     0.014 A 
ATOM     42  C   UNL     1     -11.310  11.348  -3.226  1.00  0.00     0.014 A 
ATOM     43  C   UNL     1     -12.914  11.526  -5.438  1.00  0.00     0.010 A 
ATOM     44  C   UNL     1     -12.130  10.312  -3.508  1.00  0.00     0.010 A 
ATOM     45  C   UNL     1     -13.102  10.553  -4.448  1.00  0.00    -0.014 A 
BRANCH  45  46
ATOM     46  C   UNL     1     -14.260   9.692  -4.322  1.00  0.00     0.031 A 
ATOM     47  C   UNL     1     -14.458   8.801  -5.481  1.00  0.00     0.074 A 
ATOM     48  C   UNL     1     -14.885   9.505  -3.133  1.00  0.00     0.049 A 
ATOM     49  N   UNL     1     -15.330   8.936  -6.420  1.00  0.00    -0.248 NA
ATOM     50  C   UNL     1     -13.447   7.763  -5.744  1.00  0.00     0.031 C 
ATOM     51  C   UNL     1     -14.558  10.035  -1.797  1.00  0.00     0.029 A 
ATOM     52  N   UNL     1     -15.909   8.668  -2.851  1.00  0.00    -0.354 N 
ATOM     53  C   UNL     1     -15.147   7.843  -7.253  1.00  0.00     0.074 A 
ATOM     54  C   UNL     1     -13.845   7.313  -6.936  1.00  0.00     0.031 C 
ATOM     55  C   UNL     1     -15.193   9.307  -0.848  1.00  0.00     0.029 A 
ATOM     56  C   UNL     1     -16.098   8.383  -1.504  1.00  0.00     0.049 A 
ATOM     57  H   UNL     1     -16.483   8.285  -3.554  1.00  0.00     0.167 HD
ATOM     58  C   UNL     1     -16.191   7.287  -7.928  1.00  0.00     0.031 A 
ATOM     59  C   UNL     1     -16.912   7.418  -0.995  1.00  0.00     0.031 A 
ATOM     60  C   UNL     1     -17.376   8.107  -7.837  1.00  0.00     0.049 A 
ATOM     61  C   UNL     1     -17.887   7.088  -2.075  1.00  0.00     0.074 A 
ATOM     62  C   UNL     1     -17.673   9.415  -8.171  1.00  0.00     0.029 A 
ATOM     63  N   UNL     1     -18.321   7.734  -6.904  1.00  0.00    -0.354 N 
ATOM     64  N   UNL     1     -18.753   7.953  -2.534  1.00  0.00    -0.248 NA
ATOM     65  C   UNL     1     -17.535   6.014  -2.995  1.00  0.00     0.031 C 
ATOM     66  C   UNL     1     -18.422   9.909  -7.060  1.00  0.00     0.029 A 
ATOM     67  C   UNL     1     -18.628   8.854  -6.168  1.00  0.00     0.049 A 
ATOM     68  H   UNL     1     -18.703   6.835  -6.787  1.00  0.00     0.167 HD
ATOM     69  C   UNL     1     -18.727   7.793  -3.915  1.00  0.00     0.074 A 
ATOM     70  C   UNL     1     -18.008   6.534  -4.134  1.00  0.00     0.031 C 
ATOM     71  C   UNL     1     -19.003   8.828  -4.767  1.00  0.00     0.031 A 
BRANCH  58  72
ATOM     72  C   UNL     1     -16.265   5.832  -8.303  1.00  0.00    -0.014 A 
ATOM     73  C   UNL     1     -17.324   5.402  -9.125  1.00  0.00     0.010 A 
ATOM     74  C   UNL     1     -15.495   4.836  -7.669  1.00  0.00     0.010 A 
ATOM     75  C   UNL     1     -17.634   4.044  -9.253  1.00  0.00     0.020 A 
ATOM     76  C   UNL     1     -15.768   3.477  -7.824  1.00  0.00     0.020 A 
ATOM     77  C   UNL     1     -16.859   3.091  -8.590  1.00  0.00     0.054 A 
BRANCH  77  78
ATOM     78  S   UNL     1     -17.333   1.349  -8.682  1.00  0.00     0.124 S 
ATOM     79  O   UNL     1     -18.616   1.351  -7.986  1.00  0.00    -0.237 OA
ATOM     80  O   UNL     1     -17.393   1.123 -10.123  1.00  0.00    -0.237 OA
ATOM     81  O   UNL     1     -16.244   0.661  -7.992  1.00  0.00    -0.744 OA
ENDBRANCH  77  78
ENDBRANCH  58  72
BRANCH  59  82
ATOM     82  C   UNL     1     -16.629   6.516   0.160  1.00  0.00    -0.014 A 
ATOM     83  C   UNL     1     -17.623   5.682   0.710  1.00  0.00     0.010 A 
ATOM     84  C   UNL     1     -15.295   6.266   0.546  1.00  0.00     0.010 A 
ATOM     85  C   UNL     1     -17.288   4.607   1.560  1.00  0.00     0.020 A 
ATOM     86  C   UNL     1     -14.953   5.200   1.392  1.00  0.00     0.020 A 
ATOM     87  C   UNL     1     -15.949   4.359   1.876  1.00  0.00     0.054 A 
BRANCH  87  88
ATOM     88  S   UNL     1     -15.504   2.862   2.814  1.00  0.00     0.124 S 
ATOM     89  O   UNL     1     -16.020   3.162   4.146  1.00  0.00    -0.237 OA
ATOM     90  O   UNL     1     -16.208   1.810   2.087  1.00  0.00    -0.237 OA
ATOM     91  O   UNL     1     -14.047   2.811   2.711  1.00  0.00    -0.744 OA
ENDBRANCH  87  88
ENDBRANCH  59  82
BRANCH  71  92
ATOM     92  C   UNL     1     -19.534  10.129  -4.196  1.00  0.00    -0.014 A 
ATOM     93  C   UNL     1     -18.828  10.942  -3.284  1.00  0.00     0.010 A 
ATOM     94  C   UNL     1     -20.721  10.637  -4.750  1.00  0.00     0.010 A 
ATOM     95  C   UNL     1     -19.313  12.210  -2.919  1.00  0.00     0.020 A 
ATOM     96  C   UNL     1     -21.201  11.904  -4.406  1.00  0.00     0.020 A 
ATOM     97  C   UNL     1     -20.502  12.682  -3.483  1.00  0.00     0.054 A 
BRANCH  97  98
ATOM     98  S   UNL     1     -21.121  14.329  -3.034  1.00  0.00     0.124 S 
ATOM     99  O   UNL     1     -21.478  14.162  -1.627  1.00  0.00    -0.237 OA
ATOM    100  O   UNL     1     -19.971  15.192  -3.293  1.00  0.00    -0.237 OA
ATOM    101  O   UNL     1     -22.254  14.534  -3.937  1.00  0.00    -0.744 OA
ENDBRANCH  97  98
ENDBRANCH  71  92
ENDBRANCH  45  46
ENDBRANCH  37  40
ENDBRANCH  35  36
ENDBRANCH  34  35
ENDBRANCH   1  34
TORSDOF 18
