REMARK SMILES O=C(NCCCNC(=O)c1cccnc1C[N@@H+]1CCC[C@H]1c1ccccn1)c1ccc(-c2c3nc(c(-c4ccc(S(=O)(=O)[O-])cc4)c4ccc([nH]4)c(-c4ccc(S(=O)(=O)[O-])cc4)c4nc(c(-c5ccc(S(=O)(=O)[O-])cc5)c5ccc2[nH]5)C=C4)C=C3)cc1
REMARK SMILES IDX 5 1 4 2 3 3 1 4 2 5 28 7 29 8 87 9 30 10 86 11 31 12 32 13
REMARK SMILES IDX 33 14 80 15 34 16 85 17 79 18 81 19 35 20 84 21 78 22 77 23
REMARK SMILES IDX 36 25 66 26 47 27 65 28 48 29 51 30 64 31 82 32 49 33 50 34
REMARK SMILES IDX 63 36 83 37 52 38 37 39 38 40 46 41 39 42 45 43 40 44 41 45
REMARK SMILES IDX 42 46 43 47 44 48 67 49 68 50 76 51 69 52 75 53 70 54 71 55
REMARK SMILES IDX 72 56 73 57 74 58 53 59 54 60 62 61 55 62 61 63 56 64 57 65
REMARK SMILES IDX 58 66 59 67 60 68 6 69 7 70 8 71 9 73 10 74 11 75 15 76
REMARK SMILES IDX 12 77 14 78 13 79 16 80 17 81 18 82 21 83 19 85 20 86 22 87
REMARK SMILES IDX 23 88 27 89 24 90 26 91 25 92
REMARK H PARENT 3 6 81 24 51 35 7 72 17 84
REMARK Flexibility Score: inf
ROOT
ATOM      1  C   UNL     1       5.055  -2.540  -0.049  1.00  0.00     0.042 C 
ENDROOT
BRANCH   1   2
ATOM      2  C   UNL     1       4.691  -1.230  -0.735  1.00  0.00     0.118 C 
BRANCH   2   3
ATOM      3  N   UNL     1       3.257  -0.964  -0.761  1.00  0.00    -0.352 N 
ATOM      4  O   UNL     1       1.286  -0.034  -0.206  1.00  0.00    -0.269 OA
ATOM      5  C   UNL     1       2.513   0.018  -0.149  1.00  0.00     0.251 C 
ATOM      6  H   UNL     1       2.733  -1.594  -1.307  1.00  0.00     0.163 HD
BRANCH   5   7
ATOM      7  C   UNL     1       3.171   1.110   0.605  1.00  0.00     0.039 A 
ATOM      8  C   UNL     1       4.321   1.731   0.120  1.00  0.00     0.014 A 
ATOM      9  C   UNL     1       2.623   1.524   1.823  1.00  0.00     0.014 A 
ATOM     10  C   UNL     1       5.030   2.608   0.935  1.00  0.00     0.010 A 
ATOM     11  C   UNL     1       3.281   2.487   2.596  1.00  0.00     0.010 A 
ATOM     12  C   UNL     1       4.522   2.996   2.186  1.00  0.00    -0.014 A 
BRANCH  12  13
ATOM     13  C   UNL     1       5.309   3.936   3.029  1.00  0.00     0.031 A 
ATOM     14  C   UNL     1       5.847   3.513   4.372  1.00  0.00     0.074 A 
ATOM     15  C   UNL     1       5.590   5.165   2.552  1.00  0.00     0.049 A 
ATOM     16  N   UNL     1       6.611   4.182   5.200  1.00  0.00    -0.248 NA
ATOM     17  C   UNL     1       5.477   2.173   4.855  1.00  0.00     0.031 C 
ATOM     18  C   UNL     1       5.123   5.699   1.269  1.00  0.00     0.029 A 
ATOM     19  N   UNL     1       6.362   6.175   3.069  1.00  0.00    -0.354 N 
ATOM     20  C   UNL     1       6.785   3.362   6.310  1.00  0.00     0.074 A 
ATOM     21  C   UNL     1       6.032   2.152   6.059  1.00  0.00     0.031 C 
ATOM     22  C   UNL     1       5.674   6.906   1.068  1.00  0.00     0.029 A 
ATOM     23  C   UNL     1       6.482   7.258   2.230  1.00  0.00     0.049 A 
ATOM     24  H   UNL     1       6.789   6.128   3.954  1.00  0.00     0.167 HD
ATOM     25  C   UNL     1       7.510   3.591   7.433  1.00  0.00     0.031 A 
ATOM     26  C   UNL     1       7.165   8.409   2.374  1.00  0.00     0.031 A 
ATOM     27  C   UNL     1       8.277   4.785   7.673  1.00  0.00     0.049 A 
ATOM     28  C   UNL     1       7.967   8.634   3.623  1.00  0.00     0.074 A 
ATOM     29  C   UNL     1       9.073   5.092   8.764  1.00  0.00     0.029 A 
ATOM     30  N   UNL     1       8.346   5.870   6.812  1.00  0.00    -0.354 N 
ATOM     31  N   UNL     1       8.139   7.832   4.646  1.00  0.00    -0.248 NA
ATOM     32  C   UNL     1       8.670   9.919   3.733  1.00  0.00     0.031 C 
ATOM     33  C   UNL     1       9.591   6.379   8.580  1.00  0.00     0.029 A 
ATOM     34  C   UNL     1       9.158   6.853   7.353  1.00  0.00     0.049 A 
ATOM     35  H   UNL     1       7.887   5.931   5.943  1.00  0.00     0.167 HD
ATOM     36  C   UNL     1       8.989   8.507   5.514  1.00  0.00     0.074 A 
ATOM     37  C   UNL     1       9.307   9.775   4.887  1.00  0.00     0.031 C 
ATOM     38  C   UNL     1       9.464   8.110   6.720  1.00  0.00     0.031 A 
BRANCH  25  39
ATOM     39  C   UNL     1       7.483   2.534   8.506  1.00  0.00    -0.014 A 
ATOM     40  C   UNL     1       8.161   1.312   8.350  1.00  0.00     0.010 A 
ATOM     41  C   UNL     1       6.794   2.784   9.708  1.00  0.00     0.010 A 
ATOM     42  C   UNL     1       8.113   0.342   9.356  1.00  0.00     0.020 A 
ATOM     43  C   UNL     1       6.764   1.826  10.726  1.00  0.00     0.020 A 
ATOM     44  C   UNL     1       7.407   0.602  10.535  1.00  0.00     0.054 A 
BRANCH  44  45
ATOM     45  S   UNL     1       7.364  -0.670  11.827  1.00  0.00     0.124 S 
ATOM     46  O   UNL     1       6.408  -1.627  11.274  1.00  0.00    -0.237 OA
ATOM     47  O   UNL     1       8.750  -1.128  11.878  1.00  0.00    -0.237 OA
ATOM     48  O   UNL     1       6.907   0.053  13.011  1.00  0.00    -0.744 OA
ENDBRANCH  44  45
ENDBRANCH  25  39
BRANCH  26  49
ATOM     49  C   UNL     1       7.128   9.427   1.291  1.00  0.00    -0.014 A 
ATOM     50  C   UNL     1       8.260   9.660   0.492  1.00  0.00     0.010 A 
ATOM     51  C   UNL     1       5.947  10.147   1.034  1.00  0.00     0.010 A 
ATOM     52  C   UNL     1       8.216  10.603  -0.539  1.00  0.00     0.020 A 
ATOM     53  C   UNL     1       5.891  11.070  -0.012  1.00  0.00     0.020 A 
ATOM     54  C   UNL     1       7.030  11.300  -0.786  1.00  0.00     0.054 A 
BRANCH  54  55
ATOM     55  S   UNL     1       6.973  12.474  -2.168  1.00  0.00     0.124 S 
ATOM     56  O   UNL     1       7.685  13.623  -1.618  1.00  0.00    -0.237 OA
ATOM     57  O   UNL     1       7.665  11.748  -3.230  1.00  0.00    -0.237 OA
ATOM     58  O   UNL     1       5.542  12.669  -2.389  1.00  0.00    -0.744 OA
ENDBRANCH  54  55
ENDBRANCH  26  49
BRANCH  38  59
ATOM     59  C   UNL     1      10.412   9.044   7.422  1.00  0.00    -0.014 A 
ATOM     60  C   UNL     1       9.956  10.229   8.025  1.00  0.00     0.010 A 
ATOM     61  C   UNL     1      11.777   8.713   7.499  1.00  0.00     0.010 A 
ATOM     62  C   UNL     1      10.858  11.089   8.659  1.00  0.00     0.020 A 
ATOM     63  C   UNL     1      12.677   9.558   8.153  1.00  0.00     0.020 A 
ATOM     64  C   UNL     1      12.213  10.751   8.713  1.00  0.00     0.054 A 
BRANCH  64  65
ATOM     65  S   UNL     1      13.364  11.869   9.560  1.00  0.00     0.124 S 
ATOM     66  O   UNL     1      13.544  12.926   8.568  1.00  0.00    -0.237 OA
ATOM     67  O   UNL     1      12.621  12.251  10.758  1.00  0.00    -0.237 OA
ATOM     68  O   UNL     1      14.539  11.034   9.803  1.00  0.00    -0.744 OA
ENDBRANCH  64  65
ENDBRANCH  38  59
ENDBRANCH  12  13
ENDBRANCH   5   7
ENDBRANCH   2   3
ENDBRANCH   1   2
BRANCH   1  69
ATOM     69  C   UNL     1       4.501  -3.788  -0.720  1.00  0.00     0.118 C 
BRANCH  69  70
ATOM     70  N   UNL     1       4.911  -3.907  -2.112  1.00  0.00    -0.352 N 
ATOM     71  C   UNL     1       5.655  -4.871  -2.740  1.00  0.00     0.253 C 
ATOM     72  H   UNL     1       4.604  -3.177  -2.696  1.00  0.00     0.163 HD
ATOM     73  O   UNL     1       5.935  -4.750  -3.929  1.00  0.00    -0.269 OA
BRANCH  71  74
ATOM     74  C   UNL     1       6.065  -6.089  -2.022  1.00  0.00     0.067 A 
ATOM     75  C   UNL     1       5.068  -6.880  -1.433  1.00  0.00     0.017 A 
ATOM     76  C   UNL     1       7.385  -6.552  -2.024  1.00  0.00     0.107 A 
ATOM     77  C   UNL     1       5.403  -8.083  -0.827  1.00  0.00     0.021 A 
ATOM     78  N   UNL     1       7.700  -7.761  -1.466  1.00  0.00    -0.254 NA
ATOM     79  C   UNL     1       6.722  -8.481  -0.875  1.00  0.00     0.111 A 
BRANCH  76  80
ATOM     80  C   UNL     1       8.537  -5.792  -2.678  1.00  0.00     0.321 C 
BRANCH  80  81
ATOM     81  N   UNL     1       9.700  -5.419  -1.841  1.00  0.00    -0.322 N 
ATOM     82  C   UNL     1      10.412  -6.542  -1.241  1.00  0.00     0.263 C 
ATOM     83  C   UNL     1       9.377  -4.449  -0.776  1.00  0.00     0.234 C 
ATOM     84  H   UNL     1      10.319  -4.981  -2.522  1.00  0.00     0.349 HD
ATOM     85  C   UNL     1      10.068  -6.563   0.238  1.00  0.00     0.068 C 
ATOM     86  C   UNL     1       9.427  -5.219   0.545  1.00  0.00     0.078 C 
BRANCH  83  87
ATOM     87  C   UNL     1      10.303  -3.231  -0.759  1.00  0.00     0.098 A 
ATOM     88  C   UNL     1      11.690  -3.359  -0.659  1.00  0.00     0.030 A 
ATOM     89  N   UNL     1       9.700  -2.012  -0.784  1.00  0.00    -0.255 NA
ATOM     90  C   UNL     1      12.480  -2.214  -0.582  1.00  0.00     0.004 A 
ATOM     91  C   UNL     1      10.493  -0.918  -0.711  1.00  0.00     0.111 A 
ATOM     92  C   UNL     1      11.872  -0.968  -0.606  1.00  0.00     0.020 A 
ENDBRANCH  83  87
ENDBRANCH  80  81
ENDBRANCH  76  80
ENDBRANCH  71  74
ENDBRANCH  69  70
ENDBRANCH   1  69
TORSDOF 16
