REMARK SMILES C[C@H](C(=O)NCCCNC(=O)c1ccc(-c2c3nc(c(-c4ccc(S(=O)(=O)[O-])cc4)c4ccc([nH]4)c(-c4ccc(S(=O)(=O)[O-])cc4)c4nc(c(-c5ccc(S(=O)(=O)[O-])cc5)c5ccc2[nH]5)C=C4)C=C3)cc1)c1cccc(C(=O)c2ccccc2)c1
REMARK SMILES IDX 7 1 6 2 5 3 3 4 4 5 2 7 1 8 72 9 73 10 85 11 74 12 76 13
REMARK SMILES IDX 75 14 77 15 78 16 79 17 80 18 84 19 81 20 83 21 82 22 8 23
REMARK SMILES IDX 9 24 10 25 11 27 12 28 13 29 71 30 14 31 70 32 15 33 16 34
REMARK SMILES IDX 17 35 64 36 18 37 69 38 63 39 65 40 19 41 68 42 62 43 61 44
REMARK SMILES IDX 20 46 50 47 31 48 49 49 32 50 35 51 48 52 66 53 33 54 34 55
REMARK SMILES IDX 47 57 67 58 36 59 21 60 22 61 30 62 23 63 29 64 24 65 25 66
REMARK SMILES IDX 26 67 27 68 28 69 51 70 52 71 60 72 53 73 59 74 54 75 55 76
REMARK SMILES IDX 56 77 57 78 58 79 37 80 38 81 46 82 39 83 45 84 40 85 41 86
REMARK SMILES IDX 42 87 43 88 44 89
REMARK H PARENT 5 6 9 26 65 45 35 56
REMARK Flexibility Score: inf
ROOT
ATOM      1  C   UNL     1       1.587  -0.762  -3.564  1.00  0.00     0.042 C 
ENDROOT
BRANCH   1   2
ATOM      2  C   UNL     1       0.673  -1.004  -2.373  1.00  0.00     0.117 C 
BRANCH   2   3
ATOM      3  N   UNL     1       1.353  -0.860  -1.096  1.00  0.00    -0.356 N 
ATOM      4  C   UNL     1       1.321   0.139  -0.169  1.00  0.00     0.227 C 
ATOM      5  O   UNL     1       1.910  -0.070   0.897  1.00  0.00    -0.274 OA
ATOM      6  H   UNL     1       1.940  -1.615  -0.859  1.00  0.00     0.163 HD
BRANCH   4   7
ATOM      7  C   UNL     1       0.564   1.453  -0.396  1.00  0.00     0.105 C 
ATOM      8  C   UNL     1       1.025   2.176  -1.663  1.00  0.00     0.023 C 
BRANCH   7   9
ATOM      9  C   UNL     1      -0.954   1.376  -0.259  1.00  0.00    -0.035 A 
ATOM     10  C   UNL     1      -1.713   2.556  -0.217  1.00  0.00     0.004 A 
ATOM     11  C   UNL     1      -1.639   0.155  -0.161  1.00  0.00     0.016 A 
ATOM     12  C   UNL     1      -3.104   2.510  -0.101  1.00  0.00     0.001 A 
ATOM     13  C   UNL     1      -3.034   0.092  -0.042  1.00  0.00     0.023 A 
ATOM     14  C   UNL     1      -3.764   1.283  -0.018  1.00  0.00     0.012 A 
BRANCH  13  15
ATOM     15  C   UNL     1      -3.766  -1.212  -0.005  1.00  0.00     0.193 C 
ATOM     16  O   UNL     1      -4.991  -1.237  -0.090  1.00  0.00    -0.289 OA
BRANCH  15  17
ATOM     17  C   UNL     1      -3.040  -2.503   0.064  1.00  0.00     0.022 A 
ATOM     18  C   UNL     1      -3.301  -3.467  -0.915  1.00  0.00     0.012 A 
ATOM     19  C   UNL     1      -2.101  -2.760   1.070  1.00  0.00     0.012 A 
ATOM     20  C   UNL     1      -2.585  -4.665  -0.917  1.00  0.00     0.001 A 
ATOM     21  C   UNL     1      -1.380  -3.955   1.057  1.00  0.00     0.001 A 
ATOM     22  C   UNL     1      -1.618  -4.903   0.061  1.00  0.00     0.000 A 
ENDBRANCH  15  17
ENDBRANCH  13  15
ENDBRANCH   7   9
ENDBRANCH   4   7
ENDBRANCH   2   3
ENDBRANCH   1   2
BRANCH   1  23
ATOM     23  C   UNL     1       2.799  -1.683  -3.620  1.00  0.00     0.118 C 
BRANCH  23  24
ATOM     24  N   UNL     1       2.446  -3.072  -3.875  1.00  0.00    -0.352 N 
ATOM     25  C   UNL     1       2.760  -3.883  -4.939  1.00  0.00     0.251 C 
ATOM     26  H   UNL     1       1.899  -3.497  -3.175  1.00  0.00     0.163 HD
ATOM     27  O   UNL     1       2.219  -4.984  -5.035  1.00  0.00    -0.269 OA
BRANCH  25  28
ATOM     28  C   UNL     1       3.709  -3.432  -5.982  1.00  0.00     0.039 A 
ATOM     29  C   UNL     1       3.399  -3.676  -7.323  1.00  0.00     0.014 A 
ATOM     30  C   UNL     1       4.898  -2.775  -5.654  1.00  0.00     0.014 A 
ATOM     31  C   UNL     1       4.234  -3.187  -8.331  1.00  0.00     0.010 A 
ATOM     32  C   UNL     1       5.685  -2.215  -6.660  1.00  0.00     0.010 A 
ATOM     33  C   UNL     1       5.358  -2.407  -8.010  1.00  0.00    -0.014 A 
BRANCH  33  34
ATOM     34  C   UNL     1       6.169  -1.753  -9.073  1.00  0.00     0.031 A 
ATOM     35  C   UNL     1       7.623  -2.101  -9.255  1.00  0.00     0.074 A 
ATOM     36  C   UNL     1       5.605  -0.795  -9.839  1.00  0.00     0.049 A 
ATOM     37  N   UNL     1       8.489  -1.598 -10.097  1.00  0.00    -0.248 NA
ATOM     38  C   UNL     1       8.183  -3.133  -8.367  1.00  0.00     0.031 C 
ATOM     39  C   UNL     1       4.217  -0.335  -9.736  1.00  0.00     0.029 A 
ATOM     40  N   UNL     1       6.129  -0.030 -10.852  1.00  0.00    -0.354 N 
ATOM     41  C   UNL     1       9.694  -2.238  -9.833  1.00  0.00     0.074 A 
ATOM     42  C   UNL     1       9.460  -3.138  -8.725  1.00  0.00     0.031 C 
ATOM     43  C   UNL     1       3.994   0.608 -10.665  1.00  0.00     0.029 A 
ATOM     44  C   UNL     1       5.231   0.859 -11.396  1.00  0.00     0.049 A 
ATOM     45  H   UNL     1       7.061  -0.110 -11.160  1.00  0.00     0.167 HD
ATOM     46  C   UNL     1      10.884  -2.101 -10.466  1.00  0.00     0.031 A 
ATOM     47  C   UNL     1       5.384   1.785 -12.364  1.00  0.00     0.031 A 
ATOM     48  C   UNL     1      11.113  -1.213 -11.576  1.00  0.00     0.049 A 
ATOM     49  C   UNL     1       6.725   1.932 -13.031  1.00  0.00     0.074 A 
ATOM     50  C   UNL     1      12.268  -1.054 -12.323  1.00  0.00     0.029 A 
ATOM     51  N   UNL     1      10.178  -0.331 -12.096  1.00  0.00    -0.354 N 
ATOM     52  N   UNL     1       7.829   1.256 -12.820  1.00  0.00    -0.248 NA
ATOM     53  C   UNL     1       6.839   2.961 -14.074  1.00  0.00     0.031 C 
ATOM     54  C   UNL     1      12.053  -0.029 -13.249  1.00  0.00     0.029 A 
ATOM     55  C   UNL     1      10.742   0.401 -13.128  1.00  0.00     0.049 A 
ATOM     56  H   UNL     1       9.251  -0.238 -11.778  1.00  0.00     0.167 HD
ATOM     57  C   UNL     1       8.759   1.761 -13.722  1.00  0.00     0.074 A 
ATOM     58  C   UNL     1       8.082   2.780 -14.496  1.00  0.00     0.031 C 
ATOM     59  C   UNL     1      10.059   1.413 -13.892  1.00  0.00     0.031 A 
BRANCH  46  60
ATOM     60  C   UNL     1      12.047  -2.925  -9.977  1.00  0.00    -0.014 A 
ATOM     61  C   UNL     1      12.096  -4.314 -10.193  1.00  0.00     0.010 A 
ATOM     62  C   UNL     1      13.150  -2.287  -9.379  1.00  0.00     0.010 A 
ATOM     63  C   UNL     1      13.218  -5.051  -9.803  1.00  0.00     0.020 A 
ATOM     64  C   UNL     1      14.285  -3.017  -9.013  1.00  0.00     0.020 A 
ATOM     65  C   UNL     1      14.308  -4.397  -9.220  1.00  0.00     0.054 A 
BRANCH  65  66
ATOM     66  S   UNL     1      15.773  -5.372  -8.784  1.00  0.00     0.124 S 
ATOM     67  O   UNL     1      15.288  -6.155  -7.650  1.00  0.00    -0.237 OA
ATOM     68  O   UNL     1      16.028  -6.130 -10.006  1.00  0.00    -0.237 OA
ATOM     69  O   UNL     1      16.779  -4.364  -8.458  1.00  0.00    -0.744 OA
ENDBRANCH  65  66
ENDBRANCH  46  60
BRANCH  47  70
ATOM     70  C   UNL     1       4.244   2.660 -12.756  1.00  0.00    -0.014 A 
ATOM     71  C   UNL     1       3.667   2.561 -14.035  1.00  0.00     0.010 A 
ATOM     72  C   UNL     1       3.745   3.621 -11.857  1.00  0.00     0.010 A 
ATOM     73  C   UNL     1       2.641   3.430 -14.420  1.00  0.00     0.020 A 
ATOM     74  C   UNL     1       2.696   4.467 -12.225  1.00  0.00     0.020 A 
ATOM     75  C   UNL     1       2.163   4.379 -13.512  1.00  0.00     0.054 A 
BRANCH  75  76
ATOM     76  S   UNL     1       0.820   5.485 -14.026  1.00  0.00     0.124 S 
ATOM     77  O   UNL     1       1.505   6.384 -14.949  1.00  0.00    -0.237 OA
ATOM     78  O   UNL     1      -0.135   4.561 -14.632  1.00  0.00    -0.237 OA
ATOM     79  O   UNL     1       0.379   6.091 -12.772  1.00  0.00    -0.744 OA
ENDBRANCH  75  76
ENDBRANCH  47  70
BRANCH  59  80
ATOM     80  C   UNL     1      10.830   2.117 -14.979  1.00  0.00    -0.014 A 
ATOM     81  C   UNL     1      11.191   3.471 -14.859  1.00  0.00     0.010 A 
ATOM     82  C   UNL     1      11.241   1.397 -16.116  1.00  0.00     0.010 A 
ATOM     83  C   UNL     1      11.918   4.100 -15.873  1.00  0.00     0.020 A 
ATOM     84  C   UNL     1      11.997   2.014 -17.116  1.00  0.00     0.020 A 
ATOM     85  C   UNL     1      12.318   3.367 -16.994  1.00  0.00     0.054 A 
BRANCH  85  86
ATOM     86  S   UNL     1      13.297   4.198 -18.275  1.00  0.00     0.124 S 
ATOM     87  O   UNL     1      12.304   5.067 -18.900  1.00  0.00    -0.237 OA
ATOM     88  O   UNL     1      14.329   4.879 -17.497  1.00  0.00    -0.237 OA
ATOM     89  O   UNL     1      13.778   3.100 -19.112  1.00  0.00    -0.744 OA
ENDBRANCH  85  86
ENDBRANCH  59  80
ENDBRANCH  33  34
ENDBRANCH  25  28
ENDBRANCH  23  24
ENDBRANCH   1  23
TORSDOF 16
