REMARK SMILES COc1cccc(-c2nn(-c3cc4c(cc3C(N)=O)OCO4)cc2C(=O)NCCCNC(=O)c2ccc(-c3c4nc(c(-c5ccc(S(=O)(=O)[O-])cc5)c5ccc([nH]5)c(-c5ccc(S(=O)(=O)[O-])cc5)c5nc(c(-c6ccc(S(=O)(=O)[O-])cc6)c6ccc3[nH]6)C=C5)C=C4)cc2)c1
REMARK SMILES IDX 29 1 28 2 27 3 25 4 26 5 24 7 8 8 9 9 10 10 23 11 7 12 3 13
REMARK SMILES IDX 4 14 94 15 5 16 6 17 2 18 1 19 11 20 12 21 16 22 13 23 15 24
REMARK SMILES IDX 14 25 22 26 20 27 21 28 17 29 18 30 19 31 30 34 31 35 32 36
REMARK SMILES IDX 33 38 34 39 35 40 93 41 36 42 92 43 37 44 38 45 39 46 86 47
REMARK SMILES IDX 40 48 91 49 85 50 87 51 41 52 90 53 84 54 83 55 42 57 72 58
REMARK SMILES IDX 53 59 71 60 54 61 57 62 70 63 88 64 55 65 56 66 69 68 89 69
REMARK SMILES IDX 58 70 43 71 44 72 52 73 45 74 51 75 46 76 47 77 48 78 49 79
REMARK SMILES IDX 50 80 73 81 74 82 82 83 75 84 81 85 76 86 77 87 78 88 79 89
REMARK SMILES IDX 80 90 59 91 60 92 68 93 61 94 67 95 62 96 63 97 64 98 65 99
REMARK SMILES IDX 66 100
REMARK H PARENT 27 6 18 32 18 33 31 37 87 56 57 67
REMARK Flexibility Score: inf
ROOT
ATOM      1  C   UNL     1       6.311  -0.158  -8.175  1.00  0.00     0.042 C 
ENDROOT
BRANCH   1   2
ATOM      2  C   UNL     1       5.774   0.672  -7.005  1.00  0.00     0.118 C 
BRANCH   2   3
ATOM      3  N   UNL     1       4.370   0.408  -6.743  1.00  0.00    -0.352 N 
ATOM      4  C   UNL     1       3.731  -0.427  -5.858  1.00  0.00     0.255 C 
ATOM      5  O   UNL     1       2.506  -0.331  -5.822  1.00  0.00    -0.269 OA
ATOM      6  H   UNL     1       3.756   0.929  -7.310  1.00  0.00     0.163 HD
BRANCH   4   7
ATOM      7  C   UNL     1       4.468  -1.334  -4.989  1.00  0.00     0.086 A 
ATOM      8  C   UNL     1       3.996  -2.049  -3.831  1.00  0.00     0.106 A 
ATOM      9  N   UNL     1       5.006  -2.692  -3.199  1.00  0.00    -0.167 NA
ATOM     10  N   UNL     1       6.106  -2.262  -3.851  1.00  0.00    -0.239 N 
ATOM     11  C   UNL     1       5.783  -1.733  -5.074  1.00  0.00     0.129 A 
BRANCH   8  12
ATOM     12  C   UNL     1       2.620  -2.116  -3.334  1.00  0.00     0.007 A 
ATOM     13  C   UNL     1       0.962  -1.630  -1.633  1.00  0.00     0.119 A 
ATOM     14  C   UNL     1      -0.044  -2.121  -2.467  1.00  0.00     0.046 A 
ATOM     15  C   UNL     1       2.296  -1.643  -2.054  1.00  0.00     0.056 A 
ATOM     16  C   UNL     1       0.274  -2.607  -3.733  1.00  0.00     0.005 A 
ATOM     17  C   UNL     1       1.601  -2.611  -4.161  1.00  0.00     0.011 A 
BRANCH  13  18
ATOM     18  O   UNL     1       0.561  -1.214  -0.390  1.00  0.00    -0.497 OA
ATOM     19  C   UNL     1       1.088   0.055  -0.017  1.00  0.00     0.278 C 
ENDBRANCH  13  18
ENDBRANCH   8  12
BRANCH  10  20
ATOM     20  C   UNL     1       7.430  -2.485  -3.401  1.00  0.00     0.081 A 
ATOM     21  C   UNL     1       7.766  -3.771  -2.943  1.00  0.00     0.079 A 
ATOM     22  C   UNL     1       8.422  -1.462  -3.512  1.00  0.00     0.069 A 
ATOM     23  C   UNL     1       9.099  -4.020  -2.689  1.00  0.00     0.167 A 
ATOM     24  C   UNL     1       9.774  -1.802  -3.348  1.00  0.00     0.066 A 
ATOM     25  C   UNL     1      10.071  -3.073  -2.918  1.00  0.00     0.166 A 
ATOM     26  O   UNL     1       9.631  -5.178  -2.211  1.00  0.00    -0.454 OA
ATOM     27  O   UNL     1      11.321  -3.517  -2.613  1.00  0.00    -0.454 OA
ATOM     28  C   UNL     1      10.994  -4.767  -1.974  1.00  0.00     0.468 C 
BRANCH  22  29
ATOM     29  C   UNL     1       8.059  -0.004  -3.575  1.00  0.00     0.251 C 
ATOM     30  N   UNL     1       9.022   0.926  -3.303  1.00  0.00    -0.366 N 
ATOM     31  O   UNL     1       6.920   0.406  -3.772  1.00  0.00    -0.269 OA
ATOM     32  H   UNL     1       9.950   0.641  -3.139  1.00  0.00     0.159 HD
ATOM     33  H   UNL     1       8.788   1.882  -3.271  1.00  0.00     0.159 HD
ENDBRANCH  22  29
ENDBRANCH  10  20
ENDBRANCH   4   7
ENDBRANCH   2   3
ENDBRANCH   1   2
BRANCH   1  34
ATOM     34  C   UNL     1       5.890   0.440  -9.506  1.00  0.00     0.118 C 
BRANCH  34  35
ATOM     35  N   UNL     1       6.568   1.709  -9.784  1.00  0.00    -0.352 N 
ATOM     36  C   UNL     1       6.478   2.503 -10.911  1.00  0.00     0.251 C 
ATOM     37  H   UNL     1       7.165   2.040  -9.075  1.00  0.00     0.163 HD
ATOM     38  O   UNL     1       7.337   3.347 -11.143  1.00  0.00    -0.269 OA
BRANCH  36  39
ATOM     39  C   UNL     1       5.337   2.313 -11.824  1.00  0.00     0.039 A 
ATOM     40  C   UNL     1       5.487   2.393 -13.210  1.00  0.00     0.014 A 
ATOM     41  C   UNL     1       4.097   2.020 -11.263  1.00  0.00     0.014 A 
ATOM     42  C   UNL     1       4.394   2.091 -14.020  1.00  0.00     0.010 A 
ATOM     43  C   UNL     1       3.083   1.548 -12.052  1.00  0.00     0.010 A 
ATOM     44  C   UNL     1       3.199   1.642 -13.431  1.00  0.00    -0.014 A 
BRANCH  44  45
ATOM     45  C   UNL     1       2.101   1.121 -14.239  1.00  0.00     0.031 A 
ATOM     46  C   UNL     1       2.520   0.045 -15.173  1.00  0.00     0.074 A 
ATOM     47  C   UNL     1       0.802   1.421 -14.013  1.00  0.00     0.049 A 
ATOM     48  N   UNL     1       2.646   0.135 -16.454  1.00  0.00    -0.248 NA
ATOM     49  C   UNL     1       3.045  -1.212 -14.610  1.00  0.00     0.031 C 
ATOM     50  C   UNL     1       0.237   2.245 -12.934  1.00  0.00     0.029 A 
ATOM     51  N   UNL     1      -0.316   0.960 -14.640  1.00  0.00    -0.354 N 
ATOM     52  C   UNL     1       3.007  -1.136 -16.885  1.00  0.00     0.074 A 
ATOM     53  C   UNL     1       3.451  -1.845 -15.713  1.00  0.00     0.031 C 
ATOM     54  C   UNL     1      -1.094   2.032 -12.840  1.00  0.00     0.029 A 
ATOM     55  C   UNL     1      -1.508   1.209 -13.960  1.00  0.00     0.049 A 
ATOM     56  H   UNL     1      -0.284   0.488 -15.503  1.00  0.00     0.167 HD
ATOM     57  C   UNL     1       2.624  -1.591 -18.111  1.00  0.00     0.031 A 
ATOM     58  C   UNL     1      -2.752   0.780 -14.295  1.00  0.00     0.031 A 
ATOM     59  C   UNL     1       2.120  -0.516 -18.931  1.00  0.00     0.049 A 
ATOM     60  C   UNL     1      -2.714   0.474 -15.742  1.00  0.00     0.074 A 
ATOM     61  C   UNL     1       2.644   0.643 -19.463  1.00  0.00     0.029 A 
ATOM     62  N   UNL     1       0.753  -0.366 -18.927  1.00  0.00    -0.354 N 
ATOM     63  N   UNL     1      -2.510   1.383 -16.654  1.00  0.00    -0.248 NA
ATOM     64  C   UNL     1      -2.458  -0.894 -16.159  1.00  0.00     0.031 C 
ATOM     65  C   UNL     1       1.589   1.601 -19.385  1.00  0.00     0.029 A 
ATOM     66  C   UNL     1       0.446   0.969 -18.887  1.00  0.00     0.049 A 
ATOM     67  H   UNL     1       0.099  -1.101 -18.949  1.00  0.00     0.167 HD
ATOM     68  C   UNL     1      -1.679   0.770 -17.579  1.00  0.00     0.074 A 
ATOM     69  C   UNL     1      -1.800  -0.659 -17.298  1.00  0.00     0.031 C 
ATOM     70  C   UNL     1      -0.764   1.500 -18.285  1.00  0.00     0.031 A 
BRANCH  57  71
ATOM     71  C   UNL     1       2.259  -3.032 -18.388  1.00  0.00    -0.014 A 
ATOM     72  C   UNL     1       1.901  -3.401 -19.701  1.00  0.00     0.010 A 
ATOM     73  C   UNL     1       1.985  -3.967 -17.367  1.00  0.00     0.010 A 
ATOM     74  C   UNL     1       1.254  -4.617 -19.966  1.00  0.00     0.020 A 
ATOM     75  C   UNL     1       1.377  -5.197 -17.625  1.00  0.00     0.020 A 
ATOM     76  C   UNL     1       0.990  -5.503 -18.921  1.00  0.00     0.054 A 
BRANCH  76  77
ATOM     77  S   UNL     1       0.089  -7.035 -19.260  1.00  0.00     0.124 S 
ATOM     78  O   UNL     1      -1.218  -6.533 -19.668  1.00  0.00    -0.237 OA
ATOM     79  O   UNL     1       0.897  -7.638 -20.317  1.00  0.00    -0.237 OA
ATOM     80  O   UNL     1       0.121  -7.740 -17.981  1.00  0.00    -0.744 OA
ENDBRANCH  76  77
ENDBRANCH  57  71
BRANCH  58  81
ATOM     81  C   UNL     1      -3.869   0.359 -13.412  1.00  0.00    -0.014 A 
ATOM     82  C   UNL     1      -5.186   0.224 -13.896  1.00  0.00     0.010 A 
ATOM     83  C   UNL     1      -3.580  -0.201 -12.150  1.00  0.00     0.010 A 
ATOM     84  C   UNL     1      -6.159  -0.491 -13.171  1.00  0.00     0.020 A 
ATOM     85  C   UNL     1      -4.543  -0.915 -11.424  1.00  0.00     0.020 A 
ATOM     86  C   UNL     1      -5.825  -1.074 -11.946  1.00  0.00     0.054 A 
BRANCH  86  87
ATOM     87  S   UNL     1      -7.034  -2.135 -11.093  1.00  0.00     0.124 S 
ATOM     88  O   UNL     1      -8.037  -1.172 -10.651  1.00  0.00    -0.237 OA
ATOM     89  O   UNL     1      -7.460  -3.049 -12.150  1.00  0.00    -0.237 OA
ATOM     90  O   UNL     1      -6.254  -2.754 -10.022  1.00  0.00    -0.744 OA
ENDBRANCH  86  87
ENDBRANCH  58  81
BRANCH  70  91
ATOM     91  C   UNL     1      -0.920   3.008 -18.293  1.00  0.00    -0.014 A 
ATOM     92  C   UNL     1      -0.808   3.828 -17.152  1.00  0.00     0.010 A 
ATOM     93  C   UNL     1      -1.075   3.628 -19.545  1.00  0.00     0.010 A 
ATOM     94  C   UNL     1      -0.877   5.228 -17.262  1.00  0.00     0.020 A 
ATOM     95  C   UNL     1      -1.125   5.018 -19.664  1.00  0.00     0.020 A 
ATOM     96  C   UNL     1      -1.038   5.814 -18.521  1.00  0.00     0.054 A 
BRANCH  96  97
ATOM     97  S   UNL     1      -1.097   7.622 -18.672  1.00  0.00     0.124 S 
ATOM     98  O   UNL     1      -2.368   7.954 -18.036  1.00  0.00    -0.237 OA
ATOM     99  O   UNL     1       0.099   8.049 -17.950  1.00  0.00    -0.237 OA
ATOM    100  O   UNL     1      -1.051   7.853 -20.116  1.00  0.00    -0.744 OA
ENDBRANCH  96  97
ENDBRANCH  70  91
ENDBRANCH  44  45
ENDBRANCH  36  39
ENDBRANCH  34  35
ENDBRANCH   1  34
TORSDOF 17
