REMARK SMILES C[C@@H]1CN(C(=O)C[NH+]2CCC(CC(=O)NCCCNC(=O)c3ccc(-c4c5nc(c(-c6ccc(S(=O)(=O)[O-])cc6)c6ccc([nH]6)c(-c6ccc(S(=O)(=O)[O-])cc6)c6nc(c(-c7ccc(S(=O)(=O)[O-])cc7)c7ccc4[nH]7)C=C6)C=C5)cc3)CC2)C[C@@H](C)O1
REMARK SMILES IDX 17 1 16 2 15 3 13 4 14 5 12 7 11 8 8 9 9 10 83 11 10 13
REMARK SMILES IDX 82 14 7 15 5 16 1 17 2 18 3 19 87 20 4 21 85 22 84 23 86 24
REMARK SMILES IDX 6 25 18 26 19 27 20 28 21 30 22 31 23 32 81 33 24 34 80 35
REMARK SMILES IDX 25 36 26 37 27 38 74 39 28 40 79 41 73 42 75 43 29 44 78 45
REMARK SMILES IDX 72 46 71 47 30 49 60 50 41 51 59 52 42 53 45 54 58 55 76 56
REMARK SMILES IDX 43 57 44 58 57 60 77 61 46 62 31 63 32 64 40 65 33 66 39 67
REMARK SMILES IDX 34 68 35 69 36 70 37 71 38 72 61 73 62 74 70 75 63 76 69 77
REMARK SMILES IDX 64 78 65 79 66 80 67 81 68 82 47 83 48 84 56 85 49 86 55 87
REMARK SMILES IDX 50 88 51 89 52 90 53 91 54 92
REMARK H PARENT 15 6 8 12 19 29 75 48 45 59
REMARK Flexibility Score: inf
ROOT
ATOM      1  C   UNL     1       2.688  -0.279   2.941  1.00  0.00     0.042 C 
ENDROOT
BRANCH   1   2
ATOM      2  C   UNL     1       2.335   1.119   2.429  1.00  0.00     0.117 C 
BRANCH   2   3
ATOM      3  N   UNL     1       3.498   1.804   1.873  1.00  0.00    -0.356 N 
ATOM      4  C   UNL     1       3.939   1.969   0.589  1.00  0.00     0.220 C 
ATOM      5  O   UNL     1       5.005   2.567   0.423  1.00  0.00    -0.275 OA
ATOM      6  H   UNL     1       4.074   2.228   2.550  1.00  0.00     0.163 HD
BRANCH   4   7
ATOM      7  C   UNL     1       3.132   1.496  -0.613  1.00  0.00     0.104 C 
BRANCH   7   8
ATOM      8  C   UNL     1       3.493   0.112  -1.230  1.00  0.00     0.009 C 
ATOM      9  N   UNL     1       1.882  -2.270  -1.347  1.00  0.00    -0.327 N 
ATOM     10  C   UNL     1       2.163  -1.653  -2.644  1.00  0.00     0.262 C 
ATOM     11  C   UNL     1       3.151  -2.404  -0.635  1.00  0.00     0.262 C 
ATOM     12  H   UNL     1       1.257  -1.663  -0.817  1.00  0.00     0.348 HD
ATOM     13  C   UNL     1       2.530  -0.180  -2.416  1.00  0.00     0.066 C 
ATOM     14  C   UNL     1       3.511  -0.998  -0.171  1.00  0.00     0.066 C 
BRANCH   9  15
ATOM     15  C   UNL     1       1.109  -3.520  -1.429  1.00  0.00     0.363 C 
BRANCH  15  16
ATOM     16  C   UNL     1      -0.414  -3.213  -1.504  1.00  0.00     0.277 C 
ATOM     17  C   UNL     1      -0.208   0.036  -0.015  1.00  0.00     0.040 C 
ATOM     18  C   UNL     1      -0.766  -0.858   1.082  1.00  0.00     0.135 C 
ATOM     19  C   UNL     1      -0.424  -2.345   0.876  1.00  0.00     0.151 C 
ATOM     20  O   UNL     1      -2.183  -0.670   1.181  1.00  0.00    -0.372 OA
ATOM     21  N   UNL     1      -1.077  -2.819  -0.342  1.00  0.00    -0.333 N 
ATOM     22  C   UNL     1      -2.885  -1.135   0.009  1.00  0.00     0.135 C 
ATOM     23  C   UNL     1      -2.534  -2.606  -0.321  1.00  0.00     0.151 C 
ATOM     24  C   UNL     1      -4.360  -0.917   0.302  1.00  0.00     0.040 C 
ATOM     25  O   UNL     1      -1.018  -3.341  -2.573  1.00  0.00    -0.268 OA
ENDBRANCH  15  16
ENDBRANCH   9  15
ENDBRANCH   7   8
ENDBRANCH   4   7
ENDBRANCH   2   3
ENDBRANCH   1   2
BRANCH   1  26
ATOM     26  C   UNL     1       2.893  -0.397   4.439  1.00  0.00     0.118 C 
BRANCH  26  27
ATOM     27  N   UNL     1       1.652  -0.533   5.186  1.00  0.00    -0.352 N 
ATOM     28  C   UNL     1       1.266  -1.479   6.111  1.00  0.00     0.251 C 
ATOM     29  H   UNL     1       0.980   0.163   5.001  1.00  0.00     0.163 HD
ATOM     30  O   UNL     1       0.114  -1.442   6.543  1.00  0.00    -0.269 OA
BRANCH  28  31
ATOM     31  C   UNL     1       2.184  -2.561   6.561  1.00  0.00     0.039 A 
ATOM     32  C   UNL     1       1.646  -3.817   6.868  1.00  0.00     0.014 A 
ATOM     33  C   UNL     1       3.559  -2.365   6.697  1.00  0.00     0.014 A 
ATOM     34  C   UNL     1       2.487  -4.878   7.227  1.00  0.00     0.010 A 
ATOM     35  C   UNL     1       4.404  -3.448   6.933  1.00  0.00     0.010 A 
ATOM     36  C   UNL     1       3.882  -4.717   7.217  1.00  0.00    -0.014 A 
BRANCH  36  37
ATOM     37  C   UNL     1       4.806  -5.849   7.506  1.00  0.00     0.031 A 
ATOM     38  C   UNL     1       5.796  -5.759   8.640  1.00  0.00     0.074 A 
ATOM     39  C   UNL     1       4.817  -6.930   6.698  1.00  0.00     0.049 A 
ATOM     40  N   UNL     1       6.719  -6.615   9.002  1.00  0.00    -0.248 NA
ATOM     41  C   UNL     1       5.773  -4.530   9.449  1.00  0.00     0.031 C 
ATOM     42  C   UNL     1       3.964  -7.119   5.522  1.00  0.00     0.029 A 
ATOM     43  N   UNL     1       5.582  -8.070   6.737  1.00  0.00    -0.354 N 
ATOM     44  C   UNL     1       7.405  -6.013  10.052  1.00  0.00     0.074 A 
ATOM     45  C   UNL     1       6.829  -4.698  10.229  1.00  0.00     0.031 C 
ATOM     46  C   UNL     1       4.230  -8.313   4.972  1.00  0.00     0.029 A 
ATOM     47  C   UNL     1       5.300  -8.960   5.726  1.00  0.00     0.049 A 
ATOM     48  H   UNL     1       6.268  -8.236   7.424  1.00  0.00     0.167 HD
ATOM     49  C   UNL     1       8.407  -6.512  10.817  1.00  0.00     0.031 A 
ATOM     50  C   UNL     1       5.839 -10.159   5.431  1.00  0.00     0.031 A 
ATOM     51  C   UNL     1       8.963  -7.828  10.654  1.00  0.00     0.049 A 
ATOM     52  C   UNL     1       6.923 -10.714   6.310  1.00  0.00     0.074 A 
ATOM     53  C   UNL     1       9.917  -8.462  11.431  1.00  0.00     0.029 A 
ATOM     54  N   UNL     1       8.621  -8.712   9.641  1.00  0.00    -0.354 N 
ATOM     55  N   UNL     1       7.493 -10.166   7.357  1.00  0.00    -0.248 NA
ATOM     56  C   UNL     1       7.424 -12.055   5.980  1.00  0.00     0.031 C 
ATOM     57  C   UNL     1      10.193  -9.707  10.854  1.00  0.00     0.029 A 
ATOM     58  C   UNL     1       9.366  -9.874   9.754  1.00  0.00     0.049 A 
ATOM     59  H   UNL     1       7.947  -8.539   8.945  1.00  0.00     0.167 HD
ATOM     60  C   UNL     1       8.413 -11.101   7.820  1.00  0.00     0.074 A 
ATOM     61  C   UNL     1       8.306 -12.257   6.951  1.00  0.00     0.031 C 
ATOM     62  C   UNL     1       9.266 -11.010   8.870  1.00  0.00     0.031 A 
BRANCH  49  63
ATOM     63  C   UNL     1       8.972  -5.612  11.888  1.00  0.00    -0.014 A 
ATOM     64  C   UNL     1       8.203  -5.226  13.003  1.00  0.00     0.010 A 
ATOM     65  C   UNL     1      10.291  -5.136  11.775  1.00  0.00     0.010 A 
ATOM     66  C   UNL     1       8.714  -4.324  13.940  1.00  0.00     0.020 A 
ATOM     67  C   UNL     1      10.819  -4.261  12.729  1.00  0.00     0.020 A 
ATOM     68  C   UNL     1      10.016  -3.838  13.790  1.00  0.00     0.054 A 
BRANCH  68  69
ATOM     69  S   UNL     1      10.646  -2.648  15.006  1.00  0.00     0.124 S 
ATOM     70  O   UNL     1       9.935  -1.429  14.627  1.00  0.00    -0.237 OA
ATOM     71  O   UNL     1      10.240  -3.242  16.277  1.00  0.00    -0.237 OA
ATOM     72  O   UNL     1      12.086  -2.631  14.760  1.00  0.00    -0.744 OA
ENDBRANCH  68  69
ENDBRANCH  49  63
BRANCH  50  73
ATOM     73  C   UNL     1       5.329 -10.916   4.255  1.00  0.00    -0.014 A 
ATOM     74  C   UNL     1       4.498 -12.036   4.432  1.00  0.00     0.010 A 
ATOM     75  C   UNL     1       5.610 -10.472   2.950  1.00  0.00     0.010 A 
ATOM     76  C   UNL     1       3.950 -12.692   3.326  1.00  0.00     0.020 A 
ATOM     77  C   UNL     1       5.043 -11.110   1.843  1.00  0.00     0.020 A 
ATOM     78  C   UNL     1       4.216 -12.217   2.038  1.00  0.00     0.054 A 
BRANCH  78  79
ATOM     79  S   UNL     1       3.403 -13.015   0.625  1.00  0.00     0.124 S 
ATOM     80  O   UNL     1       4.133 -14.274   0.525  1.00  0.00    -0.237 OA
ATOM     81  O   UNL     1       2.018 -13.120   1.079  1.00  0.00    -0.237 OA
ATOM     82  O   UNL     1       3.621 -12.073  -0.470  1.00  0.00    -0.744 OA
ENDBRANCH  78  79
ENDBRANCH  50  73
BRANCH  62  83
ATOM     83  C   UNL     1      10.149 -12.197   9.149  1.00  0.00    -0.014 A 
ATOM     84  C   UNL     1      11.229 -12.515   8.306  1.00  0.00     0.010 A 
ATOM     85  C   UNL     1       9.926 -12.975  10.300  1.00  0.00     0.010 A 
ATOM     86  C   UNL     1      12.050 -13.609   8.592  1.00  0.00     0.020 A 
ATOM     87  C   UNL     1      10.761 -14.052  10.605  1.00  0.00     0.020 A 
ATOM     88  C   UNL     1      11.810 -14.372   9.740  1.00  0.00     0.054 A 
BRANCH  88  89
ATOM     89  S   UNL     1      12.912 -15.764  10.109  1.00  0.00     0.124 S 
ATOM     90  O   UNL     1      12.493 -16.753   9.120  1.00  0.00    -0.237 OA
ATOM     91  O   UNL     1      14.238 -15.188   9.899  1.00  0.00    -0.237 OA
ATOM     92  O   UNL     1      12.596 -16.098  11.496  1.00  0.00    -0.744 OA
ENDBRANCH  88  89
ENDBRANCH  62  83
ENDBRANCH  36  37
ENDBRANCH  28  31
ENDBRANCH  26  27
ENDBRANCH   1  26
TORSDOF 16
