REMARK SMILES CCc1sc(NC(=O)[C@H]2CC(C)=C(C)C[C@H]2C(=O)NCCCNC(=O)c2ccc(-c3c4nc(c(-c5ccc(S(=O)(=O)[O-])cc5)c5ccc([nH]5)c(-c5ccc(S(=O)(=O)[O-])cc5)c5nc(c(-c6ccc(S(=O)(=O)[O-])cc6)c6ccc3[nH]6)C=C5)C=C4)cc2)nc1-c1ccccc1
REMARK SMILES IDX 21 1 20 2 19 3 17 4 18 5 16 7 9 8 10 9 11 10 15 11 12 12
REMARK SMILES IDX 13 13 14 14 7 15 6 16 8 18 5 19 3 20 4 21 87 22 86 23 2 24
REMARK SMILES IDX 1 25 88 26 89 27 93 28 90 29 92 30 91 31 22 32 23 33 24 34
REMARK SMILES IDX 25 36 26 37 27 38 85 39 28 40 84 41 29 42 30 43 31 44 78 45
REMARK SMILES IDX 32 46 83 47 77 48 79 49 33 50 82 51 76 52 75 53 34 55 64 56
REMARK SMILES IDX 45 57 63 58 46 59 49 60 62 61 80 62 47 63 48 64 61 66 81 67
REMARK SMILES IDX 50 68 35 69 36 70 44 71 37 72 43 73 38 74 39 75 40 76 41 77
REMARK SMILES IDX 42 78 65 79 66 80 74 81 67 82 73 83 68 84 69 85 70 86 71 87
REMARK SMILES IDX 72 88 51 89 52 90 60 91 53 92 59 93 54 94 55 95 56 96 57 97
REMARK SMILES IDX 58 98
REMARK H PARENT 19 6 6 17 23 35 79 54 49 65
REMARK Flexibility Score: inf
ROOT
ATOM      1  C   UNL     1       4.994  -4.685   8.020  1.00  0.00     0.042 C 
ENDROOT
BRANCH   1   2
ATOM      2  C   UNL     1       3.923  -5.757   8.166  1.00  0.00     0.117 C 
BRANCH   2   3
ATOM      3  N   UNL     1       2.617  -5.231   8.505  1.00  0.00    -0.356 N 
ATOM      4  C   UNL     1       1.534  -4.898   7.766  1.00  0.00     0.224 C 
ATOM      5  O   UNL     1       0.552  -4.470   8.387  1.00  0.00    -0.275 OA
ATOM      6  H   UNL     1       2.491  -5.087   9.471  1.00  0.00     0.163 HD
BRANCH   4   7
ATOM      7  C   UNL     1       1.434  -5.064   6.248  1.00  0.00     0.095 C 
ATOM      8  C   UNL     1       2.070  -4.013   5.316  1.00  0.00     0.095 C 
ATOM      9  C   UNL     1       3.398  -4.433   4.666  1.00  0.00     0.045 C 
ATOM     10  C   UNL     1       3.691  -5.911   4.566  1.00  0.00    -0.074 C 
ATOM     11  C   UNL     1       1.591  -6.517   5.787  1.00  0.00     0.045 C 
ATOM     12  C   UNL     1       5.018  -6.212   3.910  1.00  0.00     0.039 C 
ATOM     13  C   UNL     1       2.864  -6.858   5.056  1.00  0.00    -0.074 C 
ATOM     14  C   UNL     1       3.168  -8.333   4.985  1.00  0.00     0.039 C 
BRANCH   8  15
ATOM     15  C   UNL     1       2.266  -2.641   5.963  1.00  0.00     0.230 C 
ATOM     16  N   UNL     1       2.033  -1.452   5.359  1.00  0.00    -0.302 N 
ATOM     17  H   UNL     1       2.218  -0.696   5.962  1.00  0.00     0.172 HD
ATOM     18  O   UNL     1       2.734  -2.557   7.106  1.00  0.00    -0.274 OA
BRANCH  16  19
ATOM     19  C   UNL     1       1.610  -1.027   4.134  1.00  0.00     0.190 A 
ATOM     20  C   UNL     1       0.834  -0.683   1.859  1.00  0.00     0.034 A 
ATOM     21  S   UNL     1       1.312  -2.034   2.807  1.00  0.00    -0.101 S 
ATOM     22  C   UNL     1       0.950   0.459   2.636  1.00  0.00     0.087 A 
ATOM     23  N   UNL     1       1.425   0.253   3.918  1.00  0.00    -0.220 NA
BRANCH  20  24
ATOM     24  C   UNL     1       0.377  -0.885   0.446  1.00  0.00     0.046 C 
ATOM     25  C   UNL     1       1.212  -0.120  -0.570  1.00  0.00     0.010 C 
ENDBRANCH  20  24
BRANCH  22  26
ATOM     26  C   UNL     1       0.635   1.798   2.174  1.00  0.00     0.001 A 
ATOM     27  C   UNL     1      -0.670   2.132   1.789  1.00  0.00     0.010 A 
ATOM     28  C   UNL     1       1.647   2.761   2.094  1.00  0.00     0.010 A 
ATOM     29  C   UNL     1      -0.950   3.408   1.296  1.00  0.00     0.001 A 
ATOM     30  C   UNL     1       1.364   4.035   1.597  1.00  0.00     0.001 A 
ATOM     31  C   UNL     1       0.069   4.354   1.192  1.00  0.00     0.000 A 
ENDBRANCH  22  26
ENDBRANCH  16  19
ENDBRANCH   8  15
ENDBRANCH   4   7
ENDBRANCH   2   3
ENDBRANCH   1   2
BRANCH   1  32
ATOM     32  C   UNL     1       5.202  -3.846   9.273  1.00  0.00     0.118 C 
BRANCH  32  33
ATOM     33  N   UNL     1       5.753  -4.643  10.360  1.00  0.00    -0.352 N 
ATOM     34  C   UNL     1       7.003  -4.612  10.922  1.00  0.00     0.251 C 
ATOM     35  H   UNL     1       5.135  -5.304  10.749  1.00  0.00     0.163 HD
ATOM     36  O   UNL     1       7.377  -5.557  11.612  1.00  0.00    -0.269 OA
BRANCH  34  37
ATOM     37  C   UNL     1       7.896  -3.451  10.709  1.00  0.00     0.039 A 
ATOM     38  C   UNL     1       9.267  -3.672  10.549  1.00  0.00     0.014 A 
ATOM     39  C   UNL     1       7.399  -2.144  10.742  1.00  0.00     0.014 A 
ATOM     40  C   UNL     1      10.133  -2.587  10.392  1.00  0.00     0.010 A 
ATOM     41  C   UNL     1       8.252  -1.068  10.516  1.00  0.00     0.010 A 
ATOM     42  C   UNL     1       9.630  -1.276  10.361  1.00  0.00    -0.014 A 
BRANCH  42  43
ATOM     43  C   UNL     1      10.531  -0.107  10.212  1.00  0.00     0.031 A 
ATOM     44  C   UNL     1      10.682   0.875  11.342  1.00  0.00     0.074 A 
ATOM     45  C   UNL     1      11.168   0.103   9.044  1.00  0.00     0.049 A 
ATOM     46  N   UNL     1      11.370   1.987  11.384  1.00  0.00    -0.248 NA
ATOM     47  C   UNL     1       9.941   0.580  12.580  1.00  0.00     0.031 C 
ATOM     48  C   UNL     1      11.078  -0.758   7.863  1.00  0.00     0.029 A 
ATOM     49  N   UNL     1      12.013   1.112   8.658  1.00  0.00    -0.354 N 
ATOM     50  C   UNL     1      11.123   2.537  12.637  1.00  0.00     0.074 A 
ATOM     51  C   UNL     1      10.192   1.657  13.309  1.00  0.00     0.031 C 
ATOM     52  C   UNL     1      11.858  -0.253   6.893  1.00  0.00     0.029 A 
ATOM     53  C   UNL     1      12.473   0.982   7.370  1.00  0.00     0.049 A 
ATOM     54  H   UNL     1      12.265   1.859   9.247  1.00  0.00     0.167 HD
ATOM     55  C   UNL     1      11.636   3.665  13.186  1.00  0.00     0.031 A 
ATOM     56  C   UNL     1      13.297   1.768   6.652  1.00  0.00     0.031 A 
ATOM     57  C   UNL     1      12.575   4.529  12.523  1.00  0.00     0.049 A 
ATOM     58  C   UNL     1      13.864   3.009   7.282  1.00  0.00     0.074 A 
ATOM     59  C   UNL     1      13.200   5.662  13.014  1.00  0.00     0.029 A 
ATOM     60  N   UNL     1      13.026   4.354  11.223  1.00  0.00    -0.354 N 
ATOM     61  N   UNL     1      13.660   3.486   8.487  1.00  0.00    -0.248 NA
ATOM     62  C   UNL     1      14.777   3.813   6.459  1.00  0.00     0.031 C 
ATOM     63  C   UNL     1      14.001   6.193  11.996  1.00  0.00     0.029 A 
ATOM     64  C   UNL     1      13.908   5.367  10.887  1.00  0.00     0.049 A 
ATOM     65  H   UNL     1      12.758   3.618  10.627  1.00  0.00     0.167 HD
ATOM     66  C   UNL     1      14.437   4.635   8.575  1.00  0.00     0.074 A 
ATOM     67  C   UNL     1      15.121   4.776   7.305  1.00  0.00     0.031 C 
ATOM     68  C   UNL     1      14.573   5.494   9.615  1.00  0.00     0.031 A 
BRANCH  55  69
ATOM     69  C   UNL     1      11.171   4.026  14.572  1.00  0.00    -0.014 A 
ATOM     70  C   UNL     1      11.570   3.273  15.692  1.00  0.00     0.010 A 
ATOM     71  C   UNL     1      10.318   5.129  14.758  1.00  0.00     0.010 A 
ATOM     72  C   UNL     1      11.078   3.579  16.963  1.00  0.00     0.020 A 
ATOM     73  C   UNL     1       9.845   5.455  16.033  1.00  0.00     0.020 A 
ATOM     74  C   UNL     1      10.208   4.661  17.123  1.00  0.00     0.054 A 
BRANCH  74  75
ATOM     75  S   UNL     1       9.570   5.032  18.781  1.00  0.00     0.124 S 
ATOM     76  O   UNL     1       8.531   4.017  18.936  1.00  0.00    -0.237 OA
ATOM     77  O   UNL     1      10.747   4.859  19.628  1.00  0.00    -0.237 OA
ATOM     78  O   UNL     1       9.087   6.406  18.665  1.00  0.00    -0.744 OA
ENDBRANCH  74  75
ENDBRANCH  55  69
BRANCH  56  79
ATOM     79  C   UNL     1      13.659   1.376   5.264  1.00  0.00    -0.014 A 
ATOM     80  C   UNL     1      14.928   0.836   4.992  1.00  0.00     0.010 A 
ATOM     81  C   UNL     1      12.723   1.492   4.221  1.00  0.00     0.010 A 
ATOM     82  C   UNL     1      15.254   0.416   3.699  1.00  0.00     0.020 A 
ATOM     83  C   UNL     1      13.039   1.054   2.932  1.00  0.00     0.020 A 
ATOM     84  C   UNL     1      14.306   0.522   2.678  1.00  0.00     0.054 A 
BRANCH  84  85
ATOM     85  S   UNL     1      14.720  -0.109   1.028  1.00  0.00     0.124 S 
ATOM     86  O   UNL     1      15.592   0.940   0.511  1.00  0.00    -0.237 OA
ATOM     87  O   UNL     1      15.370  -1.383   1.329  1.00  0.00    -0.237 OA
ATOM     88  O   UNL     1      13.419  -0.225   0.372  1.00  0.00    -0.744 OA
ENDBRANCH  84  85
ENDBRANCH  56  79
BRANCH  68  89
ATOM     89  C   UNL     1      15.514   6.653   9.431  1.00  0.00    -0.014 A 
ATOM     90  C   UNL     1      15.154   7.761   8.644  1.00  0.00     0.010 A 
ATOM     91  C   UNL     1      16.753   6.654  10.096  1.00  0.00     0.010 A 
ATOM     92  C   UNL     1      16.030   8.840   8.504  1.00  0.00     0.020 A 
ATOM     93  C   UNL     1      17.622   7.740   9.976  1.00  0.00     0.020 A 
ATOM     94  C   UNL     1      17.261   8.822   9.169  1.00  0.00     0.054 A 
BRANCH  94  95
ATOM     95  S   UNL     1      18.364  10.252   9.009  1.00  0.00     0.124 S 
ATOM     96  O   UNL     1      18.940  10.044   7.683  1.00  0.00    -0.237 OA
ATOM     97  O   UNL     1      17.447  11.383   9.126  1.00  0.00    -0.237 OA
ATOM     98  O   UNL     1      19.295  10.096  10.125  1.00  0.00    -0.744 OA
ENDBRANCH  94  95
ENDBRANCH  68  89
ENDBRANCH  42  43
ENDBRANCH  34  37
ENDBRANCH  32  33
ENDBRANCH   1  32
TORSDOF 17
