REMARK SMILES O=C(NCCCNC(=O)c1cn(C2CC2)c2cc(N3CC[NH2+]CC3)ccc2c1=O)c1ccc(-c2c3nc(c(-c4ccc(S(=O)(=O)[O-])cc4)c4ccc([nH]4)c(-c4ccc(S(=O)(=O)[O-])cc4)c4nc(c(-c5ccc(S(=O)(=O)[O-])cc5)c5ccc2[nH]5)C=C4)C=C3)cc1
REMARK SMILES IDX 4 1 3 2 1 3 2 4 30 6 31 7 89 8 32 9 88 10 33 11 34 12 35 13
REMARK SMILES IDX 82 14 36 15 87 16 81 17 83 18 37 19 86 20 80 21 79 22 38 24
REMARK SMILES IDX 68 25 49 26 67 27 50 28 53 29 66 30 84 31 51 32 52 33 65 35
REMARK SMILES IDX 85 36 54 37 39 38 40 39 48 40 41 41 47 42 42 43 43 44 44 45
REMARK SMILES IDX 45 46 46 47 69 48 70 49 78 50 71 51 77 52 72 53 73 54 74 55
REMARK SMILES IDX 75 56 76 57 55 58 56 59 64 60 57 61 63 62 58 63 59 64 60 65
REMARK SMILES IDX 61 66 62 67 5 68 6 69 7 70 8 71 9 73 10 74 11 75 28 76 12 77
REMARK SMILES IDX 27 78 29 79 16 80 26 81 17 82 25 83 18 84 13 85 14 86 15 87
REMARK SMILES IDX 19 88 20 89 24 90 21 91 23 92 22 93
REMARK H PARENT 3 5 83 23 53 34 7 72 22 94 22 95
REMARK Flexibility Score: inf
ROOT
ATOM      1  C   UNL     1       4.652  -1.069  -0.934  1.00  0.00     0.118 C 
ENDROOT
BRANCH   1   2
ATOM      2  N   UNL     1       3.222  -0.798  -0.898  1.00  0.00    -0.352 N 
ATOM      3  O   UNL     1       1.232  -0.154  -0.117  1.00  0.00    -0.269 OA
ATOM      4  C   UNL     1       2.456  -0.050  -0.042  1.00  0.00     0.251 C 
ATOM      5  H   UNL     1       2.712  -1.232  -1.619  1.00  0.00     0.163 HD
BRANCH   4   6
ATOM      6  C   UNL     1       3.054   0.867   0.958  1.00  0.00     0.039 A 
ATOM      7  C   UNL     1       2.358   1.094   2.151  1.00  0.00     0.014 A 
ATOM      8  C   UNL     1       4.228   1.581   0.706  1.00  0.00     0.014 A 
ATOM      9  C   UNL     1       2.843   2.016   3.084  1.00  0.00     0.010 A 
ATOM     10  C   UNL     1       4.763   2.425   1.678  1.00  0.00     0.010 A 
ATOM     11  C   UNL     1       4.055   2.686   2.858  1.00  0.00    -0.014 A 
BRANCH  11  12
ATOM     12  C   UNL     1       4.540   3.736   3.792  1.00  0.00     0.031 A 
ATOM     13  C   UNL     1       4.643   5.165   3.317  1.00  0.00     0.074 A 
ATOM     14  C   UNL     1       4.891   3.417   5.053  1.00  0.00     0.049 A 
ATOM     15  N   UNL     1       5.070   6.218   3.964  1.00  0.00    -0.248 NA
ATOM     16  C   UNL     1       4.237   5.445   1.928  1.00  0.00     0.031 C 
ATOM     17  C   UNL     1       4.850   2.072   5.629  1.00  0.00     0.029 A 
ATOM     18  N   UNL     1       5.337   4.207   6.085  1.00  0.00    -0.354 N 
ATOM     19  C   UNL     1       5.004   7.272   3.059  1.00  0.00     0.074 A 
ATOM     20  C   UNL     1       4.548   6.726   1.802  1.00  0.00     0.031 C 
ATOM     21  C   UNL     1       5.200   2.138   6.924  1.00  0.00     0.029 A 
ATOM     22  C   UNL     1       5.527   3.521   7.263  1.00  0.00     0.049 A 
ATOM     23  H   UNL     1       5.504   5.172   5.991  1.00  0.00     0.167 HD
ATOM     24  C   UNL     1       5.267   8.583   3.263  1.00  0.00     0.031 A 
ATOM     25  C   UNL     1       5.902   3.958   8.482  1.00  0.00     0.031 A 
ATOM     26  C   UNL     1       5.665   9.135   4.529  1.00  0.00     0.049 A 
ATOM     27  C   UNL     1       6.165   5.425   8.692  1.00  0.00     0.074 A 
ATOM     28  C   UNL     1       5.920  10.458   4.843  1.00  0.00     0.029 A 
ATOM     29  N   UNL     1       5.837   8.404   5.693  1.00  0.00    -0.354 N 
ATOM     30  N   UNL     1       6.084   6.405   7.825  1.00  0.00    -0.248 NA
ATOM     31  C   UNL     1       6.551   5.848  10.046  1.00  0.00     0.031 C 
ATOM     32  C   UNL     1       6.279  10.524   6.191  1.00  0.00     0.029 A 
ATOM     33  C   UNL     1       6.193   9.249   6.728  1.00  0.00     0.049 A 
ATOM     34  H   UNL     1       5.723   7.429   5.772  1.00  0.00     0.167 HD
ATOM     35  C   UNL     1       6.372   7.565   8.536  1.00  0.00     0.074 A 
ATOM     36  C   UNL     1       6.627   7.166   9.904  1.00  0.00     0.031 C 
ATOM     37  C   UNL     1       6.415   8.844   8.092  1.00  0.00     0.031 A 
BRANCH  24  38
ATOM     38  C   UNL     1       5.100   9.533   2.107  1.00  0.00    -0.014 A 
ATOM     39  C   UNL     1       6.227  10.169   1.556  1.00  0.00     0.010 A 
ATOM     40  C   UNL     1       3.819   9.881   1.642  1.00  0.00     0.010 A 
ATOM     41  C   UNL     1       6.075  11.159   0.582  1.00  0.00     0.020 A 
ATOM     42  C   UNL     1       3.665  10.851   0.648  1.00  0.00     0.020 A 
ATOM     43  C   UNL     1       4.793  11.502   0.143  1.00  0.00     0.054 A 
BRANCH  43  44
ATOM     44  S   UNL     1       4.610  12.809  -1.102  1.00  0.00     0.124 S 
ATOM     45  O   UNL     1       4.788  14.018  -0.305  1.00  0.00    -0.237 OA
ATOM     46  O   UNL     1       5.686  12.509  -2.044  1.00  0.00    -0.237 OA
ATOM     47  O   UNL     1       3.262  12.594  -1.624  1.00  0.00    -0.744 OA
ENDBRANCH  43  44
ENDBRANCH  24  38
BRANCH  25  48
ATOM     48  C   UNL     1       5.969   2.996   9.616  1.00  0.00    -0.014 A 
ATOM     49  C   UNL     1       6.976   2.015   9.672  1.00  0.00     0.010 A 
ATOM     50  C   UNL     1       4.984   3.022  10.620  1.00  0.00     0.010 A 
ATOM     51  C   UNL     1       6.975   1.057  10.690  1.00  0.00     0.020 A 
ATOM     52  C   UNL     1       4.995   2.082  11.654  1.00  0.00     0.020 A 
ATOM     53  C   UNL     1       5.977   1.089  11.668  1.00  0.00     0.054 A 
BRANCH  53  54
ATOM     54  S   UNL     1       5.977  -0.180  12.965  1.00  0.00     0.124 S 
ATOM     55  O   UNL     1       5.401  -1.324  12.263  1.00  0.00    -0.237 OA
ATOM     56  O   UNL     1       7.394  -0.297  13.300  1.00  0.00    -0.237 OA
ATOM     57  O   UNL     1       5.139   0.400  14.011  1.00  0.00    -0.744 OA
ENDBRANCH  53  54
ENDBRANCH  25  48
BRANCH  37  58
ATOM     58  C   UNL     1       6.705   9.937   9.084  1.00  0.00    -0.014 A 
ATOM     59  C   UNL     1       5.686  10.849   9.420  1.00  0.00     0.010 A 
ATOM     60  C   UNL     1       8.006  10.152   9.568  1.00  0.00     0.010 A 
ATOM     61  C   UNL     1       5.968  11.974  10.197  1.00  0.00     0.020 A 
ATOM     62  C   UNL     1       8.287  11.264  10.367  1.00  0.00     0.020 A 
ATOM     63  C   UNL     1       7.272  12.181  10.655  1.00  0.00     0.054 A 
BRANCH  63  64
ATOM     64  S   UNL     1       7.632  13.663  11.636  1.00  0.00     0.124 S 
ATOM     65  O   UNL     1       7.763  14.689  10.607  1.00  0.00    -0.237 OA
ATOM     66  O   UNL     1       6.455  13.779  12.494  1.00  0.00    -0.237 OA
ATOM     67  O   UNL     1       8.868  13.316  12.335  1.00  0.00    -0.744 OA
ENDBRANCH  63  64
ENDBRANCH  37  58
ENDBRANCH  11  12
ENDBRANCH   4   6
ENDBRANCH   1   2
BRANCH   1  68
ATOM     68  C   UNL     1       4.980  -2.531  -0.664  1.00  0.00     0.042 C 
BRANCH  68  69
ATOM     69  C   UNL     1       4.318  -3.510  -1.621  1.00  0.00     0.118 C 
BRANCH  69  70
ATOM     70  N   UNL     1       4.715  -3.313  -3.010  1.00  0.00    -0.352 N 
ATOM     71  C   UNL     1       5.510  -4.079  -3.819  1.00  0.00     0.256 C 
ATOM     72  H   UNL     1       4.352  -2.502  -3.434  1.00  0.00     0.163 HD
ATOM     73  O   UNL     1       5.732  -3.720  -4.973  1.00  0.00    -0.269 OA
BRANCH  71  74
ATOM     74  C   UNL     1       6.046  -5.346  -3.291  1.00  0.00     0.104 A 
ATOM     75  C   UNL     1       5.190  -6.290  -2.875  1.00  0.00     0.104 A 
ATOM     76  C   UNL     1       7.491  -5.635  -3.207  1.00  0.00     0.202 A 
ATOM     77  N   UNL     1       5.525  -7.481  -2.264  1.00  0.00    -0.343 N 
ATOM     78  C   UNL     1       7.883  -6.980  -2.717  1.00  0.00     0.047 A 
ATOM     79  O   UNL     1       8.345  -4.805  -3.504  1.00  0.00    -0.288 OA
ATOM     80  C   UNL     1       6.897  -7.879  -2.264  1.00  0.00     0.054 A 
ATOM     81  C   UNL     1       9.237  -7.321  -2.685  1.00  0.00     0.016 A 
ATOM     82  C   UNL     1       7.318  -9.145  -1.819  1.00  0.00     0.053 A 
ATOM     83  C   UNL     1       9.622  -8.566  -2.194  1.00  0.00     0.027 A 
ATOM     84  C   UNL     1       8.675  -9.500  -1.758  1.00  0.00     0.039 A 
BRANCH  77  85
ATOM     85  C   UNL     1       4.522  -8.187  -1.426  1.00  0.00     0.087 C 
ATOM     86  C   UNL     1       3.147  -7.668  -1.077  1.00  0.00     0.027 C 
ATOM     87  C   UNL     1       3.297  -8.818  -2.030  1.00  0.00     0.027 C 
ENDBRANCH  77  85
BRANCH  84  88
ATOM     88  N   UNL     1       9.077 -10.734  -1.300  1.00  0.00    -0.360 N 
ATOM     89  C   UNL     1       8.448 -11.972  -1.759  1.00  0.00     0.178 C 
ATOM     90  C   UNL     1      10.082 -10.858  -0.239  1.00  0.00     0.178 C 
ATOM     91  C   UNL     1       9.544 -13.015  -2.086  1.00  0.00     0.282 C 
ATOM     92  C   UNL     1      11.116 -11.944  -0.612  1.00  0.00     0.282 C 
ATOM     93  N   UNL     1      10.506 -13.242  -0.982  1.00  0.00    -0.343 N 
ATOM     94  H   UNL     1      11.233 -13.889  -1.288  1.00  0.00     0.346 HD
ATOM     95  H   UNL     1      10.024 -13.643  -0.177  1.00  0.00     0.346 HD
ENDBRANCH  84  88
ENDBRANCH  71  74
ENDBRANCH  69  70
ENDBRANCH  68  69
ENDBRANCH   1  68
TORSDOF 15
