REMARK SMILES CC(C)C[C@@H]([NH2+][C@H]1CCOC2(CCOCC2)C1)C(=O)NCCCNC(=O)c1ccc(-c2c3nc(c(-c4ccc(S(=O)(=O)[O-])cc4)c4ccc([nH]4)c(-c4ccc(S(=O)(=O)[O-])cc4)c4nc(c(-c5ccc(S(=O)(=O)[O-])cc5)c5ccc2[nH]5)C=C4)C=C3)cc1
REMARK SMILES IDX 22 1 21 2 20 3 18 4 19 5 5 7 4 8 2 9 1 10 3 11 6 12 7 15
REMARK SMILES IDX 8 16 17 17 9 18 11 19 10 20 12 21 16 22 13 23 15 24 14 25
REMARK SMILES IDX 23 26 24 27 25 28 26 30 27 31 28 32 86 33 29 34 85 35 30 36
REMARK SMILES IDX 31 37 32 38 79 39 33 40 84 41 78 42 80 43 34 44 83 45 77 46
REMARK SMILES IDX 76 47 35 49 65 50 46 51 64 52 47 53 50 54 63 55 81 56 48 57
REMARK SMILES IDX 49 58 62 60 82 61 51 62 36 63 37 64 45 65 38 66 44 67 39 68
REMARK SMILES IDX 40 69 41 70 42 71 43 72 66 73 67 74 75 75 68 76 74 77 69 78
REMARK SMILES IDX 70 79 71 80 72 81 73 82 52 83 53 84 61 85 54 86 60 87 55 88
REMARK SMILES IDX 56 89 57 90 58 91 59 92
REMARK H PARENT 20 6 6 13 6 14 24 29 80 48 50 59
REMARK Flexibility Score: inf
ROOT
ATOM      1  C   UNL     1       1.368   6.062  -3.040  1.00  0.00     0.042 C 
ENDROOT
BRANCH   1   2
ATOM      2  C   UNL     1       0.674   5.023  -2.164  1.00  0.00     0.118 C 
BRANCH   2   3
ATOM      3  N   UNL     1       1.417   4.799  -0.939  1.00  0.00    -0.351 N 
ATOM      4  C   UNL     1       1.171   5.231   0.327  1.00  0.00     0.278 C 
ATOM      5  O   UNL     1       2.062   5.048   1.164  1.00  0.00    -0.268 OA
ATOM      6  H   UNL     1       2.226   4.248  -1.040  1.00  0.00     0.163 HD
BRANCH   4   7
ATOM      7  C   UNL     1      -0.160   5.904   0.731  1.00  0.00     0.273 C 
BRANCH   7   8
ATOM      8  C   UNL     1      -0.221   7.343   0.179  1.00  0.00     0.078 C 
BRANCH   8   9
ATOM      9  C   UNL     1      -1.510   8.143   0.463  1.00  0.00    -0.011 C 
ATOM     10  C   UNL     1      -1.859   8.211   1.948  1.00  0.00     0.007 C 
ATOM     11  C   UNL     1      -1.367   9.561  -0.101  1.00  0.00     0.007 C 
ENDBRANCH   8   9
ENDBRANCH   7   8
BRANCH   7  12
ATOM     12  N   UNL     1      -1.346   5.092   0.362  1.00  0.00    -0.333 N 
ATOM     13  H   UNL     1      -1.413   5.086  -0.655  1.00  0.00     0.347 HD
ATOM     14  H   UNL     1      -2.134   5.533   0.837  1.00  0.00     0.347 HD
BRANCH  12  15
ATOM     15  C   UNL     1      -1.351   3.687   0.820  1.00  0.00     0.188 C 
ATOM     16  C   UNL     1      -0.749   3.420   2.205  1.00  0.00     0.093 C 
ATOM     17  C   UNL     1      -2.810   3.186   0.820  1.00  0.00     0.100 C 
ATOM     18  C   UNL     1      -0.889   1.952   2.560  1.00  0.00     0.167 C 
ATOM     19  C   UNL     1      -2.955   1.734   1.324  1.00  0.00     0.078 C 
ATOM     20  O   UNL     1      -2.257   1.567   2.570  1.00  0.00    -0.374 OA
ATOM     21  C   UNL     1      -2.490   0.707   0.275  1.00  0.00     0.064 C 
ATOM     22  C   UNL     1      -4.435   1.447   1.647  1.00  0.00     0.064 C 
ATOM     23  C   UNL     1      -2.783  -0.714   0.742  1.00  0.00     0.163 C 
ATOM     24  C   UNL     1      -4.624  -0.012   2.048  1.00  0.00     0.163 C 
ATOM     25  O   UNL     1      -4.177  -0.879   1.006  1.00  0.00    -0.381 OA
ENDBRANCH  12  15
ENDBRANCH   7  12
ENDBRANCH   4   7
ENDBRANCH   2   3
ENDBRANCH   1   2
BRANCH   1  26
ATOM     26  C   UNL     1       2.752   5.639  -3.518  1.00  0.00     0.118 C 
BRANCH  26  27
ATOM     27  N   UNL     1       2.705   4.547  -4.480  1.00  0.00    -0.352 N 
ATOM     28  C   UNL     1       3.303   4.470  -5.715  1.00  0.00     0.251 C 
ATOM     29  H   UNL     1       2.176   3.762  -4.210  1.00  0.00     0.163 HD
ATOM     30  O   UNL     1       3.033   3.546  -6.477  1.00  0.00    -0.269 OA
BRANCH  28  31
ATOM     31  C   UNL     1       4.251   5.526  -6.125  1.00  0.00     0.039 A 
ATOM     32  C   UNL     1       4.082   6.150  -7.364  1.00  0.00     0.014 A 
ATOM     33  C   UNL     1       5.281   5.921  -5.267  1.00  0.00     0.014 A 
ATOM     34  C   UNL     1       4.906   7.223  -7.713  1.00  0.00     0.010 A 
ATOM     35  C   UNL     1       6.057   7.030  -5.589  1.00  0.00     0.010 A 
ATOM     36  C   UNL     1       5.875   7.694  -6.813  1.00  0.00    -0.014 A 
BRANCH  36  37
ATOM     37  C   UNL     1       6.718   8.877  -7.116  1.00  0.00     0.031 A 
ATOM     38  C   UNL     1       8.208   8.717  -7.241  1.00  0.00     0.074 A 
ATOM     39  C   UNL     1       6.160  10.103  -7.178  1.00  0.00     0.049 A 
ATOM     40  N   UNL     1       9.132   9.638  -7.343  1.00  0.00    -0.248 NA
ATOM     41  C   UNL     1       8.730   7.341  -7.216  1.00  0.00     0.031 C 
ATOM     42  C   UNL     1       4.731  10.394  -7.047  1.00  0.00     0.029 A 
ATOM     43  N   UNL     1       6.735  11.338  -7.347  1.00  0.00    -0.354 N 
ATOM     44  C   UNL     1      10.342   8.956  -7.363  1.00  0.00     0.074 A 
ATOM     45  C   UNL     1      10.038   7.548  -7.228  1.00  0.00     0.031 C 
ATOM     46  C   UNL     1       4.540  11.719  -7.150  1.00  0.00     0.029 A 
ATOM     47  C   UNL     1       5.834  12.376  -7.308  1.00  0.00     0.049 A 
ATOM     48  H   UNL     1       7.702  11.469  -7.482  1.00  0.00     0.167 HD
ATOM     49  C   UNL     1      11.594   9.456  -7.492  1.00  0.00     0.031 A 
ATOM     50  C   UNL     1       6.028  13.708  -7.374  1.00  0.00     0.031 A 
ATOM     51  C   UNL     1      11.890  10.855  -7.648  1.00  0.00     0.049 A 
ATOM     52  C   UNL     1       7.426  14.241  -7.523  1.00  0.00     0.074 A 
ATOM     53  C   UNL     1      13.122  11.457  -7.834  1.00  0.00     0.029 A 
ATOM     54  N   UNL     1      10.944  11.868  -7.643  1.00  0.00    -0.354 N 
ATOM     55  N   UNL     1       8.557  13.578  -7.577  1.00  0.00    -0.248 NA
ATOM     56  C   UNL     1       7.576  15.700  -7.627  1.00  0.00     0.031 C 
ATOM     57  C   UNL     1      12.924  12.840  -7.906  1.00  0.00     0.029 A 
ATOM     58  C   UNL     1      11.565  13.093  -7.814  1.00  0.00     0.049 A 
ATOM     59  H   UNL     1       9.975  11.736  -7.534  1.00  0.00     0.167 HD
ATOM     60  C   UNL     1       9.548  14.536  -7.756  1.00  0.00     0.074 A 
ATOM     61  C   UNL     1       8.885  15.823  -7.803  1.00  0.00     0.031 C 
ATOM     62  C   UNL     1      10.887  14.363  -7.877  1.00  0.00     0.031 A 
BRANCH  49  63
ATOM     63  C   UNL     1      12.738   8.479  -7.461  1.00  0.00    -0.014 A 
ATOM     64  C   UNL     1      12.969   7.597  -8.533  1.00  0.00     0.010 A 
ATOM     65  C   UNL     1      13.613   8.462  -6.360  1.00  0.00     0.010 A 
ATOM     66  C   UNL     1      14.025   6.684  -8.482  1.00  0.00     0.020 A 
ATOM     67  C   UNL     1      14.687   7.568  -6.318  1.00  0.00     0.020 A 
ATOM     68  C   UNL     1      14.874   6.671  -7.372  1.00  0.00     0.054 A 
BRANCH  68  69
ATOM     69  S   UNL     1      16.245   5.484  -7.337  1.00  0.00     0.124 S 
ATOM     70  O   UNL     1      15.552   4.235  -7.034  1.00  0.00    -0.237 OA
ATOM     71  O   UNL     1      16.793   5.586  -8.687  1.00  0.00    -0.237 OA
ATOM     72  O   UNL     1      17.113   5.989  -6.276  1.00  0.00    -0.744 OA
ENDBRANCH  68  69
ENDBRANCH  49  63
BRANCH  50  73
ATOM     73  C   UNL     1       4.862  14.631  -7.312  1.00  0.00    -0.014 A 
ATOM     74  C   UNL     1       4.430  15.307  -8.466  1.00  0.00     0.010 A 
ATOM     75  C   UNL     1       4.165  14.822  -6.105  1.00  0.00     0.010 A 
ATOM     76  C   UNL     1       3.330  16.169  -8.412  1.00  0.00     0.020 A 
ATOM     77  C   UNL     1       3.050  15.664  -6.053  1.00  0.00     0.020 A 
ATOM     78  C   UNL     1       2.647  16.341  -7.205  1.00  0.00     0.054 A 
BRANCH  78  79
ATOM     79  S   UNL     1       1.187  17.419  -7.170  1.00  0.00     0.124 S 
ATOM     80  O   UNL     1       1.790  18.747  -7.189  1.00  0.00    -0.237 OA
ATOM     81  O   UNL     1       0.475  17.029  -8.385  1.00  0.00    -0.237 OA
ATOM     82  O   UNL     1       0.521  17.049  -5.923  1.00  0.00    -0.744 OA
ENDBRANCH  78  79
ENDBRANCH  50  73
BRANCH  62  83
ATOM     83  C   UNL     1      11.730  15.583  -8.128  1.00  0.00    -0.014 A 
ATOM     84  C   UNL     1      12.032  16.486  -7.095  1.00  0.00     0.010 A 
ATOM     85  C   UNL     1      12.300  15.773  -9.400  1.00  0.00     0.010 A 
ATOM     86  C   UNL     1      12.883  17.569  -7.335  1.00  0.00     0.020 A 
ATOM     87  C   UNL     1      13.168  16.841  -9.637  1.00  0.00     0.020 A 
ATOM     88  C   UNL     1      13.449  17.737  -8.603  1.00  0.00     0.054 A 
BRANCH  88  89
ATOM     89  S   UNL     1      14.611  19.105  -8.870  1.00  0.00     0.124 S 
ATOM     90  O   UNL     1      13.714  20.254  -8.946  1.00  0.00    -0.237 OA
ATOM     91  O   UNL     1      15.456  19.045  -7.679  1.00  0.00    -0.237 OA
ATOM     92  O   UNL     1      15.280  18.752 -10.119  1.00  0.00    -0.744 OA
ENDBRANCH  88  89
ENDBRANCH  62  83
ENDBRANCH  36  37
ENDBRANCH  28  31
ENDBRANCH  26  27
ENDBRANCH   1  26
TORSDOF 17
