REMARK SMILES CCCc1c(C(=O)NCCCNC(=O)c2ccc(-c3c4nc(c(-c5ccc(S(=O)(=O)[O-])cc5)c5ccc([nH]5)c(-c5ccc(S(=O)(=O)[O-])cc5)c5nc(c(-c6ccc(S(=O)(=O)[O-])cc6)c6ccc3[nH]6)C=C5)C=C4)cc2)nnn1-c1ccccc1[N+](=O)[O-]
REMARK SMILES IDX 10 1 9 2 8 3 6 4 7 5 5 7 4 8 77 9 75 10 76 11 3 12 2 13 1 14
REMARK SMILES IDX 78 15 79 16 83 17 80 18 82 19 81 20 84 21 85 22 86 23 11 24
REMARK SMILES IDX 12 25 13 26 14 28 15 29 16 30 74 31 17 32 73 33 18 34 19 35
REMARK SMILES IDX 20 36 67 37 21 38 72 39 66 40 68 41 22 42 71 43 65 44 64 45
REMARK SMILES IDX 23 47 53 48 34 49 52 50 35 51 38 52 51 53 69 54 36 55 37 56
REMARK SMILES IDX 50 58 70 59 39 60 24 61 25 62 33 63 26 64 32 65 27 66 28 67
REMARK SMILES IDX 29 68 30 69 31 70 54 71 55 72 63 73 56 74 62 75 57 76 58 77
REMARK SMILES IDX 59 78 60 79 61 80 40 81 41 82 49 83 42 84 48 85 43 86 44 87
REMARK SMILES IDX 45 88 46 89 47 90
REMARK H PARENT 8 6 12 27 68 46 38 57
REMARK Flexibility Score: inf
ROOT
ATOM      1  C   UNL     1      -2.224  -0.356   1.663  1.00  0.00     0.042 C 
ENDROOT
BRANCH   1   2
ATOM      2  C   UNL     1      -1.212   0.459   0.884  1.00  0.00     0.118 C 
BRANCH   2   3
ATOM      3  N   UNL     1      -1.355   0.603  -0.530  1.00  0.00    -0.351 N 
ATOM      4  C   UNL     1      -0.731   1.554  -1.315  1.00  0.00     0.273 C 
ATOM      5  O   UNL     1      -0.846   1.419  -2.534  1.00  0.00    -0.267 OA
ATOM      6  H   UNL     1      -1.952  -0.032  -0.987  1.00  0.00     0.163 HD
BRANCH   4   7
ATOM      7  C   UNL     1      -0.033   2.725  -0.746  1.00  0.00     0.174 A 
ATOM      8  C   UNL     1       0.781   2.988   0.376  1.00  0.00     0.078 A 
ATOM      9  N   UNL     1       1.028   4.366   0.257  1.00  0.00    -0.210 N 
ATOM     10  N   UNL     1      -0.221   3.910  -1.431  1.00  0.00    -0.124 NA
ATOM     11  N   UNL     1       0.326   4.895  -0.756  1.00  0.00    -0.061 NA
BRANCH   8  12
ATOM     12  C   UNL     1       1.228   2.235   1.605  1.00  0.00     0.059 C 
BRANCH  12  13
ATOM     13  C   UNL     1       2.024   0.931   1.499  1.00  0.00     0.003 C 
ATOM     14  C   UNL     1       2.535   0.487   0.144  1.00  0.00     0.004 C 
ENDBRANCH  12  13
ENDBRANCH   8  12
BRANCH   9  15
ATOM     15  C   UNL     1       1.666   5.241   1.168  1.00  0.00     0.144 A 
ATOM     16  C   UNL     1       0.915   6.320   1.666  1.00  0.00     0.036 A 
ATOM     17  C   UNL     1       2.969   5.041   1.641  1.00  0.00     0.294 A 
ATOM     18  C   UNL     1       1.436   7.126   2.681  1.00  0.00     0.003 A 
ATOM     19  C   UNL     1       3.489   5.849   2.663  1.00  0.00     0.088 A 
ATOM     20  C   UNL     1       2.712   6.881   3.190  1.00  0.00     0.007 A 
BRANCH  17  21
ATOM     21  N   UNL     1       3.861   4.055   1.044  1.00  0.00     0.065 N 
ATOM     22  O   UNL     1       4.572   3.400   1.818  1.00  0.00    -0.258 OA
ATOM     23  O   UNL     1       3.852   3.944  -0.187  1.00  0.00    -0.258 OA
ENDBRANCH  17  21
ENDBRANCH   9  15
ENDBRANCH   4   7
ENDBRANCH   2   3
ENDBRANCH   1   2
BRANCH   1  24
ATOM     24  C   UNL     1      -1.927  -1.845   1.633  1.00  0.00     0.118 C 
BRANCH  24  25
ATOM     25  N   UNL     1      -0.711  -2.275   2.342  1.00  0.00    -0.352 N 
ATOM     26  C   UNL     1      -0.290  -3.595   2.560  1.00  0.00     0.251 C 
ATOM     27  H   UNL     1      -0.133  -1.562   2.699  1.00  0.00     0.163 HD
ATOM     28  O   UNL     1       0.652  -3.869   3.255  1.00  0.00    -0.269 OA
BRANCH  26  29
ATOM     29  C   UNL     1      -1.091  -4.639   1.875  1.00  0.00     0.039 A 
ATOM     30  C   UNL     1      -1.977  -5.439   2.603  1.00  0.00     0.014 A 
ATOM     31  C   UNL     1      -1.244  -4.451   0.515  1.00  0.00     0.014 A 
ATOM     32  C   UNL     1      -3.150  -5.888   1.982  1.00  0.00     0.010 A 
ATOM     33  C   UNL     1      -2.491  -4.710  -0.007  1.00  0.00     0.010 A 
ATOM     34  C   UNL     1      -3.463  -5.444   0.690  1.00  0.00    -0.014 A 
BRANCH  34  35
ATOM     35  C   UNL     1      -4.814  -5.603   0.111  1.00  0.00     0.031 A 
ATOM     36  C   UNL     1      -6.027  -5.481   0.996  1.00  0.00     0.074 A 
ATOM     37  C   UNL     1      -5.054  -5.596  -1.222  1.00  0.00     0.049 A 
ATOM     38  N   UNL     1      -6.928  -6.386   1.226  1.00  0.00    -0.248 NA
ATOM     39  C   UNL     1      -6.294  -4.211   1.688  1.00  0.00     0.031 C 
ATOM     40  C   UNL     1      -4.109  -5.463  -2.339  1.00  0.00     0.029 A 
ATOM     41  N   UNL     1      -6.258  -5.543  -1.856  1.00  0.00    -0.354 N 
ATOM     42  C   UNL     1      -7.951  -5.777   1.957  1.00  0.00     0.074 A 
ATOM     43  C   UNL     1      -7.463  -4.460   2.291  1.00  0.00     0.031 C 
ATOM     44  C   UNL     1      -4.757  -5.016  -3.433  1.00  0.00     0.029 A 
ATOM     45  C   UNL     1      -6.176  -5.102  -3.167  1.00  0.00     0.049 A 
ATOM     46  H   UNL     1      -7.106  -5.794  -1.425  1.00  0.00     0.167 HD
ATOM     47  C   UNL     1      -9.188  -6.338   2.113  1.00  0.00     0.031 A 
ATOM     48  C   UNL     1      -7.191  -4.857  -4.021  1.00  0.00     0.031 A 
ATOM     49  C   UNL     1      -9.239  -7.693   1.631  1.00  0.00     0.049 A 
ATOM     50  C   UNL     1      -8.330  -5.688  -3.577  1.00  0.00     0.074 A 
ATOM     51  C   UNL     1      -8.583  -8.870   1.931  1.00  0.00     0.029 A 
ATOM     52  N   UNL     1      -9.837  -7.911   0.410  1.00  0.00    -0.354 N 
ATOM     53  N   UNL     1      -8.285  -6.994  -3.555  1.00  0.00    -0.248 NA
ATOM     54  C   UNL     1      -9.370  -5.092  -2.757  1.00  0.00     0.031 C 
ATOM     55  C   UNL     1      -8.376  -9.499   0.666  1.00  0.00     0.029 A 
ATOM     56  C   UNL     1      -8.964  -8.688  -0.309  1.00  0.00     0.049 A 
ATOM     57  H   UNL     1     -10.714  -7.577   0.113  1.00  0.00     0.167 HD
ATOM     58  C   UNL     1      -8.979  -7.359  -2.412  1.00  0.00     0.074 A 
ATOM     59  C   UNL     1      -9.737  -6.163  -2.045  1.00  0.00     0.031 C 
ATOM     60  C   UNL     1      -8.667  -8.495  -1.716  1.00  0.00     0.031 A 
BRANCH  47  61
ATOM     61  C   UNL     1     -10.466  -5.596   2.432  1.00  0.00    -0.014 A 
ATOM     62  C   UNL     1     -11.615  -6.327   2.812  1.00  0.00     0.010 A 
ATOM     63  C   UNL     1     -10.651  -4.236   2.116  1.00  0.00     0.010 A 
ATOM     64  C   UNL     1     -12.891  -5.742   2.818  1.00  0.00     0.020 A 
ATOM     65  C   UNL     1     -11.915  -3.633   2.156  1.00  0.00     0.020 A 
ATOM     66  C   UNL     1     -13.033  -4.400   2.471  1.00  0.00     0.054 A 
BRANCH  66  67
ATOM     67  S   UNL     1     -14.697  -3.686   2.357  1.00  0.00     0.124 S 
ATOM     68  O   UNL     1     -15.233  -4.361   1.179  1.00  0.00    -0.237 OA
ATOM     69  O   UNL     1     -15.294  -4.070   3.633  1.00  0.00    -0.237 OA
ATOM     70  O   UNL     1     -14.444  -2.255   2.199  1.00  0.00    -0.744 OA
ENDBRANCH  66  67
ENDBRANCH  47  61
BRANCH  48  71
ATOM     71  C   UNL     1      -7.246  -3.756  -5.004  1.00  0.00    -0.014 A 
ATOM     72  C   UNL     1      -8.163  -3.762  -6.064  1.00  0.00     0.010 A 
ATOM     73  C   UNL     1      -6.528  -2.562  -4.756  1.00  0.00     0.010 A 
ATOM     74  C   UNL     1      -8.393  -2.599  -6.817  1.00  0.00     0.020 A 
ATOM     75  C   UNL     1      -6.747  -1.403  -5.505  1.00  0.00     0.020 A 
ATOM     76  C   UNL     1      -7.699  -1.422  -6.519  1.00  0.00     0.054 A 
BRANCH  76  77
ATOM     77  S   UNL     1      -8.143   0.116  -7.377  1.00  0.00     0.124 S 
ATOM     78  O   UNL     1      -7.609  -0.110  -8.716  1.00  0.00    -0.237 OA
ATOM     79  O   UNL     1      -9.600   0.127  -7.270  1.00  0.00    -0.237 OA
ATOM     80  O   UNL     1      -7.463   1.152  -6.601  1.00  0.00    -0.744 OA
ENDBRANCH  76  77
ENDBRANCH  48  71
BRANCH  60  81
ATOM     81  C   UNL     1      -7.681  -9.477  -2.325  1.00  0.00    -0.014 A 
ATOM     82  C   UNL     1      -6.350  -9.129  -2.628  1.00  0.00     0.010 A 
ATOM     83  C   UNL     1      -8.043 -10.834  -2.410  1.00  0.00     0.010 A 
ATOM     84  C   UNL     1      -5.413 -10.097  -3.019  1.00  0.00     0.020 A 
ATOM     85  C   UNL     1      -7.110 -11.809  -2.785  1.00  0.00     0.020 A 
ATOM     86  C   UNL     1      -5.800 -11.436  -3.092  1.00  0.00     0.054 A 
BRANCH  86  87
ATOM     87  S   UNL     1      -4.562 -12.690  -3.528  1.00  0.00     0.124 S 
ATOM     88  O   UNL     1      -4.312 -12.414  -4.940  1.00  0.00    -0.237 OA
ATOM     89  O   UNL     1      -3.455 -12.385  -2.623  1.00  0.00    -0.237 OA
ATOM     90  O   UNL     1      -5.240 -13.957  -3.256  1.00  0.00    -0.744 OA
ENDBRANCH  86  87
ENDBRANCH  60  81
ENDBRANCH  34  35
ENDBRANCH  26  29
ENDBRANCH  24  25
ENDBRANCH   1  24
TORSDOF 17
