REMARK SMILES CCc1ccc(-c2cc(Cl)cc3c2O[C@H](C(F)(F)F)C(C(=O)NCCCNC(=O)c2ccc(-c4c5nc(c(-c6ccc(S(=O)(=O)[O-])cc6)c6ccc([nH]6)c(-c6ccc(S(=O)(=O)[O-])cc6)c6nc(c(-c7ccc(S(=O)(=O)[O-])cc7)c7ccc4[nH]7)C=C6)C=C5)cc2)=C3)cc1
REMARK SMILES IDX 25 1 24 2 23 3 21 4 22 5 20 7 7 8 8 9 13 10 9 11 12 12 14 13
REMARK SMILES IDX 10 14 11 15 90 16 15 17 6 18 3 19 4 20 92 21 5 22 91 23 2 24
REMARK SMILES IDX 1 25 16 26 17 27 18 28 19 29 26 30 27 31 28 32 29 34 30 35
REMARK SMILES IDX 31 36 89 37 32 38 88 39 33 40 34 41 35 42 82 43 36 44 87 45
REMARK SMILES IDX 81 46 83 47 37 48 86 49 80 50 79 51 38 53 68 54 49 55 67 56
REMARK SMILES IDX 50 57 53 58 66 59 84 60 51 61 52 62 65 64 85 65 54 66 39 67
REMARK SMILES IDX 40 68 48 69 41 70 47 71 42 72 43 73 44 74 45 75 46 76 69 77
REMARK SMILES IDX 70 78 78 79 71 80 77 81 72 82 73 83 74 84 75 85 76 86 55 87
REMARK SMILES IDX 56 88 64 89 57 90 63 91 58 92 59 93 60 94 61 95 62 96
REMARK H PARENT 23 6 27 33 83 52 53 63
REMARK Flexibility Score: inf
ROOT
ATOM      1  C   UNL     1       5.745 -11.782  -7.295  1.00  0.00     0.042 C 
ENDROOT
BRANCH   1   2
ATOM      2  C   UNL     1       5.731 -10.328  -7.769  1.00  0.00     0.118 C 
BRANCH   2   3
ATOM      3  N   UNL     1       4.396  -9.776  -7.652  1.00  0.00    -0.352 N 
ATOM      4  C   UNL     1       4.015  -8.759  -6.841  1.00  0.00     0.251 C 
ATOM      5  O   UNL     1       2.955  -8.829  -6.230  1.00  0.00    -0.270 OA
ATOM      6  H   UNL     1       3.698 -10.180  -8.217  1.00  0.00     0.163 HD
BRANCH   4   7
ATOM      7  C   UNL     1       4.855  -7.526  -6.869  1.00  0.00     0.067 C 
ATOM      8  C   UNL     1       2.484  -5.088  -4.653  1.00  0.00     0.026 A 
ATOM      9  C   UNL     1       1.157  -5.314  -5.106  1.00  0.00     0.033 A 
ATOM     10  C   UNL     1       3.511  -5.601  -5.464  1.00  0.00     0.135 A 
ATOM     11  C   UNL     1       0.872  -5.822  -6.371  1.00  0.00     0.042 A 
ATOM     12  C   UNL     1       3.205  -6.003  -6.789  1.00  0.00     0.019 A 
ATOM     13  O   UNL     1       4.813  -5.803  -5.022  1.00  0.00    -0.475 OA
ATOM     14  Cl  UNL     1      -0.762  -6.067  -6.844  1.00  0.00    -0.084 Cl
ATOM     15  C   UNL     1       1.897  -6.093  -7.253  1.00  0.00     0.032 A 
ATOM     16  C   UNL     1       4.307  -6.546  -7.614  1.00  0.00     0.025 C 
ATOM     17  C   UNL     1       5.409  -7.085  -5.521  1.00  0.00     0.314 C 
BRANCH   8  18
ATOM     18  C   UNL     1       2.589  -4.095  -3.546  1.00  0.00    -0.015 A 
ATOM     19  C   UNL     1       1.715  -1.752  -2.177  1.00  0.00    -0.048 A 
ATOM     20  C   UNL     1       1.279  -3.018  -1.772  1.00  0.00     0.004 A 
ATOM     21  C   UNL     1       2.706  -1.680  -3.163  1.00  0.00     0.004 A 
ATOM     22  C   UNL     1       1.730  -4.175  -2.429  1.00  0.00     0.009 A 
ATOM     23  C   UNL     1       3.147  -2.836  -3.829  1.00  0.00     0.009 A 
BRANCH  19  24
ATOM     24  C   UNL     1       1.047  -0.497  -1.661  1.00  0.00     0.032 C 
ATOM     25  C   UNL     1       1.256  -0.244  -0.177  1.00  0.00     0.009 C 
ENDBRANCH  19  24
ENDBRANCH   8  18
BRANCH  17  26
ATOM     26  C   UNL     1       6.949  -7.004  -5.649  1.00  0.00     0.429 C 
ATOM     27  F   UNL     1       7.424  -5.750  -5.481  1.00  0.00    -0.167 F 
ATOM     28  F   UNL     1       7.560  -7.800  -4.739  1.00  0.00    -0.167 F 
ATOM     29  F   UNL     1       7.392  -7.418  -6.867  1.00  0.00    -0.167 F 
ENDBRANCH  17  26
ENDBRANCH   4   7
ENDBRANCH   2   3
ENDBRANCH   1   2
BRANCH   1  30
ATOM     30  C   UNL     1       4.821 -12.718  -8.072  1.00  0.00     0.118 C 
BRANCH  30  31
ATOM     31  N   UNL     1       5.135 -12.781  -9.490  1.00  0.00    -0.352 N 
ATOM     32  C   UNL     1       5.356 -13.877 -10.284  1.00  0.00     0.251 C 
ATOM     33  H   UNL     1       5.198 -11.911  -9.946  1.00  0.00     0.163 HD
ATOM     34  O   UNL     1       5.772 -13.719 -11.433  1.00  0.00    -0.269 OA
BRANCH  32  35
ATOM     35  C   UNL     1       5.121 -15.239  -9.760  1.00  0.00     0.039 A 
ATOM     36  C   UNL     1       6.049 -16.242 -10.049  1.00  0.00     0.014 A 
ATOM     37  C   UNL     1       3.989 -15.535  -8.995  1.00  0.00     0.014 A 
ATOM     38  C   UNL     1       5.866 -17.526  -9.530  1.00  0.00     0.010 A 
ATOM     39  C   UNL     1       3.858 -16.788  -8.403  1.00  0.00     0.010 A 
ATOM     40  C   UNL     1       4.783 -17.804  -8.678  1.00  0.00    -0.014 A 
BRANCH  40  41
ATOM     41  C   UNL     1       4.598 -19.160  -8.097  1.00  0.00     0.031 A 
ATOM     42  C   UNL     1       3.368 -19.966  -8.428  1.00  0.00     0.074 A 
ATOM     43  C   UNL     1       5.521 -19.656  -7.248  1.00  0.00     0.049 A 
ATOM     44  N   UNL     1       3.034 -21.165  -8.023  1.00  0.00    -0.248 NA
ATOM     45  C   UNL     1       2.369 -19.334  -9.307  1.00  0.00     0.031 C 
ATOM     46  C   UNL     1       6.730 -18.957  -6.806  1.00  0.00     0.029 A 
ATOM     47  N   UNL     1       5.589 -20.869  -6.607  1.00  0.00    -0.354 N 
ATOM     48  C   UNL     1       1.788 -21.422  -8.585  1.00  0.00     0.074 A 
ATOM     49  C   UNL     1       1.396 -20.232  -9.304  1.00  0.00     0.031 C 
ATOM     50  C   UNL     1       7.440 -19.767  -6.005  1.00  0.00     0.029 A 
ATOM     51  C   UNL     1       6.721 -21.026  -5.841  1.00  0.00     0.049 A 
ATOM     52  H   UNL     1       4.894 -21.561  -6.689  1.00  0.00     0.167 HD
ATOM     53  C   UNL     1       1.048 -22.555  -8.531  1.00  0.00     0.031 A 
ATOM     54  C   UNL     1       7.135 -22.066  -5.092  1.00  0.00     0.031 A 
ATOM     55  C   UNL     1       1.446 -23.744  -7.824  1.00  0.00     0.049 A 
ATOM     56  C   UNL     1       6.294 -23.314  -5.046  1.00  0.00     0.074 A 
ATOM     57  C   UNL     1       0.796 -24.963  -7.755  1.00  0.00     0.029 A 
ATOM     58  N   UNL     1       2.599 -23.862  -7.062  1.00  0.00    -0.354 N 
ATOM     59  N   UNL     1       5.155 -23.563  -5.647  1.00  0.00    -0.248 NA
ATOM     60  C   UNL     1       6.806 -24.427  -4.235  1.00  0.00     0.031 C 
ATOM     61  C   UNL     1       1.524 -25.799  -6.903  1.00  0.00     0.029 A 
ATOM     62  C   UNL     1       2.665 -25.124  -6.497  1.00  0.00     0.049 A 
ATOM     63  H   UNL     1       3.271 -23.153  -6.941  1.00  0.00     0.167 HD
ATOM     64  C   UNL     1       4.827 -24.872  -5.307  1.00  0.00     0.074 A 
ATOM     65  C   UNL     1       5.900 -25.366  -4.469  1.00  0.00     0.031 C 
ATOM     66  C   UNL     1       3.736 -25.599  -5.657  1.00  0.00     0.031 A 
BRANCH  53  67
ATOM     67  C   UNL     1      -0.273 -22.560  -9.259  1.00  0.00    -0.014 A 
ATOM     68  C   UNL     1      -0.332 -22.515 -10.665  1.00  0.00     0.010 A 
ATOM     69  C   UNL     1      -1.474 -22.646  -8.530  1.00  0.00     0.010 A 
ATOM     70  C   UNL     1      -1.564 -22.509 -11.324  1.00  0.00     0.020 A 
ATOM     71  C   UNL     1      -2.708 -22.674  -9.188  1.00  0.00     0.020 A 
ATOM     72  C   UNL     1      -2.744 -22.588 -10.581  1.00  0.00     0.054 A 
BRANCH  72  73
ATOM     73  S   UNL     1      -4.327 -22.605 -11.466  1.00  0.00     0.124 S 
ATOM     74  O   UNL     1      -4.418 -21.228 -11.945  1.00  0.00    -0.237 OA
ATOM     75  O   UNL     1      -4.106 -23.615 -12.497  1.00  0.00    -0.237 OA
ATOM     76  O   UNL     1      -5.298 -22.970 -10.437  1.00  0.00    -0.744 OA
ENDBRANCH  72  73
ENDBRANCH  53  67
BRANCH  54  77
ATOM     77  C   UNL     1       8.420 -21.982  -4.342  1.00  0.00    -0.014 A 
ATOM     78  C   UNL     1       9.524 -22.767  -4.719  1.00  0.00     0.010 A 
ATOM     79  C   UNL     1       8.548 -21.109  -3.245  1.00  0.00     0.010 A 
ATOM     80  C   UNL     1      10.722 -22.699  -4.001  1.00  0.00     0.020 A 
ATOM     81  C   UNL     1       9.754 -21.014  -2.545  1.00  0.00     0.020 A 
ATOM     82  C   UNL     1      10.830 -21.820  -2.920  1.00  0.00     0.054 A 
BRANCH  82  83
ATOM     83  S   UNL     1      12.409 -21.713  -2.032  1.00  0.00     0.124 S 
ATOM     84  O   UNL     1      12.438 -22.981  -1.310  1.00  0.00    -0.237 OA
ATOM     85  O   UNL     1      13.373 -21.582  -3.122  1.00  0.00    -0.237 OA
ATOM     86  O   UNL     1      12.254 -20.522  -1.201  1.00  0.00    -0.744 OA
ENDBRANCH  82  83
ENDBRANCH  54  77
BRANCH  66  87
ATOM     87  C   UNL     1       3.666 -27.020  -5.160  1.00  0.00    -0.014 A 
ATOM     88  C   UNL     1       3.466 -27.311  -3.799  1.00  0.00     0.010 A 
ATOM     89  C   UNL     1       3.770 -28.081  -6.078  1.00  0.00     0.010 A 
ATOM     90  C   UNL     1       3.422 -28.636  -3.358  1.00  0.00     0.020 A 
ATOM     91  C   UNL     1       3.692 -29.407  -5.647  1.00  0.00     0.020 A 
ATOM     92  C   UNL     1       3.539 -29.676  -4.286  1.00  0.00     0.054 A 
BRANCH  92  93
ATOM     93  S   UNL     1       3.461 -31.388  -3.691  1.00  0.00     0.124 S 
ATOM     94  O   UNL     1       4.751 -31.536  -3.025  1.00  0.00    -0.237 OA
ATOM     95  O   UNL     1       2.296 -31.368  -2.810  1.00  0.00    -0.237 OA
ATOM     96  O   UNL     1       3.297 -32.172  -4.913  1.00  0.00    -0.744 OA
ENDBRANCH  92  93
ENDBRANCH  66  87
ENDBRANCH  40  41
ENDBRANCH  32  35
ENDBRANCH  30  31
ENDBRANCH   1  30
TORSDOF 16
