REMARK SMILES COc1ccc(Cl)cc1C[NH2+]CCC(=O)NCCCNC(=O)c1ccc(-c2c3nc(c(-c4ccc(S(=O)(=O)[O-])cc4)c4ccc([nH]4)c(-c4ccc(S(=O)(=O)[O-])cc4)c4nc(c(-c5ccc(S(=O)(=O)[O-])cc5)c5ccc2[nH]5)C=C4)C=C3)cc1
REMARK SMILES IDX 17 1 16 2 14 3 15 4 13 6 12 7 11 8 10 11 9 12 3 13 4 14 5 15
REMARK SMILES IDX 8 16 6 17 7 18 2 19 1 20 18 21 19 22 20 23 21 24 22 26 23 27
REMARK SMILES IDX 24 28 82 29 25 30 81 31 26 32 27 33 28 34 75 35 29 36 80 37
REMARK SMILES IDX 74 38 76 39 30 40 79 41 73 42 72 43 31 45 61 46 42 47 60 48
REMARK SMILES IDX 43 49 46 50 59 51 77 52 44 53 45 54 58 56 78 57 47 58 32 59
REMARK SMILES IDX 33 60 41 61 34 62 40 63 35 64 36 65 37 66 38 67 39 68 62 69
REMARK SMILES IDX 63 70 71 71 64 72 70 73 65 74 66 75 67 76 68 77 69 78 48 79
REMARK SMILES IDX 49 80 57 81 50 82 56 83 51 84 52 85 53 86 54 87 55 88
REMARK H PARENT 16 5 11 9 11 10 20 25 76 44 46 55
REMARK Flexibility Score: inf
ROOT
ATOM      1  C   UNL     1      -1.626   1.959  -0.088  1.00  0.00     0.117 C 
ENDROOT
BRANCH   1   2
ATOM      2  N   UNL     1      -3.001   1.952   0.353  1.00  0.00    -0.356 N 
ATOM      3  C   UNL     1      -4.070   1.333  -0.222  1.00  0.00     0.225 C 
ATOM      4  O   UNL     1      -5.171   1.447   0.319  1.00  0.00    -0.275 OA
ATOM      5  H   UNL     1      -3.191   2.460   1.175  1.00  0.00     0.163 HD
BRANCH   3   6
ATOM      6  C   UNL     1      -3.890   0.482  -1.466  1.00  0.00     0.161 C 
BRANCH   6   7
ATOM      7  C   UNL     1      -3.878   1.255  -2.791  1.00  0.00     0.270 C 
BRANCH   7   8
ATOM      8  N   UNL     1      -2.602   1.734  -3.324  1.00  0.00    -0.342 N 
ATOM      9  H   UNL     1      -2.797   2.225  -4.197  1.00  0.00     0.346 HD
ATOM     10  H   UNL     1      -2.206   2.315  -2.585  1.00  0.00     0.346 HD
BRANCH   8  11
ATOM     11  C   UNL     1      -1.577   0.722  -3.605  1.00  0.00     0.301 C 
BRANCH  11  12
ATOM     12  C   UNL     1      -0.176   1.319  -3.514  1.00  0.00     0.050 A 
ATOM     13  C   UNL     1       0.779   0.881  -2.567  1.00  0.00     0.127 A 
ATOM     14  C   UNL     1       2.010   1.545  -2.462  1.00  0.00     0.048 A 
ATOM     15  C   UNL     1       2.300   2.639  -3.280  1.00  0.00     0.024 A 
ATOM     16  C   UNL     1       0.147   2.409  -4.349  1.00  0.00     0.034 A 
ATOM     17  C   UNL     1       1.370   3.065  -4.220  1.00  0.00     0.041 A 
ATOM     18  Cl  UNL     1       1.721   4.433  -5.200  1.00  0.00    -0.084 Cl
BRANCH  13  19
ATOM     19  O   UNL     1       0.426  -0.183  -1.776  1.00  0.00    -0.496 OA
ATOM     20  C   UNL     1       1.185  -0.381  -0.586  1.00  0.00     0.278 C 
ENDBRANCH  13  19
ENDBRANCH  11  12
ENDBRANCH   8  11
ENDBRANCH   7   8
ENDBRANCH   6   7
ENDBRANCH   3   6
ENDBRANCH   1   2
BRANCH   1  21
ATOM     21  C   UNL     1      -1.232   3.313  -0.664  1.00  0.00     0.042 C 
BRANCH  21  22
ATOM     22  C   UNL     1      -0.460   4.178   0.310  1.00  0.00     0.118 C 
BRANCH  22  23
ATOM     23  N   UNL     1       0.858   3.625   0.609  1.00  0.00    -0.352 N 
ATOM     24  C   UNL     1       2.111   4.163   0.434  1.00  0.00     0.251 C 
ATOM     25  H   UNL     1       0.847   2.721   0.999  1.00  0.00     0.163 HD
ATOM     26  O   UNL     1       3.092   3.434   0.537  1.00  0.00    -0.269 OA
BRANCH  24  27
ATOM     27  C   UNL     1       2.270   5.598   0.103  1.00  0.00     0.039 A 
ATOM     28  C   UNL     1       3.313   5.997  -0.737  1.00  0.00     0.014 A 
ATOM     29  C   UNL     1       1.394   6.554   0.619  1.00  0.00     0.014 A 
ATOM     30  C   UNL     1       3.425   7.338  -1.115  1.00  0.00     0.010 A 
ATOM     31  C   UNL     1       1.428   7.857   0.142  1.00  0.00     0.010 A 
ATOM     32  C   UNL     1       2.455   8.271  -0.715  1.00  0.00    -0.014 A 
BRANCH  32  33
ATOM     33  C   UNL     1       2.494   9.689  -1.154  1.00  0.00     0.031 A 
ATOM     34  C   UNL     1       2.567  10.789  -0.127  1.00  0.00     0.074 A 
ATOM     35  C   UNL     1       2.373   9.987  -2.462  1.00  0.00     0.049 A 
ATOM     36  N   UNL     1       2.508  12.085  -0.298  1.00  0.00    -0.248 NA
ATOM     37  C   UNL     1       2.683  10.378   1.284  1.00  0.00     0.031 C 
ATOM     38  C   UNL     1       2.239   9.012  -3.547  1.00  0.00     0.029 A 
ATOM     39  N   UNL     1       2.331  11.201  -3.101  1.00  0.00    -0.354 N 
ATOM     40  C   UNL     1       2.552  12.637   0.978  1.00  0.00     0.074 A 
ATOM     41  C   UNL     1       2.573  11.536   1.915  1.00  0.00     0.031 C 
ATOM     42  C   UNL     1       2.163   9.664  -4.718  1.00  0.00     0.029 A 
ATOM     43  C   UNL     1       2.190  11.101  -4.465  1.00  0.00     0.049 A 
ATOM     44  H   UNL     1       2.396  12.062  -2.628  1.00  0.00     0.167 HD
ATOM     45  C   UNL     1       2.598  13.941   1.339  1.00  0.00     0.031 A 
ATOM     46  C   UNL     1       2.083  12.058  -5.407  1.00  0.00     0.031 A 
ATOM     47  C   UNL     1       2.589  15.030   0.399  1.00  0.00     0.049 A 
ATOM     48  C   UNL     1       2.134  13.502  -4.987  1.00  0.00     0.074 A 
ATOM     49  C   UNL     1       2.690  16.386   0.651  1.00  0.00     0.029 A 
ATOM     50  N   UNL     1       2.470  14.885  -0.976  1.00  0.00    -0.354 N 
ATOM     51  N   UNL     1       2.245  14.005  -3.780  1.00  0.00    -0.248 NA
ATOM     52  C   UNL     1       2.059  14.506  -6.055  1.00  0.00     0.031 C 
ATOM     53  C   UNL     1       2.573  17.064  -0.566  1.00  0.00     0.029 A 
ATOM     54  C   UNL     1       2.470  16.128  -1.584  1.00  0.00     0.049 A 
ATOM     55  H   UNL     1       2.396  14.024  -1.449  1.00  0.00     0.167 HD
ATOM     56  C   UNL     1       2.282  15.385  -3.946  1.00  0.00     0.074 A 
ATOM     57  C   UNL     1       2.196  15.634  -5.371  1.00  0.00     0.031 C 
ATOM     58  C   UNL     1       2.380  16.357  -3.005  1.00  0.00     0.031 A 
BRANCH  45  59
ATOM     59  C   UNL     1       2.656  14.252   2.814  1.00  0.00    -0.014 A 
ATOM     60  C   UNL     1       3.779  13.905   3.589  1.00  0.00     0.010 A 
ATOM     61  C   UNL     1       1.579  14.910   3.435  1.00  0.00     0.010 A 
ATOM     62  C   UNL     1       3.798  14.153   4.964  1.00  0.00     0.020 A 
ATOM     63  C   UNL     1       1.609  15.194   4.804  1.00  0.00     0.020 A 
ATOM     64  C   UNL     1       2.710  14.792   5.564  1.00  0.00     0.054 A 
BRANCH  64  65
ATOM     65  S   UNL     1       2.763  15.102   7.350  1.00  0.00     0.124 S 
ATOM     66  O   UNL     1       2.592  13.756   7.894  1.00  0.00    -0.237 OA
ATOM     67  O   UNL     1       4.088  15.689   7.534  1.00  0.00    -0.237 OA
ATOM     68  O   UNL     1       1.644  16.012   7.579  1.00  0.00    -0.744 OA
ENDBRANCH  64  65
ENDBRANCH  45  59
BRANCH  46  69
ATOM     69  C   UNL     1       1.938  11.673  -6.838  1.00  0.00    -0.014 A 
ATOM     70  C   UNL     1       2.992  11.882  -7.745  1.00  0.00     0.010 A 
ATOM     71  C   UNL     1       0.757  11.058  -7.295  1.00  0.00     0.010 A 
ATOM     72  C   UNL     1       2.864  11.494  -9.083  1.00  0.00     0.020 A 
ATOM     73  C   UNL     1       0.637  10.640  -8.624  1.00  0.00     0.020 A 
ATOM     74  C   UNL     1       1.690  10.870  -9.512  1.00  0.00     0.054 A 
BRANCH  74  75
ATOM     75  S   UNL     1       1.574  10.317 -11.237  1.00  0.00     0.124 S 
ATOM     76  O   UNL     1       1.461  11.583 -11.954  1.00  0.00    -0.237 OA
ATOM     77  O   UNL     1       2.831   9.596 -11.420  1.00  0.00    -0.237 OA
ATOM     78  O   UNL     1       0.376   9.481 -11.250  1.00  0.00    -0.744 OA
ENDBRANCH  74  75
ENDBRANCH  46  69
BRANCH  58  79
ATOM     79  C   UNL     1       2.439  17.783  -3.485  1.00  0.00    -0.014 A 
ATOM     80  C   UNL     1       1.309  18.421  -4.027  1.00  0.00     0.010 A 
ATOM     81  C   UNL     1       3.631  18.514  -3.331  1.00  0.00     0.010 A 
ATOM     82  C   UNL     1       1.381  19.756  -4.435  1.00  0.00     0.020 A 
ATOM     83  C   UNL     1       3.698  19.857  -3.708  1.00  0.00     0.020 A 
ATOM     84  C   UNL     1       2.575  20.466  -4.271  1.00  0.00     0.054 A 
BRANCH  84  85
ATOM     85  S   UNL     1       2.627  22.210  -4.764  1.00  0.00     0.124 S 
ATOM     86  O   UNL     1       2.607  22.115  -6.221  1.00  0.00    -0.237 OA
ATOM     87  O   UNL     1       1.416  22.751  -4.152  1.00  0.00    -0.237 OA
ATOM     88  O   UNL     1       3.880  22.696  -4.189  1.00  0.00    -0.744 OA
ENDBRANCH  84  85
ENDBRANCH  58  79
ENDBRANCH  32  33
ENDBRANCH  24  27
ENDBRANCH  22  23
ENDBRANCH  21  22
ENDBRANCH   1  21
TORSDOF 18
