REMARK SMILES O=C(CSc1ccc(NC(=O)c2cccc3ccccc23)cc1)NCCCNC(=O)c1ccc(-c2c3nc(c(-c4ccc(S(=O)(=O)[O-])cc4)c4ccc([nH]4)c(-c4ccc(S(=O)(=O)[O-])cc4)c4nc(c(-c5ccc(S(=O)(=O)[O-])cc5)c5ccc2[nH]5)C=C4)C=C3)cc1
REMARK SMILES IDX 25 1 24 2 1 3 2 4 3 6 4 7 5 8 6 9 23 10 7 11 22 12 8 13 9 14
REMARK SMILES IDX 10 15 11 17 12 18 13 19 21 20 14 21 16 22 20 23 15 24 17 25
REMARK SMILES IDX 19 26 18 27 26 28 27 29 28 30 29 31 30 33 31 34 32 35 90 36
REMARK SMILES IDX 33 37 89 38 34 39 35 40 36 41 83 42 37 43 88 44 82 45 84 46
REMARK SMILES IDX 38 47 87 48 81 49 80 50 39 52 69 53 50 54 68 55 51 56 54 57
REMARK SMILES IDX 67 58 85 59 52 60 53 61 66 63 86 64 55 65 40 66 41 67 49 68
REMARK SMILES IDX 42 69 48 70 43 71 44 72 45 73 46 74 47 75 70 76 71 77 79 78
REMARK SMILES IDX 72 79 78 80 73 81 74 82 75 83 76 84 77 85 56 86 57 87 65 88
REMARK SMILES IDX 58 89 64 90 59 91 60 92 61 93 62 94 63 95
REMARK H PARENT 24 5 9 16 28 32 84 51 54 62
REMARK Flexibility Score: inf
ROOT
ATOM      1  C   UNL     1       2.207  -2.138  -1.090  1.00  0.00     0.117 C 
ENDROOT
BRANCH   1   2
ATOM      2  N   UNL     1       2.902  -1.033  -0.460  1.00  0.00    -0.355 N 
ATOM      3  O   UNL     1       1.039   0.131   0.214  1.00  0.00    -0.274 OA
ATOM      4  C   UNL     1       2.261   0.011   0.173  1.00  0.00     0.230 C 
ATOM      5  H   UNL     1       3.886  -1.027  -0.486  1.00  0.00     0.163 HD
BRANCH   4   6
ATOM      6  C   UNL     1       3.188   1.076   0.743  1.00  0.00     0.174 C 
BRANCH   6   7
ATOM      7  S   UNL     1       4.629   0.357   1.618  1.00  0.00    -0.116 SA
BRANCH   7   8
ATOM      8  C   UNL     1       3.794  -0.292   3.049  1.00  0.00     0.008 A 
ATOM      9  C   UNL     1       3.491   0.541   4.127  1.00  0.00     0.017 A 
ATOM     10  C   UNL     1       3.415  -1.633   3.094  1.00  0.00     0.017 A 
ATOM     11  C   UNL     1       2.739   0.060   5.204  1.00  0.00     0.027 A 
ATOM     12  C   UNL     1       2.644  -2.104   4.158  1.00  0.00     0.027 A 
ATOM     13  C   UNL     1       2.237  -1.237   5.180  1.00  0.00     0.041 A 
BRANCH  13  14
ATOM     14  N   UNL     1       1.282  -1.741   6.073  1.00  0.00    -0.322 N 
ATOM     15  C   UNL     1       0.393  -1.164   6.945  1.00  0.00     0.256 C 
ATOM     16  H   UNL     1       1.239  -2.725   6.075  1.00  0.00     0.170 HD
ATOM     17  O   UNL     1      -0.278  -1.917   7.658  1.00  0.00    -0.269 OA
BRANCH  15  18
ATOM     18  C   UNL     1       0.168   0.293   7.106  1.00  0.00     0.048 A 
ATOM     19  C   UNL     1       0.228   0.728   8.443  1.00  0.00     0.014 A 
ATOM     20  C   UNL     1      -0.197   1.198   6.064  1.00  0.00    -0.006 A 
ATOM     21  C   UNL     1      -0.075   2.040   8.778  1.00  0.00     0.001 A 
ATOM     22  C   UNL     1      -0.496   2.538   6.434  1.00  0.00    -0.018 A 
ATOM     23  C   UNL     1      -0.269   0.886   4.682  1.00  0.00     0.009 A 
ATOM     24  C   UNL     1      -0.452   2.932   7.780  1.00  0.00     0.009 A 
ATOM     25  C   UNL     1      -0.825   3.489   5.454  1.00  0.00     0.009 A 
ATOM     26  C   UNL     1      -0.503   1.867   3.713  1.00  0.00     0.001 A 
ATOM     27  C   UNL     1      -0.793   3.166   4.101  1.00  0.00     0.001 A 
ENDBRANCH  15  18
ENDBRANCH  13  14
ENDBRANCH   7   8
ENDBRANCH   6   7
ENDBRANCH   4   6
ENDBRANCH   1   2
BRANCH   1  28
ATOM     28  C   UNL     1       2.537  -2.265  -2.573  1.00  0.00     0.042 C 
BRANCH  28  29
ATOM     29  C   UNL     1       4.016  -2.484  -2.884  1.00  0.00     0.118 C 
BRANCH  29  30
ATOM     30  N   UNL     1       4.542  -3.730  -2.344  1.00  0.00    -0.352 N 
ATOM     31  C   UNL     1       5.192  -4.765  -2.976  1.00  0.00     0.251 C 
ATOM     32  H   UNL     1       4.413  -3.850  -1.375  1.00  0.00     0.163 HD
ATOM     33  O   UNL     1       5.434  -5.793  -2.353  1.00  0.00    -0.269 OA
BRANCH  31  34
ATOM     34  C   UNL     1       5.571  -4.658  -4.404  1.00  0.00     0.039 A 
ATOM     35  C   UNL     1       5.346  -5.753  -5.243  1.00  0.00     0.014 A 
ATOM     36  C   UNL     1       6.151  -3.496  -4.918  1.00  0.00     0.014 A 
ATOM     37  C   UNL     1       5.627  -5.654  -6.609  1.00  0.00     0.010 A 
ATOM     38  C   UNL     1       6.359  -3.372  -6.292  1.00  0.00     0.010 A 
ATOM     39  C   UNL     1       6.093  -4.447  -7.154  1.00  0.00    -0.014 A 
BRANCH  39  40
ATOM     40  C   UNL     1       6.288  -4.279  -8.620  1.00  0.00     0.031 A 
ATOM     41  C   UNL     1       7.654  -3.984  -9.178  1.00  0.00     0.074 A 
ATOM     42  C   UNL     1       5.221  -4.319  -9.444  1.00  0.00     0.049 A 
ATOM     43  N   UNL     1       8.002  -3.723 -10.413  1.00  0.00    -0.248 NA
ATOM     44  C   UNL     1       8.773  -3.956  -8.222  1.00  0.00     0.031 C 
ATOM     45  C   UNL     1       3.838  -4.567  -9.028  1.00  0.00     0.029 A 
ATOM     46  N   UNL     1       5.128  -4.140 -10.803  1.00  0.00    -0.354 N 
ATOM     47  C   UNL     1       9.371  -3.485 -10.380  1.00  0.00     0.074 A 
ATOM     48  C   UNL     1       9.782  -3.584  -8.997  1.00  0.00     0.031 C 
ATOM     49  C   UNL     1       3.042  -4.547 -10.110  1.00  0.00     0.029 A 
ATOM     50  C   UNL     1       3.844  -4.234 -11.288  1.00  0.00     0.049 A 
ATOM     51  H   UNL     1       5.909  -3.961 -11.376  1.00  0.00     0.167 HD
ATOM     52  C   UNL     1      10.213  -3.222 -11.409  1.00  0.00     0.031 A 
ATOM     53  C   UNL     1       3.360  -4.071 -12.535  1.00  0.00     0.031 A 
ATOM     54  C   UNL     1       9.801  -3.126 -12.785  1.00  0.00     0.049 A 
ATOM     55  C   UNL     1       4.309  -3.743 -13.656  1.00  0.00     0.074 A 
ATOM     56  C   UNL     1      10.588  -2.913 -13.904  1.00  0.00     0.029 A 
ATOM     57  N   UNL     1       8.492  -3.227 -13.232  1.00  0.00    -0.354 N 
ATOM     58  N   UNL     1       5.610  -3.584 -13.613  1.00  0.00    -0.248 NA
ATOM     59  C   UNL     1       3.727  -3.582 -14.996  1.00  0.00     0.031 C 
ATOM     60  C   UNL     1       9.749  -2.822 -15.018  1.00  0.00     0.029 A 
ATOM     61  C   UNL     1       8.446  -3.051 -14.605  1.00  0.00     0.049 A 
ATOM     62  H   UNL     1       7.711  -3.399 -12.658  1.00  0.00     0.167 HD
ATOM     63  C   UNL     1       6.005  -3.336 -14.923  1.00  0.00     0.074 A 
ATOM     64  C   UNL     1       4.808  -3.378 -15.737  1.00  0.00     0.031 C 
ATOM     65  C   UNL     1       7.249  -3.099 -15.407  1.00  0.00     0.031 A 
BRANCH  52  66
ATOM     66  C   UNL     1      11.669  -3.005 -11.084  1.00  0.00    -0.014 A 
ATOM     67  C   UNL     1      12.481  -4.061 -10.631  1.00  0.00     0.010 A 
ATOM     68  C   UNL     1      12.248  -1.738 -11.283  1.00  0.00     0.010 A 
ATOM     69  C   UNL     1      13.831  -3.844 -10.341  1.00  0.00     0.020 A 
ATOM     70  C   UNL     1      13.605  -1.523 -11.025  1.00  0.00     0.020 A 
ATOM     71  C   UNL     1      14.384  -2.575 -10.539  1.00  0.00     0.054 A 
BRANCH  71  72
ATOM     72  S   UNL     1      16.143  -2.329 -10.174  1.00  0.00     0.124 S 
ATOM     73  O   UNL     1      16.160  -2.402  -8.714  1.00  0.00    -0.237 OA
ATOM     74  O   UNL     1      16.773  -3.451 -10.865  1.00  0.00    -0.237 OA
ATOM     75  O   UNL     1      16.434  -1.012 -10.734  1.00  0.00    -0.744 OA
ENDBRANCH  71  72
ENDBRANCH  52  66
BRANCH  53  76
ATOM     76  C   UNL     1       1.899  -4.216 -12.791  1.00  0.00    -0.014 A 
ATOM     77  C   UNL     1       1.408  -5.300 -13.540  1.00  0.00     0.010 A 
ATOM     78  C   UNL     1       0.988  -3.273 -12.278  1.00  0.00     0.010 A 
ATOM     79  C   UNL     1       0.037  -5.428 -13.787  1.00  0.00     0.020 A 
ATOM     80  C   UNL     1      -0.385  -3.416 -12.496  1.00  0.00     0.020 A 
ATOM     81  C   UNL     1      -0.851  -4.487 -13.260  1.00  0.00     0.054 A 
BRANCH  81  82
ATOM     82  S   UNL     1      -2.628  -4.702 -13.553  1.00  0.00     0.124 S 
ATOM     83  O   UNL     1      -2.743  -4.382 -14.972  1.00  0.00    -0.237 OA
ATOM     84  O   UNL     1      -2.837  -6.104 -13.201  1.00  0.00    -0.237 OA
ATOM     85  O   UNL     1      -3.244  -3.740 -12.642  1.00  0.00    -0.744 OA
ENDBRANCH  81  82
ENDBRANCH  53  76
BRANCH  65  86
ATOM     86  C   UNL     1       7.398  -2.907 -16.895  1.00  0.00    -0.014 A 
ATOM     87  C   UNL     1       6.942  -1.741 -17.533  1.00  0.00     0.010 A 
ATOM     88  C   UNL     1       8.076  -3.881 -17.652  1.00  0.00     0.010 A 
ATOM     89  C   UNL     1       7.143  -1.562 -18.905  1.00  0.00     0.020 A 
ATOM     90  C   UNL     1       8.306  -3.692 -19.016  1.00  0.00     0.020 A 
ATOM     91  C   UNL     1       7.829  -2.537 -19.637  1.00  0.00     0.054 A 
BRANCH  91  92
ATOM     92  S   UNL     1       8.133  -2.249 -21.402  1.00  0.00     0.124 S 
ATOM     93  O   UNL     1       6.798  -2.406 -21.971  1.00  0.00    -0.237 OA
ATOM     94  O   UNL     1       8.667  -0.889 -21.415  1.00  0.00    -0.237 OA
ATOM     95  O   UNL     1       9.091  -3.291 -21.764  1.00  0.00    -0.744 OA
ENDBRANCH  91  92
ENDBRANCH  65  86
ENDBRANCH  39  40
ENDBRANCH  31  34
ENDBRANCH  29  30
ENDBRANCH  28  29
ENDBRANCH   1  28
TORSDOF 17
