REMARK SMILES CCOc1cc(N2CCOCC2)ccc1[C@H]([NH3+])C(=O)NCCCNC(=O)c1ccc(-c2c3nc(c(-c4ccc(S(=O)(=O)[O-])cc4)c4ccc([nH]4)c(-c4ccc(S(=O)(=O)[O-])cc4)c4nc(c(-c5ccc(S(=O)(=O)[O-])cc5)c5ccc2[nH]5)C=C4)C=C3)cc1
REMARK SMILES IDX 22 1 21 2 20 3 18 4 19 5 16 7 15 8 4 9 5 10 6 11 14 12 13 13
REMARK SMILES IDX 3 14 2 15 1 16 7 17 8 18 12 19 9 20 11 21 10 22 17 23 23 27
REMARK SMILES IDX 24 28 25 29 26 31 27 32 28 33 86 34 29 35 85 36 30 37 31 38
REMARK SMILES IDX 32 39 79 40 33 41 84 42 78 43 80 44 34 45 83 46 77 47 76 48
REMARK SMILES IDX 35 50 65 51 46 52 64 53 47 54 50 55 63 56 81 57 48 58 49 59
REMARK SMILES IDX 62 61 82 62 51 63 36 64 37 65 45 66 38 67 44 68 39 69 40 70
REMARK SMILES IDX 41 71 42 72 43 73 66 74 67 75 75 76 68 77 74 78 69 79 70 80
REMARK SMILES IDX 71 81 72 82 73 83 52 84 53 85 61 86 54 87 60 88 55 89 56 90
REMARK SMILES IDX 57 91 58 92 59 93
REMARK H PARENT 20 6 17 24 17 25 17 26 24 30 80 49 50 60
REMARK Flexibility Score: inf
ROOT
ATOM      1  C   UNL     1       6.606  -0.571  -0.234  1.00  0.00     0.042 C 
ENDROOT
BRANCH   1   2
ATOM      2  C   UNL     1       5.378  -1.486  -0.133  1.00  0.00     0.118 C 
BRANCH   2   3
ATOM      3  N   UNL     1       4.442  -0.985   0.864  1.00  0.00    -0.351 N 
ATOM      4  C   UNL     1       3.198  -0.453   0.842  1.00  0.00     0.283 C 
ATOM      5  O   UNL     1       2.868   0.075   1.922  1.00  0.00    -0.268 OA
ATOM      6  H   UNL     1       4.803  -1.049   1.777  1.00  0.00     0.163 HD
BRANCH   4   7
ATOM      7  C   UNL     1       2.147  -0.457  -0.304  1.00  0.00     0.306 C 
BRANCH   7   8
ATOM      8  C   UNL     1       2.459  -1.067  -1.651  1.00  0.00     0.061 A 
ATOM      9  C   UNL     1       3.087  -0.384  -2.706  1.00  0.00     0.131 A 
ATOM     10  C   UNL     1       3.323  -1.022  -3.935  1.00  0.00     0.072 A 
ATOM     11  C   UNL     1       2.921  -2.350  -4.154  1.00  0.00     0.040 A 
ATOM     12  C   UNL     1       2.033  -2.386  -1.891  1.00  0.00     0.016 A 
ATOM     13  C   UNL     1       2.250  -3.009  -3.123  1.00  0.00     0.027 A 
BRANCH   9  14
ATOM     14  O   UNL     1       3.283   0.969  -2.599  1.00  0.00    -0.493 OA
BRANCH  14  15
ATOM     15  C   UNL     1       4.646   1.371  -2.466  1.00  0.00     0.226 C 
ATOM     16  C   UNL     1       4.714   2.348  -1.300  1.00  0.00     0.049 C 
ENDBRANCH  14  15
ENDBRANCH   9  14
BRANCH  11  17
ATOM     17  N   UNL     1       3.154  -2.957  -5.376  1.00  0.00    -0.367 N 
ATOM     18  C   UNL     1       2.138  -2.815  -6.430  1.00  0.00     0.145 C 
ATOM     19  C   UNL     1       3.939  -4.199  -5.434  1.00  0.00     0.145 C 
ATOM     20  C   UNL     1       1.317  -4.110  -6.575  1.00  0.00     0.181 C 
ATOM     21  C   UNL     1       3.044  -5.429  -5.657  1.00  0.00     0.181 C 
ATOM     22  O   UNL     1       2.162  -5.257  -6.779  1.00  0.00    -0.378 OA
ENDBRANCH  11  17
ENDBRANCH   7   8
BRANCH   7  23
ATOM     23  N   UNL     1       1.520   0.884  -0.414  1.00  0.00    -0.343 N 
ATOM     24  H   UNL     1       2.213   1.557  -0.742  1.00  0.00     0.345 HD
ATOM     25  H   UNL     1       1.171   1.173   0.499  1.00  0.00     0.345 HD
ATOM     26  H   UNL     1       0.746   0.844  -1.077  1.00  0.00     0.345 HD
ENDBRANCH   7  23
ENDBRANCH   4   7
ENDBRANCH   2   3
ENDBRANCH   1   2
BRANCH   1  27
ATOM     27  C   UNL     1       7.624  -0.719   0.897  1.00  0.00     0.118 C 
BRANCH  27  28
ATOM     28  N   UNL     1       8.668  -1.673   0.566  1.00  0.00    -0.352 N 
ATOM     29  C   UNL     1      10.003  -1.492   0.285  1.00  0.00     0.251 C 
ATOM     30  H   UNL     1       8.370  -2.611   0.537  1.00  0.00     0.163 HD
ATOM     31  O   UNL     1      10.619  -2.433  -0.215  1.00  0.00    -0.269 OA
BRANCH  29  32
ATOM     32  C   UNL     1      10.722  -0.217   0.561  1.00  0.00     0.039 A 
ATOM     33  C   UNL     1      11.797   0.134  -0.268  1.00  0.00     0.014 A 
ATOM     34  C   UNL     1      10.445   0.579   1.675  1.00  0.00     0.014 A 
ATOM     35  C   UNL     1      12.570   1.271   0.006  1.00  0.00     0.010 A 
ATOM     36  C   UNL     1      11.165   1.757   1.902  1.00  0.00     0.010 A 
ATOM     37  C   UNL     1      12.258   2.102   1.092  1.00  0.00    -0.014 A 
BRANCH  37  38
ATOM     38  C   UNL     1      13.101   3.283   1.438  1.00  0.00     0.031 A 
ATOM     39  C   UNL     1      13.845   3.324   2.752  1.00  0.00     0.074 A 
ATOM     40  C   UNL     1      13.179   4.338   0.603  1.00  0.00     0.049 A 
ATOM     41  N   UNL     1      14.585   4.280   3.258  1.00  0.00    -0.248 NA
ATOM     42  C   UNL     1      13.720   2.143   3.621  1.00  0.00     0.031 C 
ATOM     43  C   UNL     1      12.504   4.446  -0.691  1.00  0.00     0.029 A 
ATOM     44  N   UNL     1      13.862   5.525   0.722  1.00  0.00    -0.354 N 
ATOM     45  C   UNL     1      14.983   3.830   4.513  1.00  0.00     0.074 A 
ATOM     46  C   UNL     1      14.365   2.537   4.709  1.00  0.00     0.031 C 
ATOM     47  C   UNL     1      12.833   5.617  -1.261  1.00  0.00     0.029 A 
ATOM     48  C   UNL     1      13.708   6.362  -0.359  1.00  0.00     0.049 A 
ATOM     49  H   UNL     1      14.411   5.754   1.506  1.00  0.00     0.167 HD
ATOM     50  C   UNL     1      15.801   4.424   5.417  1.00  0.00     0.031 A 
ATOM     51  C   UNL     1      14.213   7.588  -0.601  1.00  0.00     0.031 A 
ATOM     52  C   UNL     1      16.436   5.701   5.219  1.00  0.00     0.049 A 
ATOM     53  C   UNL     1      15.115   8.235   0.414  1.00  0.00     0.074 A 
ATOM     54  C   UNL     1      17.324   6.360   6.051  1.00  0.00     0.029 A 
ATOM     55  N   UNL     1      16.249   6.513   4.111  1.00  0.00    -0.354 N 
ATOM     56  N   UNL     1      15.514   7.772   1.574  1.00  0.00    -0.248 NA
ATOM     57  C   UNL     1      15.644   9.565   0.079  1.00  0.00     0.031 C 
ATOM     58  C   UNL     1      17.640   7.592   5.466  1.00  0.00     0.029 A 
ATOM     59  C   UNL     1      16.990   7.675   4.244  1.00  0.00     0.049 A 
ATOM     60  H   UNL     1      15.675   6.295   3.341  1.00  0.00     0.167 HD
ATOM     61  C   UNL     1      16.367   8.741   2.095  1.00  0.00     0.074 A 
ATOM     62  C   UNL     1      16.428   9.811   1.120  1.00  0.00     0.031 C 
ATOM     63  C   UNL     1      17.043   8.737   3.271  1.00  0.00     0.031 A 
BRANCH  50  64
ATOM     64  C   UNL     1      16.033   3.696   6.718  1.00  0.00    -0.014 A 
ATOM     65  C   UNL     1      16.763   2.493   6.763  1.00  0.00     0.010 A 
ATOM     66  C   UNL     1      15.503   4.216   7.913  1.00  0.00     0.010 A 
ATOM     67  C   UNL     1      16.892   1.787   7.962  1.00  0.00     0.020 A 
ATOM     68  C   UNL     1      15.659   3.530   9.121  1.00  0.00     0.020 A 
ATOM     69  C   UNL     1      16.326   2.303   9.131  1.00  0.00     0.054 A 
BRANCH  69  70
ATOM     70  S   UNL     1      16.476   1.354  10.670  1.00  0.00     0.124 S 
ATOM     71  O   UNL     1      15.491   0.293  10.462  1.00  0.00    -0.237 OA
ATOM     72  O   UNL     1      17.873   0.921  10.647  1.00  0.00    -0.237 OA
ATOM     73  O   UNL     1      16.143   2.319  11.708  1.00  0.00    -0.744 OA
ENDBRANCH  69  70
ENDBRANCH  50  64
BRANCH  51  74
ATOM     74  C   UNL     1      13.906   8.265  -1.891  1.00  0.00    -0.014 A 
ATOM     75  C   UNL     1      14.891   8.360  -2.890  1.00  0.00     0.010 A 
ATOM     76  C   UNL     1      12.620   8.774  -2.147  1.00  0.00     0.010 A 
ATOM     77  C   UNL     1      14.596   8.948  -4.123  1.00  0.00     0.020 A 
ATOM     78  C   UNL     1      12.315   9.342  -3.388  1.00  0.00     0.020 A 
ATOM     79  C   UNL     1      13.306   9.428  -4.367  1.00  0.00     0.054 A 
BRANCH  79  80
ATOM     80  S   UNL     1      12.923  10.103  -6.008  1.00  0.00     0.124 S 
ATOM     81  O   UNL     1      13.611  11.389  -5.977  1.00  0.00    -0.237 OA
ATOM     82  O   UNL     1      13.495   9.099  -6.903  1.00  0.00    -0.237 OA
ATOM     83  O   UNL     1      11.463  10.171  -6.016  1.00  0.00    -0.744 OA
ENDBRANCH  79  80
ENDBRANCH  51  74
BRANCH  63  84
ATOM     84  C   UNL     1      17.943   9.910   3.559  1.00  0.00    -0.014 A 
ATOM     85  C   UNL     1      17.418  11.168   3.904  1.00  0.00     0.010 A 
ATOM     86  C   UNL     1      19.338   9.732   3.536  1.00  0.00     0.010 A 
ATOM     87  C   UNL     1      18.275  12.235   4.191  1.00  0.00     0.020 A 
ATOM     88  C   UNL     1      20.197  10.790   3.848  1.00  0.00     0.020 A 
ATOM     89  C   UNL     1      19.659  12.039   4.160  1.00  0.00     0.054 A 
BRANCH  89  90
ATOM     90  S   UNL     1      20.750  13.427   4.580  1.00  0.00     0.124 S 
ATOM     91  O   UNL     1      20.667  14.252   3.378  1.00  0.00    -0.237 OA
ATOM     92  O   UNL     1      20.116  13.987   5.771  1.00  0.00    -0.237 OA
ATOM     93  O   UNL     1      22.045  12.792   4.812  1.00  0.00    -0.744 OA
ENDBRANCH  89  90
ENDBRANCH  63  84
ENDBRANCH  37  38
ENDBRANCH  29  32
ENDBRANCH  27  28
ENDBRANCH   1  27
TORSDOF 18
