REMARK SMILES Cc1cccc(-c2ccc(Cl)c(C(=O)NCCCNC(=O)c3ccc(-c4c5nc(c(-c6ccc(S(=O)(=O)[O-])cc6)c6ccc([nH]6)c(-c6ccc(S(=O)(=O)[O-])cc6)c6nc(c(-c7ccc(S(=O)(=O)[O-])cc7)c7ccc4[nH]7)C=C6)C=C5)cc3)c2)c1
REMARK SMILES IDX 18 1 17 2 16 3 15 4 13 5 14 6 12 8 7 9 8 10 82 11 9 12 10 13
REMARK SMILES IDX 11 14 6 15 1 16 2 17 3 18 83 19 4 20 5 21 19 22 20 23 21 25
REMARK SMILES IDX 22 26 23 27 81 28 24 29 80 30 25 31 26 32 27 33 74 34 28 35
REMARK SMILES IDX 79 36 73 37 75 38 29 39 78 40 72 41 71 42 30 44 60 45 41 46
REMARK SMILES IDX 59 47 42 48 45 49 58 50 76 51 43 52 44 53 57 55 77 56 46 57
REMARK SMILES IDX 31 58 32 59 40 60 33 61 39 62 34 63 35 64 36 65 37 66 38 67
REMARK SMILES IDX 61 68 62 69 70 70 63 71 69 72 64 73 65 74 66 75 67 76 68 77
REMARK SMILES IDX 47 78 48 79 56 80 49 81 55 82 50 83 51 84 52 85 53 86 54 87
REMARK H PARENT 15 7 19 24 75 43 45 54
REMARK Flexibility Score: inf
ROOT
ATOM      1  C   UNL     1      -6.988   7.484   0.500  1.00  0.00     0.118 C 
ENDROOT
BRANCH   1   2
ATOM      2  C   UNL     1      -5.668   6.745   0.300  1.00  0.00     0.042 C 
BRANCH   2   3
ATOM      3  C   UNL     1      -4.684   7.070   1.414  1.00  0.00     0.118 C 
BRANCH   3   4
ATOM      4  N   UNL     1      -4.263   5.912   2.199  1.00  0.00    -0.352 N 
ATOM      5  C   UNL     1      -3.435   4.833   2.053  1.00  0.00     0.252 C 
ATOM      6  O   UNL     1      -3.325   4.103   3.046  1.00  0.00    -0.269 OA
ATOM      7  H   UNL     1      -4.698   5.906   3.082  1.00  0.00     0.163 HD
BRANCH   5   8
ATOM      8  C   UNL     1      -2.733   4.393   0.811  1.00  0.00     0.059 A 
ATOM      9  C   UNL     1      -1.731   2.414  -0.302  1.00  0.00    -0.017 A 
ATOM     10  C   UNL     1      -1.366   3.230  -1.375  1.00  0.00     0.010 A 
ATOM     11  C   UNL     1      -2.494   2.991   0.730  1.00  0.00     0.024 A 
ATOM     12  C   UNL     1      -1.561   4.605  -1.305  1.00  0.00     0.022 A 
ATOM     13  C   UNL     1      -2.145   5.192  -0.171  1.00  0.00     0.053 A 
ATOM     14  Cl  UNL     1      -1.767   6.862   0.007  1.00  0.00    -0.083 Cl
BRANCH   9  15
ATOM     15  C   UNL     1      -1.125   1.077  -0.175  1.00  0.00    -0.018 A 
ATOM     16  C   UNL     1       2.447  -0.291   0.044  1.00  0.00     0.044 C 
ATOM     17  C   UNL     1       0.949  -0.240   0.003  1.00  0.00    -0.051 A 
ATOM     18  C   UNL     1       0.188  -1.407   0.081  1.00  0.00     0.003 A 
ATOM     19  C   UNL     1       0.284   0.984  -0.127  1.00  0.00     0.012 A 
ATOM     20  C   UNL     1      -1.208  -1.339   0.048  1.00  0.00     0.001 A 
ATOM     21  C   UNL     1      -1.863  -0.106  -0.074  1.00  0.00     0.009 A 
ENDBRANCH   9  15
ENDBRANCH   5   8
ENDBRANCH   3   4
ENDBRANCH   2   3
ENDBRANCH   1   2
BRANCH   1  22
ATOM     22  N   UNL     1      -7.052   8.820  -0.083  1.00  0.00    -0.352 N 
ATOM     23  C   UNL     1      -8.096   9.741   0.015  1.00  0.00     0.251 C 
ATOM     24  H   UNL     1      -6.268   9.106  -0.605  1.00  0.00     0.163 HD
ATOM     25  O   UNL     1      -8.128  10.751  -0.640  1.00  0.00    -0.269 OA
BRANCH  23  26
ATOM     26  C   UNL     1      -9.151   9.441   1.015  1.00  0.00     0.039 A 
ATOM     27  C   UNL     1      -9.252  10.274   2.133  1.00  0.00     0.014 A 
ATOM     28  C   UNL     1      -9.794   8.208   0.975  1.00  0.00     0.014 A 
ATOM     29  C   UNL     1      -9.835   9.781   3.300  1.00  0.00     0.010 A 
ATOM     30  C   UNL     1     -10.264   7.682   2.161  1.00  0.00     0.010 A 
ATOM     31  C   UNL     1     -10.244   8.450   3.337  1.00  0.00    -0.014 A 
BRANCH  31  32
ATOM     32  C   UNL     1     -10.616   7.734   4.555  1.00  0.00     0.031 A 
ATOM     33  C   UNL     1     -12.027   7.322   4.757  1.00  0.00     0.074 A 
ATOM     34  C   UNL     1      -9.666   7.323   5.426  1.00  0.00     0.049 A 
ATOM     35  N   UNL     1     -12.534   6.937   5.881  1.00  0.00    -0.248 NA
ATOM     36  C   UNL     1     -13.012   7.381   3.681  1.00  0.00     0.031 C 
ATOM     37  C   UNL     1      -9.812   6.286   6.447  1.00  0.00     0.029 A 
ATOM     38  N   UNL     1      -8.433   7.908   5.720  1.00  0.00    -0.354 N 
ATOM     39  C   UNL     1     -13.776   6.403   5.612  1.00  0.00     0.074 A 
ATOM     40  C   UNL     1     -14.065   6.798   4.255  1.00  0.00     0.031 C 
ATOM     41  C   UNL     1      -8.902   6.500   7.409  1.00  0.00     0.029 A 
ATOM     42  C   UNL     1      -8.254   7.764   7.108  1.00  0.00     0.049 A 
ATOM     43  H   UNL     1      -7.814   8.335   5.085  1.00  0.00     0.167 HD
ATOM     44  C   UNL     1     -14.356   5.557   6.511  1.00  0.00     0.031 A 
ATOM     45  C   UNL     1      -8.127   8.806   7.981  1.00  0.00     0.031 A 
ATOM     46  C   UNL     1     -13.620   5.529   7.775  1.00  0.00     0.049 A 
ATOM     47  C   UNL     1      -9.174   8.797   9.076  1.00  0.00     0.074 A 
ATOM     48  C   UNL     1     -12.726   4.632   8.336  1.00  0.00     0.029 A 
ATOM     49  N   UNL     1     -13.544   6.689   8.537  1.00  0.00    -0.354 N 
ATOM     50  N   UNL     1     -10.249   8.059   9.047  1.00  0.00    -0.248 NA
ATOM     51  C   UNL     1      -9.125   9.654  10.259  1.00  0.00     0.031 C 
ATOM     52  C   UNL     1     -12.034   5.303   9.380  1.00  0.00     0.029 A 
ATOM     53  C   UNL     1     -12.534   6.590   9.473  1.00  0.00     0.049 A 
ATOM     54  H   UNL     1     -14.130   7.473   8.425  1.00  0.00     0.167 HD
ATOM     55  C   UNL     1     -11.025   8.327  10.141  1.00  0.00     0.074 A 
ATOM     56  C   UNL     1     -10.271   9.324  10.881  1.00  0.00     0.031 C 
ATOM     57  C   UNL     1     -12.230   7.719  10.342  1.00  0.00     0.031 A 
BRANCH  44  58
ATOM     58  C   UNL     1     -15.419   4.539   6.135  1.00  0.00    -0.014 A 
ATOM     59  C   UNL     1     -15.568   3.367   6.907  1.00  0.00     0.010 A 
ATOM     60  C   UNL     1     -16.238   4.623   4.992  1.00  0.00     0.010 A 
ATOM     61  C   UNL     1     -16.401   2.308   6.508  1.00  0.00     0.020 A 
ATOM     62  C   UNL     1     -17.051   3.564   4.563  1.00  0.00     0.020 A 
ATOM     63  C   UNL     1     -17.117   2.401   5.317  1.00  0.00     0.054 A 
BRANCH  63  64
ATOM     64  S   UNL     1     -18.119   0.999   4.760  1.00  0.00     0.124 S 
ATOM     65  O   UNL     1     -17.138  -0.081   4.690  1.00  0.00    -0.237 OA
ATOM     66  O   UNL     1     -19.113   0.882   5.823  1.00  0.00    -0.237 OA
ATOM     67  O   UNL     1     -18.642   1.438   3.467  1.00  0.00    -0.744 OA
ENDBRANCH  63  64
ENDBRANCH  44  58
BRANCH  45  68
ATOM     68  C   UNL     1      -7.521  10.030   7.392  1.00  0.00    -0.014 A 
ATOM     69  C   UNL     1      -6.152   9.969   7.056  1.00  0.00     0.010 A 
ATOM     70  C   UNL     1      -8.336  10.993   6.771  1.00  0.00     0.010 A 
ATOM     71  C   UNL     1      -5.655  10.709   5.982  1.00  0.00     0.020 A 
ATOM     72  C   UNL     1      -7.836  11.744   5.699  1.00  0.00     0.020 A 
ATOM     73  C   UNL     1      -6.522  11.536   5.267  1.00  0.00     0.054 A 
BRANCH  73  74
ATOM     74  S   UNL     1      -5.973  12.134   3.640  1.00  0.00     0.124 S 
ATOM     75  O   UNL     1      -4.748  12.856   3.967  1.00  0.00    -0.237 OA
ATOM     76  O   UNL     1      -5.792  10.878   2.913  1.00  0.00    -0.237 OA
ATOM     77  O   UNL     1      -7.090  12.958   3.192  1.00  0.00    -0.744 OA
ENDBRANCH  73  74
ENDBRANCH  45  68
BRANCH  57  78
ATOM     78  C   UNL     1     -13.219   8.082  11.419  1.00  0.00    -0.014 A 
ATOM     79  C   UNL     1     -13.354   9.373  11.953  1.00  0.00     0.010 A 
ATOM     80  C   UNL     1     -14.161   7.110  11.831  1.00  0.00     0.010 A 
ATOM     81  C   UNL     1     -14.342   9.665  12.904  1.00  0.00     0.020 A 
ATOM     82  C   UNL     1     -15.175   7.401  12.748  1.00  0.00     0.020 A 
ATOM     83  C   UNL     1     -15.243   8.675  13.300  1.00  0.00     0.054 A 
BRANCH  83  84
ATOM     84  S   UNL     1     -16.553   9.072  14.486  1.00  0.00     0.124 S 
ATOM     85  O   UNL     1     -15.896   8.799  15.762  1.00  0.00    -0.237 OA
ATOM     86  O   UNL     1     -16.829  10.481  14.214  1.00  0.00    -0.237 OA
ATOM     87  O   UNL     1     -17.629   8.153  14.125  1.00  0.00    -0.744 OA
ENDBRANCH  83  84
ENDBRANCH  57  78
ENDBRANCH  31  32
ENDBRANCH  23  26
ENDBRANCH   1  22
TORSDOF 14
