REMARK SMILES C[C@@H]1CN(C(=O)Nc2ccc(O)c(C(=O)NCCCNC(=O)c3ccc(-c4c5nc(c(-c6ccc(S(=O)(=O)[O-])cc6)c6ccc([nH]6)c(-c6ccc(S(=O)(=O)[O-])cc6)c6nc(c(-c7ccc(S(=O)(=O)[O-])cc7)c7ccc4[nH]7)C=C6)C=C5)cc3)c2)C[C@H]1C
REMARK SMILES IDX 19 1 18 2 17 3 16 4 14 5 15 6 13 8 8 9 9 10 83 11 10 12
REMARK SMILES IDX 11 13 7 14 1 15 2 16 3 17 85 18 4 19 84 20 86 21 5 22 6 23
REMARK SMILES IDX 12 25 20 27 21 28 22 30 23 31 24 32 82 33 25 34 81 35 26 36
REMARK SMILES IDX 27 37 28 38 75 39 29 40 80 41 74 42 76 43 30 44 79 45 73 46
REMARK SMILES IDX 72 47 31 49 61 50 42 51 60 52 43 53 46 54 59 55 77 56 44 57
REMARK SMILES IDX 45 58 58 60 78 61 47 62 32 63 33 64 41 65 34 66 40 67 35 68
REMARK SMILES IDX 36 69 37 70 38 71 39 72 62 73 63 74 71 75 64 76 70 77 65 78
REMARK SMILES IDX 66 79 67 80 68 81 69 82 48 83 49 84 57 85 50 86 56 87 51 88
REMARK SMILES IDX 52 89 53 90 54 91 55 92
REMARK H PARENT 16 7 7 24 12 26 20 29 76 48 46 59
REMARK Flexibility Score: inf
ROOT
ATOM      1  C   UNL     1      -5.339   5.523   2.611  1.00  0.00     0.118 C 
ENDROOT
BRANCH   1   2
ATOM      2  C   UNL     1      -4.658   4.502   1.712  1.00  0.00     0.042 C 
BRANCH   2   3
ATOM      3  C   UNL     1      -3.598   3.649   2.408  1.00  0.00     0.118 C 
BRANCH   3   4
ATOM      4  N   UNL     1      -4.201   2.646   3.262  1.00  0.00    -0.352 N 
ATOM      5  C   UNL     1      -4.465   1.315   3.082  1.00  0.00     0.255 C 
ATOM      6  O   UNL     1      -4.958   0.721   4.047  1.00  0.00    -0.269 OA
ATOM      7  H   UNL     1      -4.473   2.989   4.144  1.00  0.00     0.163 HD
BRANCH   5   8
ATOM      8  C   UNL     1      -4.132   0.513   1.868  1.00  0.00     0.083 A 
ATOM      9  C   UNL     1      -3.392  -1.692   1.121  1.00  0.00     0.043 A 
ATOM     10  C   UNL     1      -3.588  -1.322  -0.204  1.00  0.00     0.030 A 
ATOM     11  C   UNL     1      -3.744  -0.814   2.146  1.00  0.00     0.044 A 
ATOM     12  C   UNL     1      -3.979  -0.023  -0.504  1.00  0.00     0.049 A 
ATOM     13  C   UNL     1      -4.217   0.898   0.523  1.00  0.00     0.128 A 
BRANCH   9  14
ATOM     14  N   UNL     1      -2.841  -2.927   1.466  1.00  0.00    -0.308 N 
ATOM     15  C   UNL     1       1.541  -0.178  -0.071  1.00  0.00     0.010 C 
ATOM     16  C   UNL     1       0.828  -1.442  -0.523  1.00  0.00     0.010 C 
ATOM     17  C   UNL     1      -0.556  -1.570   0.109  1.00  0.00     0.125 C 
ATOM     18  C   UNL     1       1.505  -2.751  -0.111  1.00  0.00     0.010 C 
ATOM     19  N   UNL     1      -0.821  -3.002   0.216  1.00  0.00    -0.324 N 
ATOM     20  C   UNL     1       0.351  -3.755  -0.204  1.00  0.00     0.125 C 
ATOM     21  C   UNL     1       2.683  -3.123  -0.994  1.00  0.00     0.010 C 
ATOM     22  C   UNL     1      -1.838  -3.645   0.884  1.00  0.00     0.321 C 
ATOM     23  O   UNL     1      -1.801  -4.859   1.104  1.00  0.00    -0.248 OA
ATOM     24  H   UNL     1      -3.243  -3.350   2.259  1.00  0.00     0.171 HD
ENDBRANCH   9  14
BRANCH  13  25
ATOM     25  O   UNL     1      -4.557   2.157   0.141  1.00  0.00    -0.507 OA
ATOM     26  H   UNL     1      -4.602   2.374  -0.769  1.00  0.00     0.293 HD
ENDBRANCH  13  25
ENDBRANCH   5   8
ENDBRANCH   3   4
ENDBRANCH   2   3
ENDBRANCH   1   2
BRANCH   1  27
ATOM     27  N   UNL     1      -4.484   6.661   2.902  1.00  0.00    -0.352 N 
ATOM     28  C   UNL     1      -4.634   7.986   2.570  1.00  0.00     0.251 C 
ATOM     29  H   UNL     1      -3.671   6.450   3.417  1.00  0.00     0.163 HD
ATOM     30  O   UNL     1      -3.684   8.749   2.721  1.00  0.00    -0.269 OA
BRANCH  28  31
ATOM     31  C   UNL     1      -5.913   8.498   2.020  1.00  0.00     0.039 A 
ATOM     32  C   UNL     1      -5.870   9.471   1.016  1.00  0.00     0.014 A 
ATOM     33  C   UNL     1      -7.149   8.071   2.514  1.00  0.00     0.014 A 
ATOM     34  C   UNL     1      -7.058   9.972   0.474  1.00  0.00     0.010 A 
ATOM     35  C   UNL     1      -8.331   8.512   1.920  1.00  0.00     0.010 A 
ATOM     36  C   UNL     1      -8.299   9.475   0.902  1.00  0.00    -0.014 A 
BRANCH  36  37
ATOM     37  C   UNL     1      -9.572   9.956   0.305  1.00  0.00     0.031 A 
ATOM     38  C   UNL     1     -10.573  10.700   1.148  1.00  0.00     0.074 A 
ATOM     39  C   UNL     1      -9.857   9.668  -0.980  1.00  0.00     0.049 A 
ATOM     40  N   UNL     1     -11.757  11.152   0.819  1.00  0.00    -0.248 NA
ATOM     41  C   UNL     1     -10.205  10.947   2.551  1.00  0.00     0.031 C 
ATOM     42  C   UNL     1      -8.987   8.926  -1.894  1.00  0.00     0.029 A 
ATOM     43  N   UNL     1     -10.962   9.963  -1.739  1.00  0.00    -0.354 N 
ATOM     44  C   UNL     1     -12.283  11.715   1.976  1.00  0.00     0.074 A 
ATOM     45  C   UNL     1     -11.308  11.507   3.026  1.00  0.00     0.031 C 
ATOM     46  C   UNL     1      -9.576   8.852  -3.098  1.00  0.00     0.029 A 
ATOM     47  C   UNL     1     -10.881   9.502  -3.031  1.00  0.00     0.049 A 
ATOM     48  H   UNL     1     -11.739  10.457  -1.391  1.00  0.00     0.167 HD
ATOM     49  C   UNL     1     -13.462  12.360   2.150  1.00  0.00     0.031 A 
ATOM     50  C   UNL     1     -11.758   9.590  -4.050  1.00  0.00     0.031 A 
ATOM     51  C   UNL     1     -14.428  12.569   1.103  1.00  0.00     0.049 A 
ATOM     52  C   UNL     1     -13.066  10.297  -3.836  1.00  0.00     0.074 A 
ATOM     53  C   UNL     1     -15.625  13.261   1.160  1.00  0.00     0.029 A 
ATOM     54  N   UNL     1     -14.310  12.081  -0.190  1.00  0.00    -0.354 N 
ATOM     55  N   UNL     1     -13.519  10.877  -2.750  1.00  0.00    -0.248 NA
ATOM     56  C   UNL     1     -13.978  10.367  -4.985  1.00  0.00     0.031 C 
ATOM     57  C   UNL     1     -16.254  13.149  -0.085  1.00  0.00     0.029 A 
ATOM     58  C   UNL     1     -15.424  12.433  -0.933  1.00  0.00     0.049 A 
ATOM     59  H   UNL     1     -13.546  11.561  -0.530  1.00  0.00     0.167 HD
ATOM     60  C   UNL     1     -14.761  11.401  -3.091  1.00  0.00     0.074 A 
ATOM     61  C   UNL     1     -14.981  11.078  -4.487  1.00  0.00     0.031 C 
ATOM     62  C   UNL     1     -15.635  12.092  -2.319  1.00  0.00     0.031 A 
BRANCH  49  63
ATOM     63  C   UNL     1     -13.773  12.864   3.536  1.00  0.00    -0.014 A 
ATOM     64  C   UNL     1     -13.049  13.929   4.104  1.00  0.00     0.010 A 
ATOM     65  C   UNL     1     -14.799  12.260   4.285  1.00  0.00     0.010 A 
ATOM     66  C   UNL     1     -13.297  14.333   5.418  1.00  0.00     0.020 A 
ATOM     67  C   UNL     1     -15.071  12.682   5.590  1.00  0.00     0.020 A 
ATOM     68  C   UNL     1     -14.299  13.698   6.158  1.00  0.00     0.054 A 
BRANCH  68  69
ATOM     69  S   UNL     1     -14.585  14.223   7.871  1.00  0.00     0.124 S 
ATOM     70  O   UNL     1     -13.453  13.613   8.564  1.00  0.00    -0.237 OA
ATOM     71  O   UNL     1     -14.549  15.680   7.772  1.00  0.00    -0.237 OA
ATOM     72  O   UNL     1     -15.892  13.656   8.193  1.00  0.00    -0.744 OA
ENDBRANCH  68  69
ENDBRANCH  49  63
BRANCH  50  73
ATOM     73  C   UNL     1     -11.399   9.019  -5.376  1.00  0.00    -0.014 A 
ATOM     74  C   UNL     1     -11.045   9.869  -6.438  1.00  0.00     0.010 A 
ATOM     75  C   UNL     1     -11.352   7.626  -5.568  1.00  0.00     0.010 A 
ATOM     76  C   UNL     1     -10.644   9.337  -7.667  1.00  0.00     0.020 A 
ATOM     77  C   UNL     1     -10.930   7.090  -6.789  1.00  0.00     0.020 A 
ATOM     78  C   UNL     1     -10.580   7.951  -7.832  1.00  0.00     0.054 A 
BRANCH  78  79
ATOM     79  S   UNL     1      -9.965   7.285  -9.404  1.00  0.00     0.124 S 
ATOM     80  O   UNL     1     -11.092   7.527 -10.299  1.00  0.00    -0.237 OA
ATOM     81  O   UNL     1      -8.776   8.098  -9.647  1.00  0.00    -0.237 OA
ATOM     82  O   UNL     1      -9.696   5.881  -9.098  1.00  0.00    -0.744 OA
ENDBRANCH  78  79
ENDBRANCH  50  73
BRANCH  62  83
ATOM     83  C   UNL     1     -16.907  12.565  -2.971  1.00  0.00    -0.014 A 
ATOM     84  C   UNL     1     -17.943  11.666  -3.279  1.00  0.00     0.010 A 
ATOM     85  C   UNL     1     -17.087  13.936  -3.229  1.00  0.00     0.010 A 
ATOM     86  C   UNL     1     -19.128  12.127  -3.860  1.00  0.00     0.020 A 
ATOM     87  C   UNL     1     -18.280  14.404  -3.787  1.00  0.00     0.020 A 
ATOM     88  C   UNL     1     -19.288  13.494  -4.111  1.00  0.00     0.054 A 
BRANCH  88  89
ATOM     89  S   UNL     1     -20.852  14.075  -4.822  1.00  0.00     0.124 S 
ATOM     90  O   UNL     1     -20.724  13.660  -6.216  1.00  0.00    -0.237 OA
ATOM     91  O   UNL     1     -21.851  13.350  -4.039  1.00  0.00    -0.237 OA
ATOM     92  O   UNL     1     -20.821  15.518  -4.595  1.00  0.00    -0.744 OA
ENDBRANCH  88  89
ENDBRANCH  62  83
ENDBRANCH  36  37
ENDBRANCH  28  31
ENDBRANCH   1  27
TORSDOF 15
