REMARK SMILES O=C(NCCCNC(=O)[C@@H]1[C@@H](C(=O)Nc2cccc([N+](=O)[O-])c2)[C@@H]2C=C[C@H]1O2)c1ccc(-c2c3nc(c(-c4ccc(S(=O)(=O)[O-])cc4)c4ccc([nH]4)c(-c4ccc(S(=O)(=O)[O-])cc4)c4nc(c(-c5ccc(S(=O)(=O)[O-])cc5)c5ccc2[nH]5)C=C4)C=C3)cc1
REMARK SMILES IDX 5 1 4 2 3 3 1 4 2 5 29 7 30 8 88 9 31 10 87 11 32 12 33 13
REMARK SMILES IDX 34 14 81 15 35 16 86 17 80 18 82 19 36 20 85 21 79 22 78 23
REMARK SMILES IDX 37 25 67 26 48 27 66 28 49 29 52 30 65 31 83 32 50 33 51 34
REMARK SMILES IDX 64 36 84 37 53 38 38 39 39 40 47 41 40 42 46 43 41 44 42 45
REMARK SMILES IDX 43 46 44 47 45 48 68 49 69 50 77 51 70 52 76 53 71 54 72 55
REMARK SMILES IDX 73 56 74 57 75 58 54 59 55 60 63 61 56 62 62 63 57 64 58 65
REMARK SMILES IDX 59 66 60 67 61 68 6 69 7 70 8 71 9 73 10 74 11 75 27 76
REMARK SMILES IDX 24 77 26 78 28 79 25 80 12 81 13 82 14 83 15 85 16 86 23 87
REMARK SMILES IDX 17 88 19 89 18 90 20 91 21 92 22 93
REMARK H PARENT 3 6 82 24 52 35 7 72 14 84
REMARK Flexibility Score: inf
ROOT
ATOM      1  C   UNL     1       3.788   1.265   3.501  1.00  0.00     0.042 C 
ENDROOT
BRANCH   1   2
ATOM      2  C   UNL     1       3.617   1.093   1.980  1.00  0.00     0.118 C 
BRANCH   2   3
ATOM      3  N   UNL     1       2.530   0.275   1.492  1.00  0.00    -0.352 N 
ATOM      4  O   UNL     1       1.186  -0.620  -0.089  1.00  0.00    -0.269 OA
ATOM      5  C   UNL     1       2.158   0.082   0.173  1.00  0.00     0.251 C 
ATOM      6  H   UNL     1       1.997  -0.197   2.172  1.00  0.00     0.163 HD
BRANCH   5   7
ATOM      7  C   UNL     1       2.912   0.721  -0.939  1.00  0.00     0.039 A 
ATOM      8  C   UNL     1       4.078   0.138  -1.445  1.00  0.00     0.014 A 
ATOM      9  C   UNL     1       2.371   1.841  -1.579  1.00  0.00     0.014 A 
ATOM     10  C   UNL     1       4.736   0.711  -2.549  1.00  0.00     0.010 A 
ATOM     11  C   UNL     1       3.020   2.398  -2.695  1.00  0.00     0.010 A 
ATOM     12  C   UNL     1       4.219   1.851  -3.186  1.00  0.00    -0.014 A 
BRANCH  12  13
ATOM     13  C   UNL     1       4.895   2.475  -4.367  1.00  0.00     0.031 A 
ATOM     14  C   UNL     1       5.540   3.834  -4.250  1.00  0.00     0.074 A 
ATOM     15  C   UNL     1       4.877   1.868  -5.572  1.00  0.00     0.049 A 
ATOM     16  N   UNL     1       6.076   4.584  -5.181  1.00  0.00    -0.248 NA
ATOM     17  C   UNL     1       5.575   4.428  -2.906  1.00  0.00     0.031 C 
ATOM     18  C   UNL     1       4.288   0.558  -5.846  1.00  0.00     0.029 A 
ATOM     19  N   UNL     1       5.340   2.289  -6.798  1.00  0.00    -0.354 N 
ATOM     20  C   UNL     1       6.492   5.749  -4.543  1.00  0.00     0.074 A 
ATOM     21  C   UNL     1       6.127   5.610  -3.148  1.00  0.00     0.031 C 
ATOM     22  C   UNL     1       4.408   0.290  -7.157  1.00  0.00     0.029 A 
ATOM     23  C   UNL     1       5.041   1.425  -7.827  1.00  0.00     0.049 A 
ATOM     24  H   UNL     1       5.838   3.128  -6.927  1.00  0.00     0.167 HD
ATOM     25  C   UNL     1       7.114   6.836  -5.065  1.00  0.00     0.031 A 
ATOM     26  C   UNL     1       5.216   1.538  -9.161  1.00  0.00     0.031 A 
ATOM     27  C   UNL     1       7.463   6.988  -6.455  1.00  0.00     0.049 A 
ATOM     28  C   UNL     1       5.873   2.765  -9.733  1.00  0.00     0.074 A 
ATOM     29  C   UNL     1       8.133   8.037  -7.064  1.00  0.00     0.029 A 
ATOM     30  N   UNL     1       7.153   6.080  -7.456  1.00  0.00    -0.354 N 
ATOM     31  N   UNL     1       6.309   3.830  -9.104  1.00  0.00    -0.248 NA
ATOM     32  C   UNL     1       6.069   2.805 -11.190  1.00  0.00     0.031 C 
ATOM     33  C   UNL     1       8.176   7.790  -8.440  1.00  0.00     0.029 A 
ATOM     34  C   UNL     1       7.589   6.558  -8.682  1.00  0.00     0.049 A 
ATOM     35  H   UNL     1       6.690   5.223  -7.317  1.00  0.00     0.167 HD
ATOM     36  C   UNL     1       6.851   4.656 -10.085  1.00  0.00     0.074 A 
ATOM     37  C   UNL     1       6.692   3.967 -11.348  1.00  0.00     0.031 C 
ATOM     38  C   UNL     1       7.432   5.872  -9.941  1.00  0.00     0.031 A 
BRANCH  25  39
ATOM     39  C   UNL     1       7.417   7.978  -4.126  1.00  0.00    -0.014 A 
ATOM     40  C   UNL     1       8.396   7.863  -3.123  1.00  0.00     0.010 A 
ATOM     41  C   UNL     1       6.715   9.190  -4.258  1.00  0.00     0.010 A 
ATOM     42  C   UNL     1       8.616   8.912  -2.224  1.00  0.00     0.020 A 
ATOM     43  C   UNL     1       6.952  10.253  -3.380  1.00  0.00     0.020 A 
ATOM     44  C   UNL     1       7.880  10.095  -2.350  1.00  0.00     0.054 A 
BRANCH  44  45
ATOM     45  S   UNL     1       8.153  11.425  -1.146  1.00  0.00     0.124 S 
ATOM     46  O   UNL     1       7.476  10.898   0.037  1.00  0.00    -0.237 OA
ATOM     47  O   UNL     1       9.610  11.488  -1.059  1.00  0.00    -0.237 OA
ATOM     48  O   UNL     1       7.517  12.586  -1.762  1.00  0.00    -0.744 OA
ENDBRANCH  44  45
ENDBRANCH  25  39
BRANCH  26  49
ATOM     49  C   UNL     1       4.730   0.443 -10.048  1.00  0.00    -0.014 A 
ATOM     50  C   UNL     1       5.632  -0.448 -10.653  1.00  0.00     0.010 A 
ATOM     51  C   UNL     1       3.348   0.245 -10.228  1.00  0.00     0.010 A 
ATOM     52  C   UNL     1       5.160  -1.530 -11.405  1.00  0.00     0.020 A 
ATOM     53  C   UNL     1       2.873  -0.848 -10.958  1.00  0.00     0.020 A 
ATOM     54  C   UNL     1       3.783  -1.731 -11.540  1.00  0.00     0.054 A 
BRANCH  54  55
ATOM     55  S   UNL     1       3.195  -3.208 -12.416  1.00  0.00     0.124 S 
ATOM     56  O   UNL     1       3.473  -2.867 -13.809  1.00  0.00    -0.237 OA
ATOM     57  O   UNL     1       4.027  -4.264 -11.845  1.00  0.00    -0.237 OA
ATOM     58  O   UNL     1       1.781  -3.278 -12.058  1.00  0.00    -0.744 OA
ENDBRANCH  54  55
ENDBRANCH  26  49
BRANCH  38  59
ATOM     59  C   UNL     1       7.985   6.544 -11.172  1.00  0.00    -0.014 A 
ATOM     60  C   UNL     1       7.140   7.154 -12.114  1.00  0.00     0.010 A 
ATOM     61  C   UNL     1       9.380   6.655 -11.330  1.00  0.00     0.010 A 
ATOM     62  C   UNL     1       7.680   7.861 -13.195  1.00  0.00     0.020 A 
ATOM     63  C   UNL     1       9.922   7.378 -12.395  1.00  0.00     0.020 A 
ATOM     64  C   UNL     1       9.068   7.975 -13.324  1.00  0.00     0.054 A 
BRANCH  64  65
ATOM     65  S   UNL     1       9.743   8.972 -14.683  1.00  0.00     0.124 S 
ATOM     66  O   UNL     1       9.507   8.111 -15.839  1.00  0.00    -0.237 OA
ATOM     67  O   UNL     1       8.930  10.184 -14.625  1.00  0.00    -0.237 OA
ATOM     68  O   UNL     1      11.146   9.153 -14.317  1.00  0.00    -0.744 OA
ENDBRANCH  64  65
ENDBRANCH  38  59
ENDBRANCH  12  13
ENDBRANCH   5   7
ENDBRANCH   2   3
ENDBRANCH   1   2
BRANCH   1  69
ATOM     69  C   UNL     1       3.490   0.196   4.576  1.00  0.00     0.117 C 
BRANCH  69  70
ATOM     70  N   UNL     1       4.076  -1.143   4.513  1.00  0.00    -0.356 N 
ATOM     71  C   UNL     1       4.941  -1.783   5.384  1.00  0.00     0.227 C 
ATOM     72  H   UNL     1       3.813  -1.673   3.726  1.00  0.00     0.163 HD
ATOM     73  O   UNL     1       4.910  -3.011   5.458  1.00  0.00    -0.275 OA
BRANCH  71  74
ATOM     74  C   UNL     1       5.986  -0.976   6.112  1.00  0.00     0.127 C 
ATOM     75  C   UNL     1       7.281  -0.832   5.299  1.00  0.00     0.127 C 
ATOM     76  C   UNL     1       6.621  -1.550   7.400  1.00  0.00     0.155 C 
ATOM     77  C   UNL     1       8.313  -0.573   6.419  1.00  0.00     0.155 C 
ATOM     78  C   UNL     1       7.739  -2.582   7.275  1.00  0.00     0.004 C 
ATOM     79  O   UNL     1       7.490  -0.382   7.613  1.00  0.00    -0.365 OA
ATOM     80  C   UNL     1       8.813  -1.946   6.769  1.00  0.00     0.004 C 
BRANCH  75  81
ATOM     81  C   UNL     1       7.208   0.076   4.109  1.00  0.00     0.231 C 
ATOM     82  O   UNL     1       7.373   1.290   4.214  1.00  0.00    -0.274 OA
ATOM     83  N   UNL     1       6.800  -0.462   2.893  1.00  0.00    -0.325 N 
ATOM     84  H   UNL     1       6.689   0.194   2.168  1.00  0.00     0.169 HD
BRANCH  83  85
ATOM     85  C   UNL     1       6.518  -1.807   2.529  1.00  0.00     0.048 A 
ATOM     86  C   UNL     1       5.370  -2.062   1.770  1.00  0.00     0.026 A 
ATOM     87  C   UNL     1       7.279  -2.902   2.937  1.00  0.00     0.111 A 
ATOM     88  C   UNL     1       4.885  -3.361   1.582  1.00  0.00     0.009 A 
ATOM     89  C   UNL     1       6.785  -4.207   2.776  1.00  0.00     0.271 A 
ATOM     90  C   UNL     1       5.577  -4.442   2.113  1.00  0.00     0.086 A 
BRANCH  89  91
ATOM     91  N   UNL     1       7.521  -5.333   3.362  1.00  0.00     0.062 N 
ATOM     92  O   UNL     1       7.056  -6.472   3.209  1.00  0.00    -0.258 OA
ATOM     93  O   UNL     1       8.568  -5.081   3.977  1.00  0.00    -0.258 OA
ENDBRANCH  89  91
ENDBRANCH  83  85
ENDBRANCH  75  81
ENDBRANCH  71  74
ENDBRANCH  69  70
ENDBRANCH   1  69
TORSDOF 16
