REMARK SMILES C[C@@H](C(=O)NCCCNC(=O)c1ccc(-c2c3nc(c(-c4ccc(S(=O)(=O)[O-])cc4)c4ccc([nH]4)c(-c4ccc(S(=O)(=O)[O-])cc4)c4nc(c(-c5ccc(S(=O)(=O)[O-])cc5)c5ccc2[nH]5)C=C4)C=C3)cc1)c1ccccc1-c1ccn(C(F)F)c(=O)c1
REMARK SMILES IDX 7 1 6 2 5 3 3 4 4 5 2 7 1 8 72 9 73 10 77 11 74 12 76 13
REMARK SMILES IDX 75 14 78 15 79 16 87 17 80 18 85 19 81 20 86 21 82 22 83 23
REMARK SMILES IDX 84 24 8 25 9 26 10 27 11 29 12 30 13 31 71 32 14 33 70 34
REMARK SMILES IDX 15 35 16 36 17 37 64 38 18 39 69 40 63 41 65 42 19 43 68 44
REMARK SMILES IDX 62 45 61 46 20 48 50 49 31 50 49 51 32 52 35 53 48 54 66 55
REMARK SMILES IDX 33 56 34 57 47 59 67 60 36 61 21 62 22 63 30 64 23 65 29 66
REMARK SMILES IDX 24 67 25 68 26 69 27 70 28 71 51 72 52 73 60 74 53 75 59 76
REMARK SMILES IDX 54 77 55 78 56 79 57 80 58 81 37 82 38 83 46 84 39 85 45 86
REMARK SMILES IDX 40 87 41 88 42 89 43 90 44 91
REMARK H PARENT 5 6 9 28 65 47 35 58
REMARK Flexibility Score: inf
ROOT
ATOM      1  C   UNL     1       4.317   0.811   0.944  1.00  0.00     0.042 C 
ENDROOT
BRANCH   1   2
ATOM      2  C   UNL     1       3.408   0.047   1.900  1.00  0.00     0.117 C 
BRANCH   2   3
ATOM      3  N   UNL     1       2.379   0.894   2.473  1.00  0.00    -0.356 N 
ATOM      4  C   UNL     1       1.045   0.994   2.201  1.00  0.00     0.227 C 
ATOM      5  O   UNL     1       0.428   1.854   2.833  1.00  0.00    -0.274 OA
ATOM      6  H   UNL     1       2.698   1.502   3.178  1.00  0.00     0.163 HD
BRANCH   4   7
ATOM      7  C   UNL     1       0.391   0.051   1.174  1.00  0.00     0.106 C 
ATOM      8  C   UNL     1       0.689   0.479  -0.262  1.00  0.00     0.023 C 
BRANCH   7   9
ATOM      9  C   UNL     1      -1.121  -0.121   1.363  1.00  0.00    -0.028 A 
ATOM     10  C   UNL     1      -1.951   1.019   1.384  1.00  0.00     0.005 A 
ATOM     11  C   UNL     1      -1.734  -1.393   1.452  1.00  0.00    -0.014 A 
ATOM     12  C   UNL     1      -3.333   0.912   1.535  1.00  0.00     0.000 A 
ATOM     13  C   UNL     1      -3.129  -1.485   1.613  1.00  0.00     0.009 A 
ATOM     14  C   UNL     1      -3.922  -0.339   1.657  1.00  0.00     0.001 A 
BRANCH  11  15
ATOM     15  C   UNL     1      -0.970  -2.652   1.319  1.00  0.00    -0.011 A 
ATOM     16  C   UNL     1      -0.076  -3.157   2.344  1.00  0.00     0.027 A 
ATOM     17  C   UNL     1      -1.077  -3.319   0.156  1.00  0.00     0.080 A 
ATOM     18  C   UNL     1       0.701  -4.219   2.099  1.00  0.00     0.095 A 
ATOM     19  C   UNL     1      -0.272  -4.543  -0.101  1.00  0.00     0.255 A 
ATOM     20  N   UNL     1       0.631  -4.890   0.892  1.00  0.00    -0.258 N 
ATOM     21  O   UNL     1      -0.442  -5.146  -1.155  1.00  0.00    -0.269 OA
BRANCH  20  22
ATOM     22  C   UNL     1       1.490  -6.013   0.624  1.00  0.00     0.451 C 
ATOM     23  F   UNL     1       0.774  -7.156   0.492  1.00  0.00    -0.185 F 
ATOM     24  F   UNL     1       2.199  -5.826  -0.516  1.00  0.00    -0.185 F 
ENDBRANCH  20  22
ENDBRANCH  11  15
ENDBRANCH   7   9
ENDBRANCH   4   7
ENDBRANCH   2   3
ENDBRANCH   1   2
BRANCH   1  25
ATOM     25  C   UNL     1       5.062   1.980   1.580  1.00  0.00     0.118 C 
BRANCH  25  26
ATOM     26  N   UNL     1       6.055   1.556   2.558  1.00  0.00    -0.352 N 
ATOM     27  C   UNL     1       7.407   1.806   2.586  1.00  0.00     0.251 C 
ATOM     28  H   UNL     1       5.709   1.015   3.304  1.00  0.00     0.163 HD
ATOM     29  O   UNL     1       8.119   1.230   3.405  1.00  0.00    -0.269 OA
BRANCH  27  30
ATOM     30  C   UNL     1       8.002   2.745   1.611  1.00  0.00     0.039 A 
ATOM     31  C   UNL     1       9.149   2.365   0.909  1.00  0.00     0.014 A 
ATOM     32  C   UNL     1       7.416   3.992   1.379  1.00  0.00     0.014 A 
ATOM     33  C   UNL     1       9.663   3.203  -0.085  1.00  0.00     0.010 A 
ATOM     34  C   UNL     1       7.886   4.792   0.344  1.00  0.00     0.010 A 
ATOM     35  C   UNL     1       9.011   4.404  -0.403  1.00  0.00    -0.014 A 
BRANCH  35  36
ATOM     36  C   UNL     1       9.468   5.286  -1.507  1.00  0.00     0.031 A 
ATOM     37  C   UNL     1       9.924   6.685  -1.202  1.00  0.00     0.074 A 
ATOM     38  C   UNL     1       9.353   4.878  -2.786  1.00  0.00     0.049 A 
ATOM     39  N   UNL     1      10.176   7.670  -2.025  1.00  0.00    -0.248 NA
ATOM     40  C   UNL     1      10.082   7.028   0.220  1.00  0.00     0.031 C 
ATOM     41  C   UNL     1       8.892   3.557  -3.217  1.00  0.00     0.029 A 
ATOM     42  N   UNL     1       9.582   5.550  -3.961  1.00  0.00    -0.354 N 
ATOM     43  C   UNL     1      10.482   8.761  -1.220  1.00  0.00     0.074 A 
ATOM     44  C   UNL     1      10.352   8.323   0.153  1.00  0.00     0.031 C 
ATOM     45  C   UNL     1       8.867   3.517  -4.559  1.00  0.00     0.029 A 
ATOM     46  C   UNL     1       9.264   4.821  -5.082  1.00  0.00     0.049 A 
ATOM     47  H   UNL     1       9.940   6.466  -3.997  1.00  0.00     0.167 HD
ATOM     48  C   UNL     1      10.843  10.014  -1.590  1.00  0.00     0.031 A 
ATOM     49  C   UNL     1       9.262   5.167  -6.385  1.00  0.00     0.031 A 
ATOM     50  C   UNL     1      10.982  10.441  -2.956  1.00  0.00     0.049 A 
ATOM     51  C   UNL     1       9.678   6.555  -6.780  1.00  0.00     0.074 A 
ATOM     52  C   UNL     1      11.399  11.669  -3.436  1.00  0.00     0.029 A 
ATOM     53  N   UNL     1      10.706   9.651  -4.062  1.00  0.00    -0.354 N 
ATOM     54  N   UNL     1      10.016   7.561  -6.009  1.00  0.00    -0.248 NA
ATOM     55  C   UNL     1       9.723   6.855  -8.218  1.00  0.00     0.031 C 
ATOM     56  C   UNL     1      11.336  11.636  -4.833  1.00  0.00     0.029 A 
ATOM     57  C   UNL     1      10.928  10.370  -5.224  1.00  0.00     0.049 A 
ATOM     58  H   UNL     1      10.397   8.716  -4.026  1.00  0.00     0.167 HD
ATOM     59  C   UNL     1      10.338   8.606  -6.867  1.00  0.00     0.074 A 
ATOM     60  C   UNL     1      10.157   8.110  -8.217  1.00  0.00     0.031 C 
ATOM     61  C   UNL     1      10.752   9.860  -6.561  1.00  0.00     0.031 A 
BRANCH  48  62
ATOM     62  C   UNL     1      11.083  11.011  -0.488  1.00  0.00    -0.014 A 
ATOM     63  C   UNL     1      12.191  10.895   0.371  1.00  0.00     0.010 A 
ATOM     64  C   UNL     1      10.176  12.068  -0.296  1.00  0.00     0.010 A 
ATOM     65  C   UNL     1      12.347  11.774   1.446  1.00  0.00     0.020 A 
ATOM     66  C   UNL     1      10.345  12.968   0.760  1.00  0.00     0.020 A 
ATOM     67  C   UNL     1      11.414  12.796   1.643  1.00  0.00     0.054 A 
BRANCH  67  68
ATOM     68  S   UNL     1      11.615  13.901   3.066  1.00  0.00     0.124 S 
ATOM     69  O   UNL     1      11.133  13.066   4.163  1.00  0.00    -0.237 OA
ATOM     70  O   UNL     1      13.050  14.170   3.067  1.00  0.00    -0.237 OA
ATOM     71  O   UNL     1      10.770  15.046   2.736  1.00  0.00    -0.744 OA
ENDBRANCH  67  68
ENDBRANCH  48  62
BRANCH  49  72
ATOM     72  C   UNL     1       8.851   4.162  -7.401  1.00  0.00    -0.014 A 
ATOM     73  C   UNL     1       9.815   3.516  -8.192  1.00  0.00     0.010 A 
ATOM     74  C   UNL     1       7.499   3.791  -7.527  1.00  0.00     0.010 A 
ATOM     75  C   UNL     1       9.438   2.509  -9.085  1.00  0.00     0.020 A 
ATOM     76  C   UNL     1       7.121   2.769  -8.403  1.00  0.00     0.020 A 
ATOM     77  C   UNL     1       8.094   2.135  -9.178  1.00  0.00     0.054 A 
BRANCH  77  78
ATOM     78  S   UNL     1       7.642   0.753 -10.265  1.00  0.00     0.124 S 
ATOM     79  O   UNL     1       7.728   1.366 -11.587  1.00  0.00    -0.237 OA
ATOM     80  O   UNL     1       8.670  -0.238  -9.959  1.00  0.00    -0.237 OA
ATOM     81  O   UNL     1       6.295   0.399  -9.823  1.00  0.00    -0.744 OA
ENDBRANCH  77  78
ENDBRANCH  49  72
BRANCH  61  82
ATOM     82  C   UNL     1      11.082  10.787  -7.699  1.00  0.00    -0.014 A 
ATOM     83  C   UNL     1      10.070  11.418  -8.441  1.00  0.00     0.010 A 
ATOM     84  C   UNL     1      12.428  11.112  -7.953  1.00  0.00     0.010 A 
ATOM     85  C   UNL     1      10.399  12.359  -9.421  1.00  0.00     0.020 A 
ATOM     86  C   UNL     1      12.759  12.067  -8.917  1.00  0.00     0.020 A 
ATOM     87  C   UNL     1      11.741  12.682  -9.649  1.00  0.00     0.054 A 
BRANCH  87  88
ATOM     88  S   UNL     1      12.138  13.973 -10.860  1.00  0.00     0.124 S 
ATOM     89  O   UNL     1      11.922  13.279 -12.126  1.00  0.00    -0.237 OA
ATOM     90  O   UNL     1      11.168  15.020 -10.544  1.00  0.00    -0.237 OA
ATOM     91  O   UNL     1      13.528  14.311 -10.563  1.00  0.00    -0.744 OA
ENDBRANCH  87  88
ENDBRANCH  61  82
ENDBRANCH  35  36
ENDBRANCH  27  30
ENDBRANCH  25  26
ENDBRANCH   1  25
TORSDOF 16
