REMARK SMILES Cc1cccc(N2CC[NH+]([C@@H](C(=O)NCCCNC(=O)c3ccc(-c4c5nc(c(-c6ccc(S(=O)(=O)[O-])cc6)c6ccc([nH]6)c(-c6ccc(S(=O)(=O)[O-])cc6)c6nc(c(-c7ccc(S(=O)(=O)[O-])cc7)c7ccc4[nH]7)C=C6)C=C5)cc3)c3c[nH]c4cc(NC(=O)C(C)C)ccc34)CC2)c1C
REMARK SMILES IDX 16 1 15 2 14 3 12 4 13 5 11 7 10 8 7 9 8 10 97 11 9 12 96 13
REMARK SMILES IDX 6 15 1 16 2 17 3 18 98 19 4 20 99 21 5 22 81 23 82 24 95 25
REMARK SMILES IDX 83 26 84 27 94 28 85 30 93 31 86 32 87 33 88 34 89 36 90 37
REMARK SMILES IDX 91 38 92 39 17 40 18 41 19 42 20 44 21 45 22 46 80 47 23 48
REMARK SMILES IDX 79 49 24 50 25 51 26 52 73 53 27 54 78 55 72 56 74 57 28 58
REMARK SMILES IDX 77 59 71 60 70 61 29 63 59 64 40 65 58 66 41 67 44 68 57 69
REMARK SMILES IDX 75 70 42 71 43 72 56 74 76 75 45 76 30 77 31 78 39 79 32 80
REMARK SMILES IDX 38 81 33 82 34 83 35 84 36 85 37 86 60 87 61 88 69 89 62 90
REMARK SMILES IDX 68 91 63 92 64 93 65 94 66 95 67 96 46 97 47 98 55 99 48 100
REMARK SMILES IDX 54 101 49 102 50 103 51 104 52 105 53 106
REMARK H PARENT 14 6 10 14 83 29 87 35 18 43 74 62 44 73
REMARK Flexibility Score: inf
ROOT
ATOM      1  C   UNL     1      -1.937  -4.544  -3.124  1.00  0.00     0.042 C 
ENDROOT
BRANCH   1   2
ATOM      2  C   UNL     1      -0.487  -5.119  -2.989  1.00  0.00     0.118 C 
BRANCH   2   3
ATOM      3  N   UNL     1       0.558  -4.272  -2.400  1.00  0.00    -0.351 N 
ATOM      4  C   UNL     1       1.477  -4.399  -1.377  1.00  0.00     0.283 C 
ATOM      5  O   UNL     1       2.519  -3.760  -1.592  1.00  0.00    -0.268 OA
ATOM      6  H   UNL     1       0.619  -3.396  -2.845  1.00  0.00     0.163 HD
BRANCH   4   7
ATOM      7  C   UNL     1       1.346  -5.320  -0.114  1.00  0.00     0.307 C 
BRANCH   7   8
ATOM      8  N   UNL     1       0.112  -5.176   0.774  1.00  0.00    -0.318 N 
ATOM      9  N   UNL     1      -0.643  -2.321   0.619  1.00  0.00    -0.360 N 
ATOM     10  C   UNL     1       0.467  -2.810   1.414  1.00  0.00     0.178 C 
ATOM     11  C   UNL     1      -1.412  -3.293  -0.164  1.00  0.00     0.178 C 
ATOM     12  C   UNL     1       0.205  -4.230   1.903  1.00  0.00     0.284 C 
ATOM     13  C   UNL     1      -1.161  -4.808   0.157  1.00  0.00     0.284 C 
ATOM     14  H   UNL     1       0.112  -6.153   1.065  1.00  0.00     0.349 HD
BRANCH   9  15
ATOM     15  C   UNL     1      -0.710  -0.969   0.268  1.00  0.00     0.040 A 
ATOM     16  C   UNL     1       1.485   2.143  -0.328  1.00  0.00     0.044 C 
ATOM     17  C   UNL     1       0.276   1.255  -0.163  1.00  0.00    -0.046 A 
ATOM     18  C   UNL     1      -0.984   1.837  -0.041  1.00  0.00     0.004 A 
ATOM     19  C   UNL     1       0.396  -0.158  -0.109  1.00  0.00    -0.025 A 
ATOM     20  C   UNL     1      -2.098   1.042   0.188  1.00  0.00     0.002 A 
ATOM     21  C   UNL     1       1.730  -0.731  -0.488  1.00  0.00     0.047 C 
ATOM     22  C   UNL     1      -1.959  -0.337   0.355  1.00  0.00     0.026 A 
ENDBRANCH   9  15
ENDBRANCH   7   8
BRANCH   7  23
ATOM     23  C   UNL     1       2.607  -5.335   0.869  1.00  0.00     0.044 A 
ATOM     24  C   UNL     1       2.893  -6.412   1.706  1.00  0.00     0.094 A 
ATOM     25  C   UNL     1       3.364  -4.238   1.474  1.00  0.00     0.009 A 
ATOM     26  N   UNL     1       3.268  -5.885   2.927  1.00  0.00    -0.361 N 
ATOM     27  C   UNL     1       3.312  -4.511   2.845  1.00  0.00     0.048 A 
ATOM     28  C   UNL     1       3.802  -2.947   1.123  1.00  0.00     0.013 A 
ATOM     29  H   UNL     1       3.471  -6.412   3.734  1.00  0.00     0.166 HD
ATOM     30  C   UNL     1       3.198  -3.488   3.821  1.00  0.00     0.052 A 
ATOM     31  C   UNL     1       3.854  -1.942   2.114  1.00  0.00     0.027 A 
ATOM     32  C   UNL     1       3.349  -2.168   3.396  1.00  0.00     0.043 A 
BRANCH  32  33
ATOM     33  N   UNL     1       3.151  -1.038   4.207  1.00  0.00    -0.326 N 
ATOM     34  C   UNL     1       2.173  -0.577   5.038  1.00  0.00     0.226 C 
ATOM     35  H   UNL     1       3.915  -0.420   4.164  1.00  0.00     0.169 HD
ATOM     36  O   UNL     1       2.482   0.427   5.701  1.00  0.00    -0.274 OA
BRANCH  34  37
ATOM     37  C   UNL     1       0.708  -1.035   5.095  1.00  0.00     0.072 C 
ATOM     38  C   UNL     1      -0.121  -0.510   3.917  1.00  0.00     0.018 C 
ATOM     39  C   UNL     1       0.450  -2.496   5.403  1.00  0.00     0.018 C 
ENDBRANCH  34  37
ENDBRANCH  32  33
ENDBRANCH   7  23
ENDBRANCH   4   7
ENDBRANCH   2   3
ENDBRANCH   1   2
BRANCH   1  40
ATOM     40  C   UNL     1      -2.146  -3.031  -3.380  1.00  0.00     0.118 C 
BRANCH  40  41
ATOM     41  N   UNL     1      -2.770  -2.765  -4.661  1.00  0.00    -0.352 N 
ATOM     42  C   UNL     1      -3.870  -2.024  -5.019  1.00  0.00     0.251 C 
ATOM     43  H   UNL     1      -2.318  -3.199  -5.420  1.00  0.00     0.163 HD
ATOM     44  O   UNL     1      -4.250  -2.126  -6.188  1.00  0.00    -0.269 OA
BRANCH  42  45
ATOM     45  C   UNL     1      -4.633  -1.120  -4.106  1.00  0.00     0.039 A 
ATOM     46  C   UNL     1      -6.019  -1.024  -4.319  1.00  0.00     0.014 A 
ATOM     47  C   UNL     1      -4.046  -0.248  -3.184  1.00  0.00     0.014 A 
ATOM     48  C   UNL     1      -6.800  -0.080  -3.634  1.00  0.00     0.010 A 
ATOM     49  C   UNL     1      -4.840   0.688  -2.479  1.00  0.00     0.010 A 
ATOM     50  C   UNL     1      -6.225   0.794  -2.700  1.00  0.00    -0.014 A 
BRANCH  50  51
ATOM     51  C   UNL     1      -7.091   1.780  -1.973  1.00  0.00     0.031 A 
ATOM     52  C   UNL     1      -7.003   3.268  -2.234  1.00  0.00     0.074 A 
ATOM     53  C   UNL     1      -8.002   1.339  -1.078  1.00  0.00     0.049 A 
ATOM     54  N   UNL     1      -7.753   4.234  -1.759  1.00  0.00    -0.248 NA
ATOM     55  C   UNL     1      -5.934   3.732  -3.130  1.00  0.00     0.031 C 
ATOM     56  C   UNL     1      -8.187  -0.059  -0.684  1.00  0.00     0.029 A 
ATOM     57  N   UNL     1      -8.946   2.017  -0.340  1.00  0.00    -0.354 N 
ATOM     58  C   UNL     1      -7.246   5.418  -2.288  1.00  0.00     0.074 A 
ATOM     59  C   UNL     1      -6.104   5.049  -3.099  1.00  0.00     0.031 C 
ATOM     60  C   UNL     1      -9.191  -0.137   0.204  1.00  0.00     0.029 A 
ATOM     61  C   UNL     1      -9.712   1.204   0.464  1.00  0.00     0.049 A 
ATOM     62  H   UNL     1      -9.063   2.994  -0.384  1.00  0.00     0.167 HD
ATOM     63  C   UNL     1      -7.690   6.691  -2.125  1.00  0.00     0.031 A 
ATOM     64  C   UNL     1     -10.720   1.488   1.315  1.00  0.00     0.031 A 
ATOM     65  C   UNL     1      -8.835   7.073  -1.335  1.00  0.00     0.049 A 
ATOM     66  C   UNL     1     -11.203   2.906   1.464  1.00  0.00     0.074 A 
ATOM     67  C   UNL     1      -9.400   8.332  -1.194  1.00  0.00     0.029 A 
ATOM     68  N   UNL     1      -9.581   6.217  -0.542  1.00  0.00    -0.354 N 
ATOM     69  N   UNL     1     -10.774   3.990   0.865  1.00  0.00    -0.248 NA
ATOM     70  C   UNL     1     -12.322   3.135   2.392  1.00  0.00     0.031 C 
ATOM     71  C   UNL     1     -10.449   8.247  -0.273  1.00  0.00     0.029 A 
ATOM     72  C   UNL     1     -10.574   6.925   0.118  1.00  0.00     0.049 A 
ATOM     73  H   UNL     1      -9.428   5.248  -0.459  1.00  0.00     0.167 HD
ATOM     74  C   UNL     1     -11.580   5.024   1.331  1.00  0.00     0.074 A 
ATOM     75  C   UNL     1     -12.539   4.434   2.240  1.00  0.00     0.031 C 
ATOM     76  C   UNL     1     -11.524   6.345   1.033  1.00  0.00     0.031 A 
BRANCH  63  77
ATOM     77  C   UNL     1      -6.934   7.801  -2.814  1.00  0.00    -0.014 A 
ATOM     78  C   UNL     1      -7.038   8.001  -4.202  1.00  0.00     0.010 A 
ATOM     79  C   UNL     1      -6.198   8.724  -2.045  1.00  0.00     0.010 A 
ATOM     80  C   UNL     1      -6.402   9.088  -4.811  1.00  0.00     0.020 A 
ATOM     81  C   UNL     1      -5.580   9.824  -2.647  1.00  0.00     0.020 A 
ATOM     82  C   UNL     1      -5.677   9.993  -4.029  1.00  0.00     0.054 A 
BRANCH  82  83
ATOM     83  S   UNL     1      -4.905  11.422  -4.840  1.00  0.00     0.124 S 
ATOM     84  O   UNL     1      -3.783  10.802  -5.539  1.00  0.00    -0.237 OA
ATOM     85  O   UNL     1      -5.977  11.924  -5.695  1.00  0.00    -0.237 OA
ATOM     86  O   UNL     1      -4.538  12.297  -3.727  1.00  0.00    -0.744 OA
ENDBRANCH  82  83
ENDBRANCH  63  77
BRANCH  64  87
ATOM     87  C   UNL     1     -11.348   0.398   2.114  1.00  0.00    -0.014 A 
ATOM     88  C   UNL     1     -12.662  -0.027   1.852  1.00  0.00     0.010 A 
ATOM     89  C   UNL     1     -10.628  -0.209   3.159  1.00  0.00     0.010 A 
ATOM     90  C   UNL     1     -13.255  -1.020   2.638  1.00  0.00     0.020 A 
ATOM     91  C   UNL     1     -11.207  -1.223   3.928  1.00  0.00     0.020 A 
ATOM     92  C   UNL     1     -12.523  -1.611   3.672  1.00  0.00     0.054 A 
BRANCH  92  93
ATOM     93  S   UNL     1     -13.292  -2.929   4.654  1.00  0.00     0.124 S 
ATOM     94  O   UNL     1     -14.169  -2.173   5.542  1.00  0.00    -0.237 OA
ATOM     95  O   UNL     1     -13.961  -3.736   3.637  1.00  0.00    -0.237 OA
ATOM     96  O   UNL     1     -12.153  -3.578   5.301  1.00  0.00    -0.744 OA
ENDBRANCH  92  93
ENDBRANCH  64  87
BRANCH  76  97
ATOM     97  C   UNL     1     -12.541   7.249   1.683  1.00  0.00    -0.014 A 
ATOM     98  C   UNL     1     -12.474   7.551   3.056  1.00  0.00     0.010 A 
ATOM     99  C   UNL     1     -13.565   7.823   0.909  1.00  0.00     0.010 A 
ATOM    100  C   UNL     1     -13.436   8.373   3.650  1.00  0.00     0.020 A 
ATOM    101  C   UNL     1     -14.514   8.668   1.493  1.00  0.00     0.020 A 
ATOM    102  C   UNL     1     -14.455   8.922   2.865  1.00  0.00     0.054 A 
BRANCH 102 103
ATOM    103  S   UNL     1     -15.685   9.999   3.653  1.00  0.00     0.124 S 
ATOM    104  O   UNL     1     -16.530   9.035   4.352  1.00  0.00    -0.237 OA
ATOM    105  O   UNL     1     -14.866  10.853   4.509  1.00  0.00    -0.237 OA
ATOM    106  O   UNL     1     -16.319  10.682   2.527  1.00  0.00    -0.744 OA
ENDBRANCH 102 103
ENDBRANCH  76  97
ENDBRANCH  50  51
ENDBRANCH  42  45
ENDBRANCH  40  41
ENDBRANCH   1  40
TORSDOF 18
