REMARK SMILES C[C@@H]1SC[C@H](C(=O)NCCCNC(=O)c2ccc(-c3c4nc(c(-c5ccc(S(=O)(=O)[O-])cc5)c5ccc([nH]5)c(-c5ccc(S(=O)(=O)[O-])cc5)c5nc(c(-c6ccc(S(=O)(=O)[O-])cc6)c6ccc3[nH]6)C=C5)C=C4)cc2)N1C(=O)C[NH2+]CC(F)(F)F
REMARK SMILES IDX 9 1 8 2 6 3 7 4 5 6 1 7 2 8 3 9 75 10 4 11 76 12 77 13 78 14
REMARK SMILES IDX 79 15 80 18 81 19 82 20 83 21 84 22 10 23 11 24 12 25 13 26
REMARK SMILES IDX 14 28 15 29 16 30 74 31 17 32 73 33 18 34 19 35 20 36 67 37
REMARK SMILES IDX 21 38 72 39 66 40 68 41 22 42 71 43 65 44 64 45 23 47 53 48
REMARK SMILES IDX 34 49 52 50 35 51 38 52 51 53 69 54 36 55 37 56 50 58 70 59
REMARK SMILES IDX 39 60 24 61 25 62 33 63 26 64 32 65 27 66 28 67 29 68 30 69
REMARK SMILES IDX 31 70 54 71 55 72 63 73 56 74 62 75 57 76 58 77 59 78 60 79
REMARK SMILES IDX 61 80 40 81 41 82 49 83 42 84 48 85 43 86 44 87 45 88 46 89
REMARK SMILES IDX 47 90
REMARK H PARENT 8 5 79 16 79 17 12 27 68 46 38 57
REMARK Flexibility Score: inf
ROOT
ATOM      1  C   UNL     1       2.448   3.344   2.767  1.00  0.00     0.117 C 
ENDROOT
BRANCH   1   2
ATOM      2  N   UNL     1       1.222   4.050   3.085  1.00  0.00    -0.354 N 
ATOM      3  C   UNL     1       0.022   4.072   2.443  1.00  0.00     0.243 C 
ATOM      4  O   UNL     1      -0.766   4.970   2.760  1.00  0.00    -0.273 OA
ATOM      5  H   UNL     1       1.265   4.603   3.898  1.00  0.00     0.163 HD
BRANCH   3   6
ATOM      6  C   UNL     1      -0.284   3.159   1.242  1.00  0.00     0.185 C 
ATOM      7  C   UNL     1       1.489   0.244  -0.307  1.00  0.00     0.043 C 
ATOM      8  C   UNL     1       0.298   1.154  -0.032  1.00  0.00     0.141 C 
ATOM      9  S   UNL     1       0.368   2.529  -1.238  1.00  0.00    -0.135 SA
ATOM     10  N   UNL     1       0.193   1.765   1.295  1.00  0.00    -0.313 N 
ATOM     11  C   UNL     1       0.304   3.829   0.008  1.00  0.00     0.107 C 
BRANCH  10  12
ATOM     12  C   UNL     1      -0.134   1.050   2.444  1.00  0.00     0.279 C 
ATOM     13  O   UNL     1      -0.815   1.542   3.348  1.00  0.00    -0.268 OA
BRANCH  12  14
ATOM     14  C   UNL     1       0.409  -0.368   2.622  1.00  0.00     0.362 C 
BRANCH  14  15
ATOM     15  N   UNL     1      -0.519  -1.319   1.992  1.00  0.00    -0.331 N 
ATOM     16  H   UNL     1      -0.636  -1.067   1.010  1.00  0.00     0.346 HD
ATOM     17  H   UNL     1      -1.409  -1.274   2.487  1.00  0.00     0.346 HD
BRANCH  15  18
ATOM     18  C   UNL     1      -0.009  -2.712   2.074  1.00  0.00     0.378 C 
BRANCH  18  19
ATOM     19  C   UNL     1       0.088  -3.397   3.451  1.00  0.00     0.438 C 
ATOM     20  F   UNL     1      -1.085  -3.313   4.117  1.00  0.00    -0.165 F 
ATOM     21  F   UNL     1       0.389  -4.708   3.310  1.00  0.00    -0.165 F 
ATOM     22  F   UNL     1       1.048  -2.837   4.218  1.00  0.00    -0.165 F 
ENDBRANCH  18  19
ENDBRANCH  15  18
ENDBRANCH  14  15
ENDBRANCH  12  14
ENDBRANCH  10  12
ENDBRANCH   3   6
ENDBRANCH   1   2
BRANCH   1  23
ATOM     23  C   UNL     1       3.572   4.316   2.438  1.00  0.00     0.042 C 
BRANCH  23  24
ATOM     24  C   UNL     1       3.978   5.202   3.607  1.00  0.00     0.118 C 
BRANCH  24  25
ATOM     25  N   UNL     1       4.564   4.444   4.704  1.00  0.00    -0.352 N 
ATOM     26  C   UNL     1       5.824   4.530   5.245  1.00  0.00     0.251 C 
ATOM     27  H   UNL     1       3.973   3.773   5.117  1.00  0.00     0.163 HD
ATOM     28  O   UNL     1       6.215   3.666   6.027  1.00  0.00    -0.269 OA
BRANCH  26  29
ATOM     29  C   UNL     1       6.709   5.651   4.867  1.00  0.00     0.039 A 
ATOM     30  C   UNL     1       8.053   5.397   4.581  1.00  0.00     0.014 A 
ATOM     31  C   UNL     1       6.207   6.952   4.787  1.00  0.00     0.014 A 
ATOM     32  C   UNL     1       8.876   6.441   4.151  1.00  0.00     0.010 A 
ATOM     33  C   UNL     1       7.000   7.967   4.268  1.00  0.00     0.010 A 
ATOM     34  C   UNL     1       8.347   7.727   3.958  1.00  0.00    -0.014 A 
BRANCH  34  35
ATOM     35  C   UNL     1       9.179   8.853   3.463  1.00  0.00     0.031 A 
ATOM     36  C   UNL     1       9.379  10.068   4.329  1.00  0.00     0.074 A 
ATOM     37  C   UNL     1       9.679   8.824   2.212  1.00  0.00     0.049 A 
ATOM     38  N   UNL     1       9.978  11.196   4.046  1.00  0.00    -0.248 NA
ATOM     39  C   UNL     1       8.798  10.020   5.681  1.00  0.00     0.031 C 
ATOM     40  C   UNL     1       9.535   7.716   1.265  1.00  0.00     0.029 A 
ATOM     41  N   UNL     1      10.405   9.760   1.518  1.00  0.00    -0.354 N 
ATOM     42  C   UNL     1       9.817  12.000   5.169  1.00  0.00     0.074 A 
ATOM     43  C   UNL     1       9.020  11.251   6.114  1.00  0.00     0.031 C 
ATOM     44  C   UNL     1      10.181   8.023   0.128  1.00  0.00     0.029 A 
ATOM     45  C   UNL     1      10.738   9.367   0.244  1.00  0.00     0.049 A 
ATOM     46  H   UNL     1      10.662  10.631   1.898  1.00  0.00     0.167 HD
ATOM     47  C   UNL     1      10.302  13.243   5.400  1.00  0.00     0.031 A 
ATOM     48  C   UNL     1      11.411  10.017  -0.726  1.00  0.00     0.031 A 
ATOM     49  C   UNL     1      11.103  13.978   4.458  1.00  0.00     0.049 A 
ATOM     50  C   UNL     1      11.923  11.406  -0.458  1.00  0.00     0.074 A 
ATOM     51  C   UNL     1      11.696  15.218   4.616  1.00  0.00     0.029 A 
ATOM     52  N   UNL     1      11.418  13.543   3.179  1.00  0.00    -0.354 N 
ATOM     53  N   UNL     1      11.813  12.129   0.631  1.00  0.00    -0.248 NA
ATOM     54  C   UNL     1      12.659  12.063  -1.547  1.00  0.00     0.031 C 
ATOM     55  C   UNL     1      12.316  15.560   3.410  1.00  0.00     0.029 A 
ATOM     56  C   UNL     1      12.173  14.502   2.526  1.00  0.00     0.049 A 
ATOM     57  H   UNL     1      11.145  12.679   2.793  1.00  0.00     0.167 HD
ATOM     58  C   UNL     1      12.499  13.311   0.373  1.00  0.00     0.074 A 
ATOM     59  C   UNL     1      13.021  13.204  -0.975  1.00  0.00     0.031 C 
ATOM     60  C   UNL     1      12.689  14.381   1.184  1.00  0.00     0.031 A 
BRANCH  47  61
ATOM     61  C   UNL     1       9.950  13.890   6.716  1.00  0.00    -0.014 A 
ATOM     62  C   UNL     1      10.436  13.385   7.937  1.00  0.00     0.010 A 
ATOM     63  C   UNL     1       9.118  15.024   6.731  1.00  0.00     0.010 A 
ATOM     64  C   UNL     1      10.040  13.958   9.148  1.00  0.00     0.020 A 
ATOM     65  C   UNL     1       8.750  15.623   7.939  1.00  0.00     0.020 A 
ATOM     66  C   UNL     1       9.193  15.069   9.142  1.00  0.00     0.054 A 
BRANCH  66  67
ATOM     67  S   UNL     1       8.683  15.784  10.729  1.00  0.00     0.124 S 
ATOM     68  O   UNL     1       7.745  14.778  11.222  1.00  0.00    -0.237 OA
ATOM     69  O   UNL     1       9.945  15.876  11.458  1.00  0.00    -0.237 OA
ATOM     70  O   UNL     1       8.085  17.064  10.357  1.00  0.00    -0.744 OA
ENDBRANCH  66  67
ENDBRANCH  47  61
BRANCH  48  71
ATOM     71  C   UNL     1      11.671   9.339  -2.026  1.00  0.00    -0.014 A 
ATOM     72  C   UNL     1      12.969   8.909  -2.350  1.00  0.00     0.010 A 
ATOM     73  C   UNL     1      10.620   9.081  -2.925  1.00  0.00     0.010 A 
ATOM     74  C   UNL     1      13.214   8.236  -3.551  1.00  0.00     0.020 A 
ATOM     75  C   UNL     1      10.856   8.384  -4.114  1.00  0.00     0.020 A 
ATOM     76  C   UNL     1      12.153   7.970  -4.421  1.00  0.00     0.054 A 
BRANCH  76  77
ATOM     77  S   UNL     1      12.485   7.024  -5.934  1.00  0.00     0.124 S 
ATOM     78  O   UNL     1      13.239   7.984  -6.734  1.00  0.00    -0.237 OA
ATOM     79  O   UNL     1      13.245   5.883  -5.430  1.00  0.00    -0.237 OA
ATOM     80  O   UNL     1      11.150   6.701  -6.436  1.00  0.00    -0.744 OA
ENDBRANCH  76  77
ENDBRANCH  48  71
BRANCH  60  81
ATOM     81  C   UNL     1      13.540  15.511   0.665  1.00  0.00    -0.014 A 
ATOM     82  C   UNL     1      13.076  16.383  -0.335  1.00  0.00     0.010 A 
ATOM     83  C   UNL     1      14.797  15.747   1.252  1.00  0.00     0.010 A 
ATOM     84  C   UNL     1      13.866  17.458  -0.754  1.00  0.00     0.020 A 
ATOM     85  C   UNL     1      15.575  16.837   0.857  1.00  0.00     0.020 A 
ATOM     86  C   UNL     1      15.108  17.681  -0.151  1.00  0.00     0.054 A 
BRANCH  86  87
ATOM     87  S   UNL     1      16.084  19.120  -0.668  1.00  0.00     0.124 S 
ATOM     88  O   UNL     1      16.539  18.718  -1.996  1.00  0.00    -0.237 OA
ATOM     89  O   UNL     1      15.100  20.199  -0.640  1.00  0.00    -0.237 OA
ATOM     90  O   UNL     1      17.130  19.213   0.348  1.00  0.00    -0.744 OA
ENDBRANCH  86  87
ENDBRANCH  60  81
ENDBRANCH  34  35
ENDBRANCH  26  29
ENDBRANCH  24  25
ENDBRANCH  23  24
ENDBRANCH   1  23
TORSDOF 18
