REMARK SMILES Nc1ccc(N2CC3(CCC3)C2)c(C(=O)NCCCNC(=O)c2ccc(-c3c4nc(c(-c5ccc(S(=O)(=O)[O-])cc5)c5ccc([nH]5)c(-c5ccc(S(=O)(=O)[O-])cc5)c5nc(c(-c6ccc(S(=O)(=O)[O-])cc6)c6ccc3[nH]6)C=C5)C=C4)cc2)c1
REMARK SMILES IDX 19 1 18 2 17 3 16 4 14 5 15 6 13 8 2 9 3 10 83 11 4 12 5 13
REMARK SMILES IDX 1 14 6 17 7 18 12 19 8 20 9 21 11 22 10 23 20 24 21 25 22 27
REMARK SMILES IDX 23 28 24 29 82 30 25 31 81 32 26 33 27 34 28 35 75 36 29 37
REMARK SMILES IDX 80 38 74 39 76 40 30 41 79 42 73 43 72 44 31 46 61 47 42 48
REMARK SMILES IDX 60 49 43 50 46 51 59 52 77 53 44 54 45 55 58 57 78 58 47 59
REMARK SMILES IDX 32 60 33 61 41 62 34 63 40 64 35 65 36 66 37 67 38 68 39 69
REMARK SMILES IDX 62 70 63 71 71 72 64 73 70 74 65 75 66 76 67 77 68 78 69 79
REMARK SMILES IDX 48 80 49 81 57 82 50 83 56 84 51 85 52 86 53 87 54 88 55 89
REMARK H PARENT 16 7 1 15 1 16 20 26 76 45 46 56
REMARK Flexibility Score: inf
ROOT
ATOM      1  C   UNL     1       0.413   5.929  -1.066  1.00  0.00     0.118 C 
ENDROOT
BRANCH   1   2
ATOM      2  C   UNL     1       0.975   4.541  -0.756  1.00  0.00     0.042 C 
BRANCH   2   3
ATOM      3  C   UNL     1       0.380   3.932   0.513  1.00  0.00     0.118 C 
BRANCH   3   4
ATOM      4  N   UNL     1      -1.018   3.620   0.305  1.00  0.00    -0.352 N 
ATOM      5  C   UNL     1      -1.743   2.515  -0.060  1.00  0.00     0.253 C 
ATOM      6  O   UNL     1      -2.934   2.776  -0.212  1.00  0.00    -0.269 OA
ATOM      7  H   UNL     1      -1.596   4.400   0.468  1.00  0.00     0.163 HD
BRANCH   5   8
ATOM      8  C   UNL     1      -1.194   1.120  -0.191  1.00  0.00     0.065 A 
ATOM      9  C   UNL     1       0.802  -0.317  -0.185  1.00  0.00     0.032 A 
ATOM     10  C   UNL     1      -0.000  -1.423   0.051  1.00  0.00     0.027 A 
ATOM     11  C   UNL     1       0.187   0.924  -0.371  1.00  0.00     0.041 A 
ATOM     12  C   UNL     1      -1.387  -1.279   0.116  1.00  0.00     0.029 A 
ATOM     13  C   UNL     1      -2.014  -0.024  -0.025  1.00  0.00     0.050 A 
BRANCH   9  14
ATOM     14  N   UNL     1       2.172  -0.449  -0.312  1.00  0.00    -0.399 N 
ATOM     15  H   UNL     1       2.597  -1.327  -0.179  1.00  0.00     0.156 HD
ATOM     16  H   UNL     1       2.724   0.336  -0.534  1.00  0.00     0.156 HD
ENDBRANCH   9  14
BRANCH  13  17
ATOM     17  N   UNL     1      -3.418  -0.040  -0.004  1.00  0.00    -0.370 N 
ATOM     18  C   UNL     1      -4.323  -0.405   1.046  1.00  0.00     0.125 C 
ATOM     19  C   UNL     1      -4.432   0.509  -0.855  1.00  0.00     0.125 C 
ATOM     20  C   UNL     1      -5.314   0.492   0.364  1.00  0.00     0.005 C 
ATOM     21  C   UNL     1      -6.766   0.123   0.218  1.00  0.00     0.011 C 
ATOM     22  C   UNL     1      -5.688   1.794   1.044  1.00  0.00     0.011 C 
ATOM     23  C   UNL     1      -7.068   1.640   0.364  1.00  0.00     0.001 C 
ENDBRANCH  13  17
ENDBRANCH   5   8
ENDBRANCH   3   4
ENDBRANCH   2   3
ENDBRANCH   1   2
BRANCH   1  24
ATOM     24  N   UNL     1       0.799   6.909  -0.058  1.00  0.00    -0.352 N 
ATOM     25  C   UNL     1       1.587   8.027  -0.181  1.00  0.00     0.251 C 
ATOM     26  H   UNL     1       0.443   6.745   0.845  1.00  0.00     0.163 HD
ATOM     27  O   UNL     1       2.020   8.585   0.820  1.00  0.00    -0.269 OA
BRANCH  25  28
ATOM     28  C   UNL     1       1.912   8.546  -1.526  1.00  0.00     0.039 A 
ATOM     29  C   UNL     1       3.223   8.936  -1.810  1.00  0.00     0.014 A 
ATOM     30  C   UNL     1       0.916   8.654  -2.499  1.00  0.00     0.014 A 
ATOM     31  C   UNL     1       3.549   9.369  -3.097  1.00  0.00     0.010 A 
ATOM     32  C   UNL     1       1.258   9.013  -3.798  1.00  0.00     0.010 A 
ATOM     33  C   UNL     1       2.577   9.373  -4.111  1.00  0.00    -0.014 A 
BRANCH  33  34
ATOM     34  C   UNL     1       2.909   9.738  -5.511  1.00  0.00     0.031 A 
ATOM     35  C   UNL     1       2.251  10.930  -6.152  1.00  0.00     0.074 A 
ATOM     36  C   UNL     1       3.724   8.943  -6.231  1.00  0.00     0.049 A 
ATOM     37  N   UNL     1       2.311  11.335  -7.394  1.00  0.00    -0.248 NA
ATOM     38  C   UNL     1       1.391  11.758  -5.289  1.00  0.00     0.031 C 
ATOM     39  C   UNL     1       4.398   7.742  -5.730  1.00  0.00     0.029 A 
ATOM     40  N   UNL     1       4.112   9.013  -7.546  1.00  0.00    -0.354 N 
ATOM     41  C   UNL     1       1.481  12.448  -7.468  1.00  0.00     0.074 A 
ATOM     42  C   UNL     1       0.894  12.627  -6.158  1.00  0.00     0.031 C 
ATOM     43  C   UNL     1       5.127   7.200  -6.718  1.00  0.00     0.029 A 
ATOM     44  C   UNL     1       4.933   7.980  -7.936  1.00  0.00     0.049 A 
ATOM     45  H   UNL     1       3.829   9.735  -8.153  1.00  0.00     0.167 HD
ATOM     46  C   UNL     1       1.241  13.256  -8.527  1.00  0.00     0.031 A 
ATOM     47  C   UNL     1       5.454   7.681  -9.142  1.00  0.00     0.031 A 
ATOM     48  C   UNL     1       1.834  13.074  -9.825  1.00  0.00     0.049 A 
ATOM     49  C   UNL     1       5.151   8.578 -10.312  1.00  0.00     0.074 A 
ATOM     50  C   UNL     1       1.699  13.868 -10.950  1.00  0.00     0.029 A 
ATOM     51  N   UNL     1       2.670  12.024 -10.175  1.00  0.00    -0.354 N 
ATOM     52  N   UNL     1       4.413   9.663 -10.348  1.00  0.00    -0.248 NA
ATOM     53  C   UNL     1       5.755   8.217 -11.602  1.00  0.00     0.031 C 
ATOM     54  C   UNL     1       2.403  13.265 -11.996  1.00  0.00     0.029 A 
ATOM     55  C   UNL     1       3.036  12.134 -11.505  1.00  0.00     0.049 A 
ATOM     56  H   UNL     1       2.961  11.307  -9.566  1.00  0.00     0.167 HD
ATOM     57  C   UNL     1       4.492  10.131 -11.654  1.00  0.00     0.074 A 
ATOM     58  C   UNL     1       5.356   9.219 -12.375  1.00  0.00     0.031 C 
ATOM     59  C   UNL     1       3.905  11.222 -12.206  1.00  0.00     0.031 A 
BRANCH  46  60
ATOM     60  C   UNL     1       0.286  14.405  -8.330  1.00  0.00    -0.014 A 
ATOM     61  C   UNL     1       0.619  15.499  -7.511  1.00  0.00     0.010 A 
ATOM     62  C   UNL     1      -0.946  14.414  -9.011  1.00  0.00     0.010 A 
ATOM     63  C   UNL     1      -0.277  16.557  -7.341  1.00  0.00     0.020 A 
ATOM     64  C   UNL     1      -1.832  15.486  -8.870  1.00  0.00     0.020 A 
ATOM     65  C   UNL     1      -1.498  16.543  -8.021  1.00  0.00     0.054 A 
BRANCH  65  66
ATOM     66  S   UNL     1      -2.630  17.944  -7.801  1.00  0.00     0.124 S 
ATOM     67  O   UNL     1      -3.093  17.743  -6.430  1.00  0.00    -0.237 OA
ATOM     68  O   UNL     1      -1.756  19.096  -8.005  1.00  0.00    -0.237 OA
ATOM     69  O   UNL     1      -3.641  17.740  -8.835  1.00  0.00    -0.744 OA
ENDBRANCH  65  66
ENDBRANCH  46  60
BRANCH  47  70
ATOM     70  C   UNL     1       6.319   6.479  -9.302  1.00  0.00    -0.014 A 
ATOM     71  C   UNL     1       7.695   6.618  -9.555  1.00  0.00     0.010 A 
ATOM     72  C   UNL     1       5.774   5.187  -9.186  1.00  0.00     0.010 A 
ATOM     73  C   UNL     1       8.505   5.489  -9.707  1.00  0.00     0.020 A 
ATOM     74  C   UNL     1       6.586   4.056  -9.307  1.00  0.00     0.020 A 
ATOM     75  C   UNL     1       7.946   4.214  -9.579  1.00  0.00     0.054 A 
BRANCH  75  76
ATOM     76  S   UNL     1       9.028   2.766  -9.730  1.00  0.00     0.124 S 
ATOM     77  O   UNL     1       9.326   2.757 -11.159  1.00  0.00    -0.237 OA
ATOM     78  O   UNL     1      10.143   3.114  -8.852  1.00  0.00    -0.237 OA
ATOM     79  O   UNL     1       8.193   1.664  -9.257  1.00  0.00    -0.744 OA
ENDBRANCH  75  76
ENDBRANCH  47  70
BRANCH  59  80
ATOM     80  C   UNL     1       4.208  11.527 -13.649  1.00  0.00    -0.014 A 
ATOM     81  C   UNL     1       3.672  10.749 -14.690  1.00  0.00     0.010 A 
ATOM     82  C   UNL     1       4.971  12.666 -13.966  1.00  0.00     0.010 A 
ATOM     83  C   UNL     1       3.907  11.099 -16.023  1.00  0.00     0.020 A 
ATOM     84  C   UNL     1       5.183  13.035 -15.296  1.00  0.00     0.020 A 
ATOM     85  C   UNL     1       4.655  12.244 -16.317  1.00  0.00     0.054 A 
BRANCH  85  86
ATOM     86  S   UNL     1       4.880  12.716 -18.054  1.00  0.00     0.124 S 
ATOM     87  O   UNL     1       5.805  11.691 -18.531  1.00  0.00    -0.237 OA
ATOM     88  O   UNL     1       3.522  12.633 -18.585  1.00  0.00    -0.237 OA
ATOM     89  O   UNL     1       5.432  14.067 -17.978  1.00  0.00    -0.744 OA
ENDBRANCH  85  86
ENDBRANCH  59  80
ENDBRANCH  33  34
ENDBRANCH  25  28
ENDBRANCH   1  24
TORSDOF 15
