REMARK SMILES CCCCCO[C@H](C(=O)NCCCNC(=O)c1ccc(-c2c3nc(c(-c4ccc(S(=O)(=O)[O-])cc4)c4ccc([nH]4)c(-c4ccc(S(=O)(=O)[O-])cc4)c4nc(c(-c5ccc(S(=O)(=O)[O-])cc5)c5ccc2[nH]5)C=C4)C=C3)cc1)c1ccccc1
REMARK SMILES IDX 11 1 10 2 8 3 9 4 7 6 6 7 5 8 4 9 3 10 2 11 1 12 77 13 78 14
REMARK SMILES IDX 82 15 79 16 81 17 80 18 12 19 13 20 14 21 15 22 16 24 17 25
REMARK SMILES IDX 18 26 76 27 19 28 75 29 20 30 21 31 22 32 69 33 23 34 74 35
REMARK SMILES IDX 68 36 70 37 24 38 73 39 67 40 66 41 25 43 55 44 36 45 54 46
REMARK SMILES IDX 37 47 40 48 53 49 71 50 38 51 39 52 52 54 72 55 41 56 26 57
REMARK SMILES IDX 27 58 35 59 28 60 34 61 29 62 30 63 31 64 32 65 33 66 56 67
REMARK SMILES IDX 57 68 65 69 58 70 64 71 59 72 60 73 61 74 62 75 63 76 42 77
REMARK SMILES IDX 43 78 51 79 44 80 50 81 45 82 46 83 47 84 48 85 49 86
REMARK H PARENT 10 5 14 23 70 42 40 53
REMARK Flexibility Score: inf
ROOT
ATOM      1  C   UNL     1      -0.774   5.903   2.443  1.00  0.00     0.117 C 
ENDROOT
BRANCH   1   2
ATOM      2  N   UNL     1      -1.209   4.885   1.497  1.00  0.00    -0.353 N 
ATOM      3  C   UNL     1      -0.936   3.547   1.402  1.00  0.00     0.253 C 
ATOM      4  O   UNL     1      -1.097   3.081   0.268  1.00  0.00    -0.272 OA
ATOM      5  H   UNL     1      -1.812   5.222   0.795  1.00  0.00     0.163 HD
BRANCH   3   6
ATOM      6  C   UNL     1      -0.562   2.667   2.651  1.00  0.00     0.237 C 
BRANCH   6   7
ATOM      7  O   UNL     1      -1.128   1.337   2.696  1.00  0.00    -0.364 OA
BRANCH   7   8
ATOM      8  C   UNL     1      -1.124   0.527   1.516  1.00  0.00     0.162 C 
BRANCH   8   9
ATOM      9  C   UNL     1       0.250   0.081   0.997  1.00  0.00     0.028 C 
BRANCH   9  10
ATOM     10  C   UNL     1       0.880  -1.048   1.829  1.00  0.00     0.002 C 
BRANCH  10  11
ATOM     11  C   UNL     1       0.365  -2.452   1.503  1.00  0.00    -0.003 C 
ATOM     12  C   UNL     1       0.907  -2.999   0.192  1.00  0.00     0.004 C 
ENDBRANCH  10  11
ENDBRANCH   9  10
ENDBRANCH   8   9
ENDBRANCH   7   8
ENDBRANCH   6   7
BRANCH   6  13
ATOM     13  C   UNL     1       0.922   2.602   3.033  1.00  0.00    -0.010 A 
ATOM     14  C   UNL     1       1.393   1.578   3.875  1.00  0.00     0.007 A 
ATOM     15  C   UNL     1       1.859   3.544   2.607  1.00  0.00     0.007 A 
ATOM     16  C   UNL     1       2.753   1.440   4.170  1.00  0.00     0.000 A 
ATOM     17  C   UNL     1       3.208   3.462   2.964  1.00  0.00     0.000 A 
ATOM     18  C   UNL     1       3.662   2.388   3.717  1.00  0.00     0.000 A 
ENDBRANCH   6  13
ENDBRANCH   3   6
ENDBRANCH   1   2
BRANCH   1  19
ATOM     19  C   UNL     1       0.333   6.780   1.833  1.00  0.00     0.042 C 
BRANCH  19  20
ATOM     20  C   UNL     1      -0.114   7.636   0.649  1.00  0.00     0.118 C 
BRANCH  20  21
ATOM     21  N   UNL     1      -0.444   8.992   1.040  1.00  0.00    -0.352 N 
ATOM     22  C   UNL     1       0.339  10.111   1.186  1.00  0.00     0.251 C 
ATOM     23  H   UNL     1      -1.398   9.136   1.235  1.00  0.00     0.163 HD
ATOM     24  O   UNL     1      -0.158  11.091   1.742  1.00  0.00    -0.269 OA
BRANCH  22  25
ATOM     25  C   UNL     1       1.754  10.176   0.730  1.00  0.00     0.039 A 
ATOM     26  C   UNL     1       2.649  10.954   1.477  1.00  0.00     0.014 A 
ATOM     27  C   UNL     1       2.202   9.597  -0.459  1.00  0.00     0.014 A 
ATOM     28  C   UNL     1       3.974  11.125   1.053  1.00  0.00     0.010 A 
ATOM     29  C   UNL     1       3.546   9.694  -0.837  1.00  0.00     0.010 A 
ATOM     30  C   UNL     1       4.444  10.481  -0.101  1.00  0.00    -0.014 A 
BRANCH  30  31
ATOM     31  C   UNL     1       5.844  10.670  -0.580  1.00  0.00     0.031 A 
ATOM     32  C   UNL     1       6.113  11.308  -1.923  1.00  0.00     0.074 A 
ATOM     33  C   UNL     1       6.882  10.247   0.170  1.00  0.00     0.049 A 
ATOM     34  N   UNL     1       7.255  11.497  -2.536  1.00  0.00    -0.248 NA
ATOM     35  C   UNL     1       4.943  11.772  -2.686  1.00  0.00     0.031 C 
ATOM     36  C   UNL     1       6.775   9.595   1.477  1.00  0.00     0.029 A 
ATOM     37  N   UNL     1       8.236  10.303  -0.060  1.00  0.00    -0.354 N 
ATOM     38  C   UNL     1       6.939  12.075  -3.761  1.00  0.00     0.074 A 
ATOM     39  C   UNL     1       5.497  12.164  -3.824  1.00  0.00     0.031 C 
ATOM     40  C   UNL     1       8.008   9.344   1.947  1.00  0.00     0.029 A 
ATOM     41  C   UNL     1       8.993   9.777   0.961  1.00  0.00     0.049 A 
ATOM     42  H   UNL     1       8.627  10.684  -0.879  1.00  0.00     0.167 HD
ATOM     43  C   UNL     1       7.769  12.514  -4.740  1.00  0.00     0.031 A 
ATOM     44  C   UNL     1      10.329   9.654   1.093  1.00  0.00     0.031 A 
ATOM     45  C   UNL     1       9.205  12.458  -4.672  1.00  0.00     0.049 A 
ATOM     46  C   UNL     1      11.232  10.153  -0.002  1.00  0.00     0.074 A 
ATOM     47  C   UNL     1      10.129  12.916  -5.596  1.00  0.00     0.029 A 
ATOM     48  N   UNL     1       9.926  11.924  -3.616  1.00  0.00    -0.354 N 
ATOM     49  N   UNL     1      10.910  10.717  -1.141  1.00  0.00    -0.248 NA
ATOM     50  C   UNL     1      12.679  10.007   0.213  1.00  0.00     0.031 C 
ATOM     51  C   UNL     1      11.410  12.628  -5.113  1.00  0.00     0.029 A 
ATOM     52  C   UNL     1      11.284  12.033  -3.869  1.00  0.00     0.049 A 
ATOM     53  H   UNL     1       9.532  11.527  -2.806  1.00  0.00     0.167 HD
ATOM     54  C   UNL     1      12.115  11.013  -1.769  1.00  0.00     0.074 A 
ATOM     55  C   UNL     1      13.171  10.578  -0.879  1.00  0.00     0.031 C 
ATOM     56  C   UNL     1      12.325  11.596  -2.975  1.00  0.00     0.031 A 
BRANCH  43  57
ATOM     57  C   UNL     1       7.135  13.100  -5.975  1.00  0.00    -0.014 A 
ATOM     58  C   UNL     1       6.501  14.355  -5.938  1.00  0.00     0.010 A 
ATOM     59  C   UNL     1       7.199  12.402  -7.195  1.00  0.00     0.010 A 
ATOM     60  C   UNL     1       5.901  14.880  -7.085  1.00  0.00     0.020 A 
ATOM     61  C   UNL     1       6.623  12.937  -8.352  1.00  0.00     0.020 A 
ATOM     62  C   UNL     1       5.960  14.164  -8.284  1.00  0.00     0.054 A 
BRANCH  62  63
ATOM     63  S   UNL     1       5.183  14.870  -9.764  1.00  0.00     0.124 S 
ATOM     64  O   UNL     1       3.763  14.634  -9.497  1.00  0.00    -0.237 OA
ATOM     65  O   UNL     1       5.602  16.271  -9.710  1.00  0.00    -0.237 OA
ATOM     66  O   UNL     1       5.748  14.096 -10.858  1.00  0.00    -0.744 OA
ENDBRANCH  62  63
ENDBRANCH  43  57
BRANCH  44  67
ATOM     67  C   UNL     1      10.896   9.052   2.329  1.00  0.00    -0.014 A 
ATOM     68  C   UNL     1      11.530   9.863   3.287  1.00  0.00     0.010 A 
ATOM     69  C   UNL     1      10.782   7.670   2.568  1.00  0.00     0.010 A 
ATOM     70  C   UNL     1      12.047   9.303   4.459  1.00  0.00     0.020 A 
ATOM     71  C   UNL     1      11.277   7.110   3.749  1.00  0.00     0.020 A 
ATOM     72  C   UNL     1      11.914   7.930   4.684  1.00  0.00     0.054 A 
BRANCH  72  73
ATOM     73  S   UNL     1      12.528   7.234   6.244  1.00  0.00     0.124 S 
ATOM     74  O   UNL     1      13.969   7.200   6.015  1.00  0.00    -0.237 OA
ATOM     75  O   UNL     1      12.065   8.208   7.230  1.00  0.00    -0.237 OA
ATOM     76  O   UNL     1      11.873   5.930   6.316  1.00  0.00    -0.744 OA
ENDBRANCH  72  73
ENDBRANCH  44  67
BRANCH  56  77
ATOM     77  C   UNL     1      13.752  11.826  -3.394  1.00  0.00    -0.014 A 
ATOM     78  C   UNL     1      14.561  10.763  -3.831  1.00  0.00     0.010 A 
ATOM     79  C   UNL     1      14.269  13.134  -3.405  1.00  0.00     0.010 A 
ATOM     80  C   UNL     1      15.874  11.001  -4.247  1.00  0.00     0.020 A 
ATOM     81  C   UNL     1      15.574  13.378  -3.841  1.00  0.00     0.020 A 
ATOM     82  C   UNL     1      16.373  12.307  -4.247  1.00  0.00     0.054 A 
BRANCH  82  83
ATOM     83  S   UNL     1      18.064  12.598  -4.835  1.00  0.00     0.124 S 
ATOM     84  O   UNL     1      18.863  12.140  -3.701  1.00  0.00    -0.237 OA
ATOM     85  O   UNL     1      18.138  11.764  -6.032  1.00  0.00    -0.237 OA
ATOM     86  O   UNL     1      18.101  14.037  -5.083  1.00  0.00    -0.744 OA
ENDBRANCH  82  83
ENDBRANCH  56  77
ENDBRANCH  30  31
ENDBRANCH  22  25
ENDBRANCH  20  21
ENDBRANCH  19  20
ENDBRANCH   1  19
TORSDOF 19
