REMARK SMILES O=C(NCCCNC(=O)c1ccc(-n2cc(CSc3nc4ccccc4c(=O)n3-c3ccc(Cl)cc3)nn2)cc1)c1ccc(-c2c3nc(c(-c4ccc(S(=O)(=O)[O-])cc4)c4ccc([nH]4)c(-c4ccc(S(=O)(=O)[O-])cc4)c4nc(c(-c5ccc(S(=O)(=O)[O-])cc5)c5ccc2[nH]5)C=C4)C=C3)cc1
REMARK SMILES IDX 6 1 5 2 4 3 3 4 1 5 2 6 41 8 42 9 100 10 43 11 99 12 44 13
REMARK SMILES IDX 45 14 46 15 93 16 47 17 98 18 92 19 94 20 48 21 97 22 91 23
REMARK SMILES IDX 90 24 49 26 79 27 60 28 78 29 61 30 64 31 77 32 95 33 62 34
REMARK SMILES IDX 63 35 76 37 96 38 65 39 50 40 51 41 59 42 52 43 58 44 53 45
REMARK SMILES IDX 54 46 55 47 56 48 57 49 80 50 81 51 89 52 82 53 88 54 83 55
REMARK SMILES IDX 84 56 85 57 86 58 87 59 66 60 67 61 75 62 68 63 74 64 69 65
REMARK SMILES IDX 70 66 71 67 72 68 73 69 7 70 8 71 9 73 10 74 11 75 40 76
REMARK SMILES IDX 12 77 39 78 13 79 14 80 15 81 38 82 16 83 37 84 17 85 18 86
REMARK SMILES IDX 19 87 20 88 29 89 21 90 27 91 22 92 26 93 28 94 23 95 25 96
REMARK SMILES IDX 24 97 30 98 31 99 36 100 32 101 35 102 33 103 34 104
REMARK H PARENT 3 7 94 25 64 36 7 72
REMARK Flexibility Score: inf
ROOT
ATOM      1  C   UNL     1       4.330   2.211   2.780  1.00  0.00     0.118 C 
ENDROOT
BRANCH   1   2
ATOM      2  C   UNL     1       4.909   1.803   1.425  1.00  0.00     0.042 C 
BRANCH   2   3
ATOM      3  C   UNL     1       4.553   0.393   0.959  1.00  0.00     0.118 C 
BRANCH   3   4
ATOM      4  N   UNL     1       3.135   0.097   0.911  1.00  0.00    -0.352 N 
ATOM      5  O   UNL     1       1.070  -0.318   0.286  1.00  0.00    -0.269 OA
ATOM      6  C   UNL     1       2.125   0.258   0.002  1.00  0.00     0.251 C 
ATOM      7  H   UNL     1       2.818  -0.327   1.741  1.00  0.00     0.163 HD
BRANCH   6   8
ATOM      8  C   UNL     1       2.170   1.088  -1.237  1.00  0.00     0.039 A 
ATOM      9  C   UNL     1       3.306   1.653  -1.816  1.00  0.00     0.014 A 
ATOM     10  C   UNL     1       0.924   1.315  -1.861  1.00  0.00     0.014 A 
ATOM     11  C   UNL     1       3.189   2.455  -2.961  1.00  0.00     0.010 A 
ATOM     12  C   UNL     1       0.804   2.114  -2.998  1.00  0.00     0.010 A 
ATOM     13  C   UNL     1       1.938   2.702  -3.545  1.00  0.00    -0.014 A 
BRANCH  13  14
ATOM     14  C   UNL     1       1.879   3.406  -4.832  1.00  0.00     0.031 A 
ATOM     15  C   UNL     1       2.499   2.664  -5.967  1.00  0.00     0.074 A 
ATOM     16  C   UNL     1       1.193   4.540  -5.095  1.00  0.00     0.049 A 
ATOM     17  N   UNL     1       3.572   2.966  -6.622  1.00  0.00    -0.248 NA
ATOM     18  C   UNL     1       1.907   1.374  -6.352  1.00  0.00     0.031 C 
ATOM     19  C   UNL     1       0.256   5.251  -4.225  1.00  0.00     0.029 A 
ATOM     20  N   UNL     1       1.127   5.253  -6.263  1.00  0.00    -0.354 N 
ATOM     21  C   UNL     1       3.685   2.019  -7.637  1.00  0.00     0.074 A 
ATOM     22  C   UNL     1       2.729   0.985  -7.328  1.00  0.00     0.031 C 
ATOM     23  C   UNL     1      -0.434   6.160  -4.955  1.00  0.00     0.029 A 
ATOM     24  C   UNL     1       0.102   6.195  -6.307  1.00  0.00     0.049 A 
ATOM     25  H   UNL     1       1.752   5.111  -7.010  1.00  0.00     0.167 HD
ATOM     26  C   UNL     1       4.403   2.258  -8.772  1.00  0.00     0.031 A 
ATOM     27  C   UNL     1      -0.301   6.923  -7.382  1.00  0.00     0.031 A 
ATOM     28  C   UNL     1       5.262   3.405  -8.631  1.00  0.00     0.049 A 
ATOM     29  C   UNL     1       0.813   6.940  -8.357  1.00  0.00     0.074 A 
ATOM     30  C   UNL     1       6.286   3.765  -7.778  1.00  0.00     0.029 A 
ATOM     31  N   UNL     1       4.865   4.562  -9.256  1.00  0.00    -0.354 N 
ATOM     32  N   UNL     1       1.937   7.567  -8.162  1.00  0.00    -0.248 NA
ATOM     33  C   UNL     1       0.831   5.936  -9.408  1.00  0.00     0.031 C 
ATOM     34  C   UNL     1       6.123   5.167  -7.580  1.00  0.00     0.029 A 
ATOM     35  C   UNL     1       5.053   5.589  -8.371  1.00  0.00     0.049 A 
ATOM     36  H   UNL     1       4.511   4.639 -10.171  1.00  0.00     0.167 HD
ATOM     37  C   UNL     1       2.898   6.757  -8.745  1.00  0.00     0.074 A 
ATOM     38  C   UNL     1       2.149   5.828  -9.587  1.00  0.00     0.031 C 
ATOM     39  C   UNL     1       4.181   6.740  -8.278  1.00  0.00     0.031 A 
BRANCH  26  40
ATOM     40  C   UNL     1       4.039   1.712 -10.137  1.00  0.00    -0.014 A 
ATOM     41  C   UNL     1       4.857   2.047 -11.239  1.00  0.00     0.010 A 
ATOM     42  C   UNL     1       2.783   1.144 -10.429  1.00  0.00     0.010 A 
ATOM     43  C   UNL     1       4.399   1.917 -12.556  1.00  0.00     0.020 A 
ATOM     44  C   UNL     1       2.336   0.964 -11.740  1.00  0.00     0.020 A 
ATOM     45  C   UNL     1       3.130   1.393 -12.795  1.00  0.00     0.054 A 
BRANCH  45  46
ATOM     46  S   UNL     1       2.497   1.343 -14.490  1.00  0.00     0.124 S 
ATOM     47  O   UNL     1       2.343   2.763 -14.792  1.00  0.00    -0.237 OA
ATOM     48  O   UNL     1       3.570   0.655 -15.201  1.00  0.00    -0.237 OA
ATOM     49  O   UNL     1       1.252   0.588 -14.367  1.00  0.00    -0.744 OA
ENDBRANCH  45  46
ENDBRANCH  26  40
BRANCH  27  50
ATOM     50  C   UNL     1      -1.659   7.405  -7.748  1.00  0.00    -0.014 A 
ATOM     51  C   UNL     1      -1.843   8.342  -8.787  1.00  0.00     0.010 A 
ATOM     52  C   UNL     1      -2.797   6.715  -7.286  1.00  0.00     0.010 A 
ATOM     53  C   UNL     1      -3.100   8.523  -9.391  1.00  0.00     0.020 A 
ATOM     54  C   UNL     1      -4.055   6.897  -7.877  1.00  0.00     0.020 A 
ATOM     55  C   UNL     1      -4.195   7.779  -8.946  1.00  0.00     0.054 A 
BRANCH  55  56
ATOM     56  S   UNL     1      -5.768   7.864  -9.857  1.00  0.00     0.124 S 
ATOM     57  O   UNL     1      -6.258   9.194  -9.509  1.00  0.00    -0.237 OA
ATOM     58  O   UNL     1      -5.344   7.689 -11.244  1.00  0.00    -0.237 OA
ATOM     59  O   UNL     1      -6.544   6.754  -9.307  1.00  0.00    -0.744 OA
ENDBRANCH  55  56
ENDBRANCH  27  50
BRANCH  39  60
ATOM     60  C   UNL     1       4.657   7.875  -7.405  1.00  0.00    -0.014 A 
ATOM     61  C   UNL     1       4.052   8.254  -6.192  1.00  0.00     0.010 A 
ATOM     62  C   UNL     1       5.860   8.504  -7.779  1.00  0.00     0.010 A 
ATOM     63  C   UNL     1       4.620   9.258  -5.393  1.00  0.00     0.020 A 
ATOM     64  C   UNL     1       6.442   9.487  -6.978  1.00  0.00     0.020 A 
ATOM     65  C   UNL     1       5.813   9.868  -5.794  1.00  0.00     0.054 A 
BRANCH  65  66
ATOM     66  S   UNL     1       6.565  11.138  -4.739  1.00  0.00     0.124 S 
ATOM     67  O   UNL     1       5.626  12.249  -4.861  1.00  0.00    -0.237 OA
ATOM     68  O   UNL     1       6.606  10.489  -3.430  1.00  0.00    -0.237 OA
ATOM     69  O   UNL     1       7.875  11.366  -5.348  1.00  0.00    -0.744 OA
ENDBRANCH  65  66
ENDBRANCH  39  60
ENDBRANCH  13  14
ENDBRANCH   6   8
ENDBRANCH   3   4
ENDBRANCH   2   3
ENDBRANCH   1   2
BRANCH   1  70
ATOM     70  N   UNL     1       4.861   1.450   3.902  1.00  0.00    -0.352 N 
ATOM     71  C   UNL     1       5.731   1.816   4.905  1.00  0.00     0.251 C 
ATOM     72  H   UNL     1       4.546   0.519   3.952  1.00  0.00     0.163 HD
ATOM     73  O   UNL     1       6.092   0.996   5.731  1.00  0.00    -0.269 OA
BRANCH  71  74
ATOM     74  C   UNL     1       6.261   3.197   4.975  1.00  0.00     0.039 A 
ATOM     75  C   UNL     1       7.649   3.372   5.021  1.00  0.00     0.016 A 
ATOM     76  C   UNL     1       5.412   4.303   5.063  1.00  0.00     0.016 A 
ATOM     77  C   UNL     1       8.195   4.657   5.076  1.00  0.00     0.029 A 
ATOM     78  C   UNL     1       5.953   5.589   5.141  1.00  0.00     0.029 A 
ATOM     79  C   UNL     1       7.348   5.769   5.148  1.00  0.00     0.066 A 
BRANCH  79  80
ATOM     80  N   UNL     1       7.904   7.064   5.285  1.00  0.00    -0.220 N 
ATOM     81  C   UNL     1       7.282   8.183   5.770  1.00  0.00     0.141 A 
ATOM     82  N   UNL     1       9.188   7.369   4.980  1.00  0.00    -0.062 NA
ATOM     83  C   UNL     1       8.236   9.175   5.770  1.00  0.00     0.093 A 
ATOM     84  N   UNL     1       9.385   8.661   5.233  1.00  0.00    -0.134 NA
BRANCH  83  85
ATOM     85  C   UNL     1       8.068  10.615   6.065  1.00  0.00     0.138 C 
BRANCH  85  86
ATOM     86  S   UNL     1       8.463  11.325   7.669  1.00  0.00    -0.081 SA
BRANCH  86  87
ATOM     87  C   UNL     1       8.754  10.096   8.872  1.00  0.00     0.176 A 
ATOM     88  N   UNL     1       9.802  10.375   9.592  1.00  0.00    -0.223 NA
ATOM     89  N   UNL     1       7.972   8.969   9.110  1.00  0.00    -0.255 N 
ATOM     90  C   UNL     1      10.230   9.457  10.551  1.00  0.00     0.079 A 
ATOM     91  C   UNL     1       8.692   7.856   9.578  1.00  0.00     0.266 A 
ATOM     92  C   UNL     1      11.161   9.821  11.525  1.00  0.00     0.029 A 
ATOM     93  C   UNL     1       9.818   8.137  10.482  1.00  0.00     0.066 A 
ATOM     94  O   UNL     1       8.480   6.677   9.296  1.00  0.00    -0.268 OA
ATOM     95  C   UNL     1      11.719   8.853  12.368  1.00  0.00     0.002 A 
ATOM     96  C   UNL     1      10.402   7.148  11.281  1.00  0.00     0.016 A 
ATOM     97  C   UNL     1      11.367   7.510  12.221  1.00  0.00     0.001 A 
BRANCH  89  98
ATOM     98  C   UNL     1       6.541   8.816   8.875  1.00  0.00     0.051 A 
ATOM     99  C   UNL     1       5.875   7.636   9.272  1.00  0.00     0.028 A 
ATOM    100  C   UNL     1       5.720   9.787   8.283  1.00  0.00     0.028 A 
ATOM    101  C   UNL     1       4.563   7.340   8.879  1.00  0.00     0.022 A 
ATOM    102  C   UNL     1       4.422   9.485   7.835  1.00  0.00     0.022 A 
ATOM    103  C   UNL     1       3.866   8.242   8.096  1.00  0.00     0.041 A 
ATOM    104  Cl  UNL     1       2.335   7.820   7.448  1.00  0.00    -0.084 Cl
ENDBRANCH  89  98
ENDBRANCH  86  87
ENDBRANCH  85  86
ENDBRANCH  83  85
ENDBRANCH  79  80
ENDBRANCH  71  74
ENDBRANCH   1  70
TORSDOF 18
