REMARK SMILES CCC[C@@H]([NH2+]Cc1cc(Cl)cs1)C(=O)NCCCNC(=O)c1ccc(-c2c3nc(c(-c4ccc(S(=O)(=O)[O-])cc4)c4ccc([nH]4)c(-c4ccc(S(=O)(=O)[O-])cc4)c4nc(c(-c5ccc(S(=O)(=O)[O-])cc5)c5ccc2[nH]5)C=C4)C=C3)cc1
REMARK SMILES IDX 17 1 16 2 15 3 13 4 14 5 4 7 3 8 2 9 1 10 5 11 6 14 7 15
REMARK SMILES IDX 8 16 12 17 9 18 11 19 10 20 18 21 19 22 20 23 21 25 22 26
REMARK SMILES IDX 23 27 81 28 24 29 80 30 25 31 26 32 27 33 74 34 28 35 79 36
REMARK SMILES IDX 73 37 75 38 29 39 78 40 72 41 71 42 30 44 60 45 41 46 59 47
REMARK SMILES IDX 42 48 45 49 58 50 76 51 43 52 44 53 57 55 77 56 46 57 31 58
REMARK SMILES IDX 32 59 40 60 33 61 39 62 34 63 35 64 36 65 37 66 38 67 61 68
REMARK SMILES IDX 62 69 70 70 63 71 69 72 64 73 65 74 66 75 67 76 68 77 47 78
REMARK SMILES IDX 48 79 56 80 49 81 55 82 50 83 51 84 52 85 53 86 54 87
REMARK H PARENT 15 6 5 12 5 13 19 24 75 43 45 54
REMARK Flexibility Score: inf
ROOT
ATOM      1  C   UNL     1       0.297   0.407   6.050  1.00  0.00     0.042 C 
ENDROOT
BRANCH   1   2
ATOM      2  C   UNL     1      -0.383   1.448   5.165  1.00  0.00     0.118 C 
BRANCH   2   3
ATOM      3  N   UNL     1       0.552   2.442   4.667  1.00  0.00    -0.351 N 
ATOM      4  C   UNL     1       0.989   2.683   3.398  1.00  0.00     0.278 C 
ATOM      5  O   UNL     1       1.757   3.637   3.233  1.00  0.00    -0.268 OA
ATOM      6  H   UNL     1       0.931   3.035   5.355  1.00  0.00     0.163 HD
BRANCH   4   7
ATOM      7  C   UNL     1       0.538   1.822   2.195  1.00  0.00     0.272 C 
BRANCH   7   8
ATOM      8  C   UNL     1       1.105   0.391   2.321  1.00  0.00     0.075 C 
BRANCH   8   9
ATOM      9  C   UNL     1       0.744  -0.586   1.196  1.00  0.00     0.003 C 
ATOM     10  C   UNL     1       1.325  -0.206  -0.154  1.00  0.00     0.004 C 
ENDBRANCH   8   9
ENDBRANCH   7   8
BRANCH   7  11
ATOM     11  N   UNL     1      -0.935   1.835   2.032  1.00  0.00    -0.332 N 
ATOM     12  H   UNL     1      -1.351   1.403   2.857  1.00  0.00     0.347 HD
ATOM     13  H   UNL     1      -1.137   1.326   1.172  1.00  0.00     0.347 HD
BRANCH  11  14
ATOM     14  C   UNL     1      -1.517   3.173   1.873  1.00  0.00     0.309 C 
BRANCH  14  15
ATOM     15  C   UNL     1      -1.172   3.865   0.583  1.00  0.00     0.060 A 
ATOM     16  C   UNL     1      -0.881   5.205   0.403  1.00  0.00     0.041 A 
ATOM     17  S   UNL     1      -1.177   3.030  -0.918  1.00  0.00    -0.141 S 
ATOM     18  C   UNL     1      -0.604   5.526  -0.954  1.00  0.00     0.052 A 
ATOM     19  C   UNL     1      -0.686   4.426  -1.773  1.00  0.00     0.085 A 
ATOM     20  Cl  UNL     1      -0.215   7.106  -1.474  1.00  0.00    -0.083 Cl
ENDBRANCH  14  15
ENDBRANCH  11  14
ENDBRANCH   7  11
ENDBRANCH   4   7
ENDBRANCH   2   3
ENDBRANCH   1   2
BRANCH   1  21
ATOM     21  C   UNL     1       0.888   0.964   7.342  1.00  0.00     0.118 C 
BRANCH  21  22
ATOM     22  N   UNL     1      -0.122   1.526   8.226  1.00  0.00    -0.352 N 
ATOM     23  C   UNL     1      -0.439   1.214   9.522  1.00  0.00     0.251 C 
ATOM     24  H   UNL     1      -0.663   2.246   7.830  1.00  0.00     0.163 HD
ATOM     25  O   UNL     1      -1.460   1.698  10.018  1.00  0.00    -0.269 OA
BRANCH  23  26
ATOM     26  C   UNL     1       0.404   0.299  10.323  1.00  0.00     0.039 A 
ATOM     27  C   UNL     1      -0.224  -0.614  11.175  1.00  0.00     0.014 A 
ATOM     28  C   UNL     1       1.800   0.355  10.275  1.00  0.00     0.014 A 
ATOM     29  C   UNL     1       0.542  -1.503  11.931  1.00  0.00     0.010 A 
ATOM     30  C   UNL     1       2.562  -0.583  10.972  1.00  0.00     0.010 A 
ATOM     31  C   UNL     1       1.942  -1.519  11.812  1.00  0.00    -0.014 A 
BRANCH  31  32
ATOM     32  C   UNL     1       2.752  -2.530  12.539  1.00  0.00     0.031 A 
ATOM     33  C   UNL     1       3.739  -2.118  13.597  1.00  0.00     0.074 A 
ATOM     34  C   UNL     1       2.635  -3.830  12.202  1.00  0.00     0.049 A 
ATOM     35  N   UNL     1       4.508  -2.871  14.343  1.00  0.00    -0.248 NA
ATOM     36  C   UNL     1       3.906  -0.676  13.828  1.00  0.00     0.031 C 
ATOM     37  C   UNL     1       1.772  -4.352  11.139  1.00  0.00     0.029 A 
ATOM     38  N   UNL     1       3.246  -4.947  12.713  1.00  0.00    -0.354 N 
ATOM     39  C   UNL     1       5.263  -1.997  15.116  1.00  0.00     0.074 A 
ATOM     40  C   UNL     1       4.891  -0.656  14.715  1.00  0.00     0.031 C 
ATOM     41  C   UNL     1       1.891  -5.688  11.095  1.00  0.00     0.029 A 
ATOM     42  C   UNL     1       2.855  -6.115  12.104  1.00  0.00     0.049 A 
ATOM     43  H   UNL     1       3.902  -4.914  13.446  1.00  0.00     0.167 HD
ATOM     44  C   UNL     1       6.171  -2.281  16.081  1.00  0.00     0.031 A 
ATOM     45  C   UNL     1       3.225  -7.390  12.329  1.00  0.00     0.031 A 
ATOM     46  C   UNL     1       6.536  -3.616  16.480  1.00  0.00     0.049 A 
ATOM     47  C   UNL     1       4.196  -7.688  13.435  1.00  0.00     0.074 A 
ATOM     48  C   UNL     1       7.379  -4.009  17.506  1.00  0.00     0.029 A 
ATOM     49  N   UNL     1       6.092  -4.776  15.863  1.00  0.00    -0.354 N 
ATOM     50  N   UNL     1       4.818  -6.851  14.230  1.00  0.00    -0.248 NA
ATOM     51  C   UNL     1       4.497  -9.102  13.687  1.00  0.00     0.031 C 
ATOM     52  C   UNL     1       7.486  -5.405  17.474  1.00  0.00     0.029 A 
ATOM     53  C   UNL     1       6.667  -5.885  16.464  1.00  0.00     0.049 A 
ATOM     54  H   UNL     1       5.461  -4.807  15.108  1.00  0.00     0.167 HD
ATOM     55  C   UNL     1       5.581  -7.638  15.085  1.00  0.00     0.074 A 
ATOM     56  C   UNL     1       5.318  -9.018  14.725  1.00  0.00     0.031 C 
ATOM     57  C   UNL     1       6.424  -7.252  16.075  1.00  0.00     0.031 A 
BRANCH  44  58
ATOM     58  C   UNL     1       6.848  -1.115  16.757  1.00  0.00    -0.014 A 
ATOM     59  C   UNL     1       6.137  -0.250  17.609  1.00  0.00     0.010 A 
ATOM     60  C   UNL     1       8.219  -0.883  16.540  1.00  0.00     0.010 A 
ATOM     61  C   UNL     1       6.768   0.859  18.180  1.00  0.00     0.020 A 
ATOM     62  C   UNL     1       8.861   0.208  17.133  1.00  0.00     0.020 A 
ATOM     63  C   UNL     1       8.124   1.087  17.929  1.00  0.00     0.054 A 
BRANCH  63  64
ATOM     64  S   UNL     1       8.916   2.541  18.670  1.00  0.00     0.124 S 
ATOM     65  O   UNL     1       8.395   3.623  17.837  1.00  0.00    -0.237 OA
ATOM     66  O   UNL     1       8.421   2.514  20.044  1.00  0.00    -0.237 OA
ATOM     67  O   UNL     1      10.344   2.272  18.520  1.00  0.00    -0.744 OA
ENDBRANCH  63  64
ENDBRANCH  44  58
BRANCH  45  68
ATOM     68  C   UNL     1       2.642  -8.473  11.494  1.00  0.00    -0.014 A 
ATOM     69  C   UNL     1       1.652  -9.325  12.014  1.00  0.00     0.010 A 
ATOM     70  C   UNL     1       3.028  -8.611  10.148  1.00  0.00     0.010 A 
ATOM     71  C   UNL     1       1.054 -10.291  11.200  1.00  0.00     0.020 A 
ATOM     72  C   UNL     1       2.414  -9.559   9.325  1.00  0.00     0.020 A 
ATOM     73  C   UNL     1       1.432 -10.396   9.858  1.00  0.00     0.054 A 
BRANCH  73  74
ATOM     74  S   UNL     1       0.568 -11.585   8.794  1.00  0.00     0.124 S 
ATOM     75  O   UNL     1       1.151 -12.854   9.219  1.00  0.00    -0.237 OA
ATOM     76  O   UNL     1      -0.831 -11.377   9.158  1.00  0.00    -0.237 OA
ATOM     77  O   UNL     1       0.922 -11.153   7.443  1.00  0.00    -0.744 OA
ENDBRANCH  73  74
ENDBRANCH  45  68
BRANCH  57  78
ATOM     78  C   UNL     1       7.126  -8.346  16.837  1.00  0.00    -0.014 A 
ATOM     79  C   UNL     1       8.145  -9.109  16.237  1.00  0.00     0.010 A 
ATOM     80  C   UNL     1       6.769  -8.608  18.172  1.00  0.00     0.010 A 
ATOM     81  C   UNL     1       8.758 -10.148  16.942  1.00  0.00     0.020 A 
ATOM     82  C   UNL     1       7.400  -9.627  18.890  1.00  0.00     0.020 A 
ATOM     83  C   UNL     1       8.375 -10.406  18.262  1.00  0.00     0.054 A 
BRANCH  83  84
ATOM     84  S   UNL     1       9.185 -11.758  19.160  1.00  0.00     0.124 S 
ATOM     85  O   UNL     1       8.540 -12.934  18.583  1.00  0.00    -0.237 OA
ATOM     86  O   UNL     1      10.593 -11.579  18.812  1.00  0.00    -0.237 OA
ATOM     87  O   UNL     1       8.857 -11.489  20.558  1.00  0.00    -0.744 OA
ENDBRANCH  83  84
ENDBRANCH  57  78
ENDBRANCH  31  32
ENDBRANCH  23  26
ENDBRANCH  21  22
ENDBRANCH   1  21
TORSDOF 18
