REMARK SMILES CC(C)(C[NH2+]Cc1ccc2c(c1)OCO2)C(=O)NCCCNC(=O)c1ccc(-c2c3nc(c(-c4ccc(S(=O)(=O)[O-])cc4)c4ccc([nH]4)c(-c4ccc(S(=O)(=O)[O-])cc4)c4nc(c(-c5ccc(S(=O)(=O)[O-])cc5)c5ccc2[nH]5)C=C4)C=C3)cc1
REMARK SMILES IDX 19 1 18 2 16 3 17 4 2 6 1 7 3 8 4 9 5 10 6 13 7 14 8 15
REMARK SMILES IDX 12 16 9 17 11 18 10 19 13 20 15 21 14 22 20 23 21 24 22 25
REMARK SMILES IDX 23 26 24 28 25 29 26 30 84 31 27 32 83 33 28 34 29 35 30 36
REMARK SMILES IDX 77 37 31 38 82 39 76 40 78 41 32 42 81 43 75 44 74 45 33 47
REMARK SMILES IDX 63 48 44 49 62 50 45 51 48 52 61 53 79 54 46 55 47 56 60 58
REMARK SMILES IDX 80 59 49 60 34 61 35 62 43 63 36 64 42 65 37 66 38 67 39 68
REMARK SMILES IDX 40 69 41 70 64 71 65 72 73 73 66 74 72 75 67 76 68 77 69 78
REMARK SMILES IDX 70 79 71 80 50 81 51 82 59 83 52 84 58 85 53 86 54 87 55 88
REMARK SMILES IDX 56 89 57 90
REMARK H PARENT 18 5 5 11 5 12 22 27 78 46 48 57
REMARK Flexibility Score: inf
ROOT
ATOM      1  C   UNL     1       0.064   4.465  -0.189  1.00  0.00     0.117 C 
ENDROOT
BRANCH   1   2
ATOM      2  N   UNL     1       0.904   3.682   0.698  1.00  0.00    -0.355 N 
ATOM      3  C   UNL     1       1.216   2.359   0.745  1.00  0.00     0.231 C 
ATOM      4  O   UNL     1       2.003   2.026   1.639  1.00  0.00    -0.274 OA
ATOM      5  H   UNL     1       1.334   4.214   1.406  1.00  0.00     0.163 HD
BRANCH   3   6
ATOM      6  C   UNL     1       0.690   1.335  -0.278  1.00  0.00     0.092 C 
ATOM      7  C   UNL     1       1.255  -0.064   0.082  1.00  0.00     0.027 C 
ATOM      8  C   UNL     1       1.246   1.662  -1.679  1.00  0.00     0.027 C 
BRANCH   6   9
ATOM      9  C   UNL     1      -0.857   1.261  -0.306  1.00  0.00     0.277 C 
BRANCH   9  10
ATOM     10  N   UNL     1      -1.472   0.894   0.979  1.00  0.00    -0.342 N 
ATOM     11  H   UNL     1      -1.188   1.578   1.681  1.00  0.00     0.346 HD
ATOM     12  H   UNL     1      -1.153  -0.047   1.209  1.00  0.00     0.346 HD
BRANCH  10  13
ATOM     13  C   UNL     1      -2.941   0.857   0.930  1.00  0.00     0.297 C 
BRANCH  13  14
ATOM     14  C   UNL     1      -3.470  -0.063  -0.146  1.00  0.00     0.010 A 
ATOM     15  C   UNL     1      -4.067   0.487  -1.306  1.00  0.00     0.013 A 
ATOM     16  C   UNL     1      -3.259  -1.449  -0.062  1.00  0.00     0.060 A 
ATOM     17  C   UNL     1      -4.409  -0.323  -2.391  1.00  0.00     0.051 A 
ATOM     18  C   UNL     1      -3.598  -2.220  -1.153  1.00  0.00     0.166 A 
ATOM     19  C   UNL     1      -4.147  -1.671  -2.288  1.00  0.00     0.165 A 
ATOM     20  O   UNL     1      -3.404  -3.561  -1.266  1.00  0.00    -0.454 OA
ATOM     21  O   UNL     1      -4.364  -2.598  -3.259  1.00  0.00    -0.454 OA
ATOM     22  C   UNL     1      -3.889  -3.791  -2.605  1.00  0.00     0.468 C 
ENDBRANCH  13  14
ENDBRANCH  10  13
ENDBRANCH   9  10
ENDBRANCH   6   9
ENDBRANCH   3   6
ENDBRANCH   1   2
BRANCH   1  23
ATOM     23  C   UNL     1      -1.213   4.947   0.486  1.00  0.00     0.042 C 
BRANCH  23  24
ATOM     24  C   UNL     1      -0.977   5.940   1.617  1.00  0.00     0.118 C 
BRANCH  24  25
ATOM     25  N   UNL     1      -0.316   7.158   1.163  1.00  0.00    -0.352 N 
ATOM     26  C   UNL     1      -0.759   8.455   1.138  1.00  0.00     0.251 C 
ATOM     27  H   UNL     1       0.597   7.028   0.818  1.00  0.00     0.163 HD
ATOM     28  O   UNL     1      -0.114   9.299   0.511  1.00  0.00    -0.269 OA
BRANCH  26  29
ATOM     29  C   UNL     1      -1.999   8.846   1.839  1.00  0.00     0.039 A 
ATOM     30  C   UNL     1      -2.856   9.772   1.236  1.00  0.00     0.014 A 
ATOM     31  C   UNL     1      -2.309   8.330   3.099  1.00  0.00     0.014 A 
ATOM     32  C   UNL     1      -4.051  10.126   1.867  1.00  0.00     0.010 A 
ATOM     33  C   UNL     1      -3.541   8.612   3.683  1.00  0.00     0.010 A 
ATOM     34  C   UNL     1      -4.421   9.520   3.078  1.00  0.00    -0.014 A 
BRANCH  34  35
ATOM     35  C   UNL     1      -5.724   9.819   3.726  1.00  0.00     0.031 A 
ATOM     36  C   UNL     1      -5.767  10.443   5.095  1.00  0.00     0.074 A 
ATOM     37  C   UNL     1      -6.869   9.461   3.112  1.00  0.00     0.049 A 
ATOM     38  N   UNL     1      -6.805  10.728   5.839  1.00  0.00    -0.248 NA
ATOM     39  C   UNL     1      -4.474  10.761   5.723  1.00  0.00     0.031 C 
ATOM     40  C   UNL     1      -6.959   8.800   1.808  1.00  0.00     0.029 A 
ATOM     41  N   UNL     1      -8.176   9.592   3.508  1.00  0.00    -0.354 N 
ATOM     42  C   UNL     1      -6.292  11.234   7.028  1.00  0.00     0.074 A 
ATOM     43  C   UNL     1      -4.850  11.169   6.926  1.00  0.00     0.031 C 
ATOM     44  C   UNL     1      -8.251   8.609   1.500  1.00  0.00     0.029 A 
ATOM     45  C   UNL     1      -9.079   9.091   2.601  1.00  0.00     0.049 A 
ATOM     46  H   UNL     1      -8.442  10.005   4.361  1.00  0.00     0.167 HD
ATOM     47  C   UNL     1      -6.958  11.725   8.101  1.00  0.00     0.031 A 
ATOM     48  C   UNL     1     -10.424   9.018   2.649  1.00  0.00     0.031 A 
ATOM     49  C   UNL     1      -8.392  11.792   8.194  1.00  0.00     0.049 A 
ATOM     50  C   UNL     1     -11.145   9.573   3.845  1.00  0.00     0.074 A 
ATOM     51  C   UNL     1      -9.164  12.335   9.206  1.00  0.00     0.029 A 
ATOM     52  N   UNL     1      -9.272  11.291   7.245  1.00  0.00    -0.354 N 
ATOM     53  N   UNL     1     -10.644  10.124   4.925  1.00  0.00    -0.248 NA
ATOM     54  C   UNL     1     -12.612   9.510   3.823  1.00  0.00     0.031 C 
ATOM     55  C   UNL     1     -10.510  12.108   8.898  1.00  0.00     0.029 A 
ATOM     56  C   UNL     1     -10.579  11.484   7.662  1.00  0.00     0.049 A 
ATOM     57  H   UNL     1      -9.007  10.863   6.400  1.00  0.00     0.167 HD
ATOM     58  C   UNL     1     -11.735  10.493   5.703  1.00  0.00     0.074 A 
ATOM     59  C   UNL     1     -12.922  10.118   4.960  1.00  0.00     0.031 C 
ATOM     60  C   UNL     1     -11.752  11.092   6.920  1.00  0.00     0.031 A 
BRANCH  47  61
ATOM     61  C   UNL     1      -6.133  12.207   9.268  1.00  0.00    -0.014 A 
ATOM     62  C   UNL     1      -5.317  13.350   9.166  1.00  0.00     0.010 A 
ATOM     63  C   UNL     1      -6.184  11.514  10.491  1.00  0.00     0.010 A 
ATOM     64  C   UNL     1      -4.522  13.752  10.243  1.00  0.00     0.020 A 
ATOM     65  C   UNL     1      -5.416  11.932  11.582  1.00  0.00     0.020 A 
ATOM     66  C   UNL     1      -4.571  13.035  11.442  1.00  0.00     0.054 A 
BRANCH  66  67
ATOM     67  S   UNL     1      -3.524  13.575  12.822  1.00  0.00     0.124 S 
ATOM     68  O   UNL     1      -2.197  13.167  12.368  1.00  0.00    -0.237 OA
ATOM     69  O   UNL     1      -3.759  15.016  12.857  1.00  0.00    -0.237 OA
ATOM     70  O   UNL     1      -4.047  12.832  13.966  1.00  0.00    -0.744 OA
ENDBRANCH  66  67
ENDBRANCH  47  61
BRANCH  48  71
ATOM     71  C   UNL     1     -11.165   8.411   1.510  1.00  0.00    -0.014 A 
ATOM     72  C   UNL     1     -11.908   9.216   0.629  1.00  0.00     0.010 A 
ATOM     73  C   UNL     1     -11.086   7.026   1.270  1.00  0.00     0.010 A 
ATOM     74  C   UNL     1     -12.557   8.648  -0.471  1.00  0.00     0.020 A 
ATOM     75  C   UNL     1     -11.711   6.460   0.156  1.00  0.00     0.020 A 
ATOM     76  C   UNL     1     -12.447   7.274  -0.706  1.00  0.00     0.054 A 
BRANCH  76  77
ATOM     77  S   UNL     1     -13.224   6.576  -2.190  1.00  0.00     0.124 S 
ATOM     78  O   UNL     1     -14.640   6.626  -1.844  1.00  0.00    -0.237 OA
ATOM     79  O   UNL     1     -12.793   7.501  -3.235  1.00  0.00    -0.237 OA
ATOM     80  O   UNL     1     -12.646   5.236  -2.280  1.00  0.00    -0.744 OA
ENDBRANCH  76  77
ENDBRANCH  48  71
BRANCH  60  81
ATOM     81  C   UNL     1     -13.098  11.403   7.520  1.00  0.00    -0.014 A 
ATOM     82  C   UNL     1     -13.933  10.383   8.010  1.00  0.00     0.010 A 
ATOM     83  C   UNL     1     -13.509  12.743   7.644  1.00  0.00     0.010 A 
ATOM     84  C   UNL     1     -15.170  10.696   8.581  1.00  0.00     0.020 A 
ATOM     85  C   UNL     1     -14.730  13.062   8.242  1.00  0.00     0.020 A 
ATOM     86  C   UNL     1     -15.560  12.034   8.694  1.00  0.00     0.054 A 
BRANCH  86  87
ATOM     87  S   UNL     1     -17.151  12.417   9.476  1.00  0.00     0.124 S 
ATOM     88  O   UNL     1     -18.102  11.999   8.450  1.00  0.00    -0.237 OA
ATOM     89  O   UNL     1     -17.123  11.590  10.681  1.00  0.00    -0.237 OA
ATOM     90  O   UNL     1     -17.084  13.857   9.714  1.00  0.00    -0.744 OA
ENDBRANCH  86  87
ENDBRANCH  60  81
ENDBRANCH  34  35
ENDBRANCH  26  29
ENDBRANCH  24  25
ENDBRANCH  23  24
ENDBRANCH   1  23
TORSDOF 17
