REMARK SMILES CN(Cc1csc(Br)c1)c1cccc(F)c1C(=O)NCCCNC(=O)c1ccc(-c2c3nc(c(-c4ccc(S(=O)(=O)[O-])cc4)c4ccc([nH]4)c(-c4ccc(S(=O)(=O)[O-])cc4)c4nc(c(-c5ccc(S(=O)(=O)[O-])cc5)c5ccc2[nH]5)C=C4)C=C3)cc1
REMARK SMILES IDX 21 1 20 2 19 3 17 4 18 5 16 7 10 8 11 9 12 10 14 11 13 12
REMARK SMILES IDX 15 13 2 14 1 15 3 16 4 17 5 18 9 19 6 20 7 21 8 22 22 23
REMARK SMILES IDX 23 24 24 25 25 27 26 28 27 29 85 30 28 31 84 32 29 33 30 34
REMARK SMILES IDX 31 35 78 36 32 37 83 38 77 39 79 40 33 41 82 42 76 43 75 44
REMARK SMILES IDX 34 46 64 47 45 48 63 49 46 50 49 51 62 52 80 53 47 54 48 55
REMARK SMILES IDX 61 57 81 58 50 59 35 60 36 61 44 62 37 63 43 64 38 65 39 66
REMARK SMILES IDX 40 67 41 68 42 69 65 70 66 71 74 72 67 73 73 74 68 75 69 76
REMARK SMILES IDX 70 77 71 78 72 79 51 80 52 81 60 82 53 83 59 84 54 85 55 86
REMARK SMILES IDX 56 87 57 88 58 89
REMARK H PARENT 19 6 23 26 79 45 49 56
REMARK Flexibility Score: inf
ROOT
ATOM      1  C   UNL     1      -2.364   6.065   3.329  1.00  0.00     0.042 C 
ENDROOT
BRANCH   1   2
ATOM      2  C   UNL     1      -1.913   4.727   3.899  1.00  0.00     0.118 C 
BRANCH   2   3
ATOM      3  N   UNL     1      -2.107   3.568   3.040  1.00  0.00    -0.352 N 
ATOM      4  C   UNL     1      -1.287   2.462   2.889  1.00  0.00     0.256 C 
ATOM      5  O   UNL     1      -1.805   1.351   2.773  1.00  0.00    -0.269 OA
ATOM      6  H   UNL     1      -2.927   3.571   2.496  1.00  0.00     0.163 HD
BRANCH   4   7
ATOM      7  C   UNL     1       0.185   2.588   2.786  1.00  0.00     0.098 A 
ATOM      8  C   UNL     1       0.887   2.114   1.646  1.00  0.00     0.053 A 
ATOM      9  C   UNL     1       2.297   2.210   1.657  1.00  0.00     0.027 A 
ATOM     10  C   UNL     1       2.996   2.726   2.748  1.00  0.00     0.005 A 
ATOM     11  C   UNL     1       0.909   3.021   3.902  1.00  0.00     0.138 A 
ATOM     12  C   UNL     1       2.297   3.125   3.878  1.00  0.00     0.040 A 
ATOM     13  F   UNL     1       0.295   3.295   5.063  1.00  0.00    -0.206 F 
BRANCH   8  14
ATOM     14  N   UNL     1       0.280   1.519   0.540  1.00  0.00    -0.370 N 
ATOM     15  C   UNL     1       0.666   0.157   0.200  1.00  0.00     0.144 C 
BRANCH  14  16
ATOM     16  C   UNL     1      -0.349   2.351  -0.487  1.00  0.00     0.152 C 
BRANCH  16  17
ATOM     17  C   UNL     1      -1.834   2.568  -0.373  1.00  0.00    -0.017 A 
ATOM     18  C   UNL     1      -2.467   3.791  -0.526  1.00  0.00     0.071 A 
ATOM     19  C   UNL     1      -2.795   1.539  -0.074  1.00  0.00     0.033 A 
ATOM     20  S   UNL     1      -4.160   3.696  -0.281  1.00  0.00    -0.136 S 
ATOM     21  C   UNL     1      -4.064   2.041   0.051  1.00  0.00     0.070 A 
ATOM     22  Br  UNL     1      -5.541   1.010   0.563  1.00  0.00    -0.039 Br
ENDBRANCH  16  17
ENDBRANCH  14  16
ENDBRANCH   8  14
ENDBRANCH   4   7
ENDBRANCH   2   3
ENDBRANCH   1   2
BRANCH   1  23
ATOM     23  C   UNL     1      -3.849   6.208   3.020  1.00  0.00     0.118 C 
BRANCH  23  24
ATOM     24  N   UNL     1      -4.716   6.034   4.178  1.00  0.00    -0.352 N 
ATOM     25  C   UNL     1      -5.453   6.929   4.915  1.00  0.00     0.251 C 
ATOM     26  H   UNL     1      -4.785   5.103   4.491  1.00  0.00     0.163 HD
ATOM     27  O   UNL     1      -6.000   6.537   5.949  1.00  0.00    -0.269 OA
BRANCH  25  28
ATOM     28  C   UNL     1      -5.586   8.350   4.520  1.00  0.00     0.039 A 
ATOM     29  C   UNL     1      -5.577   9.332   5.519  1.00  0.00     0.014 A 
ATOM     30  C   UNL     1      -5.767   8.731   3.190  1.00  0.00     0.014 A 
ATOM     31  C   UNL     1      -5.664  10.685   5.176  1.00  0.00     0.010 A 
ATOM     32  C   UNL     1      -5.757  10.081   2.841  1.00  0.00     0.010 A 
ATOM     33  C   UNL     1      -5.706  11.076   3.828  1.00  0.00    -0.014 A 
BRANCH  33  34
ATOM     34  C   UNL     1      -5.693  12.511   3.430  1.00  0.00     0.031 A 
ATOM     35  C   UNL     1      -6.842  13.096   2.650  1.00  0.00     0.074 A 
ATOM     36  C   UNL     1      -4.612  13.270   3.705  1.00  0.00     0.049 A 
ATOM     37  N   UNL     1      -6.970  14.297   2.145  1.00  0.00    -0.248 NA
ATOM     38  C   UNL     1      -7.985  12.209   2.379  1.00  0.00     0.031 C 
ATOM     39  C   UNL     1      -3.416  12.815   4.418  1.00  0.00     0.029 A 
ATOM     40  N   UNL     1      -4.338  14.583   3.409  1.00  0.00    -0.354 N 
ATOM     41  C   UNL     1      -8.192  14.302   1.481  1.00  0.00     0.074 A 
ATOM     42  C   UNL     1      -8.743  12.970   1.603  1.00  0.00     0.031 C 
ATOM     43  C   UNL     1      -2.552  13.837   4.529  1.00  0.00     0.029 A 
ATOM     44  C   UNL     1      -3.107  15.005   3.854  1.00  0.00     0.049 A 
ATOM     45  H   UNL     1      -4.965  15.167   2.924  1.00  0.00     0.167 HD
ATOM     46  C   UNL     1      -8.811  15.326   0.844  1.00  0.00     0.031 A 
ATOM     47  C   UNL     1      -2.485  16.194   3.725  1.00  0.00     0.031 A 
ATOM     48  C   UNL     1      -8.265  16.654   0.735  1.00  0.00     0.049 A 
ATOM     49  C   UNL     1      -3.184  17.311   3.000  1.00  0.00     0.074 A 
ATOM     50  C   UNL     1      -8.838  17.774   0.160  1.00  0.00     0.029 A 
ATOM     51  N   UNL     1      -7.020  17.040   1.208  1.00  0.00    -0.354 N 
ATOM     52  N   UNL     1      -4.368  17.312   2.435  1.00  0.00    -0.248 NA
ATOM     53  C   UNL     1      -2.469  18.591   2.905  1.00  0.00     0.031 C 
ATOM     54  C   UNL     1      -7.916  18.823   0.232  1.00  0.00     0.029 A 
ATOM     55  C   UNL     1      -6.795  18.375   0.913  1.00  0.00     0.049 A 
ATOM     56  H   UNL     1      -6.389  16.453   1.683  1.00  0.00     0.167 HD
ATOM     57  C   UNL     1      -4.551  18.600   1.943  1.00  0.00     0.074 A 
ATOM     58  C   UNL     1      -3.364  19.353   2.292  1.00  0.00     0.031 C 
ATOM     59  C   UNL     1      -5.608  19.112   1.264  1.00  0.00     0.031 A 
BRANCH  46  60
ATOM     60  C   UNL     1     -10.149  15.048   0.207  1.00  0.00    -0.014 A 
ATOM     61  C   UNL     1     -11.288  14.783   0.989  1.00  0.00     0.010 A 
ATOM     62  C   UNL     1     -10.281  15.096  -1.193  1.00  0.00     0.010 A 
ATOM     63  C   UNL     1     -12.522  14.528   0.384  1.00  0.00     0.020 A 
ATOM     64  C   UNL     1     -11.520  14.873  -1.802  1.00  0.00     0.020 A 
ATOM     65  C   UNL     1     -12.629  14.574  -1.010  1.00  0.00     0.054 A 
BRANCH  65  66
ATOM     66  S   UNL     1     -14.248  14.264  -1.766  1.00  0.00     0.124 S 
ATOM     67  O   UNL     1     -14.413  12.829  -1.546  1.00  0.00    -0.237 OA
ATOM     68  O   UNL     1     -15.135  15.124  -0.987  1.00  0.00    -0.237 OA
ATOM     69  O   UNL     1     -14.064  14.662  -3.159  1.00  0.00    -0.744 OA
ENDBRANCH  65  66
ENDBRANCH  46  60
BRANCH  47  70
ATOM     70  C   UNL     1      -1.126  16.391   4.304  1.00  0.00    -0.014 A 
ATOM     71  C   UNL     1      -0.935  17.238   5.411  1.00  0.00     0.010 A 
ATOM     72  C   UNL     1      -0.014  15.723   3.758  1.00  0.00     0.010 A 
ATOM     73  C   UNL     1       0.342  17.428   5.947  1.00  0.00     0.020 A 
ATOM     74  C   UNL     1       1.260  15.887   4.311  1.00  0.00     0.020 A 
ATOM     75  C   UNL     1       1.431  16.748   5.395  1.00  0.00     0.054 A 
BRANCH  75  76
ATOM     76  S   UNL     1       3.071  16.973   6.139  1.00  0.00     0.124 S 
ATOM     77  O   UNL     1       3.411  18.330   5.722  1.00  0.00    -0.237 OA
ATOM     78  O   UNL     1       2.798  16.797   7.563  1.00  0.00    -0.237 OA
ATOM     79  O   UNL     1       3.871  15.912   5.530  1.00  0.00    -0.744 OA
ENDBRANCH  75  76
ENDBRANCH  47  70
BRANCH  59  80
ATOM     80  C   UNL     1      -5.548  20.569   0.883  1.00  0.00    -0.014 A 
ATOM     81  C   UNL     1      -4.678  21.028  -0.121  1.00  0.00     0.010 A 
ATOM     82  C   UNL     1      -6.420  21.482   1.505  1.00  0.00     0.010 A 
ATOM     83  C   UNL     1      -4.657  22.380  -0.473  1.00  0.00     0.020 A 
ATOM     84  C   UNL     1      -6.425  22.829   1.133  1.00  0.00     0.020 A 
ATOM     85  C   UNL     1      -5.532  23.272   0.156  1.00  0.00     0.054 A 
BRANCH  85  86
ATOM     86  S   UNL     1      -5.516  25.013  -0.352  1.00  0.00     0.124 S 
ATOM     87  O   UNL     1      -4.257  25.485   0.220  1.00  0.00    -0.237 OA
ATOM     88  O   UNL     1      -5.549  24.922  -1.809  1.00  0.00    -0.237 OA
ATOM     89  O   UNL     1      -6.723  25.564   0.260  1.00  0.00    -0.744 OA
ENDBRANCH  85  86
ENDBRANCH  59  80
ENDBRANCH  33  34
ENDBRANCH  25  28
ENDBRANCH  23  24
ENDBRANCH   1  23
TORSDOF 16
