REMARK SMILES Cc1c(/C=C/C(=O)NCCCNC(=O)c2ccc(-c3c4nc(c(-c5ccc(S(=O)(=O)[O-])cc5)c5ccc([nH]5)c(-c5ccc(S(=O)(=O)[O-])cc5)c5nc(c(-c6ccc(S(=O)(=O)[O-])cc6)c6ccc3[nH]6)C=C5)C=C4)cc2)cccc1C(=O)N1C[C@@H](C)[C@@H](C)C1
REMARK SMILES IDX 10 1 9 2 8 3 6 4 7 5 5 7 4 8 3 9 1 10 2 11 78 12 75 13 77 14
REMARK SMILES IDX 76 15 79 16 80 17 81 18 82 19 87 20 83 21 85 22 84 23 86 24
REMARK SMILES IDX 11 25 12 26 13 27 14 29 15 30 16 31 74 32 17 33 73 34 18 35
REMARK SMILES IDX 19 36 20 37 67 38 21 39 72 40 66 41 68 42 22 43 71 44 65 45
REMARK SMILES IDX 64 46 23 48 53 49 34 50 52 51 35 52 38 53 51 54 69 55 36 56
REMARK SMILES IDX 37 57 50 59 70 60 39 61 24 62 25 63 33 64 26 65 32 66 27 67
REMARK SMILES IDX 28 68 29 69 30 70 31 71 54 72 55 73 63 74 56 75 62 76 57 77
REMARK SMILES IDX 58 78 59 79 60 80 61 81 40 82 41 83 49 84 42 85 48 86 43 87
REMARK SMILES IDX 44 88 45 89 46 90 47 91
REMARK H PARENT 8 6 12 28 68 47 38 58
REMARK Flexibility Score: inf
ROOT
ATOM      1  C   UNL     1       3.961  -3.291   0.235  1.00  0.00     0.042 C 
ENDROOT
BRANCH   1   2
ATOM      2  C   UNL     1       3.223  -4.047  -0.865  1.00  0.00     0.118 C 
BRANCH   2   3
ATOM      3  N   UNL     1       2.259  -5.005  -0.338  1.00  0.00    -0.352 N 
ATOM      4  C   UNL     1       0.911  -4.848  -0.174  1.00  0.00     0.244 C 
ATOM      5  O   UNL     1       0.182  -5.773   0.165  1.00  0.00    -0.270 OA
ATOM      6  H   UNL     1       2.626  -5.877  -0.064  1.00  0.00     0.163 HD
BRANCH   4   7
ATOM      7  C   UNL     1       0.338  -3.520  -0.474  1.00  0.00     0.072 C 
ATOM      8  C   UNL     1       0.525  -2.514   0.393  1.00  0.00     0.014 C 
BRANCH   8   9
ATOM      9  C   UNL     1       0.087  -1.129   0.148  1.00  0.00    -0.022 A 
ATOM     10  C   UNL     1       2.368  -0.258   0.836  1.00  0.00     0.046 C 
ATOM     11  C   UNL     1       0.958  -0.027   0.358  1.00  0.00    -0.031 A 
ATOM     12  C   UNL     1       0.477   1.280   0.109  1.00  0.00     0.043 A 
ATOM     13  C   UNL     1      -1.246  -0.902  -0.226  1.00  0.00     0.008 A 
ATOM     14  C   UNL     1      -0.861   1.477  -0.271  1.00  0.00     0.014 A 
ATOM     15  C   UNL     1      -1.718   0.392  -0.434  1.00  0.00     0.001 A 
BRANCH  12  16
ATOM     16  C   UNL     1       1.226   2.497   0.521  1.00  0.00     0.254 C 
ATOM     17  O   UNL     1       0.678   3.232   1.345  1.00  0.00    -0.269 OA
BRANCH  16  18
ATOM     18  N   UNL     1       2.509   2.738   0.067  1.00  0.00    -0.338 N 
ATOM     19  C   UNL     1       3.391   3.561   0.868  1.00  0.00     0.123 C 
ATOM     20  C   UNL     1       3.139   2.334  -1.184  1.00  0.00     0.123 C 
ATOM     21  C   UNL     1       4.566   3.910  -0.035  1.00  0.00     0.010 C 
ATOM     22  C   UNL     1       4.618   2.744  -1.046  1.00  0.00     0.010 C 
ATOM     23  C   UNL     1       5.831   4.180   0.769  1.00  0.00     0.010 C 
ATOM     24  C   UNL     1       5.499   1.567  -0.631  1.00  0.00     0.010 C 
ENDBRANCH  16  18
ENDBRANCH  12  16
ENDBRANCH   8   9
ENDBRANCH   4   7
ENDBRANCH   2   3
ENDBRANCH   1   2
BRANCH   1  25
ATOM     25  C   UNL     1       5.174  -4.035   0.769  1.00  0.00     0.118 C 
BRANCH  25  26
ATOM     26  N   UNL     1       6.430  -3.314   0.567  1.00  0.00    -0.352 N 
ATOM     27  C   UNL     1       7.722  -3.735   0.845  1.00  0.00     0.251 C 
ATOM     28  H   UNL     1       6.347  -2.411   0.183  1.00  0.00     0.163 HD
ATOM     29  O   UNL     1       8.665  -2.997   0.690  1.00  0.00    -0.269 OA
BRANCH  27  30
ATOM     30  C   UNL     1       7.898  -5.135   1.303  1.00  0.00     0.039 A 
ATOM     31  C   UNL     1       8.711  -5.997   0.560  1.00  0.00     0.014 A 
ATOM     32  C   UNL     1       7.100  -5.620   2.332  1.00  0.00     0.014 A 
ATOM     33  C   UNL     1       8.586  -7.378   0.733  1.00  0.00     0.010 A 
ATOM     34  C   UNL     1       6.893  -6.979   2.419  1.00  0.00     0.010 A 
ATOM     35  C   UNL     1       7.614  -7.866   1.603  1.00  0.00    -0.014 A 
BRANCH  35  36
ATOM     36  C   UNL     1       7.212  -9.265   1.734  1.00  0.00     0.031 A 
ATOM     37  C   UNL     1       7.434  -9.982   3.017  1.00  0.00     0.074 A 
ATOM     38  C   UNL     1       6.428  -9.841   0.795  1.00  0.00     0.049 A 
ATOM     39  N   UNL     1       7.252 -11.250   3.184  1.00  0.00    -0.248 NA
ATOM     40  C   UNL     1       7.944  -9.322   4.215  1.00  0.00     0.031 C 
ATOM     41  C   UNL     1       5.516 -10.966   1.002  1.00  0.00     0.029 A 
ATOM     42  N   UNL     1       6.448  -9.681  -0.590  1.00  0.00    -0.354 N 
ATOM     43  C   UNL     1       7.296 -11.503   4.536  1.00  0.00     0.074 A 
ATOM     44  C   UNL     1       7.834 -10.298   5.120  1.00  0.00     0.031 C 
ATOM     45  C   UNL     1       5.303 -11.570  -0.175  1.00  0.00     0.029 A 
ATOM     46  C   UNL     1       6.202 -10.957  -1.135  1.00  0.00     0.049 A 
ATOM     47  H   UNL     1       6.604  -8.846  -1.086  1.00  0.00     0.167 HD
ATOM     48  C   UNL     1       6.754 -12.657   5.021  1.00  0.00     0.031 A 
ATOM     49  C   UNL     1       7.057 -11.633  -1.960  1.00  0.00     0.031 A 
ATOM     50  C   UNL     1       6.330 -13.563   3.951  1.00  0.00     0.049 A 
ATOM     51  C   UNL     1       7.426 -13.025  -1.478  1.00  0.00     0.074 A 
ATOM     52  C   UNL     1       5.111 -13.999   3.459  1.00  0.00     0.029 A 
ATOM     53  N   UNL     1       7.283 -14.016   3.058  1.00  0.00    -0.354 N 
ATOM     54  N   UNL     1       6.994 -13.562  -0.372  1.00  0.00    -0.248 NA
ATOM     55  C   UNL     1       8.419 -13.870  -2.148  1.00  0.00     0.031 C 
ATOM     56  C   UNL     1       5.354 -14.760   2.278  1.00  0.00     0.029 A 
ATOM     57  C   UNL     1       6.719 -14.785   2.062  1.00  0.00     0.049 A 
ATOM     58  H   UNL     1       8.245 -13.815   3.124  1.00  0.00     0.167 HD
ATOM     59  C   UNL     1       7.703 -14.706  -0.114  1.00  0.00     0.074 A 
ATOM     60  C   UNL     1       8.557 -14.881  -1.272  1.00  0.00     0.031 C 
ATOM     61  C   UNL     1       7.598 -15.375   1.069  1.00  0.00     0.031 A 
BRANCH  48  62
ATOM     62  C   UNL     1       6.423 -12.916   6.478  1.00  0.00    -0.014 A 
ATOM     63  C   UNL     1       5.540 -13.966   6.812  1.00  0.00     0.010 A 
ATOM     64  C   UNL     1       6.892 -12.147   7.559  1.00  0.00     0.010 A 
ATOM     65  C   UNL     1       5.082 -14.172   8.123  1.00  0.00     0.020 A 
ATOM     66  C   UNL     1       6.432 -12.328   8.871  1.00  0.00     0.020 A 
ATOM     67  C   UNL     1       5.511 -13.330   9.143  1.00  0.00     0.054 A 
BRANCH  67  68
ATOM     68  S   UNL     1       4.853 -13.547  10.814  1.00  0.00     0.124 S 
ATOM     69  O   UNL     1       3.421 -13.336  10.616  1.00  0.00    -0.237 OA
ATOM     70  O   UNL     1       5.252 -14.913  11.137  1.00  0.00    -0.237 OA
ATOM     71  O   UNL     1       5.526 -12.505  11.590  1.00  0.00    -0.744 OA
ENDBRANCH  67  68
ENDBRANCH  48  62
BRANCH  49  72
ATOM     72  C   UNL     1       7.974 -10.747  -2.726  1.00  0.00    -0.014 A 
ATOM     73  C   UNL     1       7.407  -9.950  -3.741  1.00  0.00     0.010 A 
ATOM     74  C   UNL     1       9.205 -10.373  -2.159  1.00  0.00     0.010 A 
ATOM     75  C   UNL     1       7.954  -8.701  -4.036  1.00  0.00     0.020 A 
ATOM     76  C   UNL     1       9.760  -9.125  -2.462  1.00  0.00     0.020 A 
ATOM     77  C   UNL     1       9.085  -8.271  -3.340  1.00  0.00     0.054 A 
BRANCH  77  78
ATOM     78  S   UNL     1       9.496  -6.502  -3.403  1.00  0.00     0.124 S 
ATOM     79  O   UNL     1       9.769  -6.293  -4.820  1.00  0.00    -0.237 OA
ATOM     80  O   UNL     1       8.265  -5.897  -2.898  1.00  0.00    -0.237 OA
ATOM     81  O   UNL     1      10.648  -6.391  -2.512  1.00  0.00    -0.744 OA
ENDBRANCH  77  78
ENDBRANCH  49  72
BRANCH  61  82
ATOM     82  C   UNL     1       8.384 -16.607   1.430  1.00  0.00    -0.014 A 
ATOM     83  C   UNL     1       8.606 -17.661   0.531  1.00  0.00     0.010 A 
ATOM     84  C   UNL     1       8.824 -16.789   2.763  1.00  0.00     0.010 A 
ATOM     85  C   UNL     1       9.280 -18.824   0.936  1.00  0.00     0.020 A 
ATOM     86  C   UNL     1       9.480 -17.948   3.180  1.00  0.00     0.020 A 
ATOM     87  C   UNL     1       9.717 -18.958   2.257  1.00  0.00     0.054 A 
BRANCH  87  88
ATOM     88  S   UNL     1      10.544 -20.485   2.770  1.00  0.00     0.124 S 
ATOM     89  O   UNL     1       9.670 -21.520   2.221  1.00  0.00    -0.237 OA
ATOM     90  O   UNL     1      11.846 -20.356   2.120  1.00  0.00    -0.237 OA
ATOM     91  O   UNL     1      10.565 -20.402   4.228  1.00  0.00    -0.744 OA
ENDBRANCH  87  88
ENDBRANCH  61  82
ENDBRANCH  35  36
ENDBRANCH  27  30
ENDBRANCH  25  26
ENDBRANCH   1  25
TORSDOF 16
