REMARK SMILES O=C(C[C@@H]([NH2+]Cc1ccccc1)C(=O)/N=c1/[nH]c(-c2ccccc2)cs1)NCCCNC(=O)c1ccc(-c2c3nc(c(-c4ccc(S(=O)(=O)[O-])cc4)c4ccc([nH]4)c(-c4ccc(S(=O)(=O)[O-])cc4)c4nc(c(-c5ccc(S(=O)(=O)[O-])cc5)c5ccc2[nH]5)C=C4)C=C3)cc1
REMARK SMILES IDX 28 1 27 2 1 3 2 4 3 6 4 7 5 8 6 11 7 12 8 13 12 14 9 15
REMARK SMILES IDX 11 16 10 17 13 18 14 19 15 20 16 21 17 22 26 23 18 24 25 26
REMARK SMILES IDX 19 27 20 28 24 29 21 30 23 31 22 32 29 33 30 34 31 35 32 36
REMARK SMILES IDX 33 38 34 39 35 40 93 41 36 42 92 43 37 44 38 45 39 46 86 47
REMARK SMILES IDX 40 48 91 49 85 50 87 51 41 52 90 53 84 54 83 55 42 57 72 58
REMARK SMILES IDX 53 59 71 60 54 61 57 62 70 63 88 64 55 65 56 66 69 68 89 69
REMARK SMILES IDX 58 70 43 71 44 72 52 73 45 74 51 75 46 76 47 77 48 78 49 79
REMARK SMILES IDX 50 80 73 81 74 82 82 83 75 84 81 85 76 86 77 87 78 88 79 89
REMARK SMILES IDX 80 90 59 91 60 92 68 93 61 94 67 95 62 96 63 97 64 98 65 99
REMARK SMILES IDX 66 100
REMARK H PARENT 27 5 5 9 5 10 17 25 31 37 87 56 57 67
REMARK Flexibility Score: inf
ROOT
ATOM      1  C   UNL     1       2.026   1.600  -2.057  1.00  0.00     0.117 C 
ENDROOT
BRANCH   1   2
ATOM      2  N   UNL     1       2.637   0.808  -1.014  1.00  0.00    -0.356 N 
ATOM      3  O   UNL     1       0.928  -0.714  -0.765  1.00  0.00    -0.275 OA
ATOM      4  C   UNL     1       2.009  -0.264  -0.421  1.00  0.00     0.226 C 
ATOM      5  H   UNL     1       3.543   1.047  -0.714  1.00  0.00     0.163 HD
BRANCH   4   6
ATOM      6  C   UNL     1       2.803  -0.806   0.736  1.00  0.00     0.175 C 
BRANCH   6   7
ATOM      7  C   UNL     1       3.869  -1.824   0.333  1.00  0.00     0.284 C 
BRANCH   7   8
ATOM      8  N   UNL     1       4.902  -1.205  -0.554  1.00  0.00    -0.332 N 
ATOM      9  H   UNL     1       5.510  -0.616   0.013  1.00  0.00     0.347 HD
ATOM     10  H   UNL     1       4.414  -0.663  -1.267  1.00  0.00     0.347 HD
BRANCH   8  11
ATOM     11  C   UNL     1       5.728  -2.213  -1.243  1.00  0.00     0.297 C 
BRANCH  11  12
ATOM     12  C   UNL     1       4.935  -3.157  -2.125  1.00  0.00     0.006 A 
ATOM     13  C   UNL     1       3.919  -2.697  -2.981  1.00  0.00     0.009 A 
ATOM     14  C   UNL     1       5.190  -4.535  -2.068  1.00  0.00     0.009 A 
ATOM     15  C   UNL     1       3.127  -3.597  -3.695  1.00  0.00     0.001 A 
ATOM     16  C   UNL     1       4.412  -5.431  -2.802  1.00  0.00     0.001 A 
ATOM     17  C   UNL     1       3.370  -4.964  -3.600  1.00  0.00     0.000 A 
ENDBRANCH  11  12
ENDBRANCH   8  11
ENDBRANCH   7   8
BRANCH   7  18
ATOM     18  C   UNL     1       4.486  -2.436   1.623  1.00  0.00     0.307 C 
ATOM     19  O   UNL     1       4.095  -3.519   2.054  1.00  0.00    -0.265 OA
BRANCH  18  20
ATOM     20  N   UNL     1       5.480  -1.710   2.243  1.00  0.00    -0.180 NA
ATOM     21  C   UNL     1       5.148  -0.946   3.227  1.00  0.00     0.190 A 
ATOM     22  N   UNL     1       5.992  -0.128   3.938  1.00  0.00    -0.330 N 
ATOM     23  S   UNL     1       3.502  -0.676   3.875  1.00  0.00    -0.105 S 
ATOM     24  C   UNL     1       5.395   0.779   4.795  1.00  0.00     0.058 A 
ATOM     25  H   UNL     1       6.970  -0.185   3.842  1.00  0.00     0.169 HD
ATOM     26  C   UNL     1       4.052   0.690   4.801  1.00  0.00     0.095 A 
BRANCH  24  27
ATOM     27  C   UNL     1       6.164   1.688   5.661  1.00  0.00    -0.001 A 
ATOM     28  C   UNL     1       7.472   2.091   5.362  1.00  0.00     0.010 A 
ATOM     29  C   UNL     1       5.608   2.104   6.886  1.00  0.00     0.010 A 
ATOM     30  C   UNL     1       8.204   2.861   6.274  1.00  0.00     0.001 A 
ATOM     31  C   UNL     1       6.334   2.877   7.790  1.00  0.00     0.001 A 
ATOM     32  C   UNL     1       7.638   3.246   7.489  1.00  0.00     0.000 A 
ENDBRANCH  24  27
ENDBRANCH  18  20
ENDBRANCH   7  18
ENDBRANCH   6   7
ENDBRANCH   4   6
ENDBRANCH   1   2
BRANCH   1  33
ATOM     33  C   UNL     1       2.371   3.076  -1.901  1.00  0.00     0.042 C 
BRANCH  33  34
ATOM     34  C   UNL     1       3.861   3.393  -1.988  1.00  0.00     0.118 C 
BRANCH  34  35
ATOM     35  N   UNL     1       4.447   3.020  -3.264  1.00  0.00    -0.352 N 
ATOM     36  C   UNL     1       5.143   3.787  -4.166  1.00  0.00     0.251 C 
ATOM     37  H   UNL     1       4.328   2.077  -3.521  1.00  0.00     0.163 HD
ATOM     38  O   UNL     1       5.408   3.324  -5.272  1.00  0.00    -0.269 OA
BRANCH  36  39
ATOM     39  C   UNL     1       5.553   5.166  -3.820  1.00  0.00     0.039 A 
ATOM     40  C   UNL     1       5.425   6.166  -4.787  1.00  0.00     0.014 A 
ATOM     41  C   UNL     1       6.084   5.473  -2.564  1.00  0.00     0.014 A 
ATOM     42  C   UNL     1       5.788   7.479  -4.479  1.00  0.00     0.010 A 
ATOM     43  C   UNL     1       6.363   6.797  -2.232  1.00  0.00     0.010 A 
ATOM     44  C   UNL     1       6.236   7.813  -3.191  1.00  0.00    -0.014 A 
BRANCH  44  45
ATOM     45  C   UNL     1       6.607   9.210  -2.844  1.00  0.00     0.031 A 
ATOM     46  C   UNL     1       8.023   9.541  -2.451  1.00  0.00     0.074 A 
ATOM     47  C   UNL     1       5.666  10.176  -2.848  1.00  0.00     0.049 A 
ATOM     48  N   UNL     1       8.532  10.692  -2.090  1.00  0.00    -0.248 NA
ATOM     49  C   UNL     1       8.990   8.431  -2.437  1.00  0.00     0.031 C 
ATOM     50  C   UNL     1       4.252   9.980  -3.176  1.00  0.00     0.029 A 
ATOM     51  N   UNL     1       5.758  11.516  -2.566  1.00  0.00    -0.354 N 
ATOM     52  C   UNL     1       9.867  10.441  -1.794  1.00  0.00     0.074 A 
ATOM     53  C   UNL     1      10.076   9.020  -1.959  1.00  0.00     0.031 C 
ATOM     54  C   UNL     1       3.618  11.162  -3.111  1.00  0.00     0.029 A 
ATOM     55  C   UNL     1       4.566  12.191  -2.694  1.00  0.00     0.049 A 
ATOM     56  H   UNL     1       6.598  11.954  -2.297  1.00  0.00     0.167 HD
ATOM     57  C   UNL     1      10.839  11.316  -1.441  1.00  0.00     0.031 A 
ATOM     58  C   UNL     1       4.267  13.490  -2.496  1.00  0.00     0.031 A 
ATOM     59  C   UNL     1      10.632  12.732  -1.287  1.00  0.00     0.049 A 
ATOM     60  C   UNL     1       5.360  14.440  -2.086  1.00  0.00     0.074 A 
ATOM     61  C   UNL     1      11.563  13.708  -0.979  1.00  0.00     0.029 A 
ATOM     62  N   UNL     1       9.410  13.373  -1.426  1.00  0.00    -0.354 N 
ATOM     63  N   UNL     1       6.630  14.193  -1.871  1.00  0.00    -0.248 NA
ATOM     64  C   UNL     1       4.981  15.849  -1.906  1.00  0.00     0.031 C 
ATOM     65  C   UNL     1      10.894  14.931  -0.873  1.00  0.00     0.029 A 
ATOM     66  C   UNL     1       9.559  14.729  -1.186  1.00  0.00     0.049 A 
ATOM     67  H   UNL     1       8.563  12.931  -1.661  1.00  0.00     0.167 HD
ATOM     68  C   UNL     1       7.209  15.421  -1.567  1.00  0.00     0.074 A 
ATOM     69  C   UNL     1       6.153  16.409  -1.638  1.00  0.00     0.031 C 
ATOM     70  C   UNL     1       8.500  15.704  -1.261  1.00  0.00     0.031 A 
BRANCH  57  71
ATOM     71  C   UNL     1      12.218  10.762  -1.187  1.00  0.00    -0.014 A 
ATOM     72  C   UNL     1      12.997  10.233  -2.233  1.00  0.00     0.010 A 
ATOM     73  C   UNL     1      12.760  10.804   0.111  1.00  0.00     0.010 A 
ATOM     74  C   UNL     1      14.270   9.716  -1.979  1.00  0.00     0.020 A 
ATOM     75  C   UNL     1      14.047  10.319   0.364  1.00  0.00     0.020 A 
ATOM     76  C   UNL     1      14.786   9.761  -0.681  1.00  0.00     0.054 A 
BRANCH  76  77
ATOM     77  S   UNL     1      16.448   9.099  -0.384  1.00  0.00     0.124 S 
ATOM     78  O   UNL     1      16.229   7.661  -0.526  1.00  0.00    -0.237 OA
ATOM     79  O   UNL     1      17.234   9.722  -1.446  1.00  0.00    -0.237 OA
ATOM     80  O   UNL     1      16.765   9.548   0.969  1.00  0.00    -0.744 OA
ENDBRANCH  76  77
ENDBRANCH  57  71
BRANCH  58  81
ATOM     81  C   UNL     1       2.872  13.973  -2.700  1.00  0.00    -0.014 A 
ATOM     82  C   UNL     1       2.560  14.829  -3.771  1.00  0.00     0.010 A 
ATOM     83  C   UNL     1       1.846  13.575  -1.824  1.00  0.00     0.010 A 
ATOM     84  C   UNL     1       1.254  15.296  -3.949  1.00  0.00     0.020 A 
ATOM     85  C   UNL     1       0.533  14.014  -2.017  1.00  0.00     0.020 A 
ATOM     86  C   UNL     1       0.248  14.882  -3.071  1.00  0.00     0.054 A 
BRANCH  86  87
ATOM     87  S   UNL     1      -1.448  15.465  -3.348  1.00  0.00     0.124 S 
ATOM     88  O   UNL     1      -1.353  16.870  -2.965  1.00  0.00    -0.237 OA
ATOM     89  O   UNL     1      -1.640  15.208  -4.773  1.00  0.00    -0.237 OA
ATOM     90  O   UNL     1      -2.247  14.626  -2.458  1.00  0.00    -0.744 OA
ENDBRANCH  86  87
ENDBRANCH  58  81
BRANCH  70  91
ATOM     91  C   UNL     1       8.859  17.149  -1.027  1.00  0.00    -0.014 A 
ATOM     92  C   UNL     1       8.424  17.840   0.117  1.00  0.00     0.010 A 
ATOM     93  C   UNL     1       9.693  17.809  -1.949  1.00  0.00     0.010 A 
ATOM     94  C   UNL     1       8.785  19.176   0.316  1.00  0.00     0.020 A 
ATOM     95  C   UNL     1      10.084  19.133  -1.737  1.00  0.00     0.020 A 
ATOM     96  C   UNL     1       9.614  19.814  -0.613  1.00  0.00     0.054 A 
BRANCH  96  97
ATOM     97  S   UNL     1      10.099  21.535  -0.313  1.00  0.00     0.124 S 
ATOM     98  O   UNL     1       8.855  22.253  -0.577  1.00  0.00    -0.237 OA
ATOM     99  O   UNL     1      10.524  21.508   1.085  1.00  0.00    -0.237 OA
ATOM    100  O   UNL     1      11.170  21.768  -1.279  1.00  0.00    -0.744 OA
ENDBRANCH  96  97
ENDBRANCH  70  91
ENDBRANCH  44  45
ENDBRANCH  36  39
ENDBRANCH  34  35
ENDBRANCH  33  34
ENDBRANCH   1  33
TORSDOF 20
