REMARK SMILES O=C(NCCCNC(=O)[C@@H](Cc1c[nH]c2ccccc12)NC(=O)c1ccc(F)cc1F)c1ccc(-c2c3nc(c(-c4ccc(S(=O)(=O)[O-])cc4)c4ccc([nH]4)c(-c4ccc(S(=O)(=O)[O-])cc4)c4nc(c(-c5ccc(S(=O)(=O)[O-])cc5)c5ccc2[nH]5)C=C4)C=C3)cc1
REMARK SMILES IDX 4 1 3 2 1 3 2 4 32 6 33 7 91 8 34 9 90 10 35 11 36 12 37 13
REMARK SMILES IDX 84 14 38 15 89 16 83 17 85 18 39 19 88 20 82 21 81 22 40 24
REMARK SMILES IDX 70 25 51 26 69 27 52 28 55 29 68 30 86 31 53 32 54 33 67 35
REMARK SMILES IDX 87 36 56 37 41 38 42 39 50 40 43 41 49 42 44 43 45 44 46 45
REMARK SMILES IDX 47 46 48 47 71 48 72 49 80 50 73 51 79 52 74 53 75 54 76 55
REMARK SMILES IDX 77 56 78 57 57 58 58 59 66 60 59 61 65 62 60 63 61 64 62 65
REMARK SMILES IDX 63 66 64 67 5 68 6 69 7 70 8 71 9 73 10 74 11 75 12 76 13 77
REMARK SMILES IDX 20 78 14 79 15 80 19 81 16 83 18 84 17 85 21 86 22 87 23 89
REMARK SMILES IDX 24 90 25 91 30 92 26 93 29 94 31 95 27 96 28 97
REMARK H PARENT 3 5 85 23 55 34 7 72 14 82 21 88
REMARK Flexibility Score: inf
ROOT
ATOM      1  C   UNL     1       3.734  -2.018   0.116  1.00  0.00     0.118 C 
ENDROOT
BRANCH   1   2
ATOM      2  N   UNL     1       2.393  -1.524  -0.168  1.00  0.00    -0.352 N 
ATOM      3  O   UNL     1       0.720  -0.085  -0.432  1.00  0.00    -0.269 OA
ATOM      4  C   UNL     1       1.922  -0.304  -0.593  1.00  0.00     0.251 C 
ATOM      5  H   UNL     1       1.685  -2.195  -0.028  1.00  0.00     0.163 HD
BRANCH   4   6
ATOM      6  C   UNL     1       2.765   0.752  -1.226  1.00  0.00     0.039 A 
ATOM      7  C   UNL     1       3.877   0.481  -2.024  1.00  0.00     0.014 A 
ATOM      8  C   UNL     1       2.312   2.081  -1.150  1.00  0.00     0.014 A 
ATOM      9  C   UNL     1       4.561   1.517  -2.679  1.00  0.00     0.010 A 
ATOM     10  C   UNL     1       2.947   3.106  -1.868  1.00  0.00     0.010 A 
ATOM     11  C   UNL     1       4.080   2.836  -2.647  1.00  0.00    -0.014 A 
BRANCH  11  12
ATOM     12  C   UNL     1       4.677   3.894  -3.516  1.00  0.00     0.031 A 
ATOM     13  C   UNL     1       5.297   5.134  -2.931  1.00  0.00     0.074 A 
ATOM     14  C   UNL     1       4.603   3.767  -4.858  1.00  0.00     0.049 A 
ATOM     15  N   UNL     1       5.780   6.186  -3.547  1.00  0.00    -0.248 NA
ATOM     16  C   UNL     1       5.375   5.210  -1.465  1.00  0.00     0.031 C 
ATOM     17  C   UNL     1       4.006   2.632  -5.566  1.00  0.00     0.029 A 
ATOM     18  N   UNL     1       5.021   4.601  -5.868  1.00  0.00    -0.354 N 
ATOM     19  C   UNL     1       6.191   7.061  -2.548  1.00  0.00     0.074 A 
ATOM     20  C   UNL     1       5.884   6.421  -1.284  1.00  0.00     0.031 C 
ATOM     21  C   UNL     1       4.116   2.830  -6.888  1.00  0.00     0.029 A 
ATOM     22  C   UNL     1       4.732   4.131  -7.128  1.00  0.00     0.049 A 
ATOM     23  H   UNL     1       5.484   5.455  -5.704  1.00  0.00     0.167 HD
ATOM     24  C   UNL     1       6.769   8.282  -2.668  1.00  0.00     0.031 A 
ATOM     25  C   UNL     1       4.907   4.684  -8.345  1.00  0.00     0.031 A 
ATOM     26  C   UNL     1       7.072   8.922  -3.923  1.00  0.00     0.049 A 
ATOM     27  C   UNL     1       5.535   6.042  -8.459  1.00  0.00     0.074 A 
ATOM     28  C   UNL     1       7.690  10.142  -4.140  1.00  0.00     0.029 A 
ATOM     29  N   UNL     1       6.771   8.401  -5.173  1.00  0.00    -0.354 N 
ATOM     30  N   UNL     1       5.952   6.833  -7.500  1.00  0.00    -0.248 NA
ATOM     31  C   UNL     1       5.719   6.582  -9.813  1.00  0.00     0.031 C 
ATOM     32  C   UNL     1       7.721  10.380  -5.518  1.00  0.00     0.029 A 
ATOM     33  C   UNL     1       7.171   9.283  -6.163  1.00  0.00     0.049 A 
ATOM     34  H   UNL     1       6.337   7.532  -5.333  1.00  0.00     0.167 HD
ATOM     35  C   UNL     1       6.467   7.957  -8.135  1.00  0.00     0.074 A 
ATOM     36  C   UNL     1       6.314   7.742  -9.560  1.00  0.00     0.031 C 
ATOM     37  C   UNL     1       7.020   9.063  -7.581  1.00  0.00     0.031 A 
BRANCH  24  38
ATOM     38  C   UNL     1       7.074   9.028  -1.394  1.00  0.00    -0.014 A 
ATOM     39  C   UNL     1       8.105   8.613  -0.532  1.00  0.00     0.010 A 
ATOM     40  C   UNL     1       6.319  10.166  -1.057  1.00  0.00     0.010 A 
ATOM     41  C   UNL     1       8.328   9.279   0.677  1.00  0.00     0.020 A 
ATOM     42  C   UNL     1       6.556  10.852   0.139  1.00  0.00     0.020 A 
ATOM     43  C   UNL     1       7.539  10.384   1.012  1.00  0.00     0.054 A 
BRANCH  43  44
ATOM     44  S   UNL     1       7.815  11.203   2.607  1.00  0.00     0.124 S 
ATOM     45  O   UNL     1       7.189  10.264   3.535  1.00  0.00    -0.237 OA
ATOM     46  O   UNL     1       9.271  11.281   2.684  1.00  0.00    -0.237 OA
ATOM     47  O   UNL     1       7.131  12.486   2.462  1.00  0.00    -0.744 OA
ENDBRANCH  43  44
ENDBRANCH  24  38
BRANCH  25  48
ATOM     48  C   UNL     1       4.460   3.932  -9.549  1.00  0.00    -0.014 A 
ATOM     49  C   UNL     1       5.395   3.301 -10.387  1.00  0.00     0.010 A 
ATOM     50  C   UNL     1       3.086   3.768  -9.808  1.00  0.00     0.010 A 
ATOM     51  C   UNL     1       4.964   2.505 -11.452  1.00  0.00     0.020 A 
ATOM     52  C   UNL     1       2.651   2.953 -10.857  1.00  0.00     0.020 A 
ATOM     53  C   UNL     1       3.595   2.326 -11.673  1.00  0.00     0.054 A 
BRANCH  53  54
ATOM     54  S   UNL     1       3.059   1.193 -12.986  1.00  0.00     0.124 S 
ATOM     55  O   UNL     1       3.304   1.983 -14.188  1.00  0.00    -0.237 OA
ATOM     56  O   UNL     1       3.942   0.045 -12.792  1.00  0.00    -0.237 OA
ATOM     57  O   UNL     1       1.654   0.946 -12.671  1.00  0.00    -0.744 OA
ENDBRANCH  53  54
ENDBRANCH  25  48
BRANCH  37  58
ATOM     58  C   UNL     1       7.544  10.126  -8.509  1.00  0.00    -0.014 A 
ATOM     59  C   UNL     1       6.674  11.013  -9.166  1.00  0.00     0.010 A 
ATOM     60  C   UNL     1       8.934  10.297  -8.646  1.00  0.00     0.010 A 
ATOM     61  C   UNL     1       7.186  12.053  -9.948  1.00  0.00     0.020 A 
ATOM     62  C   UNL     1       9.449  11.347  -9.411  1.00  0.00     0.020 A 
ATOM     63  C   UNL     1       8.571  12.217 -10.061  1.00  0.00     0.054 A 
BRANCH  63  64
ATOM     64  S   UNL     1       9.213  13.626 -11.008  1.00  0.00     0.124 S 
ATOM     65  O   UNL     1       8.988  13.194 -12.385  1.00  0.00    -0.237 OA
ATOM     66  O   UNL     1       8.374  14.730 -10.550  1.00  0.00    -0.237 OA
ATOM     67  O   UNL     1      10.614  13.707 -10.602  1.00  0.00    -0.744 OA
ENDBRANCH  63  64
ENDBRANCH  37  58
ENDBRANCH  11  12
ENDBRANCH   4   6
ENDBRANCH   1   2
BRANCH   1  68
ATOM     68  C   UNL     1       4.133  -1.739   1.566  1.00  0.00     0.042 C 
BRANCH  68  69
ATOM     69  C   UNL     1       3.882  -2.908   2.535  1.00  0.00     0.117 C 
BRANCH  69  70
ATOM     70  N   UNL     1       5.097  -3.681   2.734  1.00  0.00    -0.354 N 
ATOM     71  C   UNL     1       6.112  -3.644   3.632  1.00  0.00     0.242 C 
ATOM     72  H   UNL     1       5.208  -4.393   2.063  1.00  0.00     0.163 HD
ATOM     73  O   UNL     1       7.122  -4.280   3.286  1.00  0.00    -0.273 OA
BRANCH  71  74
ATOM     74  C   UNL     1       6.169  -2.857   4.975  1.00  0.00     0.176 C 
BRANCH  74  75
ATOM     75  C   UNL     1       6.925  -1.505   4.935  1.00  0.00     0.072 C 
BRANCH  75  76
ATOM     76  C   UNL     1       6.183  -0.234   4.612  1.00  0.00    -0.020 A 
ATOM     77  C   UNL     1       4.879  -0.077   4.202  1.00  0.00     0.087 A 
ATOM     78  C   UNL     1       6.697   1.112   4.737  1.00  0.00     0.003 A 
ATOM     79  N   UNL     1       4.670   1.221   3.832  1.00  0.00    -0.361 N 
ATOM     80  C   UNL     1       5.741   1.982   4.208  1.00  0.00     0.046 A 
ATOM     81  C   UNL     1       7.880   1.684   5.256  1.00  0.00     0.010 A 
ATOM     82  H   UNL     1       3.870   1.557   3.367  1.00  0.00     0.166 HD
ATOM     83  C   UNL     1       5.910   3.366   4.123  1.00  0.00     0.026 A 
ATOM     84  C   UNL     1       8.043   3.079   5.229  1.00  0.00     0.001 A 
ATOM     85  C   UNL     1       7.077   3.904   4.659  1.00  0.00     0.002 A 
ENDBRANCH  75  76
ENDBRANCH  74  75
BRANCH  74  86
ATOM     86  N   UNL     1       4.998  -2.856   5.856  1.00  0.00    -0.340 N 
ATOM     87  C   UNL     1       4.743  -3.570   7.004  1.00  0.00     0.254 C 
ATOM     88  H   UNL     1       4.276  -2.245   5.582  1.00  0.00     0.164 HD
ATOM     89  O   UNL     1       3.667  -3.427   7.576  1.00  0.00    -0.269 OA
BRANCH  87  90
ATOM     90  C   UNL     1       5.741  -4.496   7.582  1.00  0.00     0.075 A 
ATOM     91  C   UNL     1       7.034  -4.073   7.922  1.00  0.00     0.020 A 
ATOM     92  C   UNL     1       5.353  -5.807   7.872  1.00  0.00     0.138 A 
ATOM     93  C   UNL     1       7.943  -4.983   8.471  1.00  0.00     0.040 A 
ATOM     94  C   UNL     1       6.248  -6.710   8.441  1.00  0.00     0.079 A 
ATOM     95  F   UNL     1       4.113  -6.237   7.595  1.00  0.00    -0.206 F 
ATOM     96  C   UNL     1       7.542  -6.292   8.722  1.00  0.00     0.126 A 
ATOM     97  F   UNL     1       8.415  -7.159   9.251  1.00  0.00    -0.207 F 
ENDBRANCH  87  90
ENDBRANCH  74  86
ENDBRANCH  71  74
ENDBRANCH  69  70
ENDBRANCH  68  69
ENDBRANCH   1  68
TORSDOF 17
