REMARK SMILES C[C@@H](C(=O)NCCCNC(=O)c1ccc(-c2c3nc(c(-c4ccc(S(=O)(=O)[O-])cc4)c4ccc([nH]4)c(-c4ccc(S(=O)(=O)[O-])cc4)c4nc(c(-c5ccc(S(=O)(=O)[O-])cc5)c5ccc2[nH]5)C=C4)C=C3)cc1)c1ccc(OC2CCCC2)cc1F
REMARK SMILES IDX 7 1 6 2 5 3 3 4 4 5 2 7 1 8 72 9 73 10 83 11 74 12 82 13
REMARK SMILES IDX 84 14 75 15 76 16 77 17 78 18 81 19 79 20 80 21 8 22 9 23
REMARK SMILES IDX 10 24 11 26 12 27 13 28 71 29 14 30 70 31 15 32 16 33 17 34
REMARK SMILES IDX 64 35 18 36 69 37 63 38 65 39 19 40 68 41 62 42 61 43 20 45
REMARK SMILES IDX 50 46 31 47 49 48 32 49 35 50 48 51 66 52 33 53 34 54 47 56
REMARK SMILES IDX 67 57 36 58 21 59 22 60 30 61 23 62 29 63 24 64 25 65 26 66
REMARK SMILES IDX 27 67 28 68 51 69 52 70 60 71 53 72 59 73 54 74 55 75 56 76
REMARK SMILES IDX 57 77 58 78 37 79 38 80 46 81 39 82 45 83 40 84 41 85 42 86
REMARK SMILES IDX 43 87 44 88
REMARK H PARENT 5 6 9 25 65 44 35 55
REMARK Flexibility Score: inf
ROOT
ATOM      1  C   UNL     1       4.324  -0.694   1.136  1.00  0.00     0.042 C 
ENDROOT
BRANCH   1   2
ATOM      2  C   UNL     1       3.409  -1.885   0.863  1.00  0.00     0.117 C 
BRANCH   2   3
ATOM      3  N   UNL     1       2.349  -1.964   1.848  1.00  0.00    -0.356 N 
ATOM      4  C   UNL     1       1.062  -1.521   1.789  1.00  0.00     0.227 C 
ATOM      5  O   UNL     1       0.421  -1.525   2.843  1.00  0.00    -0.274 OA
ATOM      6  H   UNL     1       2.598  -2.407   2.692  1.00  0.00     0.163 HD
BRANCH   4   7
ATOM      7  C   UNL     1       0.459  -1.073   0.447  1.00  0.00     0.108 C 
ATOM      8  C   UNL     1       0.957   0.319   0.054  1.00  0.00     0.023 C 
BRANCH   7   9
ATOM      9  C   UNL     1      -1.059  -1.192   0.485  1.00  0.00     0.000 A 
ATOM     10  C   UNL     1      -1.923  -0.094   0.559  1.00  0.00     0.011 A 
ATOM     11  C   UNL     1      -1.628  -2.470   0.515  1.00  0.00     0.130 A 
ATOM     12  C   UNL     1      -3.306  -0.287   0.629  1.00  0.00     0.047 A 
ATOM     13  C   UNL     1      -3.004  -2.664   0.608  1.00  0.00     0.086 A 
ATOM     14  F   UNL     1      -0.835  -3.550   0.454  1.00  0.00    -0.207 F 
ATOM     15  C   UNL     1      -3.859  -1.571   0.644  1.00  0.00     0.122 A 
BRANCH  15  16
ATOM     16  O   UNL     1      -5.219  -1.587   0.705  1.00  0.00    -0.490 OA
BRANCH  16  17
ATOM     17  C   UNL     1      -5.989  -2.770   0.549  1.00  0.00     0.173 C 
ATOM     18  C   UNL     1      -5.783  -3.568  -0.734  1.00  0.00     0.045 C 
ATOM     19  C   UNL     1      -5.915  -3.765   1.703  1.00  0.00     0.045 C 
ATOM     20  C   UNL     1      -6.407  -4.917  -0.417  1.00  0.00     0.004 C 
ATOM     21  C   UNL     1      -6.235  -5.126   1.087  1.00  0.00     0.004 C 
ENDBRANCH  16  17
ENDBRANCH  15  16
ENDBRANCH   7   9
ENDBRANCH   4   7
ENDBRANCH   2   3
ENDBRANCH   1   2
BRANCH   1  22
ATOM     22  C   UNL     1       5.064  -0.774   2.467  1.00  0.00     0.118 C 
BRANCH  22  23
ATOM     23  N   UNL     1       6.030  -1.861   2.500  1.00  0.00    -0.352 N 
ATOM     24  C   UNL     1       7.380  -1.823   2.736  1.00  0.00     0.251 C 
ATOM     25  H   UNL     1       5.659  -2.756   2.328  1.00  0.00     0.163 HD
ATOM     26  O   UNL     1       8.056  -2.829   2.517  1.00  0.00    -0.269 OA
BRANCH  24  27
ATOM     27  C   UNL     1       8.028  -0.590   3.235  1.00  0.00     0.039 A 
ATOM     28  C   UNL     1       9.281  -0.234   2.727  1.00  0.00     0.014 A 
ATOM     29  C   UNL     1       7.433   0.193   4.229  1.00  0.00     0.014 A 
ATOM     30  C   UNL     1       9.918   0.920   3.188  1.00  0.00     0.010 A 
ATOM     31  C   UNL     1       8.032   1.385   4.630  1.00  0.00     0.010 A 
ATOM     32  C   UNL     1       9.290   1.751   4.130  1.00  0.00    -0.014 A 
BRANCH  32  33
ATOM     33  C   UNL     1       9.953   2.980   4.637  1.00  0.00     0.031 A 
ATOM     34  C   UNL     1      10.332   3.086   6.091  1.00  0.00     0.074 A 
ATOM     35  C   UNL     1      10.171   4.019   3.806  1.00  0.00     0.049 A 
ATOM     36  N   UNL     1      10.873   4.090   6.733  1.00  0.00    -0.248 NA
ATOM     37  C   UNL     1      10.040   1.920   6.942  1.00  0.00     0.031 C 
ATOM     38  C   UNL     1       9.821   4.056   2.384  1.00  0.00     0.029 A 
ATOM     39  N   UNL     1      10.739   5.246   4.039  1.00  0.00    -0.354 N 
ATOM     40  C   UNL     1      10.960   3.688   8.062  1.00  0.00     0.074 A 
ATOM     41  C   UNL     1      10.375   2.368   8.143  1.00  0.00     0.031 C 
ATOM     42  C   UNL     1      10.208   5.233   1.867  1.00  0.00     0.029 A 
ATOM     43  C   UNL     1      10.798   6.049   2.924  1.00  0.00     0.049 A 
ATOM     44  H   UNL     1      11.072   5.527   4.922  1.00  0.00     0.167 HD
ATOM     45  C   UNL     1      11.496   4.348   9.117  1.00  0.00     0.031 A 
ATOM     46  C   UNL     1      11.275   7.299   2.769  1.00  0.00     0.031 A 
ATOM     47  C   UNL     1      12.098   5.651   9.030  1.00  0.00     0.049 A 
ATOM     48  C   UNL     1      11.876   8.008   3.953  1.00  0.00     0.074 A 
ATOM     49  C   UNL     1      12.721   6.380  10.028  1.00  0.00     0.029 A 
ATOM     50  N   UNL     1      12.156   6.420   7.877  1.00  0.00    -0.354 N 
ATOM     51  N   UNL     1      12.002   7.587   5.189  1.00  0.00    -0.248 NA
ATOM     52  C   UNL     1      12.415   9.354   3.715  1.00  0.00     0.031 C 
ATOM     53  C   UNL     1      13.115   7.609   9.489  1.00  0.00     0.029 A 
ATOM     54  C   UNL     1      12.790   7.622   8.142  1.00  0.00     0.049 A 
ATOM     55  H   UNL     1      11.799   6.151   7.000  1.00  0.00     0.167 HD
ATOM     56  C   UNL     1      12.671   8.601   5.867  1.00  0.00     0.074 A 
ATOM     57  C   UNL     1      12.927   9.651   4.902  1.00  0.00     0.031 C 
ATOM     58  C   UNL     1      13.045   8.654   7.169  1.00  0.00     0.031 A 
BRANCH  45  59
ATOM     59  C   UNL     1      11.444   3.668  10.461  1.00  0.00    -0.014 A 
ATOM     60  C   UNL     1      12.221   2.527  10.733  1.00  0.00     0.010 A 
ATOM     61  C   UNL     1      10.626   4.194  11.477  1.00  0.00     0.010 A 
ATOM     62  C   UNL     1      12.144   1.897  11.978  1.00  0.00     0.020 A 
ATOM     63  C   UNL     1      10.569   3.585  12.734  1.00  0.00     0.020 A 
ATOM     64  C   UNL     1      11.313   2.427  12.969  1.00  0.00     0.054 A 
BRANCH  64  65
ATOM     65  S   UNL     1      11.241   1.597  14.580  1.00  0.00     0.124 S 
ATOM     66  O   UNL     1      10.450   0.408  14.270  1.00  0.00    -0.237 OA
ATOM     67  O   UNL     1      12.649   1.352  14.879  1.00  0.00    -0.237 OA
ATOM     68  O   UNL     1      10.584   2.574  15.445  1.00  0.00    -0.744 OA
ENDBRANCH  64  65
ENDBRANCH  45  59
BRANCH  46  69
ATOM     69  C   UNL     1      11.234   7.950   1.431  1.00  0.00    -0.014 A 
ATOM     70  C   UNL     1      12.420   8.150   0.701  1.00  0.00     0.010 A 
ATOM     71  C   UNL     1      10.011   8.363   0.873  1.00  0.00     0.010 A 
ATOM     72  C   UNL     1      12.386   8.769  -0.551  1.00  0.00     0.020 A 
ATOM     73  C   UNL     1       9.969   8.957  -0.392  1.00  0.00     0.020 A 
ATOM     74  C   UNL     1      11.159   9.168  -1.091  1.00  0.00     0.054 A 
BRANCH  74  75
ATOM     75  S   UNL     1      11.133   9.924  -2.740  1.00  0.00     0.124 S 
ATOM     76  O   UNL     1      11.667  11.255  -2.472  1.00  0.00    -0.237 OA
ATOM     77  O   UNL     1      12.002   9.035  -3.508  1.00  0.00    -0.237 OA
ATOM     78  O   UNL     1       9.722   9.877  -3.114  1.00  0.00    -0.744 OA
ENDBRANCH  74  75
ENDBRANCH  46  69
BRANCH  58  79
ATOM     79  C   UNL     1      13.823   9.862   7.618  1.00  0.00    -0.014 A 
ATOM     80  C   UNL     1      13.213  11.120   7.759  1.00  0.00     0.010 A 
ATOM     81  C   UNL     1      15.184   9.719   7.947  1.00  0.00     0.010 A 
ATOM     82  C   UNL     1      13.959  12.223   8.185  1.00  0.00     0.020 A 
ATOM     83  C   UNL     1      15.927  10.812   8.399  1.00  0.00     0.020 A 
ATOM     84  C   UNL     1      15.313  12.062   8.499  1.00  0.00     0.054 A 
BRANCH  84  85
ATOM     85  S   UNL     1      16.253  13.499   9.080  1.00  0.00     0.124 S 
ATOM     86  O   UNL     1      16.450  14.252   7.844  1.00  0.00    -0.237 OA
ATOM     87  O   UNL     1      15.346  14.108  10.049  1.00  0.00    -0.237 OA
ATOM     88  O   UNL     1      17.464  12.913   9.652  1.00  0.00    -0.744 OA
ENDBRANCH  84  85
ENDBRANCH  58  79
ENDBRANCH  32  33
ENDBRANCH  24  27
ENDBRANCH  22  23
ENDBRANCH   1  22
TORSDOF 16
