REMARK SMILES O=C(/C=C/c1ccccc1Oc1cccc(Cl)c1)NCCCNC(=O)c1ccc(-c2c3nc(c(-c4ccc(S(=O)(=O)[O-])cc4)c4ccc([nH]4)c(-c4ccc(S(=O)(=O)[O-])cc4)c4nc(c(-c5ccc(S(=O)(=O)[O-])cc5)c5ccc2[nH]5)C=C4)C=C3)cc1
REMARK SMILES IDX 21 1 20 2 19 3 1 4 2 5 3 7 4 8 5 9 6 10 10 11 7 12 9 13 8 14
REMARK SMILES IDX 11 15 12 16 13 17 18 18 14 19 16 20 15 21 17 22 22 23 23 24
REMARK SMILES IDX 24 25 25 27 26 28 27 29 85 30 28 31 84 32 29 33 30 34 31 35
REMARK SMILES IDX 78 36 32 37 83 38 77 39 79 40 33 41 82 42 76 43 75 44 34 46
REMARK SMILES IDX 64 47 45 48 63 49 46 50 49 51 62 52 80 53 47 54 48 55 61 57
REMARK SMILES IDX 81 58 50 59 35 60 36 61 44 62 37 63 43 64 38 65 39 66 40 67
REMARK SMILES IDX 41 68 42 69 65 70 66 71 74 72 67 73 73 74 68 75 69 76 70 77
REMARK SMILES IDX 71 78 72 79 51 80 52 81 60 82 53 83 59 84 54 85 55 86 56 87
REMARK SMILES IDX 57 88 58 89
REMARK H PARENT 19 6 23 26 79 45 49 56
REMARK Flexibility Score: inf
ROOT
ATOM      1  C   UNL     1       2.370  -0.599   3.560  1.00  0.00     0.042 C 
ENDROOT
BRANCH   1   2
ATOM      2  C   UNL     1       2.053   0.274   2.355  1.00  0.00     0.118 C 
BRANCH   2   3
ATOM      3  N   UNL     1       2.788  -0.109   1.168  1.00  0.00    -0.352 N 
ATOM      4  O   UNL     1       1.355  -1.774   0.506  1.00  0.00    -0.270 OA
ATOM      5  C   UNL     1       2.361  -1.099   0.320  1.00  0.00     0.244 C 
ATOM      6  H   UNL     1       3.629   0.360   0.962  1.00  0.00     0.163 HD
BRANCH   5   7
ATOM      7  C   UNL     1       3.134  -1.259  -0.941  1.00  0.00     0.072 C 
ATOM      8  C   UNL     1       4.351  -0.745  -1.174  1.00  0.00     0.017 C 
BRANCH   8   9
ATOM      9  C   UNL     1       5.009  -0.780  -2.487  1.00  0.00     0.017 A 
ATOM     10  C   UNL     1       6.185  -1.555  -2.537  1.00  0.00     0.012 A 
ATOM     11  C   UNL     1       4.607  -0.082  -3.645  1.00  0.00     0.134 A 
ATOM     12  C   UNL     1       6.941  -1.656  -3.705  1.00  0.00     0.001 A 
ATOM     13  C   UNL     1       5.378  -0.204  -4.816  1.00  0.00     0.048 A 
ATOM     14  C   UNL     1       6.536  -0.980  -4.848  1.00  0.00     0.004 A 
BRANCH  11  15
ATOM     15  O   UNL     1       3.494   0.708  -3.860  1.00  0.00    -0.457 OA
BRANCH  15  16
ATOM     16  C   UNL     1       2.781   1.253  -2.828  1.00  0.00     0.128 A 
ATOM     17  C   UNL     1       1.419   0.940  -2.772  1.00  0.00     0.047 A 
ATOM     18  C   UNL     1       3.341   2.138  -1.908  1.00  0.00     0.067 A 
ATOM     19  C   UNL     1       0.629   1.438  -1.738  1.00  0.00     0.005 A 
ATOM     20  C   UNL     1       2.545   2.626  -0.872  1.00  0.00     0.044 A 
ATOM     21  C   UNL     1       1.197   2.274  -0.777  1.00  0.00     0.021 A 
ATOM     22  Cl  UNL     1       3.249   3.621   0.343  1.00  0.00    -0.084 Cl
ENDBRANCH  15  16
ENDBRANCH  11  15
ENDBRANCH   8   9
ENDBRANCH   5   7
ENDBRANCH   2   3
ENDBRANCH   1   2
BRANCH   1  23
ATOM     23  C   UNL     1       3.846  -0.634   3.938  1.00  0.00     0.118 C 
BRANCH  23  24
ATOM     24  N   UNL     1       4.361   0.648   4.401  1.00  0.00    -0.352 N 
ATOM     25  C   UNL     1       5.123   0.938   5.507  1.00  0.00     0.251 C 
ATOM     26  H   UNL     1       4.128   1.421   3.838  1.00  0.00     0.163 HD
ATOM     27  O   UNL     1       5.361   2.113   5.784  1.00  0.00    -0.269 OA
BRANCH  25  28
ATOM     28  C   UNL     1       5.629  -0.144   6.384  1.00  0.00     0.039 A 
ATOM     29  C   UNL     1       5.576   0.038   7.769  1.00  0.00     0.014 A 
ATOM     30  C   UNL     1       6.154  -1.329   5.862  1.00  0.00     0.014 A 
ATOM     31  C   UNL     1       5.984  -0.991   8.622  1.00  0.00     0.010 A 
ATOM     32  C   UNL     1       6.477  -2.386   6.713  1.00  0.00     0.010 A 
ATOM     33  C   UNL     1       6.399  -2.230   8.103  1.00  0.00    -0.014 A 
BRANCH  33  34
ATOM     34  C   UNL     1       6.724  -3.361   9.015  1.00  0.00     0.031 A 
ATOM     35  C   UNL     1       8.108  -3.953   9.053  1.00  0.00     0.074 A 
ATOM     36  C   UNL     1       5.754  -3.874   9.799  1.00  0.00     0.049 A 
ATOM     37  N   UNL     1       8.576  -4.903   9.824  1.00  0.00    -0.248 NA
ATOM     38  C   UNL     1       9.089  -3.431   8.088  1.00  0.00     0.031 C 
ATOM     39  C   UNL     1       4.355  -3.436   9.812  1.00  0.00     0.029 A 
ATOM     40  N   UNL     1       5.795  -4.868  10.745  1.00  0.00    -0.354 N 
ATOM     41  C   UNL     1       9.897  -5.095   9.435  1.00  0.00     0.074 A 
ATOM     42  C   UNL     1      10.139  -4.206   8.320  1.00  0.00     0.031 C 
ATOM     43  C   UNL     1       3.688  -4.118  10.755  1.00  0.00     0.029 A 
ATOM     44  C   UNL     1       4.595  -5.070  11.387  1.00  0.00     0.049 A 
ATOM     45  H   UNL     1       6.607  -5.387  10.946  1.00  0.00     0.167 HD
ATOM     46  C   UNL     1      10.832  -5.917   9.971  1.00  0.00     0.031 A 
ATOM     47  C   UNL     1       4.260  -5.918  12.379  1.00  0.00     0.031 A 
ATOM     48  C   UNL     1      10.588  -6.804  11.080  1.00  0.00     0.049 A 
ATOM     49  C   UNL     1       5.318  -6.814  12.963  1.00  0.00     0.074 A 
ATOM     50  C   UNL     1      11.483  -7.637  11.729  1.00  0.00     0.029 A 
ATOM     51  N   UNL     1       9.361  -6.979  11.702  1.00  0.00    -0.354 N 
ATOM     52  N   UNL     1       6.583  -6.922  12.633  1.00  0.00    -0.248 NA
ATOM     53  C   UNL     1       4.904  -7.688  14.069  1.00  0.00     0.031 C 
ATOM     54  C   UNL     1      10.784  -8.359  12.703  1.00  0.00     0.029 A 
ATOM     55  C   UNL     1       9.469  -7.923  12.710  1.00  0.00     0.049 A 
ATOM     56  H   UNL     1       8.533  -6.502  11.462  1.00  0.00     0.167 HD
ATOM     57  C   UNL     1       7.124  -7.855  13.511  1.00  0.00     0.074 A 
ATOM     58  C   UNL     1       6.053  -8.259  14.400  1.00  0.00     0.031 C 
ATOM     59  C   UNL     1       8.393  -8.332  13.578  1.00  0.00     0.031 A 
BRANCH  46  60
ATOM     60  C   UNL     1      12.211  -5.900   9.358  1.00  0.00    -0.014 A 
ATOM     61  C   UNL     1      13.048  -4.774   9.478  1.00  0.00     0.010 A 
ATOM     62  C   UNL     1      12.697  -7.040   8.692  1.00  0.00     0.010 A 
ATOM     63  C   UNL     1      14.324  -4.773   8.907  1.00  0.00     0.020 A 
ATOM     64  C   UNL     1      13.985  -7.056   8.148  1.00  0.00     0.020 A 
ATOM     65  C   UNL     1      14.784  -5.915   8.245  1.00  0.00     0.054 A 
BRANCH  65  66
ATOM     66  S   UNL     1      16.454  -5.893   7.536  1.00  0.00     0.124 S 
ATOM     67  O   UNL     1      16.288  -4.986   6.403  1.00  0.00    -0.237 OA
ATOM     68  O   UNL     1      17.262  -5.380   8.638  1.00  0.00    -0.237 OA
ATOM     69  O   UNL     1      16.700  -7.289   7.184  1.00  0.00    -0.744 OA
ENDBRANCH  65  66
ENDBRANCH  46  60
BRANCH  47  70
ATOM     70  C   UNL     1       2.866  -5.935  12.905  1.00  0.00    -0.014 A 
ATOM     71  C   UNL     1       2.581  -5.469  14.201  1.00  0.00     0.010 A 
ATOM     72  C   UNL     1       1.812  -6.412  12.105  1.00  0.00     0.010 A 
ATOM     73  C   UNL     1       1.274  -5.502  14.695  1.00  0.00     0.020 A 
ATOM     74  C   UNL     1       0.498  -6.416  12.583  1.00  0.00     0.020 A 
ATOM     75  C   UNL     1       0.240  -5.972  13.881  1.00  0.00     0.054 A 
BRANCH  75  76
ATOM     76  S   UNL     1      -1.456  -5.959  14.525  1.00  0.00     0.124 S 
ATOM     77  O   UNL     1      -1.420  -7.044  15.500  1.00  0.00    -0.237 OA
ATOM     78  O   UNL     1      -1.572  -4.613  15.080  1.00  0.00    -0.237 OA
ATOM     79  O   UNL     1      -2.274  -6.209  13.341  1.00  0.00    -0.744 OA
ENDBRANCH  75  76
ENDBRANCH  47  70
BRANCH  59  80
ATOM     80  C   UNL     1       8.696  -9.321  14.675  1.00  0.00    -0.014 A 
ATOM     81  C   UNL     1       8.143 -10.614  14.675  1.00  0.00     0.010 A 
ATOM     82  C   UNL     1       9.552  -8.945  15.728  1.00  0.00     0.010 A 
ATOM     83  C   UNL     1       8.385 -11.487  15.740  1.00  0.00     0.020 A 
ATOM     84  C   UNL     1       9.826  -9.827  16.775  1.00  0.00     0.020 A 
ATOM     85  C   UNL     1       9.218 -11.084  16.788  1.00  0.00     0.054 A 
BRANCH  85  86
ATOM     86  S   UNL     1       9.505 -12.227  18.166  1.00  0.00     0.124 S 
ATOM     87  O   UNL     1       8.231 -12.171  18.877  1.00  0.00    -0.237 OA
ATOM     88  O   UNL     1       9.790 -13.487  17.483  1.00  0.00    -0.237 OA
ATOM     89  O   UNL     1      10.640 -11.639  18.874  1.00  0.00    -0.744 OA
ENDBRANCH  85  86
ENDBRANCH  59  80
ENDBRANCH  33  34
ENDBRANCH  25  28
ENDBRANCH  23  24
ENDBRANCH   1  23
TORSDOF 16
