REMARK SMILES Cc1cscc1CNC(=O)N[C@@H](C)c1nc(C(=O)NCCCNC(=O)c2ccc(-c3c4nc(c(-c5ccc(S(=O)(=O)[O-])cc5)c5ccc([nH]5)c(-c5ccc(S(=O)(=O)[O-])cc5)c5nc(c(-c6ccc(S(=O)(=O)[O-])cc6)c6ccc3[nH]6)C=C5)C=C4)cc2)cs1
REMARK SMILES IDX 20 1 19 2 17 3 18 4 16 6 14 7 15 8 87 9 86 10 12 11 13 12
REMARK SMILES IDX 11 13 8 14 9 15 10 17 7 19 6 20 1 21 2 22 3 23 4 24 5 25
REMARK SMILES IDX 21 26 22 27 23 28 24 29 25 31 26 32 27 33 85 34 28 35 84 36
REMARK SMILES IDX 29 37 30 38 31 39 78 40 32 41 83 42 77 43 79 44 33 45 82 46
REMARK SMILES IDX 76 47 75 48 34 50 64 51 45 52 63 53 46 54 49 55 62 56 80 57
REMARK SMILES IDX 47 58 48 59 61 61 81 62 50 63 35 64 36 65 44 66 37 67 43 68
REMARK SMILES IDX 38 69 39 70 40 71 41 72 42 73 65 74 66 75 74 76 67 77 73 78
REMARK SMILES IDX 68 79 69 80 70 81 71 82 72 83 51 84 52 85 60 86 53 87 59 88
REMARK SMILES IDX 54 89 55 90 56 91 57 92 58 93
REMARK H PARENT 19 5 8 16 11 18 23 30 79 49 49 60
REMARK Flexibility Score: inf
ROOT
ATOM      1  C   UNL     1      -2.192   7.851   3.621  1.00  0.00     0.118 C 
ENDROOT
BRANCH   1   2
ATOM      2  N   UNL     1      -3.317   7.078   4.119  1.00  0.00    -0.351 N 
ATOM      3  C   UNL     1      -3.546   5.722   4.120  1.00  0.00     0.270 C 
ATOM      4  O   UNL     1      -4.576   5.321   4.659  1.00  0.00    -0.267 OA
ATOM      5  H   UNL     1      -4.036   7.616   4.522  1.00  0.00     0.163 HD
BRANCH   3   6
ATOM      6  C   UNL     1      -2.569   4.791   3.538  1.00  0.00     0.139 A 
ATOM      7  C   UNL     1      -0.729   4.139   2.458  1.00  0.00     0.116 A 
ATOM      8  N   UNL     1      -1.478   5.178   2.766  1.00  0.00    -0.234 NA
ATOM      9  S   UNL     1      -1.317   2.626   3.016  1.00  0.00    -0.124 S 
ATOM     10  C   UNL     1      -2.655   3.420   3.724  1.00  0.00     0.101 A 
BRANCH   7  11
ATOM     11  C   UNL     1       0.571   4.230   1.695  1.00  0.00     0.140 C 
ATOM     12  C   UNL     1       1.566   5.110   2.453  1.00  0.00     0.039 C 
BRANCH  11  13
ATOM     13  N   UNL     1       0.284   4.829   0.402  1.00  0.00    -0.329 N 
ATOM     14  N   UNL     1       1.048   3.370  -1.291  1.00  0.00    -0.334 N 
ATOM     15  C   UNL     1       0.443   4.480  -0.872  1.00  0.00     0.315 C 
ATOM     16  H   UNL     1       1.010   3.271  -2.270  1.00  0.00     0.165 HD
ATOM     17  O   UNL     1      -0.020   5.235  -1.728  1.00  0.00    -0.249 OA
ATOM     18  H   UNL     1      -0.134   5.716   0.492  1.00  0.00     0.166 HD
BRANCH  14  19
ATOM     19  C   UNL     1       1.747   2.280  -0.658  1.00  0.00     0.154 C 
BRANCH  19  20
ATOM     20  C   UNL     1       0.824   1.121  -0.381  1.00  0.00    -0.015 A 
ATOM     21  C   UNL     1       2.717  -0.646  -0.040  1.00  0.00     0.045 C 
ATOM     22  C   UNL     1       1.283  -0.228  -0.102  1.00  0.00    -0.035 A 
ATOM     23  C   UNL     1       0.225  -1.096   0.094  1.00  0.00     0.068 A 
ATOM     24  S   UNL     1      -1.293  -0.332  -0.029  1.00  0.00    -0.152 S 
ATOM     25  C   UNL     1      -0.562   1.171  -0.363  1.00  0.00     0.070 A 
ENDBRANCH  19  20
ENDBRANCH  14  19
ENDBRANCH  11  13
ENDBRANCH   7  11
ENDBRANCH   3   6
ENDBRANCH   1   2
BRANCH   1  26
ATOM     26  C   UNL     1      -2.509   8.533   2.295  1.00  0.00     0.042 C 
BRANCH  26  27
ATOM     27  C   UNL     1      -3.510   9.680   2.433  1.00  0.00     0.118 C 
BRANCH  27  28
ATOM     28  N   UNL     1      -2.999  10.765   3.266  1.00  0.00    -0.352 N 
ATOM     29  C   UNL     1      -2.791  12.089   2.969  1.00  0.00     0.251 C 
ATOM     30  H   UNL     1      -2.767  10.506   4.187  1.00  0.00     0.163 HD
ATOM     31  O   UNL     1      -2.151  12.791   3.746  1.00  0.00    -0.269 OA
BRANCH  29  32
ATOM     32  C   UNL     1      -3.325  12.663   1.718  1.00  0.00     0.039 A 
ATOM     33  C   UNL     1      -2.515  13.515   0.961  1.00  0.00     0.014 A 
ATOM     34  C   UNL     1      -4.628  12.378   1.301  1.00  0.00     0.014 A 
ATOM     35  C   UNL     1      -2.985  14.018  -0.254  1.00  0.00     0.010 A 
ATOM     36  C   UNL     1      -5.070  12.826   0.060  1.00  0.00     0.010 A 
ATOM     37  C   UNL     1      -4.250  13.643  -0.733  1.00  0.00    -0.014 A 
BRANCH  37  38
ATOM     38  C   UNL     1      -4.728  14.062  -2.074  1.00  0.00     0.031 A 
ATOM     39  C   UNL     1      -5.937  14.947  -2.205  1.00  0.00     0.074 A 
ATOM     40  C   UNL     1      -4.124  13.571  -3.174  1.00  0.00     0.049 A 
ATOM     41  N   UNL     1      -6.564  15.330  -3.287  1.00  0.00    -0.248 NA
ATOM     42  C   UNL     1      -6.530  15.448  -0.955  1.00  0.00     0.031 C 
ATOM     43  C   UNL     1      -2.960  12.681  -3.176  1.00  0.00     0.029 A 
ATOM     44  N   UNL     1      -4.414  13.740  -4.504  1.00  0.00    -0.354 N 
ATOM     45  C   UNL     1      -7.634  16.101  -2.850  1.00  0.00     0.074 A 
ATOM     46  C   UNL     1      -7.596  16.096  -1.403  1.00  0.00     0.031 C 
ATOM     47  C   UNL     1      -2.622  12.402  -4.444  1.00  0.00     0.029 A 
ATOM     48  C   UNL     1      -3.571  13.050  -5.344  1.00  0.00     0.049 A 
ATOM     49  H   UNL     1      -5.155  14.302  -4.827  1.00  0.00     0.167 HD
ATOM     50  C   UNL     1      -8.557  16.766  -3.587  1.00  0.00     0.031 A 
ATOM     51  C   UNL     1      -3.569  12.939  -6.686  1.00  0.00     0.031 A 
ATOM     52  C   UNL     1      -8.590  16.767  -5.026  1.00  0.00     0.049 A 
ATOM     53  C   UNL     1      -4.626  13.654  -7.481  1.00  0.00     0.074 A 
ATOM     54  C   UNL     1      -9.457  17.444  -5.867  1.00  0.00     0.029 A 
ATOM     55  N   UNL     1      -7.723  16.051  -5.838  1.00  0.00    -0.354 N 
ATOM     56  N   UNL     1      -5.600  14.421  -7.053  1.00  0.00    -0.248 NA
ATOM     57  C   UNL     1      -4.582  13.490  -8.940  1.00  0.00     0.031 C 
ATOM     58  C   UNL     1      -9.143  17.099  -7.186  1.00  0.00     0.029 A 
ATOM     59  C   UNL     1      -8.047  16.250  -7.169  1.00  0.00     0.049 A 
ATOM     60  H   UNL     1      -6.984  15.485  -5.515  1.00  0.00     0.167 HD
ATOM     61  C   UNL     1      -6.270  14.852  -8.191  1.00  0.00     0.074 A 
ATOM     62  C   UNL     1      -5.584  14.269  -9.327  1.00  0.00     0.031 C 
ATOM     63  C   UNL     1      -7.355  15.659  -8.288  1.00  0.00     0.031 A 
BRANCH  50  64
ATOM     64  C   UNL     1      -9.612  17.539  -2.840  1.00  0.00    -0.014 A 
ATOM     65  C   UNL     1      -9.287  18.707  -2.128  1.00  0.00     0.010 A 
ATOM     66  C   UNL     1     -10.950  17.104  -2.866  1.00  0.00     0.010 A 
ATOM     67  C   UNL     1     -10.269  19.397  -1.411  1.00  0.00     0.020 A 
ATOM     68  C   UNL     1     -11.941  17.807  -2.174  1.00  0.00     0.020 A 
ATOM     69  C   UNL     1     -11.589  18.937  -1.433  1.00  0.00     0.054 A 
BRANCH  69  70
ATOM     70  S   UNL     1     -12.844  19.851  -0.494  1.00  0.00     0.124 S 
ATOM     71  O   UNL     1     -12.524  19.473   0.880  1.00  0.00    -0.237 OA
ATOM     72  O   UNL     1     -12.559  21.241  -0.844  1.00  0.00    -0.237 OA
ATOM     73  O   UNL     1     -14.108  19.330  -1.006  1.00  0.00    -0.744 OA
ENDBRANCH  69  70
ENDBRANCH  50  64
BRANCH  51  74
ATOM     74  C   UNL     1      -2.519  12.129  -7.361  1.00  0.00    -0.014 A 
ATOM     75  C   UNL     1      -1.500  12.762  -8.094  1.00  0.00     0.010 A 
ATOM     76  C   UNL     1      -2.513  10.726  -7.253  1.00  0.00     0.010 A 
ATOM     77  C   UNL     1      -0.502  12.008  -8.717  1.00  0.00     0.020 A 
ATOM     78  C   UNL     1      -1.502   9.970  -7.854  1.00  0.00     0.020 A 
ATOM     79  C   UNL     1      -0.508  10.616  -8.591  1.00  0.00     0.054 A 
BRANCH  79  80
ATOM     80  S   UNL     1       0.831   9.665  -9.365  1.00  0.00     0.124 S 
ATOM     81  O   UNL     1       0.483   9.748 -10.780  1.00  0.00    -0.237 OA
ATOM     82  O   UNL     1       2.021  10.410  -8.961  1.00  0.00    -0.237 OA
ATOM     83  O   UNL     1       0.702   8.339  -8.765  1.00  0.00    -0.744 OA
ENDBRANCH  79  80
ENDBRANCH  51  74
BRANCH  63  84
ATOM     84  C   UNL     1      -7.856  15.985  -9.669  1.00  0.00    -0.014 A 
ATOM     85  C   UNL     1      -8.551  15.033 -10.434  1.00  0.00     0.010 A 
ATOM     86  C   UNL     1      -7.684  17.285 -10.180  1.00  0.00     0.010 A 
ATOM     87  C   UNL     1      -9.050  15.369 -11.695  1.00  0.00     0.020 A 
ATOM     88  C   UNL     1      -8.203  17.632 -11.430  1.00  0.00     0.020 A 
ATOM     89  C   UNL     1      -8.874  16.668 -12.184  1.00  0.00     0.054 A 
BRANCH  89  90
ATOM     90  S   UNL     1      -9.585  17.097 -13.798  1.00  0.00     0.124 S 
ATOM     91  O   UNL     1      -8.673  16.424 -14.720  1.00  0.00    -0.237 OA
ATOM     92  O   UNL     1     -10.929  16.530 -13.718  1.00  0.00    -0.237 OA
ATOM     93  O   UNL     1      -9.532  18.557 -13.823  1.00  0.00    -0.744 OA
ENDBRANCH  89  90
ENDBRANCH  63  84
ENDBRANCH  37  38
ENDBRANCH  29  32
ENDBRANCH  27  28
ENDBRANCH  26  27
ENDBRANCH   1  26
TORSDOF 17
