REMARK SMILES CNC(=O)c1ccc(-n2nc(C)c(C(=O)NCCCNC(=O)c3ccc(-c4c5nc(c(-c6ccc(S(=O)(=O)[O-])cc6)c6ccc([nH]6)c(-c6ccc(S(=O)(=O)[O-])cc6)c6nc(c(-c7ccc(S(=O)(=O)[O-])cc7)c7ccc4[nH]7)C=C6)C=C5)cc3)c2C)nn1
REMARK SMILES IDX 18 1 17 2 16 3 14 4 15 5 13 7 9 8 10 9 83 10 11 11 84 12
REMARK SMILES IDX 12 13 8 14 5 15 6 16 86 17 7 18 85 19 3 20 1 21 2 22 4 24
REMARK SMILES IDX 19 25 20 26 21 27 22 29 23 30 24 31 82 32 25 33 81 34 26 35
REMARK SMILES IDX 27 36 28 37 75 38 29 39 80 40 74 41 76 42 30 43 79 44 73 45
REMARK SMILES IDX 72 46 31 48 61 49 42 50 60 51 43 52 46 53 59 54 77 55 44 56
REMARK SMILES IDX 45 57 58 59 78 60 47 61 32 62 33 63 41 64 34 65 40 66 35 67
REMARK SMILES IDX 36 68 37 69 38 70 39 71 62 72 63 73 71 74 64 75 70 76 65 77
REMARK SMILES IDX 66 78 67 79 68 80 69 81 48 82 49 83 57 84 50 85 56 86 51 87
REMARK SMILES IDX 52 88 53 89 54 90 55 91
REMARK H PARENT 16 6 2 23 20 28 76 47 46 58
REMARK Flexibility Score: inf
ROOT
ATOM      1  C   UNL     1      -6.339   4.760  -0.364  1.00  0.00     0.042 C 
ENDROOT
BRANCH   1   2
ATOM      2  C   UNL     1      -5.676   5.586  -1.476  1.00  0.00     0.118 C 
BRANCH   2   3
ATOM      3  N   UNL     1      -5.447   6.957  -1.062  1.00  0.00    -0.352 N 
ATOM      4  C   UNL     1      -4.399   7.615  -0.468  1.00  0.00     0.255 C 
ATOM      5  O   UNL     1      -4.563   8.828  -0.340  1.00  0.00    -0.269 OA
ATOM      6  H   UNL     1      -6.213   7.546  -1.248  1.00  0.00     0.163 HD
BRANCH   4   7
ATOM      7  C   UNL     1      -3.139   6.980  -0.061  1.00  0.00     0.084 A 
ATOM      8  N   UNL     1      -1.444   5.649   0.518  1.00  0.00    -0.217 N 
ATOM      9  N   UNL     1      -0.904   6.872   0.565  1.00  0.00    -0.171 NA
ATOM     10  C   UNL     1      -2.814   5.681   0.318  1.00  0.00     0.056 A 
ATOM     11  C   UNL     1      -1.906   7.687   0.200  1.00  0.00     0.073 A 
ATOM     12  C   UNL     1      -3.598   4.468   0.645  1.00  0.00     0.068 C 
ATOM     13  C   UNL     1      -1.627   9.151   0.159  1.00  0.00     0.069 C 
BRANCH   8  14
ATOM     14  C   UNL     1      -0.697   4.458   0.720  1.00  0.00     0.175 A 
ATOM     15  C   UNL     1      -0.237   1.888   1.457  1.00  0.00     0.150 A 
ATOM     16  C   UNL     1      -0.669   2.130   0.162  1.00  0.00     0.040 A 
ATOM     17  N   UNL     1      -0.009   2.889   2.340  1.00  0.00    -0.143 NA
ATOM     18  C   UNL     1      -0.879   3.446  -0.223  1.00  0.00     0.053 A 
ATOM     19  N   UNL     1      -0.240   4.196   1.966  1.00  0.00    -0.130 NA
BRANCH  15  20
ATOM     20  C   UNL     1      -0.092   0.499   1.962  1.00  0.00     0.271 C 
ATOM     21  C   UNL     1       1.358  -0.260   0.009  1.00  0.00     0.143 C 
ATOM     22  N   UNL     1       0.572  -0.444   1.207  1.00  0.00    -0.354 N 
ATOM     23  H   UNL     1       0.500  -1.371   1.529  1.00  0.00     0.163 HD
ATOM     24  O   UNL     1      -0.593   0.162   3.032  1.00  0.00    -0.267 OA
ENDBRANCH  15  20
ENDBRANCH   8  14
ENDBRANCH   4   7
ENDBRANCH   2   3
ENDBRANCH   1   2
BRANCH   1  25
ATOM     25  C   UNL     1      -7.797   4.471  -0.573  1.00  0.00     0.118 C 
BRANCH  25  26
ATOM     26  N   UNL     1      -8.021   3.488  -1.645  1.00  0.00    -0.352 N 
ATOM     27  C   UNL     1      -9.234   3.014  -2.143  1.00  0.00     0.251 C 
ATOM     28  H   UNL     1      -7.211   3.118  -2.065  1.00  0.00     0.163 HD
ATOM     29  O   UNL     1      -9.300   1.969  -2.754  1.00  0.00    -0.269 OA
BRANCH  27  30
ATOM     30  C   UNL     1     -10.425   3.849  -1.897  1.00  0.00     0.039 A 
ATOM     31  C   UNL     1     -11.681   3.358  -1.535  1.00  0.00     0.014 A 
ATOM     32  C   UNL     1     -10.174   5.205  -1.894  1.00  0.00     0.014 A 
ATOM     33  C   UNL     1     -12.646   4.281  -1.126  1.00  0.00     0.010 A 
ATOM     34  C   UNL     1     -10.914   5.961  -1.054  1.00  0.00     0.010 A 
ATOM     35  C   UNL     1     -12.233   5.597  -0.896  1.00  0.00    -0.014 A 
BRANCH  35  36
ATOM     36  C   UNL     1     -13.072   6.695  -0.454  1.00  0.00     0.031 A 
ATOM     37  C   UNL     1     -13.537   6.564   0.943  1.00  0.00     0.074 A 
ATOM     38  C   UNL     1     -13.051   7.880  -1.113  1.00  0.00     0.049 A 
ATOM     39  N   UNL     1     -14.712   6.224   1.353  1.00  0.00    -0.248 NA
ATOM     40  C   UNL     1     -12.520   6.605   2.012  1.00  0.00     0.031 C 
ATOM     41  C   UNL     1     -12.255   8.266  -2.294  1.00  0.00     0.029 A 
ATOM     42  N   UNL     1     -13.626   9.056  -0.766  1.00  0.00    -0.354 N 
ATOM     43  C   UNL     1     -14.643   6.291   2.739  1.00  0.00     0.074 A 
ATOM     44  C   UNL     1     -13.243   6.218   3.064  1.00  0.00     0.031 C 
ATOM     45  C   UNL     1     -12.218   9.613  -2.403  1.00  0.00     0.029 A 
ATOM     46  C   UNL     1     -13.120  10.178  -1.417  1.00  0.00     0.049 A 
ATOM     47  H   UNL     1     -14.350   9.114  -0.102  1.00  0.00     0.167 HD
ATOM     48  C   UNL     1     -15.690   6.752   3.481  1.00  0.00     0.031 A 
ATOM     49  C   UNL     1     -13.398  11.476  -1.128  1.00  0.00     0.031 A 
ATOM     50  C   UNL     1     -16.873   6.913   2.666  1.00  0.00     0.049 A 
ATOM     51  C   UNL     1     -14.647  11.469  -0.320  1.00  0.00     0.074 A 
ATOM     52  C   UNL     1     -17.615   6.077   1.856  1.00  0.00     0.029 A 
ATOM     53  N   UNL     1     -17.171   8.197   2.260  1.00  0.00    -0.354 N 
ATOM     54  N   UNL     1     -15.795  11.051  -0.783  1.00  0.00    -0.248 NA
ATOM     55  C   UNL     1     -14.517  11.437   1.129  1.00  0.00     0.031 C 
ATOM     56  C   UNL     1     -17.927   6.864   0.707  1.00  0.00     0.029 A 
ATOM     57  C   UNL     1     -17.451   8.161   0.917  1.00  0.00     0.049 A 
ATOM     58  H   UNL     1     -17.181   8.998   2.833  1.00  0.00     0.167 HD
ATOM     59  C   UNL     1     -16.349  10.304   0.250  1.00  0.00     0.074 A 
ATOM     60  C   UNL     1     -15.563  10.660   1.432  1.00  0.00     0.031 C 
ATOM     61  C   UNL     1     -17.183   9.250  -0.005  1.00  0.00     0.031 A 
BRANCH  48  62
ATOM     62  C   UNL     1     -15.541   7.471   4.804  1.00  0.00    -0.014 A 
ATOM     63  C   UNL     1     -16.709   7.868   5.486  1.00  0.00     0.010 A 
ATOM     64  C   UNL     1     -14.321   7.995   5.282  1.00  0.00     0.010 A 
ATOM     65  C   UNL     1     -16.663   8.805   6.527  1.00  0.00     0.020 A 
ATOM     66  C   UNL     1     -14.259   8.893   6.347  1.00  0.00     0.020 A 
ATOM     67  C   UNL     1     -15.436   9.323   6.938  1.00  0.00     0.054 A 
BRANCH  67  68
ATOM     68  S   UNL     1     -15.395  10.617   8.200  1.00  0.00     0.124 S 
ATOM     69  O   UNL     1     -16.056  11.722   7.514  1.00  0.00    -0.237 OA
ATOM     70  O   UNL     1     -16.145  10.005   9.292  1.00  0.00    -0.237 OA
ATOM     71  O   UNL     1     -13.967  10.799   8.455  1.00  0.00    -0.744 OA
ENDBRANCH  67  68
ENDBRANCH  48  62
BRANCH  49  72
ATOM     72  C   UNL     1     -12.488  12.650  -1.215  1.00  0.00    -0.014 A 
ATOM     73  C   UNL     1     -12.976  13.970  -1.154  1.00  0.00     0.010 A 
ATOM     74  C   UNL     1     -11.094  12.469  -1.088  1.00  0.00     0.010 A 
ATOM     75  C   UNL     1     -12.110  15.057  -0.920  1.00  0.00     0.020 A 
ATOM     76  C   UNL     1     -10.226  13.545  -0.858  1.00  0.00     0.020 A 
ATOM     77  C   UNL     1     -10.741  14.834  -0.753  1.00  0.00     0.054 A 
BRANCH  77  78
ATOM     78  S   UNL     1      -9.653  16.216  -0.282  1.00  0.00     0.124 S 
ATOM     79  O   UNL     1      -9.625  17.020  -1.500  1.00  0.00    -0.237 OA
ATOM     80  O   UNL     1     -10.361  16.808   0.849  1.00  0.00    -0.237 OA
ATOM     81  O   UNL     1      -8.391  15.560   0.057  1.00  0.00    -0.744 OA
ENDBRANCH  77  78
ENDBRANCH  49  72
BRANCH  61  82
ATOM     82  C   UNL     1     -17.705   9.065  -1.416  1.00  0.00    -0.014 A 
ATOM     83  C   UNL     1     -16.887   8.794  -2.533  1.00  0.00     0.010 A 
ATOM     84  C   UNL     1     -19.099   8.994  -1.583  1.00  0.00     0.010 A 
ATOM     85  C   UNL     1     -17.451   8.485  -3.782  1.00  0.00     0.020 A 
ATOM     86  C   UNL     1     -19.666   8.671  -2.817  1.00  0.00     0.020 A 
ATOM     87  C   UNL     1     -18.841   8.427  -3.915  1.00  0.00     0.054 A 
BRANCH  87  88
ATOM     88  S   UNL     1     -19.572   7.991  -5.519  1.00  0.00     0.124 S 
ATOM     89  O   UNL     1     -19.248   9.153  -6.342  1.00  0.00    -0.237 OA
ATOM     90  O   UNL     1     -18.873   6.757  -5.872  1.00  0.00    -0.237 OA
ATOM     91  O   UNL     1     -20.994   7.823  -5.220  1.00  0.00    -0.744 OA
ENDBRANCH  87  88
ENDBRANCH  61  82
ENDBRANCH  35  36
ENDBRANCH  27  30
ENDBRANCH  25  26
ENDBRANCH   1  25
TORSDOF 15
