REMARK SMILES Cn1ncc(C(=O)NCc2ccc(F)cc2)c1C(=O)NCCCNC(=O)c1ccc(-c2c3nc(c(-c4ccc(S(=O)(=O)[O-])cc4)c4ccc([nH]4)c(-c4ccc(S(=O)(=O)[O-])cc4)c4nc(c(-c5ccc(S(=O)(=O)[O-])cc5)c5ccc2[nH]5)C=C4)C=C3)cc1
REMARK SMILES IDX 22 1 21 2 20 3 18 4 19 5 17 7 1 8 2 9 3 10 4 11 5 12 6 13
REMARK SMILES IDX 7 14 8 15 9 17 10 18 11 19 16 20 12 21 15 22 13 23 14 24
REMARK SMILES IDX 23 25 24 26 25 27 26 29 27 30 28 31 86 32 29 33 85 34 30 35
REMARK SMILES IDX 31 36 32 37 79 38 33 39 84 40 78 41 80 42 34 43 83 44 77 45
REMARK SMILES IDX 76 46 35 48 65 49 46 50 64 51 47 52 50 53 63 54 81 55 48 56
REMARK SMILES IDX 49 57 62 59 82 60 51 61 36 62 37 63 45 64 38 65 44 66 39 67
REMARK SMILES IDX 40 68 41 69 42 70 43 71 66 72 67 73 75 74 68 75 74 76 69 77
REMARK SMILES IDX 70 78 71 79 72 80 73 81 52 82 53 83 61 84 54 85 60 86 55 87
REMARK SMILES IDX 56 88 57 89 58 90 59 91
REMARK H PARENT 20 6 8 16 24 28 80 47 50 58
REMARK Flexibility Score: inf
ROOT
ATOM      1  C   UNL     1      -3.997  -2.000  -0.373  1.00  0.00     0.042 C 
ENDROOT
BRANCH   1   2
ATOM      2  C   UNL     1      -3.031  -1.901   0.806  1.00  0.00     0.118 C 
BRANCH   2   3
ATOM      3  N   UNL     1      -1.682  -2.277   0.412  1.00  0.00    -0.351 N 
ATOM      4  C   UNL     1      -0.560  -1.766   1.031  1.00  0.00     0.270 C 
ATOM      5  O   UNL     1      -0.111  -2.361   2.006  1.00  0.00    -0.268 OA
ATOM      6  H   UNL     1      -1.565  -2.920  -0.324  1.00  0.00     0.163 HD
BRANCH   4   7
ATOM      7  C   UNL     1       0.180  -0.755   0.308  1.00  0.00     0.138 A 
ATOM      8  C   UNL     1      -1.677   0.878  -0.330  1.00  0.00     0.174 C 
ATOM      9  N   UNL     1      -0.312   0.427  -0.209  1.00  0.00    -0.262 N 
ATOM     10  N   UNL     1       0.641   1.288  -0.602  1.00  0.00    -0.180 NA
ATOM     11  C   UNL     1       1.766   0.603  -0.444  1.00  0.00     0.149 A 
ATOM     12  C   UNL     1       1.554  -0.712   0.037  1.00  0.00     0.090 A 
BRANCH  12  13
ATOM     13  C   UNL     1       2.661  -1.644   0.215  1.00  0.00     0.255 C 
ATOM     14  O   UNL     1       3.786  -1.220   0.489  1.00  0.00    -0.269 OA
ATOM     15  N   UNL     1       2.567  -2.985  -0.051  1.00  0.00    -0.348 N 
ATOM     16  H   UNL     1       3.433  -3.453  -0.073  1.00  0.00     0.164 HD
BRANCH  15  17
ATOM     17  C   UNL     1       1.434  -3.831  -0.302  1.00  0.00     0.152 C 
BRANCH  17  18
ATOM     18  C   UNL     1       1.551  -4.688  -1.533  1.00  0.00    -0.029 A 
ATOM     19  C   UNL     1       1.642  -6.084  -1.431  1.00  0.00     0.008 A 
ATOM     20  C   UNL     1       1.415  -4.099  -2.802  1.00  0.00     0.008 A 
ATOM     21  C   UNL     1       1.555  -6.879  -2.575  1.00  0.00     0.039 A 
ATOM     22  C   UNL     1       1.324  -4.897  -3.943  1.00  0.00     0.039 A 
ATOM     23  C   UNL     1       1.385  -6.279  -3.817  1.00  0.00     0.123 A 
ATOM     24  F   UNL     1       1.263  -7.046  -4.908  1.00  0.00    -0.207 F 
ENDBRANCH  17  18
ENDBRANCH  15  17
ENDBRANCH  12  13
ENDBRANCH   4   7
ENDBRANCH   2   3
ENDBRANCH   1   2
BRANCH   1  25
ATOM     25  C   UNL     1      -4.421  -3.431  -0.700  1.00  0.00     0.118 C 
BRANCH  25  26
ATOM     26  N   UNL     1      -5.367  -3.946   0.277  1.00  0.00    -0.352 N 
ATOM     27  C   UNL     1      -6.721  -4.151   0.171  1.00  0.00     0.251 C 
ATOM     28  H   UNL     1      -4.976  -4.184   1.149  1.00  0.00     0.163 HD
ATOM     29  O   UNL     1      -7.378  -4.321   1.196  1.00  0.00    -0.269 OA
BRANCH  27  30
ATOM     30  C   UNL     1      -7.396  -4.167  -1.148  1.00  0.00     0.039 A 
ATOM     31  C   UNL     1      -8.660  -3.577  -1.267  1.00  0.00     0.014 A 
ATOM     32  C   UNL     1      -6.836  -4.828  -2.245  1.00  0.00     0.014 A 
ATOM     33  C   UNL     1      -9.336  -3.610  -2.490  1.00  0.00     0.010 A 
ATOM     34  C   UNL     1      -7.484  -4.807  -3.480  1.00  0.00     0.010 A 
ATOM     35  C   UNL     1      -8.745  -4.208  -3.614  1.00  0.00    -0.014 A 
BRANCH  35  36
ATOM     36  C   UNL     1      -9.438  -4.240  -4.929  1.00  0.00     0.031 A 
ATOM     37  C   UNL     1      -9.877  -5.552  -5.522  1.00  0.00     0.074 A 
ATOM     38  C   UNL     1      -9.617  -3.097  -5.621  1.00  0.00     0.049 A 
ATOM     39  N   UNL     1     -10.412  -5.792  -6.692  1.00  0.00    -0.248 NA
ATOM     40  C   UNL     1      -9.667  -6.756  -4.701  1.00  0.00     0.031 C 
ATOM     41  C   UNL     1      -9.214  -1.762  -5.174  1.00  0.00     0.029 A 
ATOM     42  N   UNL     1     -10.178  -2.879  -6.854  1.00  0.00    -0.354 N 
ATOM     43  C   UNL     1     -10.575  -7.171  -6.760  1.00  0.00     0.074 A 
ATOM     44  C   UNL     1     -10.055  -7.718  -5.525  1.00  0.00     0.031 C 
ATOM     45  C   UNL     1      -9.557  -0.863  -6.111  1.00  0.00     0.029 A 
ATOM     46  C   UNL     1     -10.173  -1.558  -7.237  1.00  0.00     0.049 A 
ATOM     47  H   UNL     1     -10.550  -3.600  -7.412  1.00  0.00     0.167 HD
ATOM     48  C   UNL     1     -11.119  -7.915  -7.753  1.00  0.00     0.031 A 
ATOM     49  C   UNL     1     -10.608  -0.972  -8.369  1.00  0.00     0.031 A 
ATOM     50  C   UNL     1     -11.662  -7.372  -8.969  1.00  0.00     0.049 A 
ATOM     51  C   UNL     1     -11.225  -1.815  -9.449  1.00  0.00     0.074 A 
ATOM     52  C   UNL     1     -12.281  -8.042 -10.011  1.00  0.00     0.029 A 
ATOM     53  N   UNL     1     -11.659  -6.027  -9.305  1.00  0.00    -0.354 N 
ATOM     54  N   UNL     1     -11.402  -3.114  -9.477  1.00  0.00    -0.248 NA
ATOM     55  C   UNL     1     -11.707  -1.112 -10.646  1.00  0.00     0.031 C 
ATOM     56  C   UNL     1     -12.626  -7.103 -10.990  1.00  0.00     0.029 A 
ATOM     57  C   UNL     1     -12.256  -5.846 -10.540  1.00  0.00     0.049 A 
ATOM     58  H   UNL     1     -11.287  -5.307  -8.746  1.00  0.00     0.167 HD
ATOM     59  C   UNL     1     -12.037  -3.382 -10.684  1.00  0.00     0.074 A 
ATOM     60  C   UNL     1     -12.221  -2.110 -11.354  1.00  0.00     0.031 C 
ATOM     61  C   UNL     1     -12.433  -4.574 -11.192  1.00  0.00     0.031 A 
BRANCH  48  62
ATOM     62  C   UNL     1     -11.146  -9.408  -7.563  1.00  0.00    -0.014 A 
ATOM     63  C   UNL     1     -12.039 -10.006  -6.655  1.00  0.00     0.010 A 
ATOM     64  C   UNL     1     -10.288 -10.225  -8.319  1.00  0.00     0.010 A 
ATOM     65  C   UNL     1     -12.041 -11.391  -6.474  1.00  0.00     0.020 A 
ATOM     66  C   UNL     1     -10.303 -11.614  -8.158  1.00  0.00     0.020 A 
ATOM     67  C   UNL     1     -11.166 -12.186  -7.221  1.00  0.00     0.054 A 
BRANCH  67  68
ATOM     68  S   UNL     1     -11.190 -13.983  -6.974  1.00  0.00     0.124 S 
ATOM     69  O   UNL     1     -10.444 -14.124  -5.726  1.00  0.00    -0.237 OA
ATOM     70  O   UNL     1     -12.618 -14.279  -6.888  1.00  0.00    -0.237 OA
ATOM     71  O   UNL     1     -10.520 -14.504  -8.163  1.00  0.00    -0.744 OA
ENDBRANCH  67  68
ENDBRANCH  48  62
BRANCH  49  72
ATOM     72  C   UNL     1     -10.494   0.502  -8.527  1.00  0.00    -0.014 A 
ATOM     73  C   UNL     1     -11.633   1.316  -8.407  1.00  0.00     0.010 A 
ATOM     74  C   UNL     1      -9.245   1.099  -8.774  1.00  0.00     0.010 A 
ATOM     75  C   UNL     1     -11.529   2.703  -8.539  1.00  0.00     0.020 A 
ATOM     76  C   UNL     1      -9.133   2.488  -8.887  1.00  0.00     0.020 A 
ATOM     77  C   UNL     1     -10.278   3.280  -8.777  1.00  0.00     0.054 A 
BRANCH  77  78
ATOM     78  S   UNL     1     -10.150   5.088  -8.878  1.00  0.00     0.124 S 
ATOM     79  O   UNL     1     -10.625   5.350 -10.233  1.00  0.00    -0.237 OA
ATOM     80  O   UNL     1     -11.032   5.530  -7.801  1.00  0.00    -0.237 OA
ATOM     81  O   UNL     1      -8.729   5.339  -8.649  1.00  0.00    -0.744 OA
ENDBRANCH  77  78
ENDBRANCH  49  72
BRANCH  61  82
ATOM     82  C   UNL     1     -13.132  -4.560 -12.522  1.00  0.00    -0.014 A 
ATOM     83  C   UNL     1     -12.412  -4.386 -13.716  1.00  0.00     0.010 A 
ATOM     84  C   UNL     1     -14.521  -4.775 -12.579  1.00  0.00     0.010 A 
ATOM     85  C   UNL     1     -13.074  -4.403 -14.947  1.00  0.00     0.020 A 
ATOM     86  C   UNL     1     -15.182  -4.812 -13.809  1.00  0.00     0.020 A 
ATOM     87  C   UNL     1     -14.456  -4.613 -14.985  1.00  0.00     0.054 A 
BRANCH  87  88
ATOM     88  S   UNL     1     -15.290  -4.679 -16.595  1.00  0.00     0.124 S 
ATOM     89  O   UNL     1     -15.401  -3.264 -16.937  1.00  0.00    -0.237 OA
ATOM     90  O   UNL     1     -14.357  -5.452 -17.412  1.00  0.00    -0.237 OA
ATOM     91  O   UNL     1     -16.553  -5.352 -16.301  1.00  0.00    -0.744 OA
ENDBRANCH  87  88
ENDBRANCH  61  82
ENDBRANCH  35  36
ENDBRANCH  27  30
ENDBRANCH  25  26
ENDBRANCH   1  25
TORSDOF 16
