REMARK SMILES CC(C)[NH2+][C@@]1(C(=O)NCCCNC(=O)c2ccc(-c3c4nc(c(-c5ccc(S(=O)(=O)[O-])cc5)c5ccc([nH]5)c(-c5ccc(S(=O)(=O)[O-])cc5)c5nc(c(-c6ccc(S(=O)(=O)[O-])cc6)c6ccc3[nH]6)C=C5)C=C4)cc2)CC[C@@H](Sc2cccc(Br)c2)C1
REMARK SMILES IDX 10 1 9 2 8 3 6 4 7 5 5 7 75 8 86 9 76 10 77 11 4 12 2 15
REMARK SMILES IDX 1 16 3 17 78 18 79 19 80 20 85 21 81 22 83 23 82 24 84 25
REMARK SMILES IDX 11 26 12 27 13 28 14 30 15 31 16 32 74 33 17 34 73 35 18 36
REMARK SMILES IDX 19 37 20 38 67 39 21 40 72 41 66 42 68 43 22 44 71 45 65 46
REMARK SMILES IDX 64 47 23 49 53 50 34 51 52 52 35 53 38 54 51 55 69 56 36 57
REMARK SMILES IDX 37 58 50 60 70 61 39 62 24 63 25 64 33 65 26 66 32 67 27 68
REMARK SMILES IDX 28 69 29 70 30 71 31 72 54 73 55 74 63 75 56 76 62 77 57 78
REMARK SMILES IDX 58 79 59 80 60 81 61 82 40 83 41 84 49 85 42 86 48 87 43 88
REMARK SMILES IDX 44 89 45 90 46 91 47 92
REMARK H PARENT 8 6 4 13 4 14 12 29 68 48 38 59
REMARK Flexibility Score: inf
ROOT
ATOM      1  C   UNL     1      -1.649  -5.556   4.117  1.00  0.00     0.042 C 
ENDROOT
BRANCH   1   2
ATOM      2  C   UNL     1      -2.586  -4.427   3.721  1.00  0.00     0.118 C 
BRANCH   2   3
ATOM      3  N   UNL     1      -1.954  -3.133   3.735  1.00  0.00    -0.351 N 
ATOM      4  C   UNL     1      -1.610  -2.289   2.735  1.00  0.00     0.281 C 
ATOM      5  O   UNL     1      -1.501  -1.103   3.089  1.00  0.00    -0.268 OA
ATOM      6  H   UNL     1      -1.732  -2.803   4.635  1.00  0.00     0.163 HD
BRANCH   4   7
ATOM      7  C   UNL     1      -1.408  -2.678   1.215  1.00  0.00     0.176 C 
ATOM      8  C   UNL     1      -2.778  -2.841   0.525  1.00  0.00     0.080 C 
ATOM      9  C   UNL     1      -0.649  -3.973   0.885  1.00  0.00     0.094 C 
ATOM     10  C   UNL     1      -3.003  -4.326   0.241  1.00  0.00     0.022 C 
ATOM     11  C   UNL     1      -1.684  -5.042   0.527  1.00  0.00     0.058 C 
BRANCH   7  12
ATOM     12  N   UNL     1      -0.771  -1.476   0.577  1.00  0.00    -0.332 N 
ATOM     13  H   UNL     1      -1.032  -1.486  -0.409  1.00  0.00     0.347 HD
ATOM     14  H   UNL     1      -1.117  -0.692   1.130  1.00  0.00     0.347 HD
BRANCH  12  15
ATOM     15  C   UNL     1       0.693  -1.331   0.635  1.00  0.00     0.176 C 
ATOM     16  C   UNL     1       1.035   0.005  -0.038  1.00  0.00     0.075 C 
ATOM     17  C   UNL     1       1.319  -1.357   2.031  1.00  0.00     0.075 C 
ENDBRANCH  12  15
ENDBRANCH   7  12
BRANCH  11  18
ATOM     18  S   UNL     1      -1.093  -6.249  -0.728  1.00  0.00    -0.122 SA
BRANCH  18  19
ATOM     19  C   UNL     1      -1.562  -5.466  -2.254  1.00  0.00     0.009 A 
ATOM     20  C   UNL     1      -2.671  -5.957  -2.954  1.00  0.00     0.015 A 
ATOM     21  C   UNL     1      -0.863  -4.365  -2.752  1.00  0.00     0.030 A 
ATOM     22  C   UNL     1      -3.109  -5.324  -4.118  1.00  0.00     0.002 A 
ATOM     23  C   UNL     1      -1.302  -3.739  -3.917  1.00  0.00     0.019 A 
ATOM     24  C   UNL     1      -2.426  -4.207  -4.598  1.00  0.00     0.016 A 
ATOM     25  Br  UNL     1      -0.370  -2.231  -4.574  1.00  0.00    -0.051 Br
ENDBRANCH  18  19
ENDBRANCH  11  18
ENDBRANCH   4   7
ENDBRANCH   2   3
ENDBRANCH   1   2
BRANCH   1  26
ATOM     26  C   UNL     1      -1.454  -5.663   5.623  1.00  0.00     0.118 C 
BRANCH  26  27
ATOM     27  N   UNL     1      -2.703  -5.972   6.313  1.00  0.00    -0.352 N 
ATOM     28  C   UNL     1      -3.084  -7.096   6.997  1.00  0.00     0.251 C 
ATOM     29  H   UNL     1      -3.380  -5.258   6.282  1.00  0.00     0.163 HD
ATOM     30  O   UNL     1      -4.279  -7.259   7.264  1.00  0.00    -0.269 OA
BRANCH  28  31
ATOM     31  C   UNL     1      -2.088  -8.100   7.413  1.00  0.00     0.039 A 
ATOM     32  C   UNL     1      -2.431  -9.454   7.392  1.00  0.00     0.014 A 
ATOM     33  C   UNL     1      -0.824  -7.706   7.860  1.00  0.00     0.014 A 
ATOM     34  C   UNL     1      -1.487 -10.412   7.764  1.00  0.00     0.010 A 
ATOM     35  C   UNL     1       0.145  -8.663   8.131  1.00  0.00     0.010 A 
ATOM     36  C   UNL     1      -0.180 -10.025   8.102  1.00  0.00    -0.014 A 
BRANCH  36  37
ATOM     37  C   UNL     1       0.860 -11.027   8.438  1.00  0.00     0.031 A 
ATOM     38  C   UNL     1       1.503 -11.023   9.799  1.00  0.00     0.074 A 
ATOM     39  C   UNL     1       1.273 -11.893   7.492  1.00  0.00     0.049 A 
ATOM     40  N   UNL     1       2.464 -11.782  10.258  1.00  0.00    -0.248 NA
ATOM     41  C   UNL     1       1.025 -10.014  10.759  1.00  0.00     0.031 C 
ATOM     42  C   UNL     1       0.766 -11.951   6.118  1.00  0.00     0.029 A 
ATOM     43  N   UNL     1       2.218 -12.886   7.539  1.00  0.00    -0.354 N 
ATOM     44  C   UNL     1       2.717 -11.331  11.549  1.00  0.00     0.074 A 
ATOM     45  C   UNL     1       1.854 -10.194  11.776  1.00  0.00     0.031 C 
ATOM     46  C   UNL     1       1.382 -12.949   5.464  1.00  0.00     0.029 A 
ATOM     47  C   UNL     1       2.355 -13.572   6.356  1.00  0.00     0.049 A 
ATOM     48  H   UNL     1       2.747 -13.088   8.344  1.00  0.00     0.167 HD
ATOM     49  C   UNL     1       3.571 -11.835  12.472  1.00  0.00     0.031 A 
ATOM     50  C   UNL     1       3.175 -14.586   6.022  1.00  0.00     0.031 A 
ATOM     51  C   UNL     1       4.421 -12.971  12.238  1.00  0.00     0.049 A 
ATOM     52  C   UNL     1       4.111 -15.134   7.062  1.00  0.00     0.074 A 
ATOM     53  C   UNL     1       5.284 -13.597  13.120  1.00  0.00     0.029 A 
ATOM     54  N   UNL     1       4.516 -13.652  11.033  1.00  0.00    -0.354 N 
ATOM     55  N   UNL     1       4.285 -14.740   8.302  1.00  0.00    -0.248 NA
ATOM     56  C   UNL     1       4.948 -16.273   6.665  1.00  0.00     0.031 C 
ATOM     57  C   UNL     1       5.940 -14.624  12.431  1.00  0.00     0.029 A 
ATOM     58  C   UNL     1       5.440 -14.677  11.139  1.00  0.00     0.049 A 
ATOM     59  H   UNL     1       4.002 -13.437  10.221  1.00  0.00     0.167 HD
ATOM     60  C   UNL     1       5.241 -15.594   8.839  1.00  0.00     0.074 A 
ATOM     61  C   UNL     1       5.589 -16.539   7.795  1.00  0.00     0.031 C 
ATOM     62  C   UNL     1       5.782 -15.598  10.083  1.00  0.00     0.031 A 
BRANCH  49  63
ATOM     63  C   UNL     1       3.622 -11.149  13.814  1.00  0.00    -0.014 A 
ATOM     64  C   UNL     1       2.525 -11.194  14.695  1.00  0.00     0.010 A 
ATOM     65  C   UNL     1       4.783 -10.458  14.206  1.00  0.00     0.010 A 
ATOM     66  C   UNL     1       2.566 -10.513  15.915  1.00  0.00     0.020 A 
ATOM     67  C   UNL     1       4.840  -9.803  15.441  1.00  0.00     0.020 A 
ATOM     68  C   UNL     1       3.722  -9.817  16.277  1.00  0.00     0.054 A 
BRANCH  68  69
ATOM     69  S   UNL     1       3.747  -8.943  17.866  1.00  0.00     0.124 S 
ATOM     70  O   UNL     1       2.874  -7.803  17.595  1.00  0.00    -0.237 OA
ATOM     71  O   UNL     1       3.209  -9.939  18.788  1.00  0.00    -0.237 OA
ATOM     72  O   UNL     1       5.157  -8.615  18.060  1.00  0.00    -0.744 OA
ENDBRANCH  68  69
ENDBRANCH  49  63
BRANCH  50  73
ATOM     73  C   UNL     1       3.121 -15.154   4.648  1.00  0.00    -0.014 A 
ATOM     74  C   UNL     1       2.564 -16.424   4.420  1.00  0.00     0.010 A 
ATOM     75  C   UNL     1       3.582 -14.403   3.551  1.00  0.00     0.010 A 
ATOM     76  C   UNL     1       2.475 -16.936   3.123  1.00  0.00     0.020 A 
ATOM     77  C   UNL     1       3.470 -14.900   2.249  1.00  0.00     0.020 A 
ATOM     78  C   UNL     1       2.923 -16.168   2.044  1.00  0.00     0.054 A 
BRANCH  78  79
ATOM     79  S   UNL     1       2.728 -16.823   0.363  1.00  0.00     0.124 S 
ATOM     80  O   UNL     1       3.748 -17.865   0.323  1.00  0.00    -0.237 OA
ATOM     81  O   UNL     1       1.344 -17.291   0.367  1.00  0.00    -0.237 OA
ATOM     82  O   UNL     1       2.982 -15.662  -0.487  1.00  0.00    -0.744 OA
ENDBRANCH  78  79
ENDBRANCH  50  73
BRANCH  62  83
ATOM     83  C   UNL     1       6.796 -16.668  10.389  1.00  0.00    -0.014 A 
ATOM     84  C   UNL     1       8.084 -16.632   9.825  1.00  0.00     0.010 A 
ATOM     85  C   UNL     1       6.469 -17.697  11.290  1.00  0.00     0.010 A 
ATOM     86  C   UNL     1       9.015 -17.628  10.130  1.00  0.00     0.020 A 
ATOM     87  C   UNL     1       7.407 -18.677  11.621  1.00  0.00     0.020 A 
ATOM     88  C   UNL     1       8.670 -18.645  11.026  1.00  0.00     0.054 A 
BRANCH  88  89
ATOM     89  S   UNL     1       9.908 -19.905  11.434  1.00  0.00     0.124 S 
ATOM     90  O   UNL     1       9.940 -20.706  10.213  1.00  0.00    -0.237 OA
ATOM     91  O   UNL     1      11.104 -19.107  11.694  1.00  0.00    -0.237 OA
ATOM     92  O   UNL     1       9.347 -20.577  12.604  1.00  0.00    -0.744 OA
ENDBRANCH  88  89
ENDBRANCH  62  83
ENDBRANCH  36  37
ENDBRANCH  28  31
ENDBRANCH  26  27
ENDBRANCH   1  26
TORSDOF 17
