REMARK SMILES CCOC(=O)c1c(NC(=O)[C@@H]2[C@@H]3CC[C@@H](C3)[C@@H]2C(=O)NCCCNC(=O)c2ccc(-c3c4nc(c(-c5ccc(S(=O)(=O)[O-])cc5)c5ccc([nH]5)c(-c5ccc(S(=O)(=O)[O-])cc5)c5nc(c(-c6ccc(S(=O)(=O)[O-])cc6)c6ccc3[nH]6)C=C5)C=C4)cc2)sc2c1CCCC2
REMARK SMILES IDX 21 1 20 2 18 3 19 4 17 6 11 7 12 8 13 9 16 10 15 11 14 12
REMARK SMILES IDX 9 13 8 14 10 16 7 17 6 18 89 19 87 20 88 21 90 22 93 23
REMARK SMILES IDX 91 24 92 25 4 26 5 27 3 28 2 29 1 30 22 31 23 32 24 33 25 34
REMARK SMILES IDX 26 36 27 37 28 38 86 39 29 40 85 41 30 42 31 43 32 44 79 45
REMARK SMILES IDX 33 46 84 47 78 48 80 49 34 50 83 51 77 52 76 53 35 55 65 56
REMARK SMILES IDX 46 57 64 58 47 59 50 60 63 61 81 62 48 63 49 64 62 66 82 67
REMARK SMILES IDX 51 68 36 69 37 70 45 71 38 72 44 73 39 74 40 75 41 76 42 77
REMARK SMILES IDX 43 78 66 79 67 80 75 81 68 82 74 83 69 84 70 85 71 86 72 87
REMARK SMILES IDX 73 88 52 89 53 90 61 91 54 92 60 93 55 94 56 95 57 96 58 97
REMARK SMILES IDX 59 98
REMARK H PARENT 20 5 8 15 24 35 80 54 50 65
REMARK Flexibility Score: inf
ROOT
ATOM      1  C   UNL     1       6.356   0.744   2.885  1.00  0.00     0.117 C 
ENDROOT
BRANCH   1   2
ATOM      2  N   UNL     1       5.064  -0.949   2.696  1.00  0.00    -0.356 N 
ATOM      3  C   UNL     1       3.714  -1.492   2.333  1.00  0.00     0.224 C 
ATOM      4  O   UNL     1       3.492  -2.647   2.726  1.00  0.00    -0.275 OA
ATOM      5  H   UNL     1       5.600  -1.727   2.975  1.00  0.00     0.163 HD
BRANCH   3   6
ATOM      6  C   UNL     1       2.584  -0.748   1.430  1.00  0.00     0.094 C 
ATOM      7  C   UNL     1       2.014   0.705   1.601  1.00  0.00     0.094 C 
ATOM      8  C   UNL     1       0.609   0.665   0.958  1.00  0.00     0.002 C 
ATOM      9  C   UNL     1      -0.429  -0.045   1.819  1.00  0.00     0.005 C 
ATOM     10  C   UNL     1       0.816  -0.406  -0.106  1.00  0.00     0.009 C 
ATOM     11  C   UNL     1       1.307  -1.471   0.917  1.00  0.00     0.002 C 
ATOM     12  C   UNL     1       0.141  -1.464   1.921  1.00  0.00     0.005 C 
BRANCH   7  13
ATOM     13  C   UNL     1       2.061   1.253   2.990  1.00  0.00     0.229 C 
ATOM     14  N   UNL     1       3.277   1.217   3.569  1.00  0.00    -0.317 N 
ATOM     15  H   UNL     1       3.360   1.527   4.500  1.00  0.00     0.170 HD
ATOM     16  O   UNL     1       1.109   1.718   3.604  1.00  0.00    -0.274 OA
BRANCH  14  17
ATOM     17  C   UNL     1       4.404   0.772   2.929  1.00  0.00     0.110 A 
ATOM     18  C   UNL     1       5.145   0.395   1.305  1.00  0.00     0.098 A 
ATOM     19  C   UNL     1       6.659  -0.789   1.495  1.00  0.00    -0.017 A 
ATOM     20  S   UNL     1       5.578  -0.353   4.630  1.00  0.00    -0.122 S 
ATOM     21  C   UNL     1       7.047  -1.213   3.086  1.00  0.00     0.011 A 
ATOM     22  C   UNL     1       7.669  -1.083   0.422  1.00  0.00     0.038 C 
ATOM     23  C   UNL     1       8.419  -1.636   3.530  1.00  0.00     0.047 C 
ATOM     24  C   UNL     1       8.855  -1.903   0.983  1.00  0.00     0.005 C 
ATOM     25  C   UNL     1       9.395  -1.399   2.343  1.00  0.00     0.006 C 
BRANCH  18  26
ATOM     26  C   UNL     1       4.736   0.597  -0.102  1.00  0.00     0.341 C 
ATOM     27  O   UNL     1       4.269   1.620  -0.574  1.00  0.00    -0.246 OA
BRANCH  26  28
ATOM     28  O   UNL     1       4.886  -0.596  -0.775  1.00  0.00    -0.462 OA
BRANCH  28  29
ATOM     29  C   UNL     1       4.347  -0.831  -2.093  1.00  0.00     0.230 C 
ATOM     30  C   UNL     1       3.355  -1.999  -2.094  1.00  0.00     0.049 C 
ENDBRANCH  28  29
ENDBRANCH  26  28
ENDBRANCH  18  26
ENDBRANCH  14  17
ENDBRANCH   7  13
ENDBRANCH   3   6
ENDBRANCH   1   2
BRANCH   1  31
ATOM     31  C   UNL     1       6.046   2.378   3.514  1.00  0.00     0.042 C 
BRANCH  31  32
ATOM     32  C   UNL     1       5.942   2.641   5.029  1.00  0.00     0.118 C 
BRANCH  32  33
ATOM     33  N   UNL     1       7.126   2.222   5.763  1.00  0.00    -0.352 N 
ATOM     34  C   UNL     1       7.548   2.646   6.997  1.00  0.00     0.251 C 
ATOM     35  H   UNL     1       7.694   1.552   5.319  1.00  0.00     0.163 HD
ATOM     36  O   UNL     1       8.626   2.279   7.450  1.00  0.00    -0.269 OA
BRANCH  34  37
ATOM     37  C   UNL     1       6.688   3.564   7.761  1.00  0.00     0.039 A 
ATOM     38  C   UNL     1       7.163   4.841   8.061  1.00  0.00     0.014 A 
ATOM     39  C   UNL     1       5.415   3.155   8.171  1.00  0.00     0.014 A 
ATOM     40  C   UNL     1       6.343   5.727   8.758  1.00  0.00     0.010 A 
ATOM     41  C   UNL     1       4.584   4.057   8.830  1.00  0.00     0.010 A 
ATOM     42  C   UNL     1       5.044   5.348   9.136  1.00  0.00    -0.014 A 
BRANCH  42  43
ATOM     43  C   UNL     1       4.171   6.298   9.869  1.00  0.00     0.031 A 
ATOM     44  C   UNL     1       3.815   6.039  11.306  1.00  0.00     0.074 A 
ATOM     45  C   UNL     1       3.695   7.385   9.230  1.00  0.00     0.049 A 
ATOM     46  N   UNL     1       3.088   6.762  12.118  1.00  0.00    -0.248 NA
ATOM     47  C   UNL     1       4.329   4.796  11.906  1.00  0.00     0.031 C 
ATOM     48  C   UNL     1       3.951   7.719   7.827  1.00  0.00     0.029 A 
ATOM     49  N   UNL     1       2.903   8.412   9.676  1.00  0.00    -0.354 N 
ATOM     50  C   UNL     1       3.051   6.062  13.319  1.00  0.00     0.074 A 
ATOM     51  C   UNL     1       3.785   4.832  13.114  1.00  0.00     0.031 C 
ATOM     52  C   UNL     1       3.354   8.886   7.536  1.00  0.00     0.029 A 
ATOM     53  C   UNL     1       2.645   9.366   8.718  1.00  0.00     0.049 A 
ATOM     54  H   UNL     1       2.552   8.462  10.594  1.00  0.00     0.167 HD
ATOM     55  C   UNL     1       2.474   6.420  14.491  1.00  0.00     0.031 A 
ATOM     56  C   UNL     1       1.919  10.499   8.787  1.00  0.00     0.031 A 
ATOM     57  C   UNL     1       1.745   7.646  14.680  1.00  0.00     0.049 A 
ATOM     58  C   UNL     1       1.274  10.867  10.095  1.00  0.00     0.074 A 
ATOM     59  C   UNL     1       1.157   8.129  15.836  1.00  0.00     0.029 A 
ATOM     60  N   UNL     1       1.498   8.582  13.685  1.00  0.00    -0.354 N 
ATOM     61  N   UNL     1       1.309  10.226  11.240  1.00  0.00    -0.248 NA
ATOM     62  C   UNL     1       0.503  12.116  10.127  1.00  0.00     0.031 C 
ATOM     63  C   UNL     1       0.507   9.328  15.526  1.00  0.00     0.029 A 
ATOM     64  C   UNL     1       0.745   9.626  14.193  1.00  0.00     0.049 A 
ATOM     65  H   UNL     1       1.813   8.512  12.755  1.00  0.00     0.167 HD
ATOM     66  C   UNL     1       0.587  11.008  12.135  1.00  0.00     0.074 A 
ATOM     67  C   UNL     1       0.144  12.177  11.402  1.00  0.00     0.031 C 
ATOM     68  C   UNL     1       0.313  10.780  13.444  1.00  0.00     0.031 A 
BRANCH  55  69
ATOM     69  C   UNL     1       2.602   5.468  15.652  1.00  0.00    -0.014 A 
ATOM     70  C   UNL     1       3.843   5.243  16.276  1.00  0.00     0.010 A 
ATOM     71  C   UNL     1       1.460   4.813  16.150  1.00  0.00     0.010 A 
ATOM     72  C   UNL     1       3.948   4.348  17.346  1.00  0.00     0.020 A 
ATOM     73  C   UNL     1       1.556   3.941  17.239  1.00  0.00     0.020 A 
ATOM     74  C   UNL     1       2.803   3.701  17.819  1.00  0.00     0.054 A 
BRANCH  74  75
ATOM     75  S   UNL     1       2.967   2.563  19.222  1.00  0.00     0.124 S 
ATOM     76  O   UNL     1       3.661   1.431  18.612  1.00  0.00    -0.237 OA
ATOM     77  O   UNL     1       3.754   3.341  20.175  1.00  0.00    -0.237 OA
ATOM     78  O   UNL     1       1.587   2.303  19.623  1.00  0.00    -0.744 OA
ENDBRANCH  74  75
ENDBRANCH  55  69
BRANCH  56  79
ATOM     79  C   UNL     1       1.780  11.370   7.586  1.00  0.00    -0.014 A 
ATOM     80  C   UNL     1       2.388  12.637   7.544  1.00  0.00     0.010 A 
ATOM     81  C   UNL     1       1.047  10.929   6.469  1.00  0.00     0.010 A 
ATOM     82  C   UNL     1       2.249  13.454   6.417  1.00  0.00     0.020 A 
ATOM     83  C   UNL     1       0.930  11.730   5.329  1.00  0.00     0.020 A 
ATOM     84  C   UNL     1       1.522  12.994   5.316  1.00  0.00     0.054 A 
BRANCH  84  85
ATOM     85  S   UNL     1       1.395  14.053   3.847  1.00  0.00     0.124 S 
ATOM     86  O   UNL     1       0.487  15.099   4.304  1.00  0.00    -0.237 OA
ATOM     87  O   UNL     1       2.781  14.464   3.635  1.00  0.00    -0.237 OA
ATOM     88  O   UNL     1       0.857  13.158   2.825  1.00  0.00    -0.744 OA
ENDBRANCH  84  85
ENDBRANCH  56  79
BRANCH  68  89
ATOM     89  C   UNL     1      -0.476  11.831  14.177  1.00  0.00    -0.014 A 
ATOM     90  C   UNL     1      -1.846  12.025  13.924  1.00  0.00     0.010 A 
ATOM     91  C   UNL     1       0.152  12.596  15.177  1.00  0.00     0.010 A 
ATOM     92  C   UNL     1      -2.565  12.989  14.636  1.00  0.00     0.020 A 
ATOM     93  C   UNL     1      -0.571  13.538  15.912  1.00  0.00     0.020 A 
ATOM     94  C   UNL     1      -1.922  13.739  15.626  1.00  0.00     0.054 A 
BRANCH  94  95
ATOM     95  S   UNL     1      -2.889  14.951  16.567  1.00  0.00     0.124 S 
ATOM     96  O   UNL     1      -3.089  16.010  15.582  1.00  0.00    -0.237 OA
ATOM     97  O   UNL     1      -4.085  14.194  16.928  1.00  0.00    -0.237 OA
ATOM     98  O   UNL     1      -2.017  15.298  17.686  1.00  0.00    -0.744 OA
ENDBRANCH  94  95
ENDBRANCH  68  89
ENDBRANCH  42  43
ENDBRANCH  34  37
ENDBRANCH  32  33
ENDBRANCH  31  32
ENDBRANCH   1  31
TORSDOF 18
