REMARK SMILES Cc1cc(C(=O)NCCCNC(=O)c2ccc(-c3c4nc(c(-c5ccc(S(=O)(=O)[O-])cc5)c5ccc([nH]5)c(-c5ccc(S(=O)(=O)[O-])cc5)c5nc(c(-c6ccc(S(=O)(=O)[O-])cc6)c6ccc3[nH]6)C=C5)C=C4)cc2)ccc1NC(=O)c1ccc(=O)n(CCOc2ccccc2)n1
REMARK SMILES IDX 5 1 6 2 7 3 4 5 1 6 2 7 3 8 76 9 75 10 74 11 77 12 78 13
REMARK SMILES IDX 79 15 80 16 81 17 95 18 82 19 85 20 83 21 84 22 86 23 87 24
REMARK SMILES IDX 88 25 89 26 90 27 94 28 91 29 93 30 92 31 8 32 9 33 10 34
REMARK SMILES IDX 11 35 12 36 13 38 14 39 15 40 73 41 16 42 72 43 17 44 18 45
REMARK SMILES IDX 19 46 66 47 20 48 71 49 65 50 67 51 21 52 70 53 64 54 63 55
REMARK SMILES IDX 22 57 52 58 33 59 51 60 34 61 37 62 50 63 68 64 35 65 36 66
REMARK SMILES IDX 49 68 69 69 38 70 23 71 24 72 32 73 25 74 31 75 26 76 27 77
REMARK SMILES IDX 28 78 29 79 30 80 53 81 54 82 62 83 55 84 61 85 56 86 57 87
REMARK SMILES IDX 58 88 59 89 60 90 39 91 40 92 48 93 41 94 47 95 42 96 43 97
REMARK SMILES IDX 44 98 45 99 46 100
REMARK H PARENT 7 4 77 14 11 37 67 56 37 67
REMARK Flexibility Score: inf
ROOT
ATOM      1  C   UNL     1      -1.608  -2.289   0.150  1.00  0.00     0.251 C 
ATOM      2  O   UNL     1      -1.171  -3.438   0.150  1.00  0.00    -0.269 OA
ATOM      3  N   UNL     1      -2.939  -1.990   0.424  1.00  0.00    -0.352 N 
ATOM      4  H   UNL     1      -3.544  -2.759   0.310  1.00  0.00     0.163 HD
ENDROOT
BRANCH   1   5
ATOM      5  C   UNL     1      -0.656  -1.192  -0.138  1.00  0.00     0.040 A 
ATOM      6  C   UNL     1       2.961  -0.144   0.415  1.00  0.00     0.046 C 
ATOM      7  C   UNL     1       1.479  -0.040   0.174  1.00  0.00    -0.027 A 
ATOM      8  C   UNL     1       0.690  -1.212   0.262  1.00  0.00     0.019 A 
ATOM      9  C   UNL     1       0.850   1.148  -0.224  1.00  0.00     0.044 A 
ATOM     10  C   UNL     1      -0.334   1.026  -0.942  1.00  0.00     0.027 A 
ATOM     11  C   UNL     1      -1.092  -0.133  -0.907  1.00  0.00     0.016 A 
BRANCH   9  12
ATOM     12  N   UNL     1       1.376   2.406   0.157  1.00  0.00    -0.320 N 
ATOM     13  C   UNL     1       0.723   3.608   0.406  1.00  0.00     0.276 C 
ATOM     14  H   UNL     1       2.354   2.434   0.262  1.00  0.00     0.170 HD
ATOM     15  O   UNL     1       1.329   4.611   0.770  1.00  0.00    -0.267 OA
BRANCH  13  16
ATOM     16  C   UNL     1      -0.772   3.718   0.198  1.00  0.00     0.149 A 
ATOM     17  C   UNL     1      -1.143   4.205  -1.145  1.00  0.00     0.042 A 
ATOM     18  N   UNL     1      -1.616   3.362   1.127  1.00  0.00    -0.164 NA
ATOM     19  C   UNL     1      -2.311   3.756  -1.583  1.00  0.00     0.076 A 
ATOM     20  N   UNL     1      -2.937   3.190   0.688  1.00  0.00    -0.226 N 
ATOM     21  C   UNL     1      -3.177   2.965  -0.679  1.00  0.00     0.266 A 
ATOM     22  O   UNL     1      -4.039   2.299  -1.191  1.00  0.00    -0.268 OA
BRANCH  20  23
ATOM     23  C   UNL     1      -3.962   2.892   1.712  1.00  0.00     0.190 C 
BRANCH  23  24
ATOM     24  C   UNL     1      -4.652   4.114   2.351  1.00  0.00     0.253 C 
BRANCH  24  25
ATOM     25  O   UNL     1      -5.936   4.459   1.764  1.00  0.00    -0.492 OA
BRANCH  25  26
ATOM     26  C   UNL     1      -5.830   5.356   0.742  1.00  0.00     0.119 A 
ATOM     27  C   UNL     1      -6.220   6.676   0.900  1.00  0.00     0.046 A 
ATOM     28  C   UNL     1      -5.450   4.927  -0.516  1.00  0.00     0.046 A 
ATOM     29  C   UNL     1      -6.040   7.581  -0.155  1.00  0.00     0.004 A 
ATOM     30  C   UNL     1      -5.164   5.826  -1.539  1.00  0.00     0.004 A 
ATOM     31  C   UNL     1      -5.444   7.170  -1.349  1.00  0.00     0.000 A 
ENDBRANCH  25  26
ENDBRANCH  24  25
ENDBRANCH  23  24
ENDBRANCH  20  23
ENDBRANCH  13  16
ENDBRANCH   9  12
ENDBRANCH   1   5
BRANCH   3  32
ATOM     32  C   UNL     1      -3.636  -0.746   0.853  1.00  0.00     0.118 C 
BRANCH  32  33
ATOM     33  C   UNL     1      -4.905  -0.174   0.016  1.00  0.00     0.042 C 
BRANCH  33  34
ATOM     34  C   UNL     1      -6.329  -0.676   0.488  1.00  0.00     0.118 C 
BRANCH  34  35
ATOM     35  N   UNL     1      -7.823  -0.376  -0.042  1.00  0.00    -0.352 N 
ATOM     36  C   UNL     1      -9.138  -1.038  -0.308  1.00  0.00     0.251 C 
ATOM     37  H   UNL     1      -7.895   0.579  -0.270  1.00  0.00     0.163 HD
ATOM     38  O   UNL     1     -10.058  -0.516   0.356  1.00  0.00    -0.269 OA
BRANCH  36  39
ATOM     39  C   UNL     1      -9.706  -2.225  -1.285  1.00  0.00     0.039 A 
ATOM     40  C   UNL     1     -10.643  -3.222  -0.831  1.00  0.00     0.014 A 
ATOM     41  C   UNL     1      -9.305  -2.494  -2.588  1.00  0.00     0.014 A 
ATOM     42  C   UNL     1     -10.599  -4.602  -1.341  1.00  0.00     0.010 A 
ATOM     43  C   UNL     1      -9.235  -3.845  -3.078  1.00  0.00     0.010 A 
ATOM     44  C   UNL     1      -9.628  -4.946  -2.303  1.00  0.00    -0.014 A 
BRANCH  44  45
ATOM     45  C   UNL     1      -8.741  -6.233  -2.282  1.00  0.00     0.031 A 
ATOM     46  C   UNL     1      -8.949  -7.214  -3.336  1.00  0.00     0.074 A 
ATOM     47  C   UNL     1      -7.642  -6.594  -1.527  1.00  0.00     0.049 A 
ATOM     48  N   UNL     1      -9.299  -8.447  -3.172  1.00  0.00    -0.248 NA
ATOM     49  C   UNL     1      -8.724  -6.813  -4.715  1.00  0.00     0.031 C 
ATOM     50  C   UNL     1      -6.728  -7.759  -1.506  1.00  0.00     0.029 A 
ATOM     51  N   UNL     1      -7.037  -5.898  -0.502  1.00  0.00    -0.354 N 
ATOM     52  C   UNL     1      -9.006  -9.042  -4.382  1.00  0.00     0.074 A 
ATOM     53  C   UNL     1      -8.977  -7.959  -5.343  1.00  0.00     0.031 C 
ATOM     54  C   UNL     1      -6.088  -7.822  -0.304  1.00  0.00     0.029 A 
ATOM     55  C   UNL     1      -6.573  -6.724   0.510  1.00  0.00     0.049 A 
ATOM     56  H   UNL     1      -6.944  -4.918  -0.490  1.00  0.00     0.167 HD
ATOM     57  C   UNL     1      -8.418 -10.276  -4.453  1.00  0.00     0.031 A 
ATOM     58  C   UNL     1      -7.238  -6.734   1.716  1.00  0.00     0.031 A 
ATOM     59  C   UNL     1      -7.984 -10.763  -3.128  1.00  0.00     0.049 A 
ATOM     60  C   UNL     1      -8.010  -8.018   1.853  1.00  0.00     0.074 A 
ATOM     61  C   UNL     1      -6.734 -11.017  -2.574  1.00  0.00     0.029 A 
ATOM     62  N   UNL     1      -8.865 -10.743  -2.051  1.00  0.00    -0.354 N 
ATOM     63  N   UNL     1      -8.061  -8.908   0.908  1.00  0.00    -0.248 NA
ATOM     64  C   UNL     1      -8.811  -8.400   3.005  1.00  0.00     0.031 C 
ATOM     65  C   UNL     1      -6.877 -11.106  -1.156  1.00  0.00     0.029 A 
ATOM     66  C   UNL     1      -8.215 -10.950  -0.845  1.00  0.00     0.049 A 
ATOM     67  H   UNL     1      -9.835 -10.598  -2.136  1.00  0.00     0.167 HD
ATOM     68  C   UNL     1      -8.837  -9.960   1.266  1.00  0.00     0.074 A 
ATOM     69  C   UNL     1      -9.298  -9.589   2.598  1.00  0.00     0.031 C 
ATOM     70  C   UNL     1      -8.995 -11.007   0.402  1.00  0.00     0.031 A 
BRANCH  57  71
ATOM     71  C   UNL     1      -7.950 -10.879  -5.775  1.00  0.00    -0.014 A 
ATOM     72  C   UNL     1      -7.057 -11.967  -5.804  1.00  0.00     0.010 A 
ATOM     73  C   UNL     1      -8.412 -10.445  -7.037  1.00  0.00     0.010 A 
ATOM     74  C   UNL     1      -6.612 -12.537  -7.014  1.00  0.00     0.020 A 
ATOM     75  C   UNL     1      -7.931 -10.953  -8.250  1.00  0.00     0.020 A 
ATOM     76  C   UNL     1      -7.041 -12.014  -8.233  1.00  0.00     0.054 A 
BRANCH  76  77
ATOM     77  S   UNL     1      -6.509 -12.782  -9.785  1.00  0.00     0.124 S 
ATOM     78  O   UNL     1      -5.054 -12.688  -9.708  1.00  0.00    -0.237 OA
ATOM     79  O   UNL     1      -7.062 -14.128  -9.672  1.00  0.00    -0.237 OA
ATOM     80  O   UNL     1      -7.125 -11.948 -10.817  1.00  0.00    -0.744 OA
ENDBRANCH  76  77
ENDBRANCH  57  71
BRANCH  58  81
ATOM     81  C   UNL     1      -7.775  -5.372   2.231  1.00  0.00    -0.014 A 
ATOM     82  C   UNL     1      -6.785  -4.427   2.562  1.00  0.00     0.010 A 
ATOM     83  C   UNL     1      -8.773  -4.876   1.418  1.00  0.00     0.010 A 
ATOM     84  C   UNL     1      -6.345  -3.505   1.595  1.00  0.00     0.020 A 
ATOM     85  C   UNL     1      -8.289  -4.000   0.433  1.00  0.00     0.020 A 
ATOM     86  C   UNL     1      -7.049  -3.426   0.401  1.00  0.00     0.054 A 
BRANCH  86  87
ATOM     87  S   UNL     1      -6.196  -3.029  -1.470  1.00  0.00     0.124 S 
ATOM     88  O   UNL     1      -4.796  -2.947  -1.098  1.00  0.00    -0.237 OA
ATOM     89  O   UNL     1      -6.490  -4.191  -2.297  1.00  0.00    -0.237 OA
ATOM     90  O   UNL     1      -6.776  -1.795  -1.969  1.00  0.00    -0.744 OA
ENDBRANCH  86  87
ENDBRANCH  58  81
BRANCH  70  91
ATOM     91  C   UNL     1      -9.872 -12.216   0.606  1.00  0.00    -0.014 A 
ATOM     92  C   UNL     1     -10.558 -12.524   1.783  1.00  0.00     0.010 A 
ATOM     93  C   UNL     1     -10.023 -13.129  -0.469  1.00  0.00     0.010 A 
ATOM     94  C   UNL     1     -11.394 -13.643   1.867  1.00  0.00     0.020 A 
ATOM     95  C   UNL     1     -10.862 -14.237  -0.408  1.00  0.00     0.020 A 
ATOM     96  C   UNL     1     -11.550 -14.483   0.767  1.00  0.00     0.054 A 
BRANCH  96  97
ATOM     97  S   UNL     1     -12.651 -15.901   0.908  1.00  0.00     0.124 S 
ATOM     98  O   UNL     1     -12.015 -16.675   1.971  1.00  0.00    -0.237 OA
ATOM     99  O   UNL     1     -13.920 -15.270   1.264  1.00  0.00    -0.237 OA
ATOM    100  O   UNL     1     -12.611 -16.512  -0.418  1.00  0.00    -0.744 OA
ENDBRANCH  96  97
ENDBRANCH  70  91
ENDBRANCH  44  45
ENDBRANCH  36  39
ENDBRANCH  34  35
ENDBRANCH  33  34
ENDBRANCH  32  33
ENDBRANCH   3  32
TORSDOF 19
