REMARK SMILES CC(C)C[C@H](NS(=O)(=O)N1C[C@@H](C)C[C@H](C)C1)C(=O)NCCCNC(=O)c1ccc(-c2c3nc(c(-c4ccc(S(=O)(=O)[O-])cc4)c4ccc([nH]4)c(-c4ccc(S(=O)(=O)[O-])cc4)c4nc(c(-c5ccc(S(=O)(=O)[O-])cc5)c5ccc2[nH]5)C=C4)C=C3)cc1
REMARK SMILES IDX 22 1 21 2 20 3 18 4 19 5 5 7 4 8 2 9 1 10 3 11 6 12 7 14
REMARK SMILES IDX 8 15 9 16 10 17 11 18 17 19 12 20 15 21 13 22 14 23 16 24
REMARK SMILES IDX 23 25 24 26 25 27 26 29 27 30 28 31 86 32 29 33 85 34 30 35
REMARK SMILES IDX 31 36 32 37 79 38 33 39 84 40 78 41 80 42 34 43 83 44 77 45
REMARK SMILES IDX 76 46 35 48 65 49 46 50 64 51 47 52 50 53 63 54 81 55 48 56
REMARK SMILES IDX 49 57 62 59 82 60 51 61 36 62 37 63 45 64 38 65 44 66 39 67
REMARK SMILES IDX 40 68 41 69 42 70 43 71 66 72 67 73 75 74 68 75 74 76 69 77
REMARK SMILES IDX 70 78 71 79 72 80 73 81 52 82 53 83 61 84 54 85 60 86 55 87
REMARK SMILES IDX 56 88 57 89 58 90 59 91
REMARK H PARENT 20 6 6 13 24 28 80 47 50 58
REMARK Flexibility Score: inf
ROOT
ATOM      1  C   UNL     1      -4.874   0.623   3.097  1.00  0.00     0.042 C 
ENDROOT
BRANCH   1   2
ATOM      2  C   UNL     1      -4.263  -0.764   2.908  1.00  0.00     0.117 C 
BRANCH   2   3
ATOM      3  N   UNL     1      -4.039  -1.000   1.499  1.00  0.00    -0.355 N 
ATOM      4  C   UNL     1      -2.899  -0.914   0.768  1.00  0.00     0.238 C 
ATOM      5  O   UNL     1      -3.054  -0.747  -0.451  1.00  0.00    -0.273 OA
ATOM      6  H   UNL     1      -4.840  -1.264   0.990  1.00  0.00     0.163 HD
BRANCH   4   7
ATOM      7  C   UNL     1      -1.487  -1.127   1.327  1.00  0.00     0.160 C 
BRANCH   7   8
ATOM      8  C   UNL     1      -1.241  -2.304   2.274  1.00  0.00     0.033 C 
BRANCH   8   9
ATOM      9  C   UNL     1      -1.960  -3.628   1.936  1.00  0.00    -0.015 C 
ATOM     10  C   UNL     1      -1.675  -4.147   0.523  1.00  0.00     0.007 C 
ATOM     11  C   UNL     1      -1.545  -4.690   2.958  1.00  0.00     0.007 C 
ENDBRANCH   8   9
ENDBRANCH   7   8
BRANCH   7  12
ATOM     12  N   UNL     1      -0.594   0.006   1.665  1.00  0.00    -0.190 NA
ATOM     13  H   UNL     1      -0.364   0.444   0.773  1.00  0.00     0.143 HD
BRANCH  12  14
ATOM     14  S   UNL     1      -0.967   1.263   2.687  1.00  0.00     0.280 S 
ATOM     15  O   UNL     1       0.132   2.180   2.482  1.00  0.00    -0.195 OA
ATOM     16  O   UNL     1      -2.311   1.653   2.382  1.00  0.00    -0.195 OA
BRANCH  14  17
ATOM     17  N   UNL     1      -0.851   0.581   4.225  1.00  0.00    -0.188 NA
ATOM     18  C   UNL     1       0.470   0.631   4.913  1.00  0.00     0.106 C 
ATOM     19  C   UNL     1      -1.944   0.754   5.213  1.00  0.00     0.106 C 
ATOM     20  C   UNL     1       0.643   1.864   5.840  1.00  0.00     0.001 C 
ATOM     21  C   UNL     1      -1.875   2.120   5.883  1.00  0.00     0.001 C 
ATOM     22  C   UNL     1       1.050   3.134   5.092  1.00  0.00     0.009 C 
ATOM     23  C   UNL     1      -0.592   2.155   6.714  1.00  0.00     0.009 C 
ATOM     24  C   UNL     1      -3.107   2.385   6.743  1.00  0.00     0.009 C 
ENDBRANCH  14  17
ENDBRANCH  12  14
ENDBRANCH   7  12
ENDBRANCH   4   7
ENDBRANCH   2   3
ENDBRANCH   1   2
BRANCH   1  25
ATOM     25  C   UNL     1      -6.115   0.723   3.955  1.00  0.00     0.118 C 
BRANCH  25  26
ATOM     26  N   UNL     1      -6.052   0.053   5.243  1.00  0.00    -0.352 N 
ATOM     27  C   UNL     1      -6.362   0.470   6.519  1.00  0.00     0.251 C 
ATOM     28  H   UNL     1      -5.726  -0.875   5.195  1.00  0.00     0.163 HD
ATOM     29  O   UNL     1      -6.258  -0.353   7.429  1.00  0.00    -0.269 OA
BRANCH  27  30
ATOM     30  C   UNL     1      -6.730   1.875   6.842  1.00  0.00     0.039 A 
ATOM     31  C   UNL     1      -6.395   2.375   8.109  1.00  0.00     0.014 A 
ATOM     32  C   UNL     1      -7.351   2.729   5.935  1.00  0.00     0.014 A 
ATOM     33  C   UNL     1      -6.587   3.727   8.411  1.00  0.00     0.010 A 
ATOM     34  C   UNL     1      -7.402   4.098   6.177  1.00  0.00     0.010 A 
ATOM     35  C   UNL     1      -7.044   4.614   7.426  1.00  0.00    -0.014 A 
BRANCH  35  36
ATOM     36  C   UNL     1      -7.209   6.068   7.688  1.00  0.00     0.031 A 
ATOM     37  C   UNL     1      -8.566   6.707   7.530  1.00  0.00     0.074 A 
ATOM     38  C   UNL     1      -6.138   6.825   8.001  1.00  0.00     0.049 A 
ATOM     39  N   UNL     1      -8.907   7.965   7.653  1.00  0.00    -0.248 NA
ATOM     40  C   UNL     1      -9.683   5.824   7.150  1.00  0.00     0.031 C 
ATOM     41  C   UNL     1      -4.762   6.340   8.133  1.00  0.00     0.029 A 
ATOM     42  N   UNL     1      -6.038   8.170   8.262  1.00  0.00    -0.354 N 
ATOM     43  C   UNL     1     -10.262   8.021   7.346  1.00  0.00     0.074 A 
ATOM     44  C   UNL     1     -10.666   6.689   6.962  1.00  0.00     0.031 C 
ATOM     45  C   UNL     1      -3.965   7.362   8.486  1.00  0.00     0.029 A 
ATOM     46  C   UNL     1      -4.760   8.583   8.561  1.00  0.00     0.049 A 
ATOM     47  H   UNL     1      -6.809   8.781   8.237  1.00  0.00     0.167 HD
ATOM     48  C   UNL     1     -11.105   9.078   7.408  1.00  0.00     0.031 A 
ATOM     49  C   UNL     1      -4.282   9.807   8.858  1.00  0.00     0.031 A 
ATOM     50  C   UNL     1     -10.704  10.399   7.808  1.00  0.00     0.049 A 
ATOM     51  C   UNL     1      -5.237  10.970   8.913  1.00  0.00     0.074 A 
ATOM     52  C   UNL     1     -11.491  11.526   7.962  1.00  0.00     0.029 A 
ATOM     53  N   UNL     1      -9.404  10.772   8.114  1.00  0.00    -0.354 N 
ATOM     54  N   UNL     1      -6.531  10.986   8.694  1.00  0.00    -0.248 NA
ATOM     55  C   UNL     1      -4.669  12.277   9.270  1.00  0.00     0.031 C 
ATOM     56  C   UNL     1     -10.657  12.595   8.302  1.00  0.00     0.029 A 
ATOM     57  C   UNL     1      -9.362  12.118   8.431  1.00  0.00     0.049 A 
ATOM     58  H   UNL     1      -8.627  10.168   8.108  1.00  0.00     0.167 HD
ATOM     59  C   UNL     1      -6.936  12.298   8.919  1.00  0.00     0.074 A 
ATOM     60  C   UNL     1      -5.753  13.039   9.308  1.00  0.00     0.031 C 
ATOM     61  C   UNL     1      -8.175  12.841   8.815  1.00  0.00     0.031 A 
BRANCH  48  62
ATOM     62  C   UNL     1     -12.547   8.842   7.034  1.00  0.00    -0.014 A 
ATOM     63  C   UNL     1     -13.384   8.038   7.829  1.00  0.00     0.010 A 
ATOM     64  C   UNL     1     -13.082   9.458   5.888  1.00  0.00     0.010 A 
ATOM     65  C   UNL     1     -14.714   7.818   7.462  1.00  0.00     0.020 A 
ATOM     66  C   UNL     1     -14.421   9.269   5.536  1.00  0.00     0.020 A 
ATOM     67  C   UNL     1     -15.224   8.436   6.317  1.00  0.00     0.054 A 
BRANCH  67  68
ATOM     68  S   UNL     1     -16.962   8.154   5.883  1.00  0.00     0.124 S 
ATOM     69  O   UNL     1     -16.941   6.761   5.444  1.00  0.00    -0.237 OA
ATOM     70  O   UNL     1     -17.651   8.403   7.146  1.00  0.00    -0.237 OA
ATOM     71  O   UNL     1     -17.221   9.134   4.830  1.00  0.00    -0.744 OA
ENDBRANCH  67  68
ENDBRANCH  48  62
BRANCH  49  72
ATOM     72  C   UNL     1      -2.832   9.994   9.152  1.00  0.00    -0.014 A 
ATOM     73  C   UNL     1      -2.401  10.320  10.450  1.00  0.00     0.010 A 
ATOM     74  C   UNL     1      -1.873   9.842   8.134  1.00  0.00     0.010 A 
ATOM     75  C   UNL     1      -1.043  10.513  10.720  1.00  0.00     0.020 A 
ATOM     76  C   UNL     1      -0.510  10.002   8.407  1.00  0.00     0.020 A 
ATOM     77  C   UNL     1      -0.105  10.349   9.697  1.00  0.00     0.054 A 
BRANCH  77  78
ATOM     78  S   UNL     1       1.655  10.557  10.084  1.00  0.00     0.124 S 
ATOM     79  O   UNL     1       1.754  11.999  10.287  1.00  0.00    -0.237 OA
ATOM     80  O   UNL     1       1.812   9.737  11.282  1.00  0.00    -0.237 OA
ATOM     81  O   UNL     1       2.331  10.044   8.894  1.00  0.00    -0.744 OA
ENDBRANCH  77  78
ENDBRANCH  49  72
BRANCH  61  82
ATOM     82  C   UNL     1      -8.326  14.298   9.167  1.00  0.00    -0.014 A 
ATOM     83  C   UNL     1      -7.791  15.310   8.351  1.00  0.00     0.010 A 
ATOM     84  C   UNL     1      -9.062  14.658  10.312  1.00  0.00     0.010 A 
ATOM     85  C   UNL     1      -7.952  16.654   8.697  1.00  0.00     0.020 A 
ATOM     86  C   UNL     1      -9.255  16.001  10.641  1.00  0.00     0.020 A 
ATOM     87  C   UNL     1      -8.683  16.991   9.841  1.00  0.00     0.054 A 
BRANCH  87  88
ATOM     88  S   UNL     1      -8.903  18.744  10.250  1.00  0.00     0.124 S 
ATOM     89  O   UNL     1      -7.567  19.121  10.702  1.00  0.00    -0.237 OA
ATOM     90  O   UNL     1      -9.322  19.320   8.974  1.00  0.00    -0.237 OA
ATOM     91  O   UNL     1      -9.931  18.731  11.288  1.00  0.00    -0.744 OA
ENDBRANCH  87  88
ENDBRANCH  61  82
ENDBRANCH  35  36
ENDBRANCH  27  30
ENDBRANCH  25  26
ENDBRANCH   1  25
TORSDOF 18
