REMARK SMILES COc1ccc(CCN2C(=O)C[C@@H](C(=O)NCCCNC(=O)c3ccc(-c4c5nc(c(-c6ccc(S(=O)(=O)[O-])cc6)c6ccc([nH]6)c(-c6ccc(S(=O)(=O)[O-])cc6)c6nc(c(-c7ccc(S(=O)(=O)[O-])cc7)c7ccc4[nH]7)C=C6)C=C5)cc3)S/C2=[NH+]\c2ccc(F)cc2)cc1OC
REMARK SMILES IDX 17 1 16 2 14 3 15 4 13 6 9 7 10 8 84 9 11 10 12 11 83 12
REMARK SMILES IDX 85 13 8 15 7 16 6 17 3 18 4 19 94 20 5 21 93 22 2 23 1 24
REMARK SMILES IDX 95 25 96 26 86 27 87 28 92 29 88 30 91 31 89 32 90 33 18 34
REMARK SMILES IDX 19 35 20 36 21 37 22 39 23 40 24 41 82 42 25 43 81 44 26 45
REMARK SMILES IDX 27 46 28 47 75 48 29 49 80 50 74 51 76 52 30 53 79 54 73 55
REMARK SMILES IDX 72 56 31 58 61 59 42 60 60 61 43 62 46 63 59 64 77 65 44 66
REMARK SMILES IDX 45 67 58 69 78 70 47 71 32 72 33 73 41 74 34 75 40 76 35 77
REMARK SMILES IDX 36 78 37 79 38 80 39 81 62 82 63 83 71 84 64 85 70 86 65 87
REMARK SMILES IDX 66 88 67 89 68 90 69 91 48 92 49 93 57 94 50 95 56 96 51 97
REMARK SMILES IDX 52 98 53 99 54 100 55 101
REMARK H PARENT 16 5 85 14 20 38 76 57 46 68
REMARK Flexibility Score: inf
ROOT
ATOM      1  C   UNL     1      -2.216  -0.227   3.568  1.00  0.00     0.117 C 
ENDROOT
BRANCH   1   2
ATOM      2  N   UNL     1      -3.391   0.044   4.369  1.00  0.00    -0.355 N 
ATOM      3  C   UNL     1      -3.514   0.150   5.732  1.00  0.00     0.234 C 
ATOM      4  O   UNL     1      -4.546   0.675   6.161  1.00  0.00    -0.274 OA
ATOM      5  H   UNL     1      -4.224   0.173   3.861  1.00  0.00     0.163 HD
BRANCH   3   6
ATOM      6  C   UNL     1      -2.442  -0.360   6.724  1.00  0.00     0.160 C 
ATOM      7  N   UNL     1       0.270  -1.515   7.225  1.00  0.00    -0.191 N 
ATOM      8  C   UNL     1       0.041  -0.152   7.380  1.00  0.00     0.311 C 
ATOM      9  C   UNL     1      -0.733  -2.476   7.267  1.00  0.00     0.319 C 
ATOM     10  O   UNL     1       0.839   0.588   7.963  1.00  0.00    -0.247 OA
ATOM     11  C   UNL     1      -1.187   0.474   6.754  1.00  0.00     0.153 C 
ATOM     12  S   UNL     1      -2.198  -2.103   6.406  1.00  0.00    -0.024 SA
ATOM     13  N   UNL     1      -0.516  -3.622   7.839  1.00  0.00    -0.235 N 
ATOM     14  H   UNL     1       0.368  -3.826   8.221  1.00  0.00     0.313 HD
BRANCH   7  15
ATOM     15  C   UNL     1       1.678  -1.972   7.285  1.00  0.00     0.251 C 
BRANCH  15  16
ATOM     16  C   UNL     1       2.179  -2.691   5.988  1.00  0.00     0.082 C 
BRANCH  16  17
ATOM     17  C   UNL     1       2.295  -1.836   4.734  1.00  0.00    -0.040 A 
ATOM     18  C   UNL     1       2.432  -0.173   2.440  1.00  0.00     0.160 A 
ATOM     19  C   UNL     1       1.306  -0.173   3.248  1.00  0.00     0.051 A 
ATOM     20  C   UNL     1       3.481  -1.051   2.732  1.00  0.00     0.160 A 
ATOM     21  C   UNL     1       1.228  -1.041   4.334  1.00  0.00     0.008 A 
ATOM     22  C   UNL     1       3.419  -1.853   3.894  1.00  0.00     0.054 A 
BRANCH  18  23
ATOM     23  O   UNL     1       2.532   0.737   1.422  1.00  0.00    -0.493 OA
ATOM     24  C   UNL     1       1.429   0.674   0.518  1.00  0.00     0.278 C 
ENDBRANCH  18  23
BRANCH  20  25
ATOM     25  O   UNL     1       4.617  -1.211   1.977  1.00  0.00    -0.493 OA
ATOM     26  C   UNL     1       4.456  -0.998   0.574  1.00  0.00     0.278 C 
ENDBRANCH  20  25
ENDBRANCH  16  17
ENDBRANCH  15  16
ENDBRANCH   7  15
BRANCH  13  27
ATOM     27  C   UNL     1      -1.553  -4.570   7.908  1.00  0.00     0.125 A 
ATOM     28  C   UNL     1      -2.378  -4.617   9.040  1.00  0.00     0.055 A 
ATOM     29  C   UNL     1      -1.812  -5.430   6.833  1.00  0.00     0.055 A 
ATOM     30  C   UNL     1      -3.492  -5.458   9.066  1.00  0.00     0.043 A 
ATOM     31  C   UNL     1      -2.932  -6.264   6.854  1.00  0.00     0.043 A 
ATOM     32  C   UNL     1      -3.767  -6.261   7.965  1.00  0.00     0.123 A 
ATOM     33  F   UNL     1      -4.859  -7.037   7.974  1.00  0.00    -0.207 F 
ENDBRANCH  13  27
ENDBRANCH   3   6
ENDBRANCH   1   2
BRANCH   1  34
ATOM     34  C   UNL     1      -2.210  -1.529   2.779  1.00  0.00     0.042 C 
BRANCH  34  35
ATOM     35  C   UNL     1      -2.754  -1.433   1.360  1.00  0.00     0.118 C 
BRANCH  35  36
ATOM     36  N   UNL     1      -2.103  -0.420   0.531  1.00  0.00    -0.352 N 
ATOM     37  C   UNL     1      -1.504  -0.521  -0.703  1.00  0.00     0.251 C 
ATOM     38  H   UNL     1      -2.090   0.483   0.921  1.00  0.00     0.163 HD
ATOM     39  O   UNL     1      -0.990   0.476  -1.209  1.00  0.00    -0.269 OA
BRANCH  37  40
ATOM     40  C   UNL     1      -1.439  -1.813  -1.408  1.00  0.00     0.039 A 
ATOM     41  C   UNL     1      -0.242  -2.216  -2.016  1.00  0.00     0.014 A 
ATOM     42  C   UNL     1      -2.574  -2.615  -1.493  1.00  0.00     0.014 A 
ATOM     43  C   UNL     1      -0.170  -3.457  -2.658  1.00  0.00     0.010 A 
ATOM     44  C   UNL     1      -2.479  -3.879  -2.052  1.00  0.00     0.010 A 
ATOM     45  C   UNL     1      -1.285  -4.304  -2.659  1.00  0.00    -0.014 A 
BRANCH  45  46
ATOM     46  C   UNL     1      -1.322  -5.606  -3.367  1.00  0.00     0.031 A 
ATOM     47  C   UNL     1      -2.312  -5.766  -4.489  1.00  0.00     0.074 A 
ATOM     48  C   UNL     1      -0.609  -6.656  -2.919  1.00  0.00     0.049 A 
ATOM     49  N   UNL     1      -2.774  -6.857  -5.037  1.00  0.00    -0.248 NA
ATOM     50  C   UNL     1      -2.899  -4.524  -5.024  1.00  0.00     0.031 C 
ATOM     51  C   UNL     1       0.388  -6.618  -1.849  1.00  0.00     0.029 A 
ATOM     52  N   UNL     1      -0.651  -7.977  -3.289  1.00  0.00    -0.354 N 
ATOM     53  C   UNL     1      -3.739  -6.436  -5.946  1.00  0.00     0.074 A 
ATOM     54  C   UNL     1      -3.825  -4.997  -5.844  1.00  0.00     0.031 C 
ATOM     55  C   UNL     1       0.858  -7.861  -1.644  1.00  0.00     0.029 A 
ATOM     56  C   UNL     1       0.151  -8.789  -2.522  1.00  0.00     0.049 A 
ATOM     57  H   UNL     1      -1.203  -8.311  -4.033  1.00  0.00     0.167 HD
ATOM     58  C   UNL     1      -4.479  -7.185  -6.795  1.00  0.00     0.031 A 
ATOM     59  C   UNL     1       0.271 -10.131  -2.506  1.00  0.00     0.031 A 
ATOM     60  C   UNL     1      -4.360  -8.613  -6.900  1.00  0.00     0.049 A 
ATOM     61  C   UNL     1      -0.582 -10.949  -3.444  1.00  0.00     0.074 A 
ATOM     62  C   UNL     1      -5.030  -9.472  -7.751  1.00  0.00     0.029 A 
ATOM     63  N   UNL     1      -3.501  -9.389  -6.137  1.00  0.00    -0.354 N 
ATOM     64  N   UNL     1      -1.486 -10.541  -4.304  1.00  0.00    -0.248 NA
ATOM     65  C   UNL     1      -0.395 -12.406  -3.414  1.00  0.00     0.031 C 
ATOM     66  C   UNL     1      -4.608 -10.775  -7.472  1.00  0.00     0.029 A 
ATOM     67  C   UNL     1      -3.626 -10.719  -6.494  1.00  0.00     0.049 A 
ATOM     68  H   UNL     1      -2.892  -9.045  -5.444  1.00  0.00     0.167 HD
ATOM     69  C   UNL     1      -1.937 -11.686  -4.952  1.00  0.00     0.074 A 
ATOM     70  C   UNL     1      -1.210 -12.802  -4.383  1.00  0.00     0.031 C 
ATOM     71  C   UNL     1      -2.863 -11.805  -5.935  1.00  0.00     0.031 A 
BRANCH  58  72
ATOM     72  C   UNL     1      -5.478  -6.475  -7.670  1.00  0.00    -0.014 A 
ATOM     73  C   UNL     1      -5.059  -5.617  -8.703  1.00  0.00     0.010 A 
ATOM     74  C   UNL     1      -6.855  -6.701  -7.486  1.00  0.00     0.010 A 
ATOM     75  C   UNL     1      -5.997  -4.971  -9.511  1.00  0.00     0.020 A 
ATOM     76  C   UNL     1      -7.795  -6.083  -8.315  1.00  0.00     0.020 A 
ATOM     77  C   UNL     1      -7.360  -5.210  -9.313  1.00  0.00     0.054 A 
BRANCH  77  78
ATOM     78  S   UNL     1      -8.550  -4.388 -10.406  1.00  0.00     0.124 S 
ATOM     79  O   UNL     1      -8.464  -3.001  -9.955  1.00  0.00    -0.237 OA
ATOM     80  O   UNL     1      -8.000  -4.651 -11.733  1.00  0.00    -0.237 OA
ATOM     81  O   UNL     1      -9.814  -5.060 -10.113  1.00  0.00    -0.744 OA
ENDBRANCH  77  78
ENDBRANCH  58  72
BRANCH  59  82
ATOM     82  C   UNL     1       1.230 -10.792  -1.577  1.00  0.00    -0.014 A 
ATOM     83  C   UNL     1       2.370 -11.442  -2.082  1.00  0.00     0.010 A 
ATOM     84  C   UNL     1       1.008 -10.787  -0.188  1.00  0.00     0.010 A 
ATOM     85  C   UNL     1       3.254 -12.099  -1.221  1.00  0.00     0.020 A 
ATOM     86  C   UNL     1       1.907 -11.415   0.680  1.00  0.00     0.020 A 
ATOM     87  C   UNL     1       3.017 -12.081   0.156  1.00  0.00     0.054 A 
BRANCH  87  88
ATOM     88  S   UNL     1       4.194 -12.917   1.255  1.00  0.00     0.124 S 
ATOM     89  O   UNL     1       3.915 -14.323   0.986  1.00  0.00    -0.237 OA
ATOM     90  O   UNL     1       5.481 -12.421   0.772  1.00  0.00    -0.237 OA
ATOM     91  O   UNL     1       3.813 -12.445   2.585  1.00  0.00    -0.744 OA
ENDBRANCH  87  88
ENDBRANCH  59  82
BRANCH  71  92
ATOM     92  C   UNL     1      -3.087 -13.170  -6.528  1.00  0.00    -0.014 A 
ATOM     93  C   UNL     1      -3.789 -14.170  -5.835  1.00  0.00     0.010 A 
ATOM     94  C   UNL     1      -2.672 -13.411  -7.852  1.00  0.00     0.010 A 
ATOM     95  C   UNL     1      -4.061 -15.393  -6.453  1.00  0.00     0.020 A 
ATOM     96  C   UNL     1      -2.967 -14.620  -8.482  1.00  0.00     0.020 A 
ATOM     97  C   UNL     1      -3.655 -15.607  -7.775  1.00  0.00     0.054 A 
BRANCH  97  98
ATOM     98  S   UNL     1      -4.095 -17.172  -8.580  1.00  0.00     0.124 S 
ATOM     99  O   UNL     1      -3.207 -18.118  -7.911  1.00  0.00    -0.237 OA
ATOM    100  O   UNL     1      -5.514 -17.307  -8.261  1.00  0.00    -0.237 OA
ATOM    101  O   UNL     1      -3.799 -16.932  -9.991  1.00  0.00    -0.744 OA
ENDBRANCH  97  98
ENDBRANCH  71  92
ENDBRANCH  45  46
ENDBRANCH  37  40
ENDBRANCH  35  36
ENDBRANCH  34  35
ENDBRANCH   1  34
TORSDOF 19
