REMARK SMILES C[C@@](NC(=O)CCOC1CC[NH2+]CC1)(C(=O)NCCCNC(=O)c1ccc(-c2c3nc(c(-c4ccc(S(=O)(=O)[O-])cc4)c4ccc([nH]4)c(-c4ccc(S(=O)(=O)[O-])cc4)c4nc(c(-c5ccc(S(=O)(=O)[O-])cc5)c5ccc2[nH]5)C=C4)C=C3)cc1)C(F)(F)F
REMARK SMILES IDX 18 1 17 2 15 3 16 4 2 6 1 7 3 8 4 9 5 11 6 12 7 13 8 14 9 15
REMARK SMILES IDX 10 16 14 17 11 18 13 19 12 20 84 23 85 24 86 25 87 26 19 27
REMARK SMILES IDX 20 28 21 29 22 30 23 32 24 33 25 34 83 35 26 36 82 37 27 38
REMARK SMILES IDX 28 39 29 40 76 41 30 42 81 43 75 44 77 45 31 46 80 47 74 48
REMARK SMILES IDX 73 49 32 51 62 52 43 53 61 54 44 55 47 56 60 57 78 58 45 59
REMARK SMILES IDX 46 60 59 62 79 63 48 64 33 65 34 66 42 67 35 68 41 69 36 70
REMARK SMILES IDX 37 71 38 72 39 73 40 74 63 75 64 76 72 77 65 78 71 79 66 80
REMARK SMILES IDX 67 81 68 82 69 83 70 84 49 85 50 86 58 87 51 88 57 89 52 90
REMARK SMILES IDX 53 91 54 92 55 93 56 94
REMARK H PARENT 17 5 3 10 12 21 12 22 21 31 77 50 47 61
REMARK Flexibility Score: inf
ROOT
ATOM      1  C   UNL     1      -1.545   0.406  -0.784  1.00  0.00     0.117 C 
ENDROOT
BRANCH   1   2
ATOM      2  N   UNL     1      -2.001  -0.239   0.429  1.00  0.00    -0.354 N 
ATOM      3  C   UNL     1      -1.524  -0.109   1.704  1.00  0.00     0.254 C 
ATOM      4  O   UNL     1      -2.370  -0.281   2.588  1.00  0.00    -0.272 OA
ATOM      5  H   UNL     1      -2.759  -0.857   0.321  1.00  0.00     0.163 HD
BRANCH   3   6
ATOM      6  C   UNL     1      -0.052   0.245   2.052  1.00  0.00     0.212 C 
ATOM      7  C   UNL     1       0.901  -0.711   1.294  1.00  0.00     0.056 C 
BRANCH   6   8
ATOM      8  N   UNL     1       0.451   1.633   1.784  1.00  0.00    -0.334 N 
ATOM      9  C   UNL     1      -0.131   2.830   2.070  1.00  0.00     0.223 C 
ATOM     10  H   UNL     1       1.327   1.686   1.337  1.00  0.00     0.164 HD
ATOM     11  O   UNL     1       0.513   3.663   2.705  1.00  0.00    -0.275 OA
BRANCH   9  12
ATOM     12  C   UNL     1      -1.411   3.193   1.377  1.00  0.00     0.128 C 
BRANCH  12  13
ATOM     13  C   UNL     1      -1.113   3.995   0.106  1.00  0.00     0.170 C 
BRANCH  13  14
ATOM     14  O   UNL     1      -0.596   3.261  -1.006  1.00  0.00    -0.377 OA
BRANCH  14  15
ATOM     15  C   UNL     1       0.805   2.946  -1.071  1.00  0.00     0.129 C 
ATOM     16  C   UNL     1       1.764   4.082  -0.730  1.00  0.00     0.093 C 
ATOM     17  C   UNL     1       1.097   2.465  -2.498  1.00  0.00     0.093 C 
ATOM     18  C   UNL     1       1.659   5.201  -1.758  1.00  0.00     0.263 C 
ATOM     19  C   UNL     1       1.008   3.626  -3.481  1.00  0.00     0.263 C 
ATOM     20  N   UNL     1       1.927   4.707  -3.109  1.00  0.00    -0.346 N 
ATOM     21  H   UNL     1       2.884   4.356  -3.149  1.00  0.00     0.346 HD
ATOM     22  H   UNL     1       1.792   5.478  -3.762  1.00  0.00     0.346 HD
ENDBRANCH  14  15
ENDBRANCH  13  14
ENDBRANCH  12  13
ENDBRANCH   9  12
ENDBRANCH   6   8
BRANCH   6  23
ATOM     23  C   UNL     1       0.110  -0.085   3.561  1.00  0.00     0.420 C 
ATOM     24  F   UNL     1      -0.172  -1.374   3.851  1.00  0.00    -0.168 F 
ATOM     25  F   UNL     1       1.412   0.108   3.925  1.00  0.00    -0.168 F 
ATOM     26  F   UNL     1      -0.626   0.714   4.362  1.00  0.00    -0.168 F 
ENDBRANCH   6  23
ENDBRANCH   3   6
ENDBRANCH   1   2
BRANCH   1  27
ATOM     27  C   UNL     1      -1.918  -0.322  -2.064  1.00  0.00     0.042 C 
BRANCH  27  28
ATOM     28  C   UNL     1      -3.264   0.111  -2.640  1.00  0.00     0.118 C 
BRANCH  28  29
ATOM     29  N   UNL     1      -3.305   1.496  -3.118  1.00  0.00    -0.352 N 
ATOM     30  C   UNL     1      -3.819   2.009  -4.293  1.00  0.00     0.251 C 
ATOM     31  H   UNL     1      -2.907   2.160  -2.511  1.00  0.00     0.163 HD
ATOM     32  O   UNL     1      -3.743   3.213  -4.527  1.00  0.00    -0.269 OA
BRANCH  30  33
ATOM     33  C   UNL     1      -4.388   1.091  -5.304  1.00  0.00     0.039 A 
ATOM     34  C   UNL     1      -3.953   1.186  -6.629  1.00  0.00     0.014 A 
ATOM     35  C   UNL     1      -5.245   0.062  -4.921  1.00  0.00     0.014 A 
ATOM     36  C   UNL     1      -4.249   0.157  -7.528  1.00  0.00     0.010 A 
ATOM     37  C   UNL     1      -5.436  -1.013  -5.779  1.00  0.00     0.010 A 
ATOM     38  C   UNL     1      -4.913  -0.997  -7.084  1.00  0.00    -0.014 A 
BRANCH  38  39
ATOM     39  C   UNL     1      -5.041  -2.226  -7.916  1.00  0.00     0.031 A 
ATOM     40  C   UNL     1      -6.399  -2.845  -8.124  1.00  0.00     0.074 A 
ATOM     41  C   UNL     1      -3.938  -2.874  -8.349  1.00  0.00     0.049 A 
ATOM     42  N   UNL     1      -6.707  -4.036  -8.565  1.00  0.00    -0.248 NA
ATOM     43  C   UNL     1      -7.560  -2.033  -7.722  1.00  0.00     0.031 C 
ATOM     44  C   UNL     1      -2.554  -2.422  -8.178  1.00  0.00     0.029 A 
ATOM     45  N   UNL     1      -3.807  -4.076  -9.005  1.00  0.00    -0.354 N 
ATOM     46  C   UNL     1      -8.087  -4.141  -8.430  1.00  0.00     0.074 A 
ATOM     47  C   UNL     1      -8.549  -2.907  -7.832  1.00  0.00     0.031 C 
ATOM     48  C   UNL     1      -1.722  -3.315  -8.737  1.00  0.00     0.029 A 
ATOM     49  C   UNL     1      -2.501  -4.433  -9.254  1.00  0.00     0.049 A 
ATOM     50  H   UNL     1      -4.576  -4.629  -9.272  1.00  0.00     0.167 HD
ATOM     51  C   UNL     1      -8.900  -5.164  -8.786  1.00  0.00     0.031 A 
ATOM     52  C   UNL     1      -1.983  -5.543  -9.817  1.00  0.00     0.031 A 
ATOM     53  C   UNL     1      -8.446  -6.359  -9.444  1.00  0.00     0.049 A 
ATOM     54  C   UNL     1      -2.911  -6.637 -10.271  1.00  0.00     0.074 A 
ATOM     55  C   UNL     1      -9.198  -7.421  -9.913  1.00  0.00     0.029 A 
ATOM     56  N   UNL     1      -7.123  -6.636  -9.752  1.00  0.00    -0.354 N 
ATOM     57  N   UNL     1      -4.215  -6.707 -10.156  1.00  0.00    -0.248 NA
ATOM     58  C   UNL     1      -2.300  -7.798 -10.934  1.00  0.00     0.031 C 
ATOM     59  C   UNL     1      -8.327  -8.352 -10.487  1.00  0.00     0.029 A 
ATOM     60  C   UNL     1      -7.038  -7.848 -10.412  1.00  0.00     0.049 A 
ATOM     61  H   UNL     1      -6.359  -6.056  -9.533  1.00  0.00     0.167 HD
ATOM     62  C   UNL     1      -4.584  -7.901 -10.765  1.00  0.00     0.074 A 
ATOM     63  C   UNL     1      -3.367  -8.521 -11.248  1.00  0.00     0.031 C 
ATOM     64  C   UNL     1      -5.821  -8.434 -10.912  1.00  0.00     0.031 A 
BRANCH  51  65
ATOM     65  C   UNL     1     -10.366  -5.026  -8.473  1.00  0.00    -0.014 A 
ATOM     66  C   UNL     1     -11.170  -4.092  -9.152  1.00  0.00     0.010 A 
ATOM     67  C   UNL     1     -10.954  -5.851  -7.496  1.00  0.00     0.010 A 
ATOM     68  C   UNL     1     -12.517  -3.942  -8.818  1.00  0.00     0.020 A 
ATOM     69  C   UNL     1     -12.310  -5.726  -7.181  1.00  0.00     0.020 A 
ATOM     70  C   UNL     1     -13.077  -4.755  -7.828  1.00  0.00     0.054 A 
BRANCH  70  71
ATOM     71  S   UNL     1     -14.829  -4.541  -7.414  1.00  0.00     0.124 S 
ATOM     72  O   UNL     1     -14.799  -3.324  -6.606  1.00  0.00    -0.237 OA
ATOM     73  O   UNL     1     -15.457  -4.407  -8.726  1.00  0.00    -0.237 OA
ATOM     74  O   UNL     1     -15.165  -5.763  -6.687  1.00  0.00    -0.744 OA
ENDBRANCH  70  71
ENDBRANCH  51  65
BRANCH  52  75
ATOM     75  C   UNL     1      -0.512  -5.666 -10.011  1.00  0.00    -0.014 A 
ATOM     76  C   UNL     1       0.042  -5.548 -11.298  1.00  0.00     0.010 A 
ATOM     77  C   UNL     1       0.344  -5.886  -8.917  1.00  0.00     0.010 A 
ATOM     78  C   UNL     1       1.421  -5.665 -11.492  1.00  0.00     0.020 A 
ATOM     79  C   UNL     1       1.727  -5.980  -9.104  1.00  0.00     0.020 A 
ATOM     80  C   UNL     1       2.256  -5.880 -10.392  1.00  0.00     0.054 A 
BRANCH  80  81
ATOM     81  S   UNL     1       4.049  -5.977 -10.660  1.00  0.00     0.124 S 
ATOM     82  O   UNL     1       4.198  -7.311 -11.231  1.00  0.00    -0.237 OA
ATOM     83  O   UNL     1       4.293  -4.865 -11.575  1.00  0.00    -0.237 OA
ATOM     84  O   UNL     1       4.602  -5.802  -9.319  1.00  0.00    -0.744 OA
ENDBRANCH  80  81
ENDBRANCH  52  75
BRANCH  64  85
ATOM     85  C   UNL     1      -5.942  -9.720 -11.681  1.00  0.00    -0.014 A 
ATOM     86  C   UNL     1      -5.593 -10.952 -11.103  1.00  0.00     0.010 A 
ATOM     87  C   UNL     1      -6.509  -9.698 -12.969  1.00  0.00     0.010 A 
ATOM     88  C   UNL     1      -5.802 -12.142 -11.805  1.00  0.00     0.020 A 
ATOM     89  C   UNL     1      -6.738 -10.886 -13.664  1.00  0.00     0.020 A 
ATOM     90  C   UNL     1      -6.378 -12.102 -13.079  1.00  0.00     0.054 A 
BRANCH  90  91
ATOM     91  S   UNL     1      -6.717 -13.664 -13.936  1.00  0.00     0.124 S 
ATOM     92  O   UNL     1      -5.385 -14.062 -14.382  1.00  0.00    -0.237 OA
ATOM     93  O   UNL     1      -7.300 -14.490 -12.881  1.00  0.00    -0.237 OA
ATOM     94  O   UNL     1      -7.642 -13.281 -15.001  1.00  0.00    -0.744 OA
ENDBRANCH  90  91
ENDBRANCH  64  85
ENDBRANCH  38  39
ENDBRANCH  30  33
ENDBRANCH  28  29
ENDBRANCH  27  28
ENDBRANCH   1  27
TORSDOF 19
