REMARK SMILES CC[N@@H+](C)CCNC(=O)N1CCC(CC(=O)NCCCNC(=O)c2ccc(-c3c4nc(c(-c5ccc(S(=O)(=O)[O-])cc5)c5ccc([nH]5)c(-c5ccc(S(=O)(=O)[O-])cc5)c5nc(c(-c6ccc(S(=O)(=O)[O-])cc6)c6ccc3[nH]6)C=C5)C=C4)cc2)CC1
REMARK SMILES IDX 18 1 17 2 15 3 16 4 14 6 13 7 7 8 8 9 9 11 10 12 11 13 85 14
REMARK SMILES IDX 12 15 84 16 6 17 5 18 3 19 4 20 2 22 1 23 19 24 20 25 21 26
REMARK SMILES IDX 22 27 23 29 24 30 25 31 83 32 26 33 82 34 27 35 28 36 29 37
REMARK SMILES IDX 76 38 30 39 81 40 75 41 77 42 31 43 80 44 74 45 73 46 32 48
REMARK SMILES IDX 62 49 43 50 61 51 44 52 47 53 60 54 78 55 45 56 46 57 59 59
REMARK SMILES IDX 79 60 48 61 33 62 34 63 42 64 35 65 41 66 36 67 37 68 38 69
REMARK SMILES IDX 39 70 40 71 63 72 64 73 72 74 65 75 71 76 66 77 67 78 68 79
REMARK SMILES IDX 69 80 70 81 49 82 50 83 58 84 51 85 57 86 52 87 53 88 54 89
REMARK SMILES IDX 55 90 56 91
REMARK H PARENT 17 5 7 10 3 21 21 28 77 47 47 58
REMARK Flexibility Score: inf
ROOT
ATOM      1  C   UNL     1       7.939  -1.672  -5.252  1.00  0.00     0.117 C 
ENDROOT
BRANCH   1   2
ATOM      2  N   UNL     1       9.107  -1.968  -4.431  1.00  0.00    -0.356 N 
ATOM      3  C   UNL     1       9.310  -2.900  -3.457  1.00  0.00     0.220 C 
ATOM      4  O   UNL     1      10.424  -2.963  -2.932  1.00  0.00    -0.275 OA
ATOM      5  H   UNL     1       9.886  -1.393  -4.611  1.00  0.00     0.163 HD
BRANCH   3   6
ATOM      6  C   UNL     1       8.192  -3.822  -3.005  1.00  0.00     0.103 C 
BRANCH   6   7
ATOM      7  C   UNL     1       7.516  -3.341  -1.708  1.00  0.00     0.002 C 
ATOM      8  N   UNL     1       2.771  -3.060  -0.146  1.00  0.00    -0.332 N 
ATOM      9  C   UNL     1       3.766  -2.533  -0.908  1.00  0.00     0.317 C 
ATOM     10  H   UNL     1       1.992  -3.430  -0.621  1.00  0.00     0.165 HD
ATOM     11  O   UNL     1       3.496  -2.023  -1.992  1.00  0.00    -0.249 OA
ATOM     12  N   UNL     1       5.039  -2.584  -0.392  1.00  0.00    -0.325 N 
ATOM     13  C   UNL     1       5.979  -1.543  -0.748  1.00  0.00     0.121 C 
ATOM     14  C   UNL     1       5.648  -3.863  -0.046  1.00  0.00     0.121 C 
ATOM     15  C   UNL     1       6.843  -1.979  -1.917  1.00  0.00     0.026 C 
ATOM     16  C   UNL     1       6.488  -4.382  -1.220  1.00  0.00     0.026 C 
BRANCH   8  17
ATOM     17  C   UNL     1       2.754  -3.126   1.305  1.00  0.00     0.179 C 
BRANCH  17  18
ATOM     18  C   UNL     1       2.137  -1.872   1.964  1.00  0.00     0.283 C 
BRANCH  18  19
ATOM     19  N   UNL     1       0.678  -1.692   1.915  1.00  0.00    -0.336 N 
ATOM     20  C   UNL     1      -0.057  -2.843   2.427  1.00  0.00     0.332 C 
ATOM     21  H   UNL     1       0.543  -0.907   2.554  1.00  0.00     0.347 HD
BRANCH  19  22
ATOM     22  C   UNL     1       0.112  -1.221   0.648  1.00  0.00     0.258 C 
ATOM     23  C   UNL     1       0.710   0.081   0.128  1.00  0.00     0.071 C 
ENDBRANCH  19  22
ENDBRANCH  18  19
ENDBRANCH  17  18
ENDBRANCH   8  17
ENDBRANCH   6   7
ENDBRANCH   3   6
ENDBRANCH   1   2
BRANCH   1  24
ATOM     24  C   UNL     1       7.284  -0.330  -4.921  1.00  0.00     0.042 C 
BRANCH  24  25
ATOM     25  C   UNL     1       8.150   0.893  -5.199  1.00  0.00     0.118 C 
BRANCH  25  26
ATOM     26  N   UNL     1       7.986   1.367  -6.560  1.00  0.00    -0.352 N 
ATOM     27  C   UNL     1       7.451   2.546  -7.021  1.00  0.00     0.251 C 
ATOM     28  H   UNL     1       8.305   0.751  -7.259  1.00  0.00     0.163 HD
ATOM     29  O   UNL     1       7.163   2.634  -8.213  1.00  0.00    -0.269 OA
BRANCH  27  30
ATOM     30  C   UNL     1       7.219   3.707  -6.121  1.00  0.00     0.039 A 
ATOM     31  C   UNL     1       6.114   4.531  -6.369  1.00  0.00     0.014 A 
ATOM     32  C   UNL     1       8.116   4.055  -5.107  1.00  0.00     0.014 A 
ATOM     33  C   UNL     1       5.906   5.683  -5.601  1.00  0.00     0.010 A 
ATOM     34  C   UNL     1       7.870   5.167  -4.296  1.00  0.00     0.010 A 
ATOM     35  C   UNL     1       6.779   6.011  -4.553  1.00  0.00    -0.014 A 
BRANCH  35  36
ATOM     36  C   UNL     1       6.600   7.265  -3.770  1.00  0.00     0.031 A 
ATOM     37  C   UNL     1       7.627   8.367  -3.857  1.00  0.00     0.074 A 
ATOM     38  C   UNL     1       5.531   7.415  -2.963  1.00  0.00     0.049 A 
ATOM     39  N   UNL     1       7.656   9.522  -3.239  1.00  0.00    -0.248 NA
ATOM     40  C   UNL     1       8.785   8.131  -4.735  1.00  0.00     0.031 C 
ATOM     41  C   UNL     1       4.479   6.418  -2.753  1.00  0.00     0.029 A 
ATOM     42  N   UNL     1       5.152   8.469  -2.167  1.00  0.00    -0.354 N 
ATOM     43  C   UNL     1       8.841  10.135  -3.631  1.00  0.00     0.074 A 
ATOM     44  C   UNL     1       9.523   9.209  -4.510  1.00  0.00     0.031 C 
ATOM     45  C   UNL     1       3.563   6.917  -1.907  1.00  0.00     0.029 A 
ATOM     46  C   UNL     1       3.971   8.257  -1.495  1.00  0.00     0.049 A 
ATOM     47  H   UNL     1       5.677   9.298  -2.086  1.00  0.00     0.167 HD
ATOM     48  C   UNL     1       9.316  11.362  -3.308  1.00  0.00     0.031 A 
ATOM     49  C   UNL     1       3.288   9.053  -0.649  1.00  0.00     0.031 A 
ATOM     50  C   UNL     1       8.628  12.302  -2.463  1.00  0.00     0.049 A 
ATOM     51  C   UNL     1       3.809  10.430  -0.342  1.00  0.00     0.074 A 
ATOM     52  C   UNL     1       9.006  13.589  -2.120  1.00  0.00     0.029 A 
ATOM     53  N   UNL     1       7.415  12.061  -1.838  1.00  0.00    -0.354 N 
ATOM     54  N   UNL     1       4.909  11.008  -0.763  1.00  0.00    -0.248 NA
ATOM     55  C   UNL     1       2.985  11.271   0.538  1.00  0.00     0.031 C 
ATOM     56  C   UNL     1       8.032  14.118  -1.265  1.00  0.00     0.029 A 
ATOM     57  C   UNL     1       7.031  13.173  -1.109  1.00  0.00     0.049 A 
ATOM     58  H   UNL     1       6.903  11.223  -1.903  1.00  0.00     0.167 HD
ATOM     59  C   UNL     1       4.894  12.288  -0.221  1.00  0.00     0.074 A 
ATOM     60  C   UNL     1       3.673  12.405   0.549  1.00  0.00     0.031 C 
ATOM     61  C   UNL     1       5.810  13.279  -0.353  1.00  0.00     0.031 A 
BRANCH  48  62
ATOM     62  C   UNL     1      10.653  11.759  -3.876  1.00  0.00    -0.014 A 
ATOM     63  C   UNL     1      10.796  12.076  -5.239  1.00  0.00     0.010 A 
ATOM     64  C   UNL     1      11.774  11.845  -3.031  1.00  0.00     0.010 A 
ATOM     65  C   UNL     1      12.046  12.427  -5.756  1.00  0.00     0.020 A 
ATOM     66  C   UNL     1      13.021  12.219  -3.540  1.00  0.00     0.020 A 
ATOM     67  C   UNL     1      13.153  12.488  -4.904  1.00  0.00     0.054 A 
BRANCH  67  68
ATOM     68  S   UNL     1      14.763  12.957  -5.596  1.00  0.00     0.124 S 
ATOM     69  O   UNL     1      15.180  11.719  -6.250  1.00  0.00    -0.237 OA
ATOM     70  O   UNL     1      14.423  14.057  -6.495  1.00  0.00    -0.237 OA
ATOM     71  O   UNL     1      15.546  13.336  -4.422  1.00  0.00    -0.744 OA
ENDBRANCH  67  68
ENDBRANCH  48  62
BRANCH  49  72
ATOM     72  C   UNL     1       2.009   8.578  -0.058  1.00  0.00    -0.014 A 
ATOM     73  C   UNL     1       0.781   9.087  -0.517  1.00  0.00     0.010 A 
ATOM     74  C   UNL     1       2.011   7.604   0.957  1.00  0.00     0.010 A 
ATOM     75  C   UNL     1      -0.421   8.644   0.040  1.00  0.00     0.020 A 
ATOM     76  C   UNL     1       0.809   7.141   1.500  1.00  0.00     0.020 A 
ATOM     77  C   UNL     1      -0.400   7.673   1.045  1.00  0.00     0.054 A 
BRANCH  77  78
ATOM     78  S   UNL     1      -1.975   7.069   1.716  1.00  0.00     0.124 S 
ATOM     79  O   UNL     1      -2.349   8.146   2.627  1.00  0.00    -0.237 OA
ATOM     80  O   UNL     1      -2.802   6.936   0.519  1.00  0.00    -0.237 OA
ATOM     81  O   UNL     1      -1.609   5.806   2.353  1.00  0.00    -0.744 OA
ENDBRANCH  77  78
ENDBRANCH  49  72
BRANCH  61  82
ATOM     82  C   UNL     1       5.508  14.591   0.317  1.00  0.00    -0.014 A 
ATOM     83  C   UNL     1       5.633  14.744   1.709  1.00  0.00     0.010 A 
ATOM     84  C   UNL     1       5.134  15.699  -0.466  1.00  0.00     0.010 A 
ATOM     85  C   UNL     1       5.354  15.975   2.311  1.00  0.00     0.020 A 
ATOM     86  C   UNL     1       4.875  16.935   0.130  1.00  0.00     0.020 A 
ATOM     87  C   UNL     1       4.971  17.061   1.518  1.00  0.00     0.054 A 
BRANCH  87  88
ATOM     88  S   UNL     1       4.644  18.659   2.313  1.00  0.00     0.124 S 
ATOM     89  O   UNL     1       3.300  18.461   2.849  1.00  0.00    -0.237 OA
ATOM     90  O   UNL     1       5.710  18.750   3.308  1.00  0.00    -0.237 OA
ATOM     91  O   UNL     1       4.744  19.617   1.215  1.00  0.00    -0.744 OA
ENDBRANCH  87  88
ENDBRANCH  61  82
ENDBRANCH  35  36
ENDBRANCH  27  30
ENDBRANCH  25  26
ENDBRANCH  24  25
ENDBRANCH   1  24
TORSDOF 18
