REMARK SMILES CCn1nc(-c2cccnc2)c2cc(C(=O)NCCCNC(=O)c3ccc(-c4c5nc(c(-c6ccc(S(=O)(=O)[O-])cc6)c6ccc([nH]6)c(-c6ccc(S(=O)(=O)[O-])cc6)c6nc(c(-c7ccc(S(=O)(=O)[O-])cc7)c7ccc4[nH]7)C=C6)C=C5)cc3)sc21
REMARK SMILES IDX 20 1 19 2 18 3 17 4 15 5 16 6 14 8 3 9 4 10 85 11 5 12 12 13
REMARK SMILES IDX 84 14 13 15 2 16 1 17 6 18 7 19 11 20 8 21 10 22 9 23 21 24
REMARK SMILES IDX 22 25 23 27 24 28 25 29 83 30 26 31 82 32 27 33 28 34 29 35
REMARK SMILES IDX 76 36 30 37 81 38 75 39 77 40 31 41 80 42 74 43 73 44 32 46
REMARK SMILES IDX 62 47 43 48 61 49 44 50 47 51 60 52 78 53 45 54 46 55 59 57
REMARK SMILES IDX 79 58 48 59 33 60 34 61 42 62 35 63 41 64 36 65 37 66 38 67
REMARK SMILES IDX 39 68 40 69 63 70 64 71 72 72 65 73 71 74 66 75 67 76 68 77
REMARK SMILES IDX 69 78 70 79 49 80 50 81 58 82 51 83 57 84 52 85 53 86 54 87
REMARK SMILES IDX 55 88 56 89
REMARK H PARENT 17 7 21 26 77 45 47 56
REMARK Flexibility Score: inf
ROOT
ATOM      1  C   UNL     1       1.252  -4.628  -2.445  1.00  0.00     0.118 C 
ENDROOT
BRANCH   1   2
ATOM      2  C   UNL     1       1.530  -3.131  -2.385  1.00  0.00     0.042 C 
BRANCH   2   3
ATOM      3  C   UNL     1       2.944  -2.765  -2.869  1.00  0.00     0.118 C 
BRANCH   3   4
ATOM      4  N   UNL     1       2.983  -2.146  -4.195  1.00  0.00    -0.351 N 
ATOM      5  C   UNL     1       2.843  -0.849  -4.657  1.00  0.00     0.261 C 
ATOM      6  O   UNL     1       3.100  -0.690  -5.853  1.00  0.00    -0.268 OA
ATOM      7  H   UNL     1       3.144  -2.795  -4.917  1.00  0.00     0.163 HD
BRANCH   5   8
ATOM      8  C   UNL     1       2.395   0.271  -3.831  1.00  0.00     0.095 A 
ATOM      9  N   UNL     1       0.860   2.414  -1.158  1.00  0.00    -0.254 N 
ATOM     10  N   UNL     1       0.724   3.687  -1.631  1.00  0.00    -0.171 NA
ATOM     11  C   UNL     1       1.464   1.632  -2.068  1.00  0.00     0.122 A 
ATOM     12  C   UNL     1       1.199   3.642  -2.906  1.00  0.00     0.103 A 
ATOM     13  C   UNL     1       1.627   2.341  -3.185  1.00  0.00     0.040 A 
ATOM     14  S   UNL     1       2.028   0.094  -2.158  1.00  0.00    -0.110 S 
ATOM     15  C   UNL     1       2.174   1.604  -4.244  1.00  0.00     0.038 A 
BRANCH   9  16
ATOM     16  C   UNL     1       0.307   2.075   0.139  1.00  0.00     0.142 C 
ATOM     17  C   UNL     1       0.472   0.635   0.611  1.00  0.00     0.029 C 
ENDBRANCH   9  16
BRANCH  12  18
ATOM     18  C   UNL     1       1.258   4.861  -3.692  1.00  0.00     0.021 A 
ATOM     19  C   UNL     1       1.955   5.970  -3.198  1.00  0.00     0.013 A 
ATOM     20  C   UNL     1       0.603   5.005  -4.906  1.00  0.00     0.121 A 
ATOM     21  C   UNL     1       1.980   7.156  -3.925  1.00  0.00     0.021 A 
ATOM     22  N   UNL     1       0.605   6.152  -5.635  1.00  0.00    -0.264 NA
ATOM     23  C   UNL     1       1.294   7.198  -5.126  1.00  0.00     0.111 A 
ENDBRANCH  12  18
ENDBRANCH   5   8
ENDBRANCH   3   4
ENDBRANCH   2   3
ENDBRANCH   1   2
BRANCH   1  24
ATOM     24  N   UNL     1       2.086  -5.386  -1.502  1.00  0.00    -0.352 N 
ATOM     25  C   UNL     1       2.410  -6.729  -1.503  1.00  0.00     0.251 C 
ATOM     26  H   UNL     1       2.468  -4.862  -0.761  1.00  0.00     0.163 HD
ATOM     27  O   UNL     1       2.837  -7.270  -0.486  1.00  0.00    -0.269 OA
BRANCH  25  28
ATOM     28  C   UNL     1       2.224  -7.500  -2.742  1.00  0.00     0.039 A 
ATOM     29  C   UNL     1       1.642  -8.771  -2.740  1.00  0.00     0.014 A 
ATOM     30  C   UNL     1       2.557  -6.870  -3.934  1.00  0.00     0.014 A 
ATOM     31  C   UNL     1       1.287  -9.347  -3.959  1.00  0.00     0.010 A 
ATOM     32  C   UNL     1       2.032  -7.347  -5.105  1.00  0.00     0.010 A 
ATOM     33  C   UNL     1       1.451  -8.611  -5.142  1.00  0.00    -0.014 A 
BRANCH  33  34
ATOM     34  C   UNL     1       0.937  -9.094  -6.420  1.00  0.00     0.031 A 
ATOM     35  C   UNL     1      -0.498  -9.496  -6.430  1.00  0.00     0.074 A 
ATOM     36  C   UNL     1       1.617  -8.957  -7.580  1.00  0.00     0.049 A 
ATOM     37  N   UNL     1      -0.985 -10.686  -6.556  1.00  0.00    -0.248 NA
ATOM     38  C   UNL     1      -1.513  -8.467  -6.150  1.00  0.00     0.031 C 
ATOM     39  C   UNL     1       2.900  -8.280  -7.821  1.00  0.00     0.029 A 
ATOM     40  N   UNL     1       1.223  -9.285  -8.837  1.00  0.00    -0.354 N 
ATOM     41  C   UNL     1      -2.369 -10.537  -6.595  1.00  0.00     0.074 A 
ATOM     42  C   UNL     1      -2.636  -9.190  -6.156  1.00  0.00     0.031 C 
ATOM     43  C   UNL     1       3.035  -8.017  -9.139  1.00  0.00     0.029 A 
ATOM     44  C   UNL     1       1.964  -8.686  -9.849  1.00  0.00     0.049 A 
ATOM     45  H   UNL     1       0.473  -9.898  -9.017  1.00  0.00     0.167 HD
ATOM     46  C   UNL     1      -3.176 -11.450  -7.210  1.00  0.00     0.031 A 
ATOM     47  C   UNL     1       1.702  -8.725 -11.177  1.00  0.00     0.031 A 
ATOM     48  C   UNL     1      -2.463 -12.661  -7.531  1.00  0.00     0.049 A 
ATOM     49  C   UNL     1       0.816  -9.892 -11.403  1.00  0.00     0.074 A 
ATOM     50  C   UNL     1      -1.760 -13.600  -6.802  1.00  0.00     0.029 A 
ATOM     51  N   UNL     1      -2.060 -12.822  -8.837  1.00  0.00    -0.354 N 
ATOM     52  N   UNL     1       1.194 -11.125 -11.213  1.00  0.00    -0.248 NA
ATOM     53  C   UNL     1      -0.622  -9.673 -11.403  1.00  0.00     0.031 C 
ATOM     54  C   UNL     1      -0.626 -13.912  -7.610  1.00  0.00     0.029 A 
ATOM     55  C   UNL     1      -0.745 -13.208  -8.810  1.00  0.00     0.049 A 
ATOM     56  H   UNL     1      -2.613 -12.686  -9.640  1.00  0.00     0.167 HD
ATOM     57  C   UNL     1       0.093 -11.751 -10.646  1.00  0.00     0.074 A 
ATOM     58  C   UNL     1      -1.023 -10.837 -10.884  1.00  0.00     0.031 C 
ATOM     59  C   UNL     1       0.239 -12.812  -9.797  1.00  0.00     0.031 A 
BRANCH  46  60
ATOM     60  C   UNL     1      -4.489 -11.111  -7.879  1.00  0.00    -0.014 A 
ATOM     61  C   UNL     1      -5.263 -12.155  -8.429  1.00  0.00     0.010 A 
ATOM     62  C   UNL     1      -4.853  -9.796  -8.230  1.00  0.00     0.010 A 
ATOM     63  C   UNL     1      -6.294 -11.896  -9.343  1.00  0.00     0.020 A 
ATOM     64  C   UNL     1      -5.909  -9.524  -9.104  1.00  0.00     0.020 A 
ATOM     65  C   UNL     1      -6.598 -10.579  -9.686  1.00  0.00     0.054 A 
BRANCH  65  66
ATOM     66  S   UNL     1      -7.848 -10.257 -10.953  1.00  0.00     0.124 S 
ATOM     67  O   UNL     1      -7.205 -10.790 -12.150  1.00  0.00    -0.237 OA
ATOM     68  O   UNL     1      -8.994 -11.014 -10.457  1.00  0.00    -0.237 OA
ATOM     69  O   UNL     1      -8.004  -8.805 -10.917  1.00  0.00    -0.744 OA
ENDBRANCH  65  66
ENDBRANCH  46  60
BRANCH  47  70
ATOM     70  C   UNL     1       1.931  -7.678 -12.200  1.00  0.00    -0.014 A 
ATOM     71  C   UNL     1       1.829  -7.985 -13.569  1.00  0.00     0.010 A 
ATOM     72  C   UNL     1       1.952  -6.316 -11.831  1.00  0.00     0.010 A 
ATOM     73  C   UNL     1       1.663  -6.972 -14.527  1.00  0.00     0.020 A 
ATOM     74  C   UNL     1       1.795  -5.300 -12.782  1.00  0.00     0.020 A 
ATOM     75  C   UNL     1       1.618  -5.635 -14.123  1.00  0.00     0.054 A 
BRANCH  75  76
ATOM     76  S   UNL     1       1.183  -4.354 -15.338  1.00  0.00     0.124 S 
ATOM     77  O   UNL     1       2.378  -4.302 -16.175  1.00  0.00    -0.237 OA
ATOM     78  O   UNL     1      -0.009  -4.911 -15.971  1.00  0.00    -0.237 OA
ATOM     79  O   UNL     1       0.947  -3.168 -14.517  1.00  0.00    -0.744 OA
ENDBRANCH  75  76
ENDBRANCH  47  70
BRANCH  59  80
ATOM     80  C   UNL     1       1.594 -13.479  -9.694  1.00  0.00    -0.014 A 
ATOM     81  C   UNL     1       2.763 -12.822  -9.260  1.00  0.00     0.010 A 
ATOM     82  C   UNL     1       1.645 -14.870  -9.892  1.00  0.00     0.010 A 
ATOM     83  C   UNL     1       3.954 -13.537  -9.054  1.00  0.00     0.020 A 
ATOM     84  C   UNL     1       2.821 -15.590  -9.671  1.00  0.00     0.020 A 
ATOM     85  C   UNL     1       3.974 -14.919  -9.262  1.00  0.00     0.054 A 
BRANCH  85  86
ATOM     86  S   UNL     1       5.501 -15.851  -8.948  1.00  0.00     0.124 S 
ATOM     87  O   UNL     1       6.378 -15.394 -10.021  1.00  0.00    -0.237 OA
ATOM     88  O   UNL     1       5.875 -15.419  -7.603  1.00  0.00    -0.237 OA
ATOM     89  O   UNL     1       5.083 -17.249  -9.045  1.00  0.00    -0.744 OA
ENDBRANCH  85  86
ENDBRANCH  59  80
ENDBRANCH  33  34
ENDBRANCH  25  28
ENDBRANCH   1  24
TORSDOF 15
