REMARK SMILES Cc1cc(C)c2c(C(=O)NCCCNC(=O)c3ccc(-c4c5nc(c(-c6ccc(S(=O)(=O)[O-])cc6)c6ccc([nH]6)c(-c6ccc(S(=O)(=O)[O-])cc6)c6nc(c(-c7ccc(S(=O)(=O)[O-])cc7)c7ccc4[nH]7)C=C6)C=C5)cc3)cc(-c3ccco3)nc2c1
REMARK SMILES IDX 13 1 12 2 11 3 10 4 8 5 9 6 7 8 1 9 2 10 3 11 86 12 4 13
REMARK SMILES IDX 85 14 5 15 6 16 84 17 78 18 77 19 79 20 80 21 83 22 81 23
REMARK SMILES IDX 82 24 14 25 15 26 16 28 17 29 18 30 76 31 19 32 75 33 20 34
REMARK SMILES IDX 21 35 22 36 69 37 23 38 74 39 68 40 70 41 24 42 73 43 67 44
REMARK SMILES IDX 66 45 25 47 55 48 36 49 54 50 37 51 40 52 53 53 71 54 38 55
REMARK SMILES IDX 39 56 52 58 72 59 41 60 26 61 27 62 35 63 28 64 34 65 29 66
REMARK SMILES IDX 30 67 31 68 32 69 33 70 56 71 57 72 65 73 58 74 64 75 59 76
REMARK SMILES IDX 60 77 61 78 62 79 63 80 42 81 43 82 51 83 44 84 50 85 45 86
REMARK SMILES IDX 46 87 47 88 48 89 49 90
REMARK H PARENT 10 7 14 27 70 46 40 57
REMARK Flexibility Score: inf
ROOT
ATOM      1  C   UNL     1      -4.610  -2.234   4.151  1.00  0.00     0.118 C 
ENDROOT
BRANCH   1   2
ATOM      2  C   UNL     1      -4.050  -2.389   2.740  1.00  0.00     0.042 C 
BRANCH   2   3
ATOM      3  C   UNL     1      -2.604  -2.866   2.684  1.00  0.00     0.118 C 
BRANCH   3   4
ATOM      4  N   UNL     1      -2.354  -4.118   3.390  1.00  0.00    -0.352 N 
ATOM      5  C   UNL     1      -1.318  -5.017   3.301  1.00  0.00     0.252 C 
ATOM      6  O   UNL     1      -1.308  -5.974   4.075  1.00  0.00    -0.269 OA
ATOM      7  H   UNL     1      -3.049  -4.361   4.045  1.00  0.00     0.163 HD
BRANCH   5   8
ATOM      8  C   UNL     1      -0.281  -4.939   2.242  1.00  0.00     0.051 A 
ATOM      9  C   UNL     1       1.376  -0.165  -0.356  1.00  0.00     0.044 C 
ATOM     10  C   UNL     1       1.118  -1.408   0.439  1.00  0.00    -0.049 A 
ATOM     11  C   UNL     1       0.826  -1.346   1.797  1.00  0.00     0.007 A 
ATOM     12  C   UNL     1       1.254  -2.668  -0.151  1.00  0.00     0.032 A 
ATOM     13  C   UNL     1       0.491  -2.509   2.505  1.00  0.00    -0.041 A 
ATOM     14  C   UNL     1       0.929  -3.837   0.521  1.00  0.00     0.072 A 
ATOM     15  C   UNL     1       0.455  -2.406   4.011  1.00  0.00     0.045 C 
ATOM     16  C   UNL     1       0.359  -3.750   1.805  1.00  0.00     0.016 A 
ATOM     17  N   UNL     1       1.172  -5.003  -0.100  1.00  0.00    -0.244 NA
ATOM     18  C   UNL     1       0.778  -6.147   0.493  1.00  0.00     0.107 A 
ATOM     19  C   UNL     1      -0.028  -6.158   1.607  1.00  0.00     0.046 A 
BRANCH  18  20
ATOM     20  C   UNL     1       1.297  -7.375  -0.079  1.00  0.00     0.152 A 
ATOM     21  C   UNL     1       0.738  -8.539  -0.566  1.00  0.00     0.052 A 
ATOM     22  O   UNL     1       2.661  -7.491  -0.068  1.00  0.00    -0.463 OA
ATOM     23  C   UNL     1       1.817  -9.407  -0.874  1.00  0.00     0.043 A 
ATOM     24  C   UNL     1       2.964  -8.724  -0.547  1.00  0.00     0.196 A 
ENDBRANCH  18  20
ENDBRANCH   5   8
ENDBRANCH   3   4
ENDBRANCH   2   3
ENDBRANCH   1   2
BRANCH   1  25
ATOM     25  N   UNL     1      -3.951  -1.208   4.950  1.00  0.00    -0.352 N 
ATOM     26  C   UNL     1      -4.266   0.115   5.175  1.00  0.00     0.251 C 
ATOM     27  H   UNL     1      -3.136  -1.514   5.410  1.00  0.00     0.163 HD
ATOM     28  O   UNL     1      -3.491   0.823   5.804  1.00  0.00    -0.269 OA
BRANCH  26  29
ATOM     29  C   UNL     1      -5.509   0.694   4.617  1.00  0.00     0.039 A 
ATOM     30  C   UNL     1      -5.453   1.945   3.993  1.00  0.00     0.014 A 
ATOM     31  C   UNL     1      -6.724   0.017   4.702  1.00  0.00     0.014 A 
ATOM     32  C   UNL     1      -6.589   2.458   3.360  1.00  0.00     0.010 A 
ATOM     33  C   UNL     1      -7.824   0.476   3.987  1.00  0.00     0.010 A 
ATOM     34  C   UNL     1      -7.769   1.700   3.305  1.00  0.00    -0.014 A 
BRANCH  34  35
ATOM     35  C   UNL     1      -8.968   2.160   2.560  1.00  0.00     0.031 A 
ATOM     36  C   UNL     1     -10.263   2.380   3.296  1.00  0.00     0.074 A 
ATOM     37  C   UNL     1      -8.922   2.291   1.219  1.00  0.00     0.049 A 
ATOM     38  N   UNL     1     -11.452   2.629   2.813  1.00  0.00    -0.248 NA
ATOM     39  C   UNL     1     -10.221   2.270   4.765  1.00  0.00     0.031 C 
ATOM     40  C   UNL     1      -7.738   2.073   0.383  1.00  0.00     0.029 A 
ATOM     41  N   UNL     1      -9.902   2.631   0.320  1.00  0.00    -0.354 N 
ATOM     42  C   UNL     1     -12.302   2.672   3.912  1.00  0.00     0.074 A 
ATOM     43  C   UNL     1     -11.503   2.382   5.081  1.00  0.00     0.031 C 
ATOM     44  C   UNL     1      -8.054   2.317  -0.900  1.00  0.00     0.029 A 
ATOM     45  C   UNL     1      -9.469   2.665  -0.985  1.00  0.00     0.049 A 
ATOM     46  H   UNL     1     -10.829   2.832   0.585  1.00  0.00     0.167 HD
ATOM     47  C   UNL     1     -13.625   2.952   3.948  1.00  0.00     0.031 A 
ATOM     48  C   UNL     1     -10.134   2.940  -2.123  1.00  0.00     0.031 A 
ATOM     49  C   UNL     1     -14.408   3.289   2.793  1.00  0.00     0.049 A 
ATOM     50  C   UNL     1     -11.598   3.271  -2.058  1.00  0.00     0.074 A 
ATOM     51  C   UNL     1     -15.744   3.644   2.735  1.00  0.00     0.029 A 
ATOM     52  N   UNL     1     -13.922   3.335   1.496  1.00  0.00    -0.354 N 
ATOM     53  N   UNL     1     -12.381   3.319  -1.006  1.00  0.00    -0.248 NA
ATOM     54  C   UNL     1     -12.269   3.588  -3.326  1.00  0.00     0.031 C 
ATOM     55  C   UNL     1     -16.073   3.881   1.398  1.00  0.00     0.029 A 
ATOM     56  C   UNL     1     -14.932   3.710   0.629  1.00  0.00     0.049 A 
ATOM     57  H   UNL     1     -12.996   3.131   1.231  1.00  0.00     0.167 HD
ATOM     58  C   UNL     1     -13.632   3.691  -1.484  1.00  0.00     0.074 A 
ATOM     59  C   UNL     1     -13.502   3.860  -2.917  1.00  0.00     0.031 C 
ATOM     60  C   UNL     1     -14.782   3.879  -0.793  1.00  0.00     0.031 A 
BRANCH  47  61
ATOM     61  C   UNL     1     -14.305   2.927   5.288  1.00  0.00    -0.014 A 
ATOM     62  C   UNL     1     -14.090   3.956   6.222  1.00  0.00     0.010 A 
ATOM     63  C   UNL     1     -15.207   1.894   5.599  1.00  0.00     0.010 A 
ATOM     64  C   UNL     1     -14.744   3.938   7.455  1.00  0.00     0.020 A 
ATOM     65  C   UNL     1     -15.881   1.884   6.823  1.00  0.00     0.020 A 
ATOM     66  C   UNL     1     -15.639   2.904   7.746  1.00  0.00     0.054 A 
BRANCH  66  67
ATOM     67  S   UNL     1     -16.488   2.926   9.348  1.00  0.00     0.124 S 
ATOM     68  O   UNL     1     -15.373   2.810  10.285  1.00  0.00    -0.237 OA
ATOM     69  O   UNL     1     -17.160   4.222   9.329  1.00  0.00    -0.237 OA
ATOM     70  O   UNL     1     -17.372   1.764   9.291  1.00  0.00    -0.744 OA
ENDBRANCH  66  67
ENDBRANCH  47  61
BRANCH  48  71
ATOM     71  C   UNL     1      -9.402   2.948  -3.417  1.00  0.00    -0.014 A 
ATOM     72  C   UNL     1      -9.040   4.169  -4.012  1.00  0.00     0.010 A 
ATOM     73  C   UNL     1      -9.016   1.743  -4.032  1.00  0.00     0.010 A 
ATOM     74  C   UNL     1      -8.298   4.186  -5.196  1.00  0.00     0.020 A 
ATOM     75  C   UNL     1      -8.258   1.757  -5.208  1.00  0.00     0.020 A 
ATOM     76  C   UNL     1      -7.901   2.980  -5.780  1.00  0.00     0.054 A 
BRANCH  76  77
ATOM     77  S   UNL     1      -6.879   3.038  -7.278  1.00  0.00     0.124 S 
ATOM     78  O   UNL     1      -7.757   3.718  -8.225  1.00  0.00    -0.237 OA
ATOM     79  O   UNL     1      -5.719   3.804  -6.828  1.00  0.00    -0.237 OA
ATOM     80  O   UNL     1      -6.615   1.631  -7.570  1.00  0.00    -0.744 OA
ENDBRANCH  76  77
ENDBRANCH  48  71
BRANCH  60  81
ATOM     81  C   UNL     1     -15.998   4.314  -1.559  1.00  0.00    -0.014 A 
ATOM     82  C   UNL     1     -16.757   3.387  -2.291  1.00  0.00     0.010 A 
ATOM     83  C   UNL     1     -16.452   5.641  -1.440  1.00  0.00     0.010 A 
ATOM     84  C   UNL     1     -17.955   3.779  -2.892  1.00  0.00     0.020 A 
ATOM     85  C   UNL     1     -17.658   6.032  -2.025  1.00  0.00     0.020 A 
ATOM     86  C   UNL     1     -18.403   5.097  -2.746  1.00  0.00     0.054 A 
BRANCH  86  87
ATOM     87  S   UNL     1     -19.999   5.554  -3.476  1.00  0.00     0.124 S 
ATOM     88  O   UNL     1     -19.754   5.352  -4.902  1.00  0.00    -0.237 OA
ATOM     89  O   UNL     1     -20.913   4.600  -2.854  1.00  0.00    -0.237 OA
ATOM     90  O   UNL     1     -20.183   6.945  -3.069  1.00  0.00    -0.744 OA
ENDBRANCH  86  87
ENDBRANCH  60  81
ENDBRANCH  34  35
ENDBRANCH  26  29
ENDBRANCH   1  25
TORSDOF 14
