REMARK SMILES N#Cc1cc([N+](=O)[O-])cnc1Oc1csc(C(=O)NCCCNC(=O)c2ccc(-c3c4nc(c(-c5ccc(S(=O)(=O)[O-])cc5)c5ccc([nH]5)c(-c5ccc(S(=O)(=O)[O-])cc5)c5nc(c(-c6ccc(S(=O)(=O)[O-])cc6)c6ccc3[nH]6)C=C5)C=C4)cc2)c1
REMARK SMILES IDX 21 1 20 2 19 3 17 4 18 5 16 7 13 8 14 9 86 10 15 11 12 12
REMARK SMILES IDX 11 13 3 14 4 15 5 16 10 17 9 18 2 19 1 20 6 21 7 22 8 23
REMARK SMILES IDX 22 24 23 25 24 26 25 28 26 29 27 30 85 31 28 32 84 33 29 34
REMARK SMILES IDX 30 35 31 36 78 37 32 38 83 39 77 40 79 41 33 42 82 43 76 44
REMARK SMILES IDX 75 45 34 47 64 48 45 49 63 50 46 51 49 52 62 53 80 54 47 55
REMARK SMILES IDX 48 56 61 58 81 59 50 60 35 61 36 62 44 63 37 64 43 65 38 66
REMARK SMILES IDX 39 67 40 68 41 69 42 70 65 71 66 72 74 73 67 74 73 75 68 76
REMARK SMILES IDX 69 77 70 78 71 79 72 80 51 81 52 82 60 83 53 84 59 85 54 86
REMARK SMILES IDX 55 87 56 88 57 89 58 90
REMARK H PARENT 19 6 23 27 79 46 49 57
REMARK Flexibility Score: inf
ROOT
ATOM      1  C   UNL     1       3.054  -4.300  -4.133  1.00  0.00     0.042 C 
ENDROOT
BRANCH   1   2
ATOM      2  C   UNL     1       3.391  -4.992  -2.814  1.00  0.00     0.118 C 
BRANCH   2   3
ATOM      3  N   UNL     1       4.625  -4.478  -2.252  1.00  0.00    -0.351 N 
ATOM      4  C   UNL     1       4.881  -3.706  -1.144  1.00  0.00     0.261 C 
ATOM      5  O   UNL     1       6.076  -3.553  -0.877  1.00  0.00    -0.268 OA
ATOM      6  H   UNL     1       5.431  -4.730  -2.758  1.00  0.00     0.163 HD
BRANCH   4   7
ATOM      7  C   UNL     1       3.801  -3.150  -0.344  1.00  0.00     0.096 A 
ATOM      8  C   UNL     1       1.768  -2.353   0.471  1.00  0.00     0.141 A 
ATOM      9  C   UNL     1       2.532  -2.273   1.608  1.00  0.00     0.112 A 
ATOM     10  C   UNL     1       2.490  -2.834  -0.652  1.00  0.00     0.072 A 
ATOM     11  S   UNL     1       4.144  -2.752   1.302  1.00  0.00    -0.135 S 
BRANCH   8  12
ATOM     12  O   UNL     1       0.448  -2.101   0.461  1.00  0.00    -0.437 OA
BRANCH  12  13
ATOM     13  C   UNL     1      -0.109  -0.872   0.230  1.00  0.00     0.237 A 
ATOM     14  C   UNL     1       0.549   0.337  -0.011  1.00  0.00     0.121 A 
ATOM     15  C   UNL     1      -0.226   1.504  -0.117  1.00  0.00     0.112 A 
ATOM     16  C   UNL     1      -1.615   1.424  -0.013  1.00  0.00     0.289 A 
ATOM     17  N   UNL     1      -1.468  -0.947   0.297  1.00  0.00    -0.213 NA
ATOM     18  C   UNL     1      -2.197   0.186   0.162  1.00  0.00     0.200 A 
BRANCH  14  19
ATOM     19  C   UNL     1       1.962   0.484  -0.154  1.00  0.00     0.105 C 
ATOM     20  N   UNL     1       3.103   0.664  -0.280  1.00  0.00    -0.192 NA
ENDBRANCH  14  19
BRANCH  16  21
ATOM     21  N   UNL     1      -2.440   2.622  -0.026  1.00  0.00     0.064 N 
ATOM     22  O   UNL     1      -3.667   2.475   0.011  1.00  0.00    -0.258 OA
ATOM     23  O   UNL     1      -1.855   3.713  -0.022  1.00  0.00    -0.258 OA
ENDBRANCH  16  21
ENDBRANCH  12  13
ENDBRANCH   8  12
ENDBRANCH   4   7
ENDBRANCH   2   3
ENDBRANCH   1   2
BRANCH   1  24
ATOM     24  C   UNL     1       3.928  -4.777  -5.292  1.00  0.00     0.118 C 
BRANCH  24  25
ATOM     25  N   UNL     1       3.727  -6.195  -5.576  1.00  0.00    -0.352 N 
ATOM     26  C   UNL     1       3.209  -6.813  -6.686  1.00  0.00     0.251 C 
ATOM     27  H   UNL     1       4.006  -6.805  -4.856  1.00  0.00     0.163 HD
ATOM     28  O   UNL     1       2.874  -7.992  -6.620  1.00  0.00    -0.269 OA
BRANCH  26  29
ATOM     29  C   UNL     1       3.054  -6.064  -7.949  1.00  0.00     0.039 A 
ATOM     30  C   UNL     1       1.904  -6.259  -8.718  1.00  0.00     0.014 A 
ATOM     31  C   UNL     1       4.051  -5.189  -8.385  1.00  0.00     0.014 A 
ATOM     32  C   UNL     1       1.720  -5.515  -9.885  1.00  0.00     0.010 A 
ATOM     33  C   UNL     1       3.831  -4.391  -9.502  1.00  0.00     0.010 A 
ATOM     34  C   UNL     1       2.660  -4.541 -10.259  1.00  0.00    -0.014 A 
BRANCH  34  35
ATOM     35  C   UNL     1       2.428  -3.644 -11.418  1.00  0.00     0.031 A 
ATOM     36  C   UNL     1       3.368  -3.663 -12.592  1.00  0.00     0.074 A 
ATOM     37  C   UNL     1       1.415  -2.755 -11.372  1.00  0.00     0.049 A 
ATOM     38  N   UNL     1       3.386  -2.886 -13.643  1.00  0.00    -0.248 NA
ATOM     39  C   UNL     1       4.439  -4.673 -12.572  1.00  0.00     0.031 C 
ATOM     40  C   UNL     1       0.450  -2.627 -10.276  1.00  0.00     0.029 A 
ATOM     41  N   UNL     1       1.033  -1.784 -12.263  1.00  0.00    -0.354 N 
ATOM     42  C   UNL     1       4.471  -3.304 -14.404  1.00  0.00     0.074 A 
ATOM     43  C   UNL     1       5.119  -4.368 -13.668  1.00  0.00     0.031 C 
ATOM     44  C   UNL     1      -0.425  -1.653 -10.572  1.00  0.00     0.029 A 
ATOM     45  C   UNL     1      -0.051  -1.046 -11.844  1.00  0.00     0.049 A 
ATOM     46  H   UNL     1       1.491  -1.629 -13.120  1.00  0.00     0.167 HD
ATOM     47  C   UNL     1       4.881  -2.852 -15.614  1.00  0.00     0.031 A 
ATOM     48  C   UNL     1      -0.661   0.014 -12.409  1.00  0.00     0.031 A 
ATOM     49  C   UNL     1       4.235  -1.786 -16.334  1.00  0.00     0.049 A 
ATOM     50  C   UNL     1      -0.144   0.538 -13.721  1.00  0.00     0.074 A 
ATOM     51  C   UNL     1       4.550  -1.281 -17.584  1.00  0.00     0.029 A 
ATOM     52  N   UNL     1       3.152  -1.055 -15.869  1.00  0.00    -0.354 N 
ATOM     53  N   UNL     1       0.843   0.086 -14.457  1.00  0.00    -0.248 NA
ATOM     54  C   UNL     1      -0.825   1.713 -14.281  1.00  0.00     0.031 C 
ATOM     55  C   UNL     1       3.706  -0.197 -17.841  1.00  0.00     0.029 A 
ATOM     56  C   UNL     1       2.812  -0.076 -16.789  1.00  0.00     0.049 A 
ATOM     57  H   UNL     1       2.693  -1.209 -15.012  1.00  0.00     0.167 HD
ATOM     58  C   UNL     1       0.883   0.905 -15.580  1.00  0.00     0.074 A 
ATOM     59  C   UNL     1      -0.194   1.863 -15.437  1.00  0.00     0.031 C 
ATOM     60  C   UNL     1       1.736   0.871 -16.633  1.00  0.00     0.031 A 
BRANCH  47  61
ATOM     61  C   UNL     1       6.093  -3.501 -16.233  1.00  0.00    -0.014 A 
ATOM     62  C   UNL     1       6.055  -4.835 -16.681  1.00  0.00     0.010 A 
ATOM     63  C   UNL     1       7.267  -2.750 -16.425  1.00  0.00     0.010 A 
ATOM     64  C   UNL     1       7.178  -5.414 -17.277  1.00  0.00     0.020 A 
ATOM     65  C   UNL     1       8.382  -3.315 -17.052  1.00  0.00     0.020 A 
ATOM     66  C   UNL     1       8.334  -4.649 -17.462  1.00  0.00     0.054 A 
BRANCH  66  67
ATOM     67  S   UNL     1       9.760  -5.418 -18.276  1.00  0.00     0.124 S 
ATOM     68  O   UNL     1      10.189  -6.392 -17.275  1.00  0.00    -0.237 OA
ATOM     69  O   UNL     1       9.168  -5.981 -19.487  1.00  0.00    -0.237 OA
ATOM     70  O   UNL     1      10.680  -4.305 -18.494  1.00  0.00    -0.744 OA
ENDBRANCH  66  67
ENDBRANCH  47  61
BRANCH  48  71
ATOM     71  C   UNL     1      -1.819   0.661 -11.731  1.00  0.00    -0.014 A 
ATOM     72  C   UNL     1      -3.100   0.623 -12.309  1.00  0.00     0.010 A 
ATOM     73  C   UNL     1      -1.645   1.330 -10.504  1.00  0.00     0.010 A 
ATOM     74  C   UNL     1      -4.178   1.263 -11.689  1.00  0.00     0.020 A 
ATOM     75  C   UNL     1      -2.727   1.938  -9.863  1.00  0.00     0.020 A 
ATOM     76  C   UNL     1      -3.984   1.913 -10.467  1.00  0.00     0.054 A 
BRANCH  76  77
ATOM     77  S   UNL     1      -5.406   2.701  -9.662  1.00  0.00     0.124 S 
ATOM     78  O   UNL     1      -5.667   3.832 -10.546  1.00  0.00    -0.237 OA
ATOM     79  O   UNL     1      -6.405   1.635  -9.682  1.00  0.00    -0.237 OA
ATOM     80  O   UNL     1      -4.899   3.045  -8.336  1.00  0.00    -0.744 OA
ENDBRANCH  76  77
ENDBRANCH  48  71
BRANCH  60  81
ATOM     81  C   UNL     1       1.529   1.882 -17.731  1.00  0.00    -0.014 A 
ATOM     82  C   UNL     1       1.796   3.247 -17.526  1.00  0.00     0.010 A 
ATOM     83  C   UNL     1       1.124   1.448 -19.007  1.00  0.00     0.010 A 
ATOM     84  C   UNL     1       1.639   4.162 -18.570  1.00  0.00     0.020 A 
ATOM     85  C   UNL     1       1.001   2.354 -20.063  1.00  0.00     0.020 A 
ATOM     86  C   UNL     1       1.250   3.708 -19.834  1.00  0.00     0.054 A 
BRANCH  86  87
ATOM     87  S   UNL     1       1.119   4.910 -21.185  1.00  0.00     0.124 S 
ATOM     88  O   UNL     1      -0.045   5.696 -20.784  1.00  0.00    -0.237 OA
ATOM     89  O   UNL     1       2.401   5.606 -21.116  1.00  0.00    -0.237 OA
ATOM     90  O   UNL     1       0.930   4.080 -22.373  1.00  0.00    -0.744 OA
ENDBRANCH  86  87
ENDBRANCH  60  81
ENDBRANCH  34  35
ENDBRANCH  26  29
ENDBRANCH  24  25
ENDBRANCH   1  24
TORSDOF 17
