REMARK SMILES Cc1cc(C)n(-c2nc(C)c(C)c(Oc3cccc(C(=O)NCCCNC(=O)c4ccc(-c5c6nc(c(-c7ccc(S(=O)(=O)[O-])cc7)c7ccc([nH]7)c(-c7ccc(S(=O)(=O)[O-])cc7)c7nc(c(-c8ccc(S(=O)(=O)[O-])cc8)c8ccc5[nH]8)C=C7)C=C6)cc4)c3)n2)n1
REMARK SMILES IDX 24 1 23 2 22 3 20 4 21 5 19 7 15 8 16 9 89 10 17 11 18 12
REMARK SMILES IDX 14 13 13 14 7 15 8 16 90 17 9 18 10 19 11 20 12 21 6 22 1 23
REMARK SMILES IDX 2 24 3 25 91 26 4 27 5 28 25 29 26 30 27 31 28 33 29 34
REMARK SMILES IDX 30 35 88 36 31 37 87 38 32 39 33 40 34 41 81 42 35 43 86 44
REMARK SMILES IDX 80 45 82 46 36 47 85 48 79 49 78 50 37 52 67 53 48 54 66 55
REMARK SMILES IDX 49 56 52 57 65 58 83 59 50 60 51 61 64 63 84 64 53 65 38 66
REMARK SMILES IDX 39 67 47 68 40 69 46 70 41 71 42 72 43 73 44 74 45 75 68 76
REMARK SMILES IDX 69 77 77 78 70 79 76 80 71 81 72 82 73 83 74 84 75 85 54 86
REMARK SMILES IDX 55 87 63 88 56 89 62 90 57 91 58 92 59 93 60 94 61 95
REMARK H PARENT 22 6 26 32 82 51 52 62
REMARK Flexibility Score: inf
ROOT
ATOM      1  C   UNL     1       3.020   5.515  -5.135  1.00  0.00     0.042 C 
ENDROOT
BRANCH   1   2
ATOM      2  C   UNL     1       3.315   4.199  -4.398  1.00  0.00     0.118 C 
BRANCH   2   3
ATOM      3  N   UNL     1       4.718   3.833  -4.497  1.00  0.00    -0.352 N 
ATOM      4  C   UNL     1       5.806   4.090  -3.700  1.00  0.00     0.251 C 
ATOM      5  O   UNL     1       6.878   3.584  -4.036  1.00  0.00    -0.269 OA
ATOM      6  H   UNL     1       4.930   3.294  -5.293  1.00  0.00     0.163 HD
BRANCH   4   7
ATOM      7  C   UNL     1       5.753   4.895  -2.444  1.00  0.00     0.043 A 
ATOM      8  C   UNL     1       4.668   6.354  -0.837  1.00  0.00     0.130 A 
ATOM      9  C   UNL     1       5.734   6.213   0.045  1.00  0.00     0.047 A 
ATOM     10  C   UNL     1       4.725   5.774  -2.106  1.00  0.00     0.061 A 
ATOM     11  C   UNL     1       6.820   5.419  -0.313  1.00  0.00     0.005 A 
ATOM     12  C   UNL     1       6.817   4.745  -1.538  1.00  0.00     0.014 A 
BRANCH   8  13
ATOM     13  O   UNL     1       3.606   7.132  -0.439  1.00  0.00    -0.439 OA
BRANCH  13  14
ATOM     14  C   UNL     1       2.318   6.610  -0.600  1.00  0.00     0.227 A 
ATOM     15  C   UNL     1       0.900   4.837  -0.907  1.00  0.00     0.254 A 
ATOM     16  N   UNL     1      -0.177   5.651  -0.956  1.00  0.00    -0.216 NA
ATOM     17  N   UNL     1       2.153   5.273  -0.688  1.00  0.00    -0.175 NA
ATOM     18  C   UNL     1       0.010   6.969  -0.733  1.00  0.00     0.050 A 
ATOM     19  C   UNL     1      -1.256   7.748  -0.525  1.00  0.00     0.067 C 
ATOM     20  C   UNL     1       1.274   7.525  -0.609  1.00  0.00     0.033 A 
ATOM     21  C   UNL     1       1.495   8.997  -0.462  1.00  0.00     0.052 C 
BRANCH  15  22
ATOM     22  N   UNL     1       0.663   3.427  -1.087  1.00  0.00    -0.203 N 
ATOM     23  C   UNL     1       1.202   0.079   0.008  1.00  0.00     0.069 C 
ATOM     24  C   UNL     1       0.767   1.330  -0.659  1.00  0.00     0.060 A 
ATOM     25  C   UNL     1      -0.304   1.488  -1.559  1.00  0.00     0.049 A 
ATOM     26  N   UNL     1       1.411   2.482  -0.442  1.00  0.00    -0.170 NA
ATOM     27  C   UNL     1      -0.337   2.833  -1.853  1.00  0.00     0.045 A 
ATOM     28  C   UNL     1      -1.179   3.567  -2.831  1.00  0.00     0.067 C 
ENDBRANCH  15  22
ENDBRANCH  13  14
ENDBRANCH   8  13
ENDBRANCH   4   7
ENDBRANCH   2   3
ENDBRANCH   1   2
BRANCH   1  29
ATOM     29  C   UNL     1       2.745   5.273  -6.607  1.00  0.00     0.118 C 
BRANCH  29  30
ATOM     30  N   UNL     1       1.455   4.605  -6.827  1.00  0.00    -0.352 N 
ATOM     31  C   UNL     1       0.871   4.192  -8.016  1.00  0.00     0.251 C 
ATOM     32  H   UNL     1       0.929   4.423  -6.014  1.00  0.00     0.163 HD
ATOM     33  O   UNL     1      -0.324   3.967  -8.074  1.00  0.00    -0.269 OA
BRANCH  31  34
ATOM     34  C   UNL     1       1.737   4.033  -9.200  1.00  0.00     0.039 A 
ATOM     35  C   UNL     1       1.315   4.329 -10.498  1.00  0.00     0.014 A 
ATOM     36  C   UNL     1       3.034   3.599  -8.964  1.00  0.00     0.014 A 
ATOM     37  C   UNL     1       2.246   4.234 -11.533  1.00  0.00     0.010 A 
ATOM     38  C   UNL     1       3.992   3.795  -9.909  1.00  0.00     0.010 A 
ATOM     39  C   UNL     1       3.589   3.973 -11.218  1.00  0.00    -0.014 A 
BRANCH  39  40
ATOM     40  C   UNL     1       4.643   3.909 -12.213  1.00  0.00     0.031 A 
ATOM     41  C   UNL     1       4.799   5.143 -13.014  1.00  0.00     0.074 A 
ATOM     42  C   UNL     1       5.553   2.909 -12.241  1.00  0.00     0.049 A 
ATOM     43  N   UNL     1       4.447   5.318 -14.241  1.00  0.00    -0.248 NA
ATOM     44  C   UNL     1       5.234   6.373 -12.334  1.00  0.00     0.031 C 
ATOM     45  C   UNL     1       5.730   1.782 -11.310  1.00  0.00     0.029 A 
ATOM     46  N   UNL     1       6.608   2.755 -13.078  1.00  0.00    -0.354 N 
ATOM     47  C   UNL     1       4.825   6.614 -14.565  1.00  0.00     0.074 A 
ATOM     48  C   UNL     1       5.113   7.271 -13.314  1.00  0.00     0.031 C 
ATOM     49  C   UNL     1       6.944   1.214 -11.502  1.00  0.00     0.029 A 
ATOM     50  C   UNL     1       7.543   1.806 -12.682  1.00  0.00     0.049 A 
ATOM     51  H   UNL     1       6.704   3.278 -13.907  1.00  0.00     0.167 HD
ATOM     52  C   UNL     1       5.097   6.967 -15.852  1.00  0.00     0.031 A 
ATOM     53  C   UNL     1       8.726   1.538 -13.292  1.00  0.00     0.031 A 
ATOM     54  C   UNL     1       4.706   5.928 -16.774  1.00  0.00     0.049 A 
ATOM     55  C   UNL     1       8.595   2.034 -14.686  1.00  0.00     0.074 A 
ATOM     56  C   UNL     1       3.508   5.340 -17.126  1.00  0.00     0.029 A 
ATOM     57  N   UNL     1       5.691   5.047 -17.165  1.00  0.00    -0.354 N 
ATOM     58  N   UNL     1       7.749   1.531 -15.543  1.00  0.00    -0.248 NA
ATOM     59  C   UNL     1       9.043   3.386 -14.975  1.00  0.00     0.031 C 
ATOM     60  C   UNL     1       3.807   3.952 -17.270  1.00  0.00     0.029 A 
ATOM     61  C   UNL     1       5.180   3.776 -17.076  1.00  0.00     0.049 A 
ATOM     62  H   UNL     1       6.600   5.287 -17.457  1.00  0.00     0.167 HD
ATOM     63  C   UNL     1       7.226   2.627 -16.214  1.00  0.00     0.074 A 
ATOM     64  C   UNL     1       8.130   3.732 -15.888  1.00  0.00     0.031 C 
ATOM     65  C   UNL     1       5.962   2.602 -16.736  1.00  0.00     0.031 A 
BRANCH  52  66
ATOM     66  C   UNL     1       6.057   8.057 -16.250  1.00  0.00    -0.014 A 
ATOM     67  C   UNL     1       6.189   8.370 -17.618  1.00  0.00     0.010 A 
ATOM     68  C   UNL     1       7.015   8.603 -15.372  1.00  0.00     0.010 A 
ATOM     69  C   UNL     1       7.267   9.128 -18.090  1.00  0.00     0.020 A 
ATOM     70  C   UNL     1       8.071   9.396 -15.827  1.00  0.00     0.020 A 
ATOM     71  C   UNL     1       8.210   9.623 -17.189  1.00  0.00     0.054 A 
BRANCH  71  72
ATOM     72  S   UNL     1       9.658  10.502 -17.824  1.00  0.00     0.124 S 
ATOM     73  O   UNL     1      10.329   9.460 -18.594  1.00  0.00    -0.237 OA
ATOM     74  O   UNL     1       9.048  11.575 -18.605  1.00  0.00    -0.237 OA
ATOM     75  O   UNL     1      10.353  10.935 -16.614  1.00  0.00    -0.744 OA
ENDBRANCH  71  72
ENDBRANCH  52  66
BRANCH  53  76
ATOM     76  C   UNL     1      10.041   1.222 -12.676  1.00  0.00    -0.014 A 
ATOM     77  C   UNL     1      11.117   0.773 -13.467  1.00  0.00     0.010 A 
ATOM     78  C   UNL     1      10.332   1.664 -11.369  1.00  0.00     0.010 A 
ATOM     79  C   UNL     1      12.442   0.842 -12.998  1.00  0.00     0.020 A 
ATOM     80  C   UNL     1      11.650   1.733 -10.895  1.00  0.00     0.020 A 
ATOM     81  C   UNL     1      12.702   1.350 -11.723  1.00  0.00     0.054 A 
BRANCH  81  82
ATOM     82  S   UNL     1      14.426   1.626 -11.207  1.00  0.00     0.124 S 
ATOM     83  O   UNL     1      14.940   0.264 -11.092  1.00  0.00    -0.237 OA
ATOM     84  O   UNL     1      14.965   2.412 -12.313  1.00  0.00    -0.237 OA
ATOM     85  O   UNL     1      14.296   2.349  -9.943  1.00  0.00    -0.744 OA
ENDBRANCH  81  82
ENDBRANCH  53  76
BRANCH  65  86
ATOM     86  C   UNL     1       5.233   1.272 -16.772  1.00  0.00    -0.014 A 
ATOM     87  C   UNL     1       4.878   0.536 -15.621  1.00  0.00     0.010 A 
ATOM     88  C   UNL     1       4.764   0.820 -18.017  1.00  0.00     0.010 A 
ATOM     89  C   UNL     1       4.102  -0.632 -15.721  1.00  0.00     0.020 A 
ATOM     90  C   UNL     1       3.978  -0.331 -18.122  1.00  0.00     0.020 A 
ATOM     91  C   UNL     1       3.659  -1.059 -16.976  1.00  0.00     0.054 A 
BRANCH  91  92
ATOM     92  S   UNL     1       2.640  -2.557 -17.105  1.00  0.00     0.124 S 
ATOM     93  O   UNL     1       3.567  -3.610 -16.701  1.00  0.00    -0.237 OA
ATOM     94  O   UNL     1       1.547  -2.289 -16.173  1.00  0.00    -0.237 OA
ATOM     95  O   UNL     1       2.246  -2.591 -18.514  1.00  0.00    -0.744 OA
ENDBRANCH  91  92
ENDBRANCH  65  86
ENDBRANCH  39  40
ENDBRANCH  31  34
ENDBRANCH  29  30
ENDBRANCH   1  29
TORSDOF 16
