REMARK SMILES O=C(/C=C/c1cc(C(=O)Nc2ccc(F)cc2Cl)cs1)NCCCNC(=O)c1ccc(-c2c3nc(c(-c4ccc(S(=O)(=O)[O-])cc4)c4ccc([nH]4)c(-c4ccc(S(=O)(=O)[O-])cc4)c4nc(c(-c5ccc(S(=O)(=O)[O-])cc5)c5ccc2[nH]5)C=C4)C=C3)cc1
REMARK SMILES IDX 23 1 22 2 21 3 1 4 2 5 3 7 4 8 5 9 6 10 20 11 7 12 19 13
REMARK SMILES IDX 8 14 9 15 10 16 11 18 12 19 17 20 13 21 16 22 18 23 14 24
REMARK SMILES IDX 15 25 24 26 25 27 26 28 27 30 28 31 29 32 87 33 30 34 86 35
REMARK SMILES IDX 31 36 32 37 33 38 80 39 34 40 85 41 79 42 81 43 35 44 84 45
REMARK SMILES IDX 78 46 77 47 36 49 66 50 47 51 65 52 48 53 51 54 64 55 82 56
REMARK SMILES IDX 49 57 50 58 63 60 83 61 52 62 37 63 38 64 46 65 39 66 45 67
REMARK SMILES IDX 40 68 41 69 42 70 43 71 44 72 67 73 68 74 76 75 69 76 75 77
REMARK SMILES IDX 70 78 71 79 72 80 73 81 74 82 53 83 54 84 62 85 55 86 61 87
REMARK SMILES IDX 56 88 57 89 58 90 59 91 60 92
REMARK H PARENT 21 6 10 17 25 29 81 48 51 59
REMARK Flexibility Score: inf
ROOT
ATOM      1  C   UNL     1       2.398  -1.166   3.244  1.00  0.00     0.042 C 
ENDROOT
BRANCH   1   2
ATOM      2  C   UNL     1       2.202   0.112   2.435  1.00  0.00     0.118 C 
BRANCH   2   3
ATOM      3  N   UNL     1       2.886   0.083   1.157  1.00  0.00    -0.352 N 
ATOM      4  O   UNL     1       1.043  -0.524  -0.080  1.00  0.00    -0.270 OA
ATOM      5  C   UNL     1       2.229  -0.231  -0.004  1.00  0.00     0.244 C 
ATOM      6  H   UNL     1       3.847   0.295   1.122  1.00  0.00     0.163 HD
BRANCH   5   7
ATOM      7  C   UNL     1       3.018  -0.049  -1.243  1.00  0.00     0.072 C 
ATOM      8  C   UNL     1       4.316  -0.366  -1.381  1.00  0.00     0.024 C 
BRANCH   8   9
ATOM      9  C   UNL     1       5.026  -0.062  -2.582  1.00  0.00     0.028 A 
ATOM     10  C   UNL     1       4.571   0.450  -3.785  1.00  0.00     0.033 A 
ATOM     11  S   UNL     1       6.729  -0.290  -2.667  1.00  0.00    -0.144 S 
ATOM     12  C   UNL     1       5.617   0.940  -4.642  1.00  0.00     0.051 A 
ATOM     13  C   UNL     1       6.838   0.479  -4.191  1.00  0.00     0.079 A 
BRANCH  12  14
ATOM     14  C   UNL     1       5.462   1.745  -5.856  1.00  0.00     0.256 C 
ATOM     15  O   UNL     1       6.234   1.628  -6.809  1.00  0.00    -0.269 OA
ATOM     16  N   UNL     1       4.381   2.596  -5.971  1.00  0.00    -0.321 N 
ATOM     17  H   UNL     1       4.154   2.849  -6.895  1.00  0.00     0.170 HD
BRANCH  16  18
ATOM     18  C   UNL     1       3.547   3.165  -4.983  1.00  0.00     0.060 A 
ATOM     19  C   UNL     1       4.011   3.447  -3.690  1.00  0.00     0.031 A 
ATOM     20  C   UNL     1       2.206   3.453  -5.298  1.00  0.00     0.067 A 
ATOM     21  C   UNL     1       3.129   3.895  -2.704  1.00  0.00     0.041 A 
ATOM     22  C   UNL     1       1.323   3.893  -4.311  1.00  0.00     0.062 A 
ATOM     23  Cl  UNL     1       1.587   3.190  -6.891  1.00  0.00    -0.082 Cl
ATOM     24  C   UNL     1       1.791   4.093  -3.020  1.00  0.00     0.124 A 
ATOM     25  F   UNL     1       0.942   4.489  -2.064  1.00  0.00    -0.207 F 
ENDBRANCH  16  18
ENDBRANCH  12  14
ENDBRANCH   8   9
ENDBRANCH   5   7
ENDBRANCH   2   3
ENDBRANCH   1   2
BRANCH   1  26
ATOM     26  C   UNL     1       3.846  -1.464   3.624  1.00  0.00     0.118 C 
BRANCH  26  27
ATOM     27  N   UNL     1       4.451  -0.430   4.452  1.00  0.00    -0.352 N 
ATOM     28  C   UNL     1       5.212  -0.532   5.591  1.00  0.00     0.251 C 
ATOM     29  H   UNL     1       4.288   0.491   4.146  1.00  0.00     0.163 HD
ATOM     30  O   UNL     1       5.528   0.497   6.184  1.00  0.00    -0.269 OA
BRANCH  28  31
ATOM     31  C   UNL     1       5.629  -1.850   6.126  1.00  0.00     0.039 A 
ATOM     32  C   UNL     1       5.597  -2.040   7.512  1.00  0.00     0.014 A 
ATOM     33  C   UNL     1       6.079  -2.881   5.297  1.00  0.00     0.014 A 
ATOM     34  C   UNL     1       5.951  -3.277   8.057  1.00  0.00     0.010 A 
ATOM     35  C   UNL     1       6.374  -4.135   5.837  1.00  0.00     0.010 A 
ATOM     36  C   UNL     1       6.310  -4.347   7.222  1.00  0.00    -0.014 A 
BRANCH  36  37
ATOM     37  C   UNL     1       6.582  -5.694   7.789  1.00  0.00     0.031 A 
ATOM     38  C   UNL     1       7.956  -6.303   7.711  1.00  0.00     0.074 A 
ATOM     39  C   UNL     1       5.571  -6.394   8.340  1.00  0.00     0.049 A 
ATOM     40  N   UNL     1       8.367  -7.466   8.151  1.00  0.00    -0.248 NA
ATOM     41  C   UNL     1       8.998  -5.514   7.036  1.00  0.00     0.031 C 
ATOM     42  C   UNL     1       4.180  -5.942   8.433  1.00  0.00     0.029 A 
ATOM     43  N   UNL     1       5.555  -7.635   8.927  1.00  0.00    -0.354 N 
ATOM     44  C   UNL     1       9.708  -7.556   7.795  1.00  0.00     0.074 A 
ATOM     45  C   UNL     1      10.030  -6.346   7.068  1.00  0.00     0.031 C 
ATOM     46  C   UNL     1       3.455  -6.878   9.066  1.00  0.00     0.029 A 
ATOM     47  C   UNL     1       4.318  -8.007   9.398  1.00  0.00     0.049 A 
ATOM     48  H   UNL     1       6.354  -8.205   9.002  1.00  0.00     0.167 HD
ATOM     49  C   UNL     1      10.595  -8.546   8.062  1.00  0.00     0.031 A 
ATOM     50  C   UNL     1       3.920  -9.127  10.031  1.00  0.00     0.031 A 
ATOM     51  C   UNL     1      10.279  -9.745   8.793  1.00  0.00     0.049 A 
ATOM     52  C   UNL     1       4.928 -10.198  10.339  1.00  0.00     0.074 A 
ATOM     53  C   UNL     1      11.125 -10.780   9.156  1.00  0.00     0.029 A 
ATOM     54  N   UNL     1       9.021 -10.073   9.273  1.00  0.00    -0.354 N 
ATOM     55  N   UNL     1       6.206 -10.234  10.048  1.00  0.00    -0.248 NA
ATOM     56  C   UNL     1       4.441 -11.371  11.078  1.00  0.00     0.031 C 
ATOM     57  C   UNL     1      10.369 -11.750   9.826  1.00  0.00     0.029 A 
ATOM     58  C   UNL     1       9.063 -11.298   9.919  1.00  0.00     0.049 A 
ATOM     59  H   UNL     1       8.215  -9.516   9.171  1.00  0.00     0.167 HD
ATOM     60  C   UNL     1       6.681 -11.423  10.589  1.00  0.00     0.074 A 
ATOM     61  C   UNL     1       5.557 -12.068  11.238  1.00  0.00     0.031 C 
ATOM     62  C   UNL     1       7.937 -11.934  10.553  1.00  0.00     0.031 A 
BRANCH  49  63
ATOM     63  C   UNL     1      12.001  -8.369   7.553  1.00  0.00    -0.014 A 
ATOM     64  C   UNL     1      12.870  -7.431   8.139  1.00  0.00     0.010 A 
ATOM     65  C   UNL     1      12.472  -9.174   6.500  1.00  0.00     0.010 A 
ATOM     66  C   UNL     1      14.170  -7.270   7.652  1.00  0.00     0.020 A 
ATOM     67  C   UNL     1      13.780  -9.033   6.026  1.00  0.00     0.020 A 
ATOM     68  C   UNL     1      14.615  -8.068   6.594  1.00  0.00     0.054 A 
BRANCH  68  69
ATOM     69  S   UNL     1      16.311  -7.848   5.988  1.00  0.00     0.124 S 
ATOM     70  O   UNL     1      16.195  -6.615   5.214  1.00  0.00    -0.237 OA
ATOM     71  O   UNL     1      17.084  -7.744   7.223  1.00  0.00    -0.237 OA
ATOM     72  O   UNL     1      16.557  -9.056   5.204  1.00  0.00    -0.744 OA
ENDBRANCH  68  69
ENDBRANCH  49  63
BRANCH  50  73
ATOM     73  C   UNL     1       2.501  -9.274  10.449  1.00  0.00    -0.014 A 
ATOM     74  C   UNL     1       2.143  -9.154  11.803  1.00  0.00     0.010 A 
ATOM     75  C   UNL     1       1.498  -9.513   9.492  1.00  0.00     0.010 A 
ATOM     76  C   UNL     1       0.808  -9.287  12.196  1.00  0.00     0.020 A 
ATOM     77  C   UNL     1       0.160  -9.622   9.879  1.00  0.00     0.020 A 
ATOM     78  C   UNL     1      -0.175  -9.519  11.231  1.00  0.00     0.054 A 
BRANCH  78  79
ATOM     79  S   UNL     1      -1.910  -9.627  11.753  1.00  0.00     0.124 S 
ATOM     80  O   UNL     1      -1.976 -10.975  12.307  1.00  0.00    -0.237 OA
ATOM     81  O   UNL     1      -2.019  -8.538  12.721  1.00  0.00    -0.237 OA
ATOM     82  O   UNL     1      -2.651  -9.420  10.511  1.00  0.00    -0.744 OA
ENDBRANCH  78  79
ENDBRANCH  50  73
BRANCH  62  83
ATOM     83  C   UNL     1       8.164 -13.241  11.262  1.00  0.00    -0.014 A 
ATOM     84  C   UNL     1       7.679 -14.451  10.734  1.00  0.00     0.010 A 
ATOM     85  C   UNL     1       8.887 -13.260  12.469  1.00  0.00     0.010 A 
ATOM     86  C   UNL     1       7.872 -15.650  11.425  1.00  0.00     0.020 A 
ATOM     87  C   UNL     1       9.102 -14.460  13.150  1.00  0.00     0.020 A 
ATOM     88  C   UNL     1       8.575 -15.646  12.633  1.00  0.00     0.054 A 
BRANCH  88  89
ATOM     89  S   UNL     1       8.826 -17.215  13.510  1.00  0.00     0.124 S 
ATOM     90  O   UNL     1       7.527 -17.416  14.146  1.00  0.00    -0.237 OA
ATOM     91  O   UNL     1       9.146 -18.143  12.428  1.00  0.00    -0.237 OA
ATOM     92  O   UNL     1       9.931 -16.927  14.422  1.00  0.00    -0.744 OA
ENDBRANCH  88  89
ENDBRANCH  62  83
ENDBRANCH  36  37
ENDBRANCH  28  31
ENDBRANCH  26  27
ENDBRANCH   1  26
TORSDOF 16
