REMARK SMILES CC1(C)[C@@]2(C(=O)NCCCNC(=O)c3ccc(-c4c5nc(c(-c6ccc(S(=O)(=O)[O-])cc6)c6ccc([nH]6)c(-c6ccc(S(=O)(=O)[O-])cc6)c6nc(c(-c7ccc(S(=O)(=O)[O-])cc7)c7ccc4[nH]7)C=C6)C=C5)cc3)CC[C@]1(C)/C(=N/NC(=O)c1ccc(Cl)cc1)C2
REMARK SMILES IDX 9 1 8 2 7 3 5 4 6 5 4 7 1 8 2 9 3 10 76 11 74 12 90 13 75 14
REMARK SMILES IDX 77 15 78 16 79 17 80 18 81 19 82 21 83 22 84 23 89 24 85 25
REMARK SMILES IDX 88 26 86 27 87 28 10 29 11 30 12 31 13 33 14 34 15 35 73 36
REMARK SMILES IDX 16 37 72 38 17 39 18 40 19 41 66 42 20 43 71 44 65 45 67 46
REMARK SMILES IDX 21 47 70 48 64 49 63 50 22 52 52 53 33 54 51 55 34 56 37 57
REMARK SMILES IDX 50 58 68 59 35 60 36 61 49 63 69 64 38 65 23 66 24 67 32 68
REMARK SMILES IDX 25 69 31 70 26 71 27 72 28 73 29 74 30 75 53 76 54 77 62 78
REMARK SMILES IDX 55 79 61 80 56 81 57 82 58 83 59 84 60 85 39 86 40 87 48 88
REMARK SMILES IDX 41 89 47 90 42 91 43 92 44 93 45 94 46 95
REMARK H PARENT 7 6 80 20 11 32 67 51 37 62
REMARK Flexibility Score: inf
ROOT
ATOM      1  C   UNL     1      -0.750   1.921   5.821  1.00  0.00     0.042 C 
ENDROOT
BRANCH   1   2
ATOM      2  C   UNL     1      -0.425   1.997   4.317  1.00  0.00     0.117 C 
BRANCH   2   3
ATOM      3  N   UNL     1       0.758   1.293   3.845  1.00  0.00    -0.356 N 
ATOM      4  C   UNL     1       1.028   0.705   2.640  1.00  0.00     0.227 C 
ATOM      5  O   UNL     1       2.193   0.808   2.247  1.00  0.00    -0.274 OA
ATOM      6  H   UNL     1       1.487   1.229   4.504  1.00  0.00     0.163 HD
BRANCH   4   7
ATOM      7  C   UNL     1       0.019  -0.167   1.883  1.00  0.00     0.060 C 
ATOM      8  C   UNL     1       0.662   0.455  -0.572  1.00  0.00     0.013 C 
ATOM      9  C   UNL     1       0.464  -0.682   0.460  1.00  0.00    -0.010 C 
ATOM     10  C   UNL     1       1.719  -1.577   0.373  1.00  0.00     0.013 C 
ATOM     11  C   UNL     1      -0.846  -1.507   0.273  1.00  0.00     0.014 C 
ATOM     12  C   UNL     1      -1.386   0.439   1.585  1.00  0.00     0.019 C 
ATOM     13  C   UNL     1      -0.224  -1.483   2.662  1.00  0.00     0.071 C 
ATOM     14  C   UNL     1      -1.948  -0.445   0.449  1.00  0.00     0.014 C 
ATOM     15  C   UNL     1      -0.986  -2.346  -0.981  1.00  0.00     0.018 C 
ATOM     16  C   UNL     1      -0.904  -2.297   1.609  1.00  0.00     0.046 C 
ATOM     17  N   UNL     1      -1.589  -3.389   1.666  1.00  0.00    -0.181 NA
BRANCH  17  18
ATOM     18  N   UNL     1      -1.924  -4.222   2.681  1.00  0.00    -0.243 N 
ATOM     19  C   UNL     1      -1.640  -4.470   4.005  1.00  0.00     0.271 C 
ATOM     20  H   UNL     1      -2.597  -4.867   2.365  1.00  0.00     0.194 HD
ATOM     21  O   UNL     1      -2.198  -5.414   4.565  1.00  0.00    -0.267 OA
BRANCH  19  22
ATOM     22  C   UNL     1      -0.683  -3.719   4.808  1.00  0.00     0.041 A 
ATOM     23  C   UNL     1       0.564  -4.285   5.094  1.00  0.00     0.015 A 
ATOM     24  C   UNL     1      -1.064  -2.521   5.407  1.00  0.00     0.015 A 
ATOM     25  C   UNL     1       1.506  -3.552   5.817  1.00  0.00     0.021 A 
ATOM     26  C   UNL     1      -0.105  -1.778   6.094  1.00  0.00     0.021 A 
ATOM     27  C   UNL     1       1.187  -2.272   6.259  1.00  0.00     0.041 A 
ATOM     28  Cl  UNL     1       2.396  -1.283   6.977  1.00  0.00    -0.084 Cl
ENDBRANCH  19  22
ENDBRANCH  17  18
ENDBRANCH   4   7
ENDBRANCH   2   3
ENDBRANCH   1   2
BRANCH   1  29
ATOM     29  C   UNL     1       0.413   1.919   6.829  1.00  0.00     0.118 C 
BRANCH  29  30
ATOM     30  N   UNL     1       0.354   3.073   7.710  1.00  0.00    -0.352 N 
ATOM     31  C   UNL     1       0.136   3.190   9.061  1.00  0.00     0.251 C 
ATOM     32  H   UNL     1       0.499   3.933   7.253  1.00  0.00     0.163 HD
ATOM     33  O   UNL     1      -0.145   4.312   9.486  1.00  0.00    -0.269 OA
BRANCH  31  34
ATOM     34  C   UNL     1       0.234   2.063  10.034  1.00  0.00     0.039 A 
ATOM     35  C   UNL     1      -0.596   2.118  11.165  1.00  0.00     0.014 A 
ATOM     36  C   UNL     1       1.221   1.074   9.980  1.00  0.00     0.014 A 
ATOM     37  C   UNL     1      -0.429   1.219  12.229  1.00  0.00     0.010 A 
ATOM     38  C   UNL     1       1.363   0.147  11.035  1.00  0.00     0.010 A 
ATOM     39  C   UNL     1       0.560   0.225  12.186  1.00  0.00    -0.014 A 
BRANCH  39  40
ATOM     40  C   UNL     1       0.749  -0.683  13.361  1.00  0.00     0.031 A 
ATOM     41  C   UNL     1       1.973  -0.582  14.243  1.00  0.00     0.074 A 
ATOM     42  C   UNL     1      -0.202  -1.586  13.678  1.00  0.00     0.049 A 
ATOM     43  N   UNL     1       2.249  -1.226  15.353  1.00  0.00    -0.248 NA
ATOM     44  C   UNL     1       3.024   0.355  13.822  1.00  0.00     0.031 C 
ATOM     45  C   UNL     1      -1.431  -1.818  12.918  1.00  0.00     0.029 A 
ATOM     46  N   UNL     1      -0.293  -2.468  14.731  1.00  0.00    -0.354 N 
ATOM     47  C   UNL     1       3.504  -0.780  15.758  1.00  0.00     0.074 A 
ATOM     48  C   UNL     1       3.950   0.163  14.753  1.00  0.00     0.031 C 
ATOM     49  C   UNL     1      -2.163  -2.756  13.541  1.00  0.00     0.029 A 
ATOM     50  C   UNL     1      -1.452  -3.210  14.734  1.00  0.00     0.049 A 
ATOM     51  H   UNL     1       0.407  -2.560  15.417  1.00  0.00     0.167 HD
ATOM     52  C   UNL     1       4.217  -1.108  16.866  1.00  0.00     0.031 A 
ATOM     53  C   UNL     1      -1.905  -4.142  15.598  1.00  0.00     0.031 A 
ATOM     54  C   UNL     1       3.784  -2.041  17.876  1.00  0.00     0.049 A 
ATOM     55  C   UNL     1      -1.103  -4.485  16.824  1.00  0.00     0.074 A 
ATOM     56  C   UNL     1       4.427  -2.397  19.052  1.00  0.00     0.029 A 
ATOM     57  N   UNL     1       2.605  -2.768  17.836  1.00  0.00    -0.354 N 
ATOM     58  N   UNL     1       0.051  -4.001  17.215  1.00  0.00    -0.248 NA
ATOM     59  C   UNL     1      -1.677  -5.485  17.736  1.00  0.00     0.031 C 
ATOM     60  C   UNL     1       3.657  -3.370  19.700  1.00  0.00     0.029 A 
ATOM     61  C   UNL     1       2.510  -3.581  18.955  1.00  0.00     0.049 A 
ATOM     62  H   UNL     1       1.934  -2.714  17.118  1.00  0.00     0.167 HD
ATOM     63  C   UNL     1       0.326  -4.616  18.433  1.00  0.00     0.074 A 
ATOM     64  C   UNL     1      -0.787  -5.497  18.720  1.00  0.00     0.031 C 
ATOM     65  C   UNL     1       1.403  -4.459  19.241  1.00  0.00     0.031 A 
BRANCH  52  66
ATOM     66  C   UNL     1       5.566  -0.454  17.046  1.00  0.00    -0.014 A 
ATOM     67  C   UNL     1       5.674   0.907  17.385  1.00  0.00     0.010 A 
ATOM     68  C   UNL     1       6.739  -1.222  16.928  1.00  0.00     0.010 A 
ATOM     69  C   UNL     1       6.929   1.498  17.556  1.00  0.00     0.020 A 
ATOM     70  C   UNL     1       7.996  -0.641  17.124  1.00  0.00     0.020 A 
ATOM     71  C   UNL     1       8.084   0.722  17.416  1.00  0.00     0.054 A 
BRANCH  71  72
ATOM     72  S   UNL     1       9.701   1.511  17.650  1.00  0.00     0.124 S 
ATOM     73  O   UNL     1       9.844   2.273  16.412  1.00  0.00    -0.237 OA
ATOM     74  O   UNL     1       9.499   2.309  18.857  1.00  0.00    -0.237 OA
ATOM     75  O   UNL     1      10.619   0.385  17.798  1.00  0.00    -0.744 OA
ENDBRANCH  71  72
ENDBRANCH  52  66
BRANCH  53  76
ATOM     76  C   UNL     1      -3.216  -4.803  15.347  1.00  0.00    -0.014 A 
ATOM     77  C   UNL     1      -4.335  -4.500  16.142  1.00  0.00     0.010 A 
ATOM     78  C   UNL     1      -3.352  -5.733  14.300  1.00  0.00     0.010 A 
ATOM     79  C   UNL     1      -5.563  -5.123  15.903  1.00  0.00     0.020 A 
ATOM     80  C   UNL     1      -4.585  -6.339  14.042  1.00  0.00     0.020 A 
ATOM     81  C   UNL     1      -5.681  -6.037  14.852  1.00  0.00     0.054 A 
BRANCH  81  82
ATOM     82  S   UNL     1      -7.300  -6.785  14.517  1.00  0.00     0.124 S 
ATOM     83  O   UNL     1      -7.403  -7.776  15.586  1.00  0.00    -0.237 OA
ATOM     84  O   UNL     1      -8.206  -5.643  14.625  1.00  0.00    -0.237 OA
ATOM     85  O   UNL     1      -7.153  -7.328  13.171  1.00  0.00    -0.744 OA
ENDBRANCH  81  82
ENDBRANCH  53  76
BRANCH  65  86
ATOM     86  C   UNL     1       1.420  -5.227  20.538  1.00  0.00    -0.014 A 
ATOM     87  C   UNL     1       1.628  -6.618  20.563  1.00  0.00     0.010 A 
ATOM     88  C   UNL     1       1.256  -4.539  21.754  1.00  0.00     0.010 A 
ATOM     89  C   UNL     1       1.633  -7.311  21.778  1.00  0.00     0.020 A 
ATOM     90  C   UNL     1       1.284  -5.225  22.972  1.00  0.00     0.020 A 
ATOM     91  C   UNL     1       1.454  -6.611  22.975  1.00  0.00     0.054 A 
BRANCH  91  92
ATOM     92  S   UNL     1       1.488  -7.527  24.542  1.00  0.00     0.124 S 
ATOM     93  O   UNL     1       0.173  -8.161  24.551  1.00  0.00    -0.237 OA
ATOM     94  O   UNL     1       2.621  -8.432  24.363  1.00  0.00    -0.237 OA
ATOM     95  O   UNL     1       1.684  -6.484  25.547  1.00  0.00    -0.744 OA
ENDBRANCH  91  92
ENDBRANCH  65  86
ENDBRANCH  39  40
ENDBRANCH  31  34
ENDBRANCH  29  30
ENDBRANCH   1  29
TORSDOF 15
