REMARK SMILES O=C(NCCCNC(=O)c1nccnc1C(=O)Nc1n[nH]c2ncccc12)c1ccc(-c2c3nc(c(-c4ccc(S(=O)(=O)[O-])cc4)c4ccc([nH]4)c(-c4ccc(S(=O)(=O)[O-])cc4)c4nc(c(-c5ccc(S(=O)(=O)[O-])cc5)c5ccc2[nH]5)C=C4)C=C3)cc1
REMARK SMILES IDX 4 1 3 2 1 3 2 4 28 6 29 7 87 8 30 9 86 10 31 11 32 12 33 13
REMARK SMILES IDX 80 14 34 15 85 16 79 17 81 18 35 19 84 20 78 21 77 22 36 24
REMARK SMILES IDX 66 25 47 26 65 27 48 28 51 29 64 30 82 31 49 32 50 33 63 35
REMARK SMILES IDX 83 36 52 37 37 38 38 39 46 40 39 41 45 42 40 43 41 44 42 45
REMARK SMILES IDX 43 46 44 47 67 48 68 49 76 50 69 51 75 52 70 53 71 54 72 55
REMARK SMILES IDX 73 56 74 57 53 58 54 59 62 60 55 61 61 62 56 63 57 64 58 65
REMARK SMILES IDX 59 66 60 67 5 68 6 69 7 70 8 71 9 73 10 74 11 75 15 76 12 77
REMARK SMILES IDX 14 78 13 79 16 80 17 81 18 82 19 84 20 85 27 86 21 87 22 88
REMARK SMILES IDX 26 89 23 91 25 92 24 93
REMARK H PARENT 3 5 81 23 51 34 7 72 18 83 21 90
REMARK Flexibility Score: inf
ROOT
ATOM      1  C   UNL     1       4.344   1.332  -0.419  1.00  0.00     0.118 C 
ENDROOT
BRANCH   1   2
ATOM      2  N   UNL     1       2.912   1.072  -0.222  1.00  0.00    -0.352 N 
ATOM      3  O   UNL     1       1.002  -0.060   0.183  1.00  0.00    -0.269 OA
ATOM      4  C   UNL     1       2.214   0.041   0.344  1.00  0.00     0.251 C 
ATOM      5  H   UNL     1       2.334   1.789  -0.570  1.00  0.00     0.163 HD
BRANCH   4   6
ATOM      6  C   UNL     1       2.957  -0.975   1.105  1.00  0.00     0.039 A 
ATOM      7  C   UNL     1       4.079  -0.585   1.825  1.00  0.00     0.014 A 
ATOM      8  C   UNL     1       2.582  -2.320   1.055  1.00  0.00     0.014 A 
ATOM      9  C   UNL     1       4.974  -1.539   2.247  1.00  0.00     0.010 A 
ATOM     10  C   UNL     1       3.381  -3.275   1.687  1.00  0.00     0.010 A 
ATOM     11  C   UNL     1       4.599  -2.890   2.264  1.00  0.00    -0.014 A 
BRANCH  11  12
ATOM     12  C   UNL     1       5.468  -3.810   3.030  1.00  0.00     0.031 A 
ATOM     13  C   UNL     1       6.133  -4.988   2.389  1.00  0.00     0.074 A 
ATOM     14  C   UNL     1       5.719  -3.479   4.315  1.00  0.00     0.049 A 
ATOM     15  N   UNL     1       6.981  -5.828   2.923  1.00  0.00    -0.248 NA
ATOM     16  C   UNL     1       5.806  -5.277   0.984  1.00  0.00     0.031 C 
ATOM     17  C   UNL     1       5.107  -2.346   5.028  1.00  0.00     0.029 A 
ATOM     18  N   UNL     1       6.589  -4.003   5.230  1.00  0.00    -0.354 N 
ATOM     19  C   UNL     1       7.278  -6.752   1.931  1.00  0.00     0.074 A 
ATOM     20  C   UNL     1       6.495  -6.390   0.769  1.00  0.00     0.031 C 
ATOM     21  C   UNL     1       5.698  -2.198   6.218  1.00  0.00     0.029 A 
ATOM     22  C   UNL     1       6.626  -3.299   6.411  1.00  0.00     0.049 A 
ATOM     23  H   UNL     1       7.134  -4.805   5.061  1.00  0.00     0.167 HD
ATOM     24  C   UNL     1       8.133  -7.800   1.992  1.00  0.00     0.031 A 
ATOM     25  C   UNL     1       7.299  -3.533   7.549  1.00  0.00     0.031 A 
ATOM     26  C   UNL     1       8.893  -8.145   3.168  1.00  0.00     0.049 A 
ATOM     27  C   UNL     1       8.193  -4.733   7.598  1.00  0.00     0.074 A 
ATOM     28  C   UNL     1       9.784  -9.189   3.341  1.00  0.00     0.029 A 
ATOM     29  N   UNL     1       8.853  -7.453   4.372  1.00  0.00    -0.354 N 
ATOM     30  N   UNL     1       8.467  -5.591   6.643  1.00  0.00    -0.248 NA
ATOM     31  C   UNL     1       8.865  -4.999   8.872  1.00  0.00     0.031 C 
ATOM     32  C   UNL     1      10.233  -9.167   4.665  1.00  0.00     0.029 A 
ATOM     33  C   UNL     1       9.684  -8.063   5.298  1.00  0.00     0.049 A 
ATOM     34  H   UNL     1       8.312  -6.648   4.543  1.00  0.00     0.167 HD
ATOM     35  C   UNL     1       9.357  -6.497   7.201  1.00  0.00     0.074 A 
ATOM     36  C   UNL     1       9.606  -6.051   8.559  1.00  0.00     0.031 C 
ATOM     37  C   UNL     1       9.907  -7.606   6.648  1.00  0.00     0.031 A 
BRANCH  24  38
ATOM     38  C   UNL     1       8.280  -8.664   0.766  1.00  0.00    -0.014 A 
ATOM     39  C   UNL     1       8.921  -8.182  -0.390  1.00  0.00     0.010 A 
ATOM     40  C   UNL     1       7.837  -9.999   0.793  1.00  0.00     0.010 A 
ATOM     41  C   UNL     1       9.099  -9.013  -1.500  1.00  0.00     0.020 A 
ATOM     42  C   UNL     1       8.039 -10.843  -0.303  1.00  0.00     0.020 A 
ATOM     43  C   UNL     1       8.662 -10.341  -1.447  1.00  0.00     0.054 A 
BRANCH  43  44
ATOM     44  S   UNL     1       8.957 -11.406  -2.885  1.00  0.00     0.124 S 
ATOM     45  O   UNL     1       8.066 -10.820  -3.884  1.00  0.00    -0.237 OA
ATOM     46  O   UNL     1      10.385 -11.218  -3.131  1.00  0.00    -0.237 OA
ATOM     47  O   UNL     1       8.577 -12.737  -2.417  1.00  0.00    -0.744 OA
ENDBRANCH  43  44
ENDBRANCH  24  38
BRANCH  25  48
ATOM     48  C   UNL     1       7.082  -2.664   8.738  1.00  0.00    -0.014 A 
ATOM     49  C   UNL     1       8.129  -1.911   9.294  1.00  0.00     0.010 A 
ATOM     50  C   UNL     1       5.803  -2.593   9.326  1.00  0.00     0.010 A 
ATOM     51  C   UNL     1       7.910  -1.139  10.439  1.00  0.00     0.020 A 
ATOM     52  C   UNL     1       5.569  -1.787  10.439  1.00  0.00     0.020 A 
ATOM     53  C   UNL     1       6.632  -1.083  11.004  1.00  0.00     0.054 A 
BRANCH  53  54
ATOM     54  S   UNL     1       6.370  -0.071  12.484  1.00  0.00     0.124 S 
ATOM     55  O   UNL     1       7.077  -0.840  13.503  1.00  0.00    -0.237 OA
ATOM     56  O   UNL     1       6.983   1.200  12.108  1.00  0.00    -0.237 OA
ATOM     57  O   UNL     1       4.915  -0.037  12.623  1.00  0.00    -0.744 OA
ENDBRANCH  53  54
ENDBRANCH  25  48
BRANCH  37  58
ATOM     58  C   UNL     1      10.861  -8.384   7.514  1.00  0.00    -0.014 A 
ATOM     59  C   UNL     1      10.414  -9.078   8.654  1.00  0.00     0.010 A 
ATOM     60  C   UNL     1      12.226  -8.419   7.181  1.00  0.00     0.010 A 
ATOM     61  C   UNL     1      11.325  -9.740   9.478  1.00  0.00     0.020 A 
ATOM     62  C   UNL     1      13.134  -9.116   7.979  1.00  0.00     0.020 A 
ATOM     63  C   UNL     1      12.680  -9.753   9.135  1.00  0.00     0.054 A 
BRANCH  63  64
ATOM     64  S   UNL     1      13.840 -10.630  10.216  1.00  0.00     0.124 S 
ATOM     65  O   UNL     1      13.873  -9.766  11.392  1.00  0.00    -0.237 OA
ATOM     66  O   UNL     1      13.185 -11.923  10.402  1.00  0.00    -0.237 OA
ATOM     67  O   UNL     1      15.077 -10.670   9.438  1.00  0.00    -0.744 OA
ENDBRANCH  63  64
ENDBRANCH  37  58
ENDBRANCH  11  12
ENDBRANCH   4   6
ENDBRANCH   1   2
BRANCH   1  68
ATOM     68  C   UNL     1       4.959   1.369  -2.022  1.00  0.00     0.042 C 
BRANCH  68  69
ATOM     69  C   UNL     1       4.370   2.522  -3.809  1.00  0.00     0.118 C 
BRANCH  69  70
ATOM     70  N   UNL     1       4.382   4.101  -4.107  1.00  0.00    -0.351 N 
ATOM     71  C   UNL     1       5.229   4.830  -4.915  1.00  0.00     0.272 C 
ATOM     72  H   UNL     1       3.685   4.622  -3.647  1.00  0.00     0.163 HD
ATOM     73  O   UNL     1       5.270   6.053  -4.881  1.00  0.00    -0.267 OA
BRANCH  71  74
ATOM     74  C   UNL     1       6.054   4.061  -5.861  1.00  0.00     0.159 A 
ATOM     75  N   UNL     1       5.302   3.507  -6.872  1.00  0.00    -0.247 NA
ATOM     76  C   UNL     1       7.409   3.810  -5.697  1.00  0.00     0.159 A 
ATOM     77  C   UNL     1       5.962   2.710  -7.729  1.00  0.00     0.132 A 
ATOM     78  N   UNL     1       8.055   2.989  -6.588  1.00  0.00    -0.247 NA
ATOM     79  C   UNL     1       7.312   2.461  -7.591  1.00  0.00     0.132 A 
BRANCH  76  80
ATOM     80  C   UNL     1       8.316   4.421  -4.675  1.00  0.00     0.277 C 
ATOM     81  O   UNL     1       9.388   4.887  -5.076  1.00  0.00    -0.267 OA
ATOM     82  N   UNL     1       8.031   4.542  -3.334  1.00  0.00    -0.303 N 
ATOM     83  H   UNL     1       8.684   5.070  -2.820  1.00  0.00     0.172 HD
BRANCH  82  84
ATOM     84  C   UNL     1       6.987   4.049  -2.599  1.00  0.00     0.164 A 
ATOM     85  N   UNL     1       6.533   4.795  -1.577  1.00  0.00    -0.155 NA
ATOM     86  C   UNL     1       6.221   2.892  -2.837  1.00  0.00     0.063 A 
ATOM     87  N   UNL     1       5.237   4.460  -1.317  1.00  0.00    -0.259 N 
ATOM     88  C   UNL     1       4.786   3.357  -1.984  1.00  0.00     0.157 A 
ATOM     89  C   UNL     1       6.194   1.370  -3.774  1.00  0.00     0.017 A 
ATOM     90  H   UNL     1       4.670   4.974  -0.698  1.00  0.00     0.192 HD
ATOM     91  N   UNL     1       3.263   2.526  -2.126  1.00  0.00    -0.237 NA
ATOM     92  C   UNL     1       4.699   0.412  -3.918  1.00  0.00     0.021 A 
ATOM     93  C   UNL     1       3.283   0.986  -3.051  1.00  0.00     0.113 A 
ENDBRANCH  82  84
ENDBRANCH  76  80
ENDBRANCH  71  74
ENDBRANCH  69  70
ENDBRANCH  68  69
ENDBRANCH   1  68
TORSDOF 15
