REMARK SMILES N#Cc1cc2c(nc1N1CC[NH+]([C@H](C(=O)NCCCNC(=O)c3ccc(-c4c5nc(c(-c6ccc(S(=O)(=O)[O-])cc6)c6ccc([nH]6)c(-c6ccc(S(=O)(=O)[O-])cc6)c6nc(c(-c7ccc(S(=O)(=O)[O-])cc7)c7ccc4[nH]7)C=C6)C=C5)cc3)c3c[nH]c4cc(Cl)ccc34)CC1)CCCC2
REMARK SMILES IDX 18 1 17 2 16 3 14 4 15 5 13 7 12 8 9 9 10 10 94 11 11 12
REMARK SMILES IDX 93 13 8 15 3 16 4 17 5 18 7 19 6 20 98 21 95 22 97 23 96 24
REMARK SMILES IDX 2 25 1 26 83 27 84 28 92 29 85 30 86 31 91 32 87 34 90 35
REMARK SMILES IDX 88 36 89 37 19 38 20 39 21 40 22 42 23 43 24 44 82 45 25 46
REMARK SMILES IDX 81 47 26 48 27 49 28 50 75 51 29 52 80 53 74 54 76 55 30 56
REMARK SMILES IDX 79 57 73 58 72 59 31 61 61 62 42 63 60 64 43 65 46 66 59 67
REMARK SMILES IDX 77 68 44 69 45 70 58 72 78 73 47 74 32 75 33 76 41 77 34 78
REMARK SMILES IDX 40 79 35 80 36 81 37 82 38 83 39 84 62 85 63 86 71 87 64 88
REMARK SMILES IDX 70 89 65 90 66 91 67 92 68 93 69 94 48 95 49 96 57 97 50 98
REMARK SMILES IDX 56 99 51 100 52 101 53 102 54 103 55 104
REMARK H PARENT 16 6 12 14 85 33 20 41 76 60 46 71
REMARK Flexibility Score: inf
ROOT
ATOM      1  C   UNL     1      -0.042  -6.612   3.049  1.00  0.00     0.042 C 
ENDROOT
BRANCH   1   2
ATOM      2  C   UNL     1       0.209  -6.319   1.546  1.00  0.00     0.118 C 
BRANCH   2   3
ATOM      3  N   UNL     1       0.885  -5.067   1.196  1.00  0.00    -0.351 N 
ATOM      4  C   UNL     1       2.099  -4.759   0.613  1.00  0.00     0.283 C 
ATOM      5  O   UNL     1       2.198  -3.569   0.281  1.00  0.00    -0.268 OA
ATOM      6  H   UNL     1       0.357  -4.268   1.426  1.00  0.00     0.163 HD
BRANCH   4   7
ATOM      7  C   UNL     1       3.275  -5.813   0.400  1.00  0.00     0.307 C 
BRANCH   7   8
ATOM      8  N   UNL     1       4.250  -5.276  -0.598  1.00  0.00    -0.318 N 
ATOM      9  N   UNL     1       6.952  -5.195  -1.575  1.00  0.00    -0.344 N 
ATOM     10  C   UNL     1       5.985  -5.891  -2.396  1.00  0.00     0.179 C 
ATOM     11  C   UNL     1       6.466  -3.980  -0.940  1.00  0.00     0.179 C 
ATOM     12  C   UNL     1       4.753  -6.284  -1.543  1.00  0.00     0.284 C 
ATOM     13  C   UNL     1       5.213  -4.285  -0.090  1.00  0.00     0.284 C 
ATOM     14  H   UNL     1       3.690  -4.670  -1.199  1.00  0.00     0.349 HD
BRANCH   9  15
ATOM     15  C   UNL     1       8.167  -5.724  -1.242  1.00  0.00     0.147 A 
ATOM     16  C   UNL     1       8.396  -6.522  -0.120  1.00  0.00     0.095 A 
ATOM     17  C   UNL     1       9.708  -6.791   0.283  1.00  0.00     0.029 A 
ATOM     18  C   UNL     1      10.760  -6.454  -0.556  1.00  0.00    -0.025 A 
ATOM     19  N   UNL     1       9.188  -5.403  -2.063  1.00  0.00    -0.234 NA
ATOM     20  C   UNL     1      10.443  -5.813  -1.752  1.00  0.00     0.046 A 
ATOM     21  C   UNL     1      12.173  -6.802  -0.183  1.00  0.00     0.037 C 
ATOM     22  C   UNL     1      11.459  -5.697  -2.856  1.00  0.00     0.056 C 
ATOM     23  C   UNL     1      13.066  -6.970  -1.409  1.00  0.00     0.005 C 
ATOM     24  C   UNL     1      12.898  -5.786  -2.357  1.00  0.00     0.007 C 
BRANCH  16  25
ATOM     25  C   UNL     1       7.367  -7.290   0.482  1.00  0.00     0.103 C 
ATOM     26  N   UNL     1       6.616  -8.082   0.903  1.00  0.00    -0.192 NA
ENDBRANCH  16  25
ENDBRANCH   9  15
ENDBRANCH   7   8
BRANCH   7  27
ATOM     27  C   UNL     1       3.903  -6.376   1.743  1.00  0.00     0.044 A 
ATOM     28  C   UNL     1       3.007  -6.738   2.750  1.00  0.00     0.094 A 
ATOM     29  C   UNL     1       4.867  -5.829   2.697  1.00  0.00     0.009 A 
ATOM     30  N   UNL     1       2.850  -5.419   3.256  1.00  0.00    -0.361 N 
ATOM     31  C   UNL     1       4.109  -4.894   3.396  1.00  0.00     0.047 A 
ATOM     32  C   UNL     1       6.002  -6.269   3.419  1.00  0.00     0.012 A 
ATOM     33  H   UNL     1       2.001  -4.968   3.466  1.00  0.00     0.166 HD
ATOM     34  C   UNL     1       4.579  -3.967   4.314  1.00  0.00     0.047 A 
ATOM     35  C   UNL     1       6.451  -5.510   4.516  1.00  0.00     0.021 A 
ATOM     36  C   UNL     1       5.786  -4.341   4.900  1.00  0.00     0.043 A 
ATOM     37  Cl  UNL     1       6.338  -3.455   6.270  1.00  0.00    -0.084 Cl
ENDBRANCH   7  27
ENDBRANCH   4   7
ENDBRANCH   2   3
ENDBRANCH   1   2
BRANCH   1  38
ATOM     38  C   UNL     1      -0.183  -5.414   3.995  1.00  0.00     0.118 C 
BRANCH  38  39
ATOM     39  N   UNL     1      -1.494  -5.353   4.596  1.00  0.00    -0.352 N 
ATOM     40  C   UNL     1      -1.924  -5.887   5.785  1.00  0.00     0.251 C 
ATOM     41  H   UNL     1      -2.174  -4.860   4.082  1.00  0.00     0.163 HD
ATOM     42  O   UNL     1      -3.130  -6.044   5.962  1.00  0.00    -0.269 OA
BRANCH  40  43
ATOM     43  C   UNL     1      -0.964  -6.286   6.844  1.00  0.00     0.039 A 
ATOM     44  C   UNL     1      -1.186  -7.487   7.523  1.00  0.00     0.014 A 
ATOM     45  C   UNL     1       0.090  -5.454   7.239  1.00  0.00     0.014 A 
ATOM     46  C   UNL     1      -0.346  -7.863   8.576  1.00  0.00     0.010 A 
ATOM     47  C   UNL     1       0.968  -5.863   8.249  1.00  0.00     0.010 A 
ATOM     48  C   UNL     1       0.750  -7.063   8.943  1.00  0.00    -0.014 A 
BRANCH  48  49
ATOM     49  C   UNL     1       1.642  -7.471  10.065  1.00  0.00     0.031 A 
ATOM     50  C   UNL     1       1.710  -6.649  11.328  1.00  0.00     0.074 A 
ATOM     51  C   UNL     1       2.390  -8.588   9.956  1.00  0.00     0.049 A 
ATOM     52  N   UNL     1       2.409  -6.864  12.414  1.00  0.00    -0.248 NA
ATOM     53  C   UNL     1       0.898  -5.422  11.373  1.00  0.00     0.031 C 
ATOM     54  C   UNL     1       2.424  -9.468   8.786  1.00  0.00     0.029 A 
ATOM     55  N   UNL     1       3.253  -9.185  10.843  1.00  0.00    -0.354 N 
ATOM     56  C   UNL     1       2.119  -5.806  13.270  1.00  0.00     0.074 A 
ATOM     57  C   UNL     1       1.230  -4.918  12.554  1.00  0.00     0.031 C 
ATOM     58  C   UNL     1       3.226 -10.513   9.044  1.00  0.00     0.029 A 
ATOM     59  C   UNL     1       3.803 -10.357  10.377  1.00  0.00     0.049 A 
ATOM     60  H   UNL     1       3.458  -8.809  11.729  1.00  0.00     0.167 HD
ATOM     61  C   UNL     1       2.531  -5.603  14.545  1.00  0.00     0.031 A 
ATOM     62  C   UNL     1       4.673 -11.212  10.952  1.00  0.00     0.031 A 
ATOM     63  C   UNL     1       3.420  -6.484  15.256  1.00  0.00     0.049 A 
ATOM     64  C   UNL     1       5.168 -10.931  12.345  1.00  0.00     0.074 A 
ATOM     65  C   UNL     1       3.874  -6.376  16.559  1.00  0.00     0.029 A 
ATOM     66  N   UNL     1       3.992  -7.632  14.729  1.00  0.00    -0.354 N 
ATOM     67  N   UNL     1       4.841  -9.950  13.154  1.00  0.00    -0.248 NA
ATOM     68  C   UNL     1       6.144 -11.875  12.908  1.00  0.00     0.031 C 
ATOM     69  C   UNL     1       4.773  -7.419  16.797  1.00  0.00     0.029 A 
ATOM     70  C   UNL     1       4.821  -8.222  15.669  1.00  0.00     0.049 A 
ATOM     71  H   UNL     1       3.833  -7.977  13.820  1.00  0.00     0.167 HD
ATOM     72  C   UNL     1       5.553 -10.173  14.328  1.00  0.00     0.074 A 
ATOM     73  C   UNL     1       6.311 -11.392  14.132  1.00  0.00     0.031 C 
ATOM     74  C   UNL     1       5.576  -9.433  15.464  1.00  0.00     0.031 A 
BRANCH  61  75
ATOM     75  C   UNL     1       2.024  -4.377  15.262  1.00  0.00    -0.014 A 
ATOM     76  C   UNL     1       0.672  -4.264  15.635  1.00  0.00     0.010 A 
ATOM     77  C   UNL     1       2.919  -3.354  15.629  1.00  0.00     0.010 A 
ATOM     78  C   UNL     1       0.218  -3.140  16.329  1.00  0.00     0.020 A 
ATOM     79  C   UNL     1       2.476  -2.243  16.352  1.00  0.00     0.020 A 
ATOM     80  C   UNL     1       1.124  -2.137  16.686  1.00  0.00     0.054 A 
BRANCH  80  81
ATOM     81  S   UNL     1       0.507  -0.706  17.614  1.00  0.00     0.124 S 
ATOM     82  O   UNL     1      -0.355  -0.056  16.630  1.00  0.00    -0.237 OA
ATOM     83  O   UNL     1      -0.184  -1.331  18.738  1.00  0.00    -0.237 OA
ATOM     84  O   UNL     1       1.718   0.033  17.962  1.00  0.00    -0.744 OA
ENDBRANCH  80  81
ENDBRANCH  61  75
BRANCH  62  85
ATOM     85  C   UNL     1       5.115 -12.430  10.214  1.00  0.00    -0.014 A 
ATOM     86  C   UNL     1       4.726 -13.709  10.650  1.00  0.00     0.010 A 
ATOM     87  C   UNL     1       5.909 -12.317   9.057  1.00  0.00     0.010 A 
ATOM     88  C   UNL     1       5.130 -14.851   9.949  1.00  0.00     0.020 A 
ATOM     89  C   UNL     1       6.287 -13.453   8.335  1.00  0.00     0.020 A 
ATOM     90  C   UNL     1       5.900 -14.714   8.791  1.00  0.00     0.054 A 
BRANCH  90  91
ATOM     91  S   UNL     1       6.360 -16.209   7.870  1.00  0.00     0.124 S 
ATOM     92  O   UNL     1       7.267 -16.874   8.800  1.00  0.00    -0.237 OA
ATOM     93  O   UNL     1       5.068 -16.860   7.669  1.00  0.00    -0.237 OA
ATOM     94  O   UNL     1       6.983 -15.686   6.656  1.00  0.00    -0.744 OA
ENDBRANCH  90  91
ENDBRANCH  62  85
BRANCH  74  95
ATOM     95  C   UNL     1       6.435  -9.919  16.604  1.00  0.00    -0.014 A 
ATOM     96  C   UNL     1       7.838  -9.869  16.530  1.00  0.00     0.010 A 
ATOM     97  C   UNL     1       5.829 -10.353  17.798  1.00  0.00     0.010 A 
ATOM     98  C   UNL     1       8.619 -10.264  17.620  1.00  0.00     0.020 A 
ATOM     99  C   UNL     1       6.605 -10.717  18.902  1.00  0.00     0.020 A 
ATOM    100  C   UNL     1       7.997 -10.679  18.801  1.00  0.00     0.054 A 
BRANCH 100 101
ATOM    101  S   UNL     1       9.037 -11.133  20.216  1.00  0.00     0.124 S 
ATOM    102  O   UNL     1       9.683 -12.354  19.741  1.00  0.00    -0.237 OA
ATOM    103  O   UNL     1       9.912  -9.971  20.352  1.00  0.00    -0.237 OA
ATOM    104  O   UNL     1       8.082 -11.319  21.306  1.00  0.00    -0.744 OA
ENDBRANCH 100 101
ENDBRANCH  74  95
ENDBRANCH  48  49
ENDBRANCH  40  43
ENDBRANCH  38  39
ENDBRANCH   1  38
TORSDOF 17
