REMARK SMILES Cc1cc(C)c2c(O[C@@H](C)C(=O)NCCCNC(=O)c3ccc(-c4c5nc(c(-c6ccc(S(=O)(=O)[O-])cc6)c6ccc([nH]6)c(-c6ccc(S(=O)(=O)[O-])cc6)c6nc(c(-c7ccc(S(=O)(=O)[O-])cc7)c7ccc4[nH]7)C=C6)C=C5)cc3)nsc2n1
REMARK SMILES IDX 15 1 14 2 13 3 11 4 12 5 9 7 10 8 8 9 7 10 1 11 2 12 3 13
REMARK SMILES IDX 83 14 4 15 82 16 5 17 6 18 81 19 80 20 16 21 17 22 18 23
REMARK SMILES IDX 19 25 20 26 21 27 79 28 22 29 78 30 23 31 24 32 25 33 72 34
REMARK SMILES IDX 26 35 77 36 71 37 73 38 27 39 76 40 70 41 69 42 28 44 58 45
REMARK SMILES IDX 39 46 57 47 40 48 43 49 56 50 74 51 41 52 42 53 55 55 75 56
REMARK SMILES IDX 44 57 29 58 30 59 38 60 31 61 37 62 32 63 33 64 34 65 35 66
REMARK SMILES IDX 36 67 59 68 60 69 68 70 61 71 67 72 62 73 63 74 64 75 65 76
REMARK SMILES IDX 66 77 45 78 46 79 54 80 47 81 53 82 48 83 49 84 50 85 51 86
REMARK SMILES IDX 52 87
REMARK H PARENT 13 6 17 24 73 43 43 54
REMARK Flexibility Score: inf
ROOT
ATOM      1  C   UNL     1       1.820   1.063   3.964  1.00  0.00     0.042 C 
ENDROOT
BRANCH   1   2
ATOM      2  C   UNL     1       1.143  -0.172   4.373  1.00  0.00     0.118 C 
BRANCH   2   3
ATOM      3  N   UNL     1       1.318  -0.806   5.608  1.00  0.00    -0.353 N 
ATOM      4  C   UNL     1       0.225  -1.006   6.442  1.00  0.00     0.260 C 
ATOM      5  O   UNL     1       0.323  -1.944   7.237  1.00  0.00    -0.271 OA
ATOM      6  H   UNL     1       2.213  -1.110   5.885  1.00  0.00     0.163 HD
BRANCH   4   7
ATOM      7  C   UNL     1      -1.164  -0.087   6.359  1.00  0.00     0.260 C 
ATOM      8  C   UNL     1      -2.519  -0.610   5.837  1.00  0.00     0.064 C 
BRANCH   7   9
ATOM      9  O   UNL     1      -1.126   1.300   6.075  1.00  0.00    -0.463 OA
BRANCH   9  10
ATOM     10  C   UNL     1      -1.225   1.760   4.786  1.00  0.00     0.235 A 
ATOM     11  C   UNL     1       0.347   0.319  -0.458  1.00  0.00     0.067 C 
ATOM     12  C   UNL     1      -0.380   0.633   0.815  1.00  0.00     0.039 A 
ATOM     13  C   UNL     1      -0.744  -0.451   1.582  1.00  0.00     0.027 A 
ATOM     14  N   UNL     1      -0.486   1.907   1.220  1.00  0.00    -0.240 NA
ATOM     15  C   UNL     1      -1.247  -0.322   2.884  1.00  0.00    -0.034 A 
ATOM     16  C   UNL     1      -0.898   2.066   2.499  1.00  0.00     0.147 A 
ATOM     17  C   UNL     1      -1.270  -1.740   3.537  1.00  0.00     0.045 C 
ATOM     18  C   UNL     1      -1.282   1.069   3.419  1.00  0.00     0.078 A 
ATOM     19  S   UNL     1      -0.701   3.587   3.259  1.00  0.00    -0.012 S 
ATOM     20  N   UNL     1      -0.951   3.064   4.794  1.00  0.00    -0.153 NA
ENDBRANCH   9  10
ENDBRANCH   7   9
ENDBRANCH   4   7
ENDBRANCH   2   3
ENDBRANCH   1   2
BRANCH   1  21
ATOM     21  C   UNL     1       2.930   0.553   3.189  1.00  0.00     0.118 C 
BRANCH  21  22
ATOM     22  N   UNL     1       2.661  -0.040   1.836  1.00  0.00    -0.352 N 
ATOM     23  C   UNL     1       3.435   0.227   0.696  1.00  0.00     0.251 C 
ATOM     24  H   UNL     1       1.896  -0.653   1.743  1.00  0.00     0.163 HD
ATOM     25  O   UNL     1       3.366  -0.406  -0.347  1.00  0.00    -0.269 OA
BRANCH  23  26
ATOM     26  C   UNL     1       4.537   1.140   0.929  1.00  0.00     0.039 A 
ATOM     27  C   UNL     1       5.493   1.602   0.065  1.00  0.00     0.014 A 
ATOM     28  C   UNL     1       5.057   0.808   2.152  1.00  0.00     0.014 A 
ATOM     29  C   UNL     1       6.846   1.434   0.605  1.00  0.00     0.010 A 
ATOM     30  C   UNL     1       6.090   1.463   2.581  1.00  0.00     0.010 A 
ATOM     31  C   UNL     1       7.011   0.770   1.912  1.00  0.00    -0.014 A 
BRANCH  31  32
ATOM     32  C   UNL     1       8.098   0.366   3.125  1.00  0.00     0.031 A 
ATOM     33  C   UNL     1       8.521   2.101   3.233  1.00  0.00     0.074 A 
ATOM     34  C   UNL     1       8.485  -0.960   3.923  1.00  0.00     0.049 A 
ATOM     35  N   UNL     1       9.216   2.699   2.282  1.00  0.00    -0.248 NA
ATOM     36  C   UNL     1       7.676   3.372   3.791  1.00  0.00     0.031 C 
ATOM     37  C   UNL     1       8.102  -2.562   4.102  1.00  0.00     0.029 A 
ATOM     38  N   UNL     1       9.582  -1.264   4.807  1.00  0.00    -0.354 N 
ATOM     39  C   UNL     1       9.550   3.944   2.829  1.00  0.00     0.074 A 
ATOM     40  C   UNL     1       8.437   4.445   3.513  1.00  0.00     0.031 C 
ATOM     41  C   UNL     1       8.498  -3.323   5.219  1.00  0.00     0.029 A 
ATOM     42  C   UNL     1       9.582  -2.370   5.802  1.00  0.00     0.049 A 
ATOM     43  H   UNL     1      10.388  -0.701   4.748  1.00  0.00     0.167 HD
ATOM     44  C   UNL     1      10.823   4.172   3.203  1.00  0.00     0.031 A 
ATOM     45  C   UNL     1      10.517  -2.527   6.896  1.00  0.00     0.031 A 
ATOM     46  C   UNL     1      11.618   3.112   2.662  1.00  0.00     0.049 A 
ATOM     47  C   UNL     1      11.546  -1.474   6.597  1.00  0.00     0.074 A 
ATOM     48  C   UNL     1      11.842   2.675   1.370  1.00  0.00     0.029 A 
ATOM     49  N   UNL     1      11.559   2.002   3.454  1.00  0.00    -0.354 N 
ATOM     50  N   UNL     1      12.309  -1.552   5.538  1.00  0.00    -0.248 NA
ATOM     51  C   UNL     1      11.099  -0.145   7.021  1.00  0.00     0.031 C 
ATOM     52  C   UNL     1      11.824   1.251   1.413  1.00  0.00     0.029 A 
ATOM     53  C   UNL     1      11.768   0.864   2.745  1.00  0.00     0.049 A 
ATOM     54  H   UNL     1      11.387   2.025   4.423  1.00  0.00     0.167 HD
ATOM     55  C   UNL     1      12.023  -0.388   4.838  1.00  0.00     0.074 A 
ATOM     56  C   UNL     1      11.296   0.489   5.852  1.00  0.00     0.031 C 
ATOM     57  C   UNL     1      11.926  -0.377   3.445  1.00  0.00     0.031 A 
BRANCH  44  58
ATOM     58  C   UNL     1      11.226   4.996   4.382  1.00  0.00    -0.014 A 
ATOM     59  C   UNL     1      12.518   5.502   4.268  1.00  0.00     0.010 A 
ATOM     60  C   UNL     1      10.523   5.207   5.602  1.00  0.00     0.010 A 
ATOM     61  C   UNL     1      13.096   6.224   5.296  1.00  0.00     0.020 A 
ATOM     62  C   UNL     1      11.098   5.955   6.645  1.00  0.00     0.020 A 
ATOM     63  C   UNL     1      12.386   6.456   6.473  1.00  0.00     0.054 A 
BRANCH  63  64
ATOM     64  S   UNL     1      13.222   7.436   7.738  1.00  0.00     0.124 S 
ATOM     65  O   UNL     1      14.405   6.627   8.017  1.00  0.00    -0.237 OA
ATOM     66  O   UNL     1      13.471   8.688   7.024  1.00  0.00    -0.237 OA
ATOM     67  O   UNL     1      12.245   7.523   8.818  1.00  0.00    -0.744 OA
ENDBRANCH  63  64
ENDBRANCH  44  58
BRANCH  45  68
ATOM     68  C   UNL     1      10.334  -2.906   8.451  1.00  0.00    -0.014 A 
ATOM     69  C   UNL     1      11.288  -3.250   9.489  1.00  0.00     0.010 A 
ATOM     70  C   UNL     1       9.094  -2.499   8.966  1.00  0.00     0.010 A 
ATOM     71  C   UNL     1      10.986  -3.132  10.910  1.00  0.00     0.020 A 
ATOM     72  C   UNL     1       8.802  -2.348  10.348  1.00  0.00     0.020 A 
ATOM     73  C   UNL     1       9.747  -2.642  11.324  1.00  0.00     0.054 A 
BRANCH  73  74
ATOM     74  S   UNL     1       9.374  -2.326  13.103  1.00  0.00     0.124 S 
ATOM     75  O   UNL     1       9.485  -3.654  13.700  1.00  0.00    -0.237 OA
ATOM     76  O   UNL     1      10.412  -1.376  13.493  1.00  0.00    -0.237 OA
ATOM     77  O   UNL     1       8.018  -1.778  13.080  1.00  0.00    -0.744 OA
ENDBRANCH  73  74
ENDBRANCH  45  68
BRANCH  57  78
ATOM     78  C   UNL     1      12.202  -1.611   2.541  1.00  0.00    -0.014 A 
ATOM     79  C   UNL     1      11.354  -2.694   2.152  1.00  0.00     0.010 A 
ATOM     80  C   UNL     1      13.425  -1.538   1.872  1.00  0.00     0.010 A 
ATOM     81  C   UNL     1      11.825  -3.760   1.341  1.00  0.00     0.020 A 
ATOM     82  C   UNL     1      13.875  -2.545   1.014  1.00  0.00     0.020 A 
ATOM     83  C   UNL     1      13.106  -3.684   0.802  1.00  0.00     0.054 A 
BRANCH  83  84
ATOM     84  S   UNL     1      13.773  -5.063  -0.172  1.00  0.00     0.124 S 
ATOM     85  O   UNL     1      13.792  -6.154   0.798  1.00  0.00    -0.237 OA
ATOM     86  O   UNL     1      12.797  -5.201  -1.250  1.00  0.00    -0.237 OA
ATOM     87  O   UNL     1      15.089  -4.583  -0.590  1.00  0.00    -0.744 OA
ENDBRANCH  83  84
ENDBRANCH  57  78
ENDBRANCH  31  32
ENDBRANCH  23  26
ENDBRANCH  21  22
ENDBRANCH   1  21
TORSDOF 15
