REMARK SMILES C/C=C/C[C@H](Cc1cccc(F)c1)C(=O)NCCCNC(=O)c1ccc(-c2c3nc(c(-c4ccc(S(=O)(=O)[O-])cc4)c4ccc([nH]4)c(-c4ccc(S(=O)(=O)[O-])cc4)c4nc(c(-c5ccc(S(=O)(=O)[O-])cc5)c5ccc2[nH]5)C=C4)C=C3)cc1
REMARK SMILES IDX 18 1 17 2 16 3 14 4 15 5 5 7 4 8 3 9 1 10 2 11 6 12 7 13
REMARK SMILES IDX 8 14 13 15 9 16 11 17 10 18 12 19 19 20 20 21 21 22 22 24
REMARK SMILES IDX 23 25 24 26 82 27 25 28 81 29 26 30 27 31 28 32 75 33 29 34
REMARK SMILES IDX 80 35 74 36 76 37 30 38 79 39 73 40 72 41 31 43 61 44 42 45
REMARK SMILES IDX 60 46 43 47 46 48 59 49 77 50 44 51 45 52 58 54 78 55 47 56
REMARK SMILES IDX 32 57 33 58 41 59 34 60 40 61 35 62 36 63 37 64 38 65 39 66
REMARK SMILES IDX 62 67 63 68 71 69 64 70 70 71 65 72 66 73 67 74 68 75 69 76
REMARK SMILES IDX 48 77 49 78 57 79 50 80 56 81 51 82 52 83 53 84 54 85 55 86
REMARK H PARENT 16 6 20 23 76 42 46 53
REMARK Flexibility Score: inf
ROOT
ATOM      1  C   UNL     1      -4.074   4.885  -0.192  1.00  0.00     0.042 C 
ENDROOT
BRANCH   1   2
ATOM      2  C   UNL     1      -3.234   5.030  -1.452  1.00  0.00     0.117 C 
BRANCH   2   3
ATOM      3  N   UNL     1      -2.135   5.969  -1.294  1.00  0.00    -0.356 N 
ATOM      4  C   UNL     1      -0.788   5.763  -1.272  1.00  0.00     0.223 C 
ATOM      5  O   UNL     1      -0.056   6.747  -1.151  1.00  0.00    -0.275 OA
ATOM      6  H   UNL     1      -2.409   6.908  -1.185  1.00  0.00     0.163 HD
BRANCH   4   7
ATOM      7  C   UNL     1      -0.197   4.364  -1.400  1.00  0.00     0.086 C 
BRANCH   7   8
ATOM      8  C   UNL     1      -0.438   3.836  -2.831  1.00  0.00     0.040 C 
BRANCH   8   9
ATOM      9  C   UNL     1      -0.333   2.347  -2.991  1.00  0.00    -0.031 C 
ATOM     10  C   UNL     1      -1.319   0.068  -3.335  1.00  0.00     0.035 C 
ATOM     11  C   UNL     1      -1.392   1.555  -3.220  1.00  0.00    -0.035 C 
ENDBRANCH   8   9
ENDBRANCH   7   8
BRANCH   7  12
ATOM     12  C   UNL     1      -0.674   3.489  -0.221  1.00  0.00     0.049 C 
BRANCH  12  13
ATOM     13  C   UNL     1       0.451   2.764   0.483  1.00  0.00    -0.044 A 
ATOM     14  C   UNL     1       0.661   1.392   0.290  1.00  0.00     0.004 A 
ATOM     15  C   UNL     1       1.291   3.463   1.362  1.00  0.00     0.043 A 
ATOM     16  C   UNL     1       1.692   0.729   0.961  1.00  0.00     0.003 A 
ATOM     17  C   UNL     1       2.311   2.792   2.029  1.00  0.00     0.123 A 
ATOM     18  C   UNL     1       2.519   1.432   1.836  1.00  0.00     0.039 A 
ATOM     19  F   UNL     1       3.103   3.467   2.873  1.00  0.00    -0.207 F 
ENDBRANCH  12  13
ENDBRANCH   7  12
ENDBRANCH   4   7
ENDBRANCH   2   3
ENDBRANCH   1   2
BRANCH   1  20
ATOM     20  C   UNL     1      -4.797   6.160   0.219  1.00  0.00     0.118 C 
BRANCH  20  21
ATOM     21  N   UNL     1      -5.755   6.608  -0.783  1.00  0.00    -0.352 N 
ATOM     22  C   UNL     1      -7.119   6.732  -0.711  1.00  0.00     0.251 C 
ATOM     23  H   UNL     1      -5.360   6.861  -1.649  1.00  0.00     0.163 HD
ATOM     24  O   UNL     1      -7.760   6.931  -1.744  1.00  0.00    -0.269 OA
BRANCH  22  25
ATOM     25  C   UNL     1      -7.821   6.612   0.585  1.00  0.00     0.039 A 
ATOM     26  C   UNL     1      -9.041   5.933   0.634  1.00  0.00     0.014 A 
ATOM     27  C   UNL     1      -7.295   7.184   1.746  1.00  0.00     0.014 A 
ATOM     28  C   UNL     1      -9.696   5.771   1.857  1.00  0.00     0.010 A 
ATOM     29  C   UNL     1      -7.900   6.943   2.975  1.00  0.00     0.010 A 
ATOM     30  C   UNL     1      -9.112   6.242   3.045  1.00  0.00    -0.014 A 
BRANCH  30  31
ATOM     31  C   UNL     1      -9.755   6.017   4.365  1.00  0.00     0.031 A 
ATOM     32  C   UNL     1     -10.192   7.188   5.205  1.00  0.00     0.074 A 
ATOM     33  C   UNL     1      -9.889   4.761   4.836  1.00  0.00     0.049 A 
ATOM     34  N   UNL     1     -10.720   7.192   6.402  1.00  0.00    -0.248 NA
ATOM     35  C   UNL     1      -9.987   8.531   4.637  1.00  0.00     0.031 C 
ATOM     36  C   UNL     1      -9.466   3.543   4.138  1.00  0.00     0.029 A 
ATOM     37  N   UNL     1     -10.415   4.298   6.016  1.00  0.00    -0.354 N 
ATOM     38  C   UNL     1     -10.892   8.531   6.736  1.00  0.00     0.074 A 
ATOM     39  C   UNL     1     -10.363   9.311   5.640  1.00  0.00     0.031 C 
ATOM     40  C   UNL     1      -9.778   2.475   4.888  1.00  0.00     0.029 A 
ATOM     41  C   UNL     1     -10.380   2.928   6.138  1.00  0.00     0.049 A 
ATOM     42  H   UNL     1     -10.783   4.891   6.711  1.00  0.00     0.167 HD
ATOM     43  C   UNL     1     -11.457   9.065   7.846  1.00  0.00     0.031 A 
ATOM     44  C   UNL     1     -10.780   2.126   7.144  1.00  0.00     0.031 A 
ATOM     45  C   UNL     1     -11.992   8.285   8.930  1.00  0.00     0.049 A 
ATOM     46  C   UNL     1     -11.395   2.742   8.371  1.00  0.00     0.074 A 
ATOM     47  C   UNL     1     -12.636   8.728  10.072  1.00  0.00     0.029 A 
ATOM     48  N   UNL     1     -11.943   6.901   9.011  1.00  0.00    -0.354 N 
ATOM     49  N   UNL     1     -11.610   4.008   8.637  1.00  0.00    -0.248 NA
ATOM     50  C   UNL     1     -11.833   1.820   9.427  1.00  0.00     0.031 C 
ATOM     51  C   UNL     1     -12.925   7.617  10.870  1.00  0.00     0.029 A 
ATOM     52  C   UNL     1     -12.522   6.476  10.194  1.00  0.00     0.049 A 
ATOM     53  H   UNL     1     -11.554   6.309   8.327  1.00  0.00     0.167 HD
ATOM     54  C   UNL     1     -12.235   4.032   9.879  1.00  0.00     0.074 A 
ATOM     55  C   UNL     1     -12.378   2.654  10.302  1.00  0.00     0.031 C 
ATOM     56  C   UNL     1     -12.656   5.099  10.603  1.00  0.00     0.031 A 
BRANCH  43  57
ATOM     57  C   UNL     1     -11.522  10.568   7.943  1.00  0.00    -0.014 A 
ATOM     58  C   UNL     1     -12.360  11.317   7.096  1.00  0.00     0.010 A 
ATOM     59  C   UNL     1     -10.765  11.238   8.921  1.00  0.00     0.010 A 
ATOM     60  C   UNL     1     -12.407  12.710   7.197  1.00  0.00     0.020 A 
ATOM     61  C   UNL     1     -10.833  12.629   9.046  1.00  0.00     0.020 A 
ATOM     62  C   UNL     1     -11.641  13.357   8.171  1.00  0.00     0.054 A 
BRANCH  62  63
ATOM     63  S   UNL     1     -11.740  15.164   8.293  1.00  0.00     0.124 S 
ATOM     64  O   UNL     1     -11.021  15.587   7.093  1.00  0.00    -0.237 OA
ATOM     65  O   UNL     1     -13.181  15.407   8.279  1.00  0.00    -0.237 OA
ATOM     66  O   UNL     1     -11.072  15.465   9.556  1.00  0.00    -0.744 OA
ENDBRANCH  62  63
ENDBRANCH  43  57
BRANCH  44  67
ATOM     67  C   UNL     1     -10.626   0.649   7.024  1.00  0.00    -0.014 A 
ATOM     68  C   UNL     1     -11.753  -0.178   6.881  1.00  0.00     0.010 A 
ATOM     69  C   UNL     1      -9.346   0.063   7.040  1.00  0.00     0.010 A 
ATOM     70  C   UNL     1     -11.607  -1.565   6.776  1.00  0.00     0.020 A 
ATOM     71  C   UNL     1      -9.194  -1.319   6.905  1.00  0.00     0.020 A 
ATOM     72  C   UNL     1     -10.327  -2.126   6.786  1.00  0.00     0.054 A 
BRANCH  72  73
ATOM     73  S   UNL     1     -10.159  -3.923   6.597  1.00  0.00     0.124 S 
ATOM     74  O   UNL     1     -10.626  -4.410   7.891  1.00  0.00    -0.237 OA
ATOM     75  O   UNL     1     -11.033  -4.203   5.461  1.00  0.00    -0.237 OA
ATOM     76  O   UNL     1      -8.733  -4.107   6.335  1.00  0.00    -0.744 OA
ENDBRANCH  72  73
ENDBRANCH  44  67
BRANCH  56  77
ATOM     77  C   UNL     1     -13.347   4.821  11.912  1.00  0.00    -0.014 A 
ATOM     78  C   UNL     1     -12.639   4.340  13.027  1.00  0.00     0.010 A 
ATOM     79  C   UNL     1     -14.722   5.095  12.040  1.00  0.00     0.010 A 
ATOM     80  C   UNL     1     -13.300   4.105  14.236  1.00  0.00     0.020 A 
ATOM     81  C   UNL     1     -15.379   4.891  13.255  1.00  0.00     0.020 A 
ATOM     82  C   UNL     1     -14.666   4.382  14.341  1.00  0.00     0.054 A 
BRANCH  82  83
ATOM     83  S   UNL     1     -15.492   4.106  15.932  1.00  0.00     0.124 S 
ATOM     84  O   UNL     1     -15.558   2.648  15.991  1.00  0.00    -0.237 OA
ATOM     85  O   UNL     1     -14.576   4.733  16.882  1.00  0.00    -0.237 OA
ATOM     86  O   UNL     1     -16.778   4.782  15.778  1.00  0.00    -0.744 OA
ENDBRANCH  82  83
ENDBRANCH  56  77
ENDBRANCH  30  31
ENDBRANCH  22  25
ENDBRANCH  20  21
ENDBRANCH   1  20
TORSDOF 17
