REMARK SMILES CC1(C)S[C@H](c2ccc(-c3cccc([N+](=O)[O-])c3)o2)[NH2+][C@@H]1C(=O)NCCCNC(=O)c1ccc(-c2c3nc(c(-c4ccc(S(=O)(=O)[O-])cc4)c4ccc([nH]4)c(-c4ccc(S(=O)(=O)[O-])cc4)c4nc(c(-c5ccc(S(=O)(=O)[O-])cc5)c5ccc2[nH]5)C=C4)C=C3)cc1
REMARK SMILES IDX 26 1 25 2 24 3 22 4 23 5 21 7 1 8 2 9 3 10 4 11 5 12 20 13
REMARK SMILES IDX 6 16 7 17 19 18 8 19 9 20 10 21 11 22 18 23 12 24 14 25
REMARK SMILES IDX 13 26 15 27 16 28 17 29 27 30 28 31 29 32 30 34 31 35 32 36
REMARK SMILES IDX 90 37 33 38 89 39 34 40 35 41 36 42 83 43 37 44 88 45 82 46
REMARK SMILES IDX 84 47 38 48 87 49 81 50 80 51 39 53 69 54 50 55 68 56 51 57
REMARK SMILES IDX 54 58 67 59 85 60 52 61 53 62 66 64 86 65 55 66 40 67 41 68
REMARK SMILES IDX 49 69 42 70 48 71 43 72 44 73 45 74 46 75 47 76 70 77 71 78
REMARK SMILES IDX 79 79 72 80 78 81 73 82 74 83 75 84 76 85 77 86 56 87 57 88
REMARK SMILES IDX 65 89 58 90 64 91 59 92 60 93 61 94 62 95 63 96
REMARK H PARENT 24 6 20 14 20 15 28 33 84 52 54 63
REMARK Flexibility Score: inf
ROOT
ATOM      1  C   UNL     1      -2.918   4.112  -2.254  1.00  0.00     0.042 C 
ENDROOT
BRANCH   1   2
ATOM      2  C   UNL     1      -2.304   2.845  -1.688  1.00  0.00     0.118 C 
BRANCH   2   3
ATOM      3  N   UNL     1      -1.221   2.308  -2.491  1.00  0.00    -0.351 N 
ATOM      4  C   UNL     1      -0.307   1.357  -2.105  1.00  0.00     0.279 C 
ATOM      5  O   UNL     1       0.427   0.895  -2.977  1.00  0.00    -0.268 OA
ATOM      6  H   UNL     1      -1.133   2.661  -3.406  1.00  0.00     0.163 HD
BRANCH   4   7
ATOM      7  C   UNL     1      -0.181   1.032  -0.593  1.00  0.00     0.289 C 
ATOM      8  C   UNL     1       1.268   0.277   1.337  1.00  0.00     0.030 C 
ATOM      9  C   UNL     1       0.885   0.008  -0.135  1.00  0.00     0.078 C 
ATOM     10  C   UNL     1       2.174  -0.071  -0.953  1.00  0.00     0.030 C 
ATOM     11  S   UNL     1       0.011  -1.592  -0.208  1.00  0.00    -0.078 SA
ATOM     12  C   UNL     1      -1.634  -0.846  -0.202  1.00  0.00     0.311 C 
ATOM     13  N   UNL     1      -1.500   0.604  -0.029  1.00  0.00    -0.317 N 
ATOM     14  H   UNL     1      -1.542   0.837   0.963  1.00  0.00     0.348 HD
ATOM     15  H   UNL     1      -2.259   1.083  -0.514  1.00  0.00     0.348 HD
BRANCH  12  16
ATOM     16  C   UNL     1      -2.473  -1.291  -1.361  1.00  0.00     0.172 A 
ATOM     17  C   UNL     1      -3.231  -2.435  -1.535  1.00  0.00     0.054 A 
ATOM     18  O   UNL     1      -2.607  -0.488  -2.465  1.00  0.00    -0.454 OA
ATOM     19  C   UNL     1      -3.875  -2.314  -2.785  1.00  0.00     0.051 A 
ATOM     20  C   UNL     1      -3.471  -1.111  -3.322  1.00  0.00     0.134 A 
BRANCH  20  21
ATOM     21  C   UNL     1      -3.826  -0.404  -4.545  1.00  0.00     0.024 A 
ATOM     22  C   UNL     1      -2.871   0.296  -5.296  1.00  0.00     0.012 A 
ATOM     23  C   UNL     1      -5.154  -0.430  -4.997  1.00  0.00     0.097 A 
ATOM     24  C   UNL     1      -3.232   0.962  -6.475  1.00  0.00     0.008 A 
ATOM     25  C   UNL     1      -5.514   0.248  -6.170  1.00  0.00     0.270 A 
ATOM     26  C   UNL     1      -4.556   0.945  -6.915  1.00  0.00     0.085 A 
BRANCH  25  27
ATOM     27  N   UNL     1      -6.917   0.242  -6.605  1.00  0.00     0.062 N 
ATOM     28  O   UNL     1      -7.254   1.060  -7.473  1.00  0.00    -0.258 OA
ATOM     29  O   UNL     1      -7.666  -0.618  -6.117  1.00  0.00    -0.258 OA
ENDBRANCH  25  27
ENDBRANCH  20  21
ENDBRANCH  12  16
ENDBRANCH   4   7
ENDBRANCH   2   3
ENDBRANCH   1   2
BRANCH   1  30
ATOM     30  C   UNL     1      -3.549   3.961  -3.629  1.00  0.00     0.118 C 
BRANCH  30  31
ATOM     31  N   UNL     1      -4.651   3.012  -3.681  1.00  0.00    -0.352 N 
ATOM     32  C   UNL     1      -5.862   3.112  -4.329  1.00  0.00     0.251 C 
ATOM     33  H   UNL     1      -4.510   2.176  -3.180  1.00  0.00     0.163 HD
ATOM     34  O   UNL     1      -6.705   2.233  -4.185  1.00  0.00    -0.269 OA
BRANCH  32  35
ATOM     35  C   UNL     1      -6.168   4.301  -5.157  1.00  0.00     0.039 A 
ATOM     36  C   UNL     1      -7.437   4.872  -5.046  1.00  0.00     0.014 A 
ATOM     37  C   UNL     1      -5.199   4.903  -5.963  1.00  0.00     0.014 A 
ATOM     38  C   UNL     1      -7.680   6.123  -5.610  1.00  0.00     0.010 A 
ATOM     39  C   UNL     1      -5.405   6.195  -6.433  1.00  0.00     0.010 A 
ATOM     40  C   UNL     1      -6.636   6.833  -6.226  1.00  0.00    -0.014 A 
BRANCH  40  41
ATOM     41  C   UNL     1      -6.791   8.270  -6.564  1.00  0.00     0.031 A 
ATOM     42  C   UNL     1      -6.658   8.745  -7.982  1.00  0.00     0.074 A 
ATOM     43  C   UNL     1      -6.976   9.155  -5.562  1.00  0.00     0.049 A 
ATOM     44  N   UNL     1      -6.737   9.964  -8.449  1.00  0.00    -0.248 NA
ATOM     45  C   UNL     1      -6.367   7.727  -9.004  1.00  0.00     0.031 C 
ATOM     46  C   UNL     1      -7.043   8.819  -4.135  1.00  0.00     0.029 A 
ATOM     47  N   UNL     1      -7.144  10.516  -5.584  1.00  0.00    -0.354 N 
ATOM     48  C   UNL     1      -6.497   9.862  -9.814  1.00  0.00     0.074 A 
ATOM     49  C   UNL     1      -6.211   8.471 -10.090  1.00  0.00     0.031 C 
ATOM     50  C   UNL     1      -7.291   9.933  -3.429  1.00  0.00     0.029 A 
ATOM     51  C   UNL     1      -7.357  11.068  -4.341  1.00  0.00     0.049 A 
ATOM     52  H   UNL     1      -7.116  11.049  -6.412  1.00  0.00     0.167 HD
ATOM     53  C   UNL     1      -6.535  10.835 -10.755  1.00  0.00     0.031 A 
ATOM     54  C   UNL     1      -7.587  12.343  -3.976  1.00  0.00     0.031 A 
ATOM     55  C   UNL     1      -6.830  12.214 -10.472  1.00  0.00     0.049 A 
ATOM     56  C   UNL     1      -7.646  13.401  -5.041  1.00  0.00     0.074 A 
ATOM     57  C   UNL     1      -6.945  13.271 -11.358  1.00  0.00     0.029 A 
ATOM     58  N   UNL     1      -7.061  12.729  -9.204  1.00  0.00    -0.354 N 
ATOM     59  N   UNL     1      -7.485  13.271  -6.337  1.00  0.00    -0.248 NA
ATOM     60  C   UNL     1      -7.929  14.772  -4.599  1.00  0.00     0.031 C 
ATOM     61  C   UNL     1      -7.205  14.432 -10.622  1.00  0.00     0.029 A 
ATOM     62  C   UNL     1      -7.303  14.090  -9.282  1.00  0.00     0.049 A 
ATOM     63  H   UNL     1      -7.054  12.203  -8.372  1.00  0.00     0.167 HD
ATOM     64  C   UNL     1      -7.670  14.542  -6.868  1.00  0.00     0.074 A 
ATOM     65  C   UNL     1      -7.971  15.420  -5.755  1.00  0.00     0.031 C 
ATOM     66  C   UNL     1      -7.597  14.945  -8.160  1.00  0.00     0.031 A 
BRANCH  53  67
ATOM     67  C   UNL     1      -6.254  10.431 -12.178  1.00  0.00    -0.014 A 
ATOM     68  C   UNL     1      -7.168   9.641 -12.899  1.00  0.00     0.010 A 
ATOM     69  C   UNL     1      -5.075  10.862 -12.812  1.00  0.00     0.010 A 
ATOM     70  C   UNL     1      -6.886   9.247 -14.210  1.00  0.00     0.020 A 
ATOM     71  C   UNL     1      -4.802  10.494 -14.134  1.00  0.00     0.020 A 
ATOM     72  C   UNL     1      -5.701   9.671 -14.817  1.00  0.00     0.054 A 
BRANCH  72  73
ATOM     73  S   UNL     1      -5.364   9.154 -16.522  1.00  0.00     0.124 S 
ATOM     74  O   UNL     1      -4.996   7.751 -16.343  1.00  0.00    -0.237 OA
ATOM     75  O   UNL     1      -6.643   9.388 -17.188  1.00  0.00    -0.237 OA
ATOM     76  O   UNL     1      -4.276  10.034 -16.943  1.00  0.00    -0.744 OA
ENDBRANCH  72  73
ENDBRANCH  53  67
BRANCH  54  77
ATOM     77  C   UNL     1      -7.813  12.679  -2.543  1.00  0.00    -0.014 A 
ATOM     78  C   UNL     1      -9.096  13.034  -2.090  1.00  0.00     0.010 A 
ATOM     79  C   UNL     1      -6.754  12.624  -1.620  1.00  0.00     0.010 A 
ATOM     80  C   UNL     1      -9.312  13.345  -0.744  1.00  0.00     0.020 A 
ATOM     81  C   UNL     1      -6.971  12.909  -0.268  1.00  0.00     0.020 A 
ATOM     82  C   UNL     1      -8.248  13.280   0.159  1.00  0.00     0.054 A 
BRANCH  82  83
ATOM     83  S   UNL     1      -8.561  13.637   1.911  1.00  0.00     0.124 S 
ATOM     84  O   UNL     1      -8.687  15.090   1.907  1.00  0.00    -0.237 OA
ATOM     85  O   UNL     1      -9.791  12.894   2.171  1.00  0.00    -0.237 OA
ATOM     86  O   UNL     1      -7.373  13.112   2.582  1.00  0.00    -0.744 OA
ENDBRANCH  82  83
ENDBRANCH  54  77
BRANCH  66  87
ATOM     87  C   UNL     1      -7.872  16.396  -8.441  1.00  0.00    -0.014 A 
ATOM     88  C   UNL     1      -6.936  17.391  -8.108  1.00  0.00     0.010 A 
ATOM     89  C   UNL     1      -9.065  16.762  -9.092  1.00  0.00     0.010 A 
ATOM     90  C   UNL     1      -7.202  18.732  -8.394  1.00  0.00     0.020 A 
ATOM     91  C   UNL     1      -9.322  18.099  -9.403  1.00  0.00     0.020 A 
ATOM     92  C   UNL     1      -8.394  19.077  -9.039  1.00  0.00     0.054 A 
BRANCH  92  93
ATOM     93  S   UNL     1      -8.697  20.820  -9.439  1.00  0.00     0.124 S 
ATOM     94  O   UNL     1      -9.053  21.373  -8.135  1.00  0.00    -0.237 OA
ATOM     95  O   UNL     1      -7.410  21.255  -9.976  1.00  0.00    -0.237 OA
ATOM     96  O   UNL     1      -9.786  20.767 -10.412  1.00  0.00    -0.744 OA
ENDBRANCH  92  93
ENDBRANCH  66  87
ENDBRANCH  40  41
ENDBRANCH  32  35
ENDBRANCH  30  31
ENDBRANCH   1  30
TORSDOF 16
