REMARK SMILES O=C(C[N@@H+]1CC[N@H+](Cc2cc(F)ccc2Cl)[C@H]2CS(=O)(=O)C[C@H]21)NCCCNC(=O)c1ccc(-c2c3nc(c(-c4ccc(S(=O)(=O)[O-])cc4)c4ccc([nH]4)c(-c4ccc(S(=O)(=O)[O-])cc4)c4nc(c(-c5ccc(S(=O)(=O)[O-])cc5)c5ccc2[nH]5)C=C4)C=C3)cc1
REMARK SMILES IDX 26 1 25 2 24 3 1 4 2 5 3 7 4 8 5 9 23 10 6 12 17 13 22 14
REMARK SMILES IDX 7 15 18 16 19 17 20 19 21 20 8 21 9 22 10 23 15 24 11 25
REMARK SMILES IDX 14 26 16 27 12 28 13 29 27 30 28 31 29 32 30 34 31 35 32 36
REMARK SMILES IDX 90 37 33 38 89 39 34 40 35 41 36 42 83 43 37 44 88 45 82 46
REMARK SMILES IDX 84 47 38 48 87 49 81 50 80 51 39 53 69 54 50 55 68 56 51 57
REMARK SMILES IDX 54 58 67 59 85 60 52 61 53 62 66 64 86 65 55 66 40 67 41 68
REMARK SMILES IDX 49 69 42 70 48 71 43 72 44 73 45 74 46 75 47 76 70 77 71 78
REMARK SMILES IDX 79 79 72 80 78 81 73 82 74 83 75 84 76 85 77 86 56 87 57 88
REMARK SMILES IDX 65 89 58 90 64 91 59 92 60 93 61 94 62 95 63 96
REMARK H PARENT 24 6 4 11 7 18 28 33 84 52 54 63
REMARK Flexibility Score: inf
ROOT
ATOM      1  C   UNL     1       2.081  -4.028   1.820  1.00  0.00     0.042 C 
ENDROOT
BRANCH   1   2
ATOM      2  C   UNL     1       1.474  -2.437   1.874  1.00  0.00     0.118 C 
BRANCH   2   3
ATOM      3  N   UNL     1       1.802  -0.725   0.718  1.00  0.00    -0.351 N 
ATOM      4  O   UNL     1       0.145   0.697  -0.341  1.00  0.00    -0.269 OA
ATOM      5  C   UNL     1       1.308   0.358  -0.123  1.00  0.00     0.275 C 
ATOM      6  H   UNL     1       2.775  -0.578   0.766  1.00  0.00     0.163 HD
BRANCH   5   7
ATOM      7  C   UNL     1       2.449   1.102  -0.901  1.00  0.00     0.364 C 
BRANCH   7   8
ATOM      8  N   UNL     1       3.494   1.787  -0.117  1.00  0.00    -0.314 N 
ATOM      9  C   UNL     1       4.710   1.049   0.207  1.00  0.00     0.325 C 
ATOM     10  C   UNL     1       3.094   2.791   0.866  1.00  0.00     0.259 C 
ATOM     11  H   UNL     1       3.807   2.384  -0.883  1.00  0.00     0.349 HD
ATOM     12  C   UNL     1       5.093   0.999   1.714  1.00  0.00     0.325 C 
ATOM     13  C   UNL     1       2.965   2.185   2.283  1.00  0.00     0.259 C 
ATOM     14  C   UNL     1       4.081   3.959   0.997  1.00  0.00     0.208 C 
ATOM     15  N   UNL     1       4.043   1.268   2.709  1.00  0.00    -0.318 N 
ATOM     16  C   UNL     1       2.775   3.345   3.256  1.00  0.00     0.208 C 
ATOM     17  S   UNL     1       3.687   4.704   2.570  1.00  0.00     0.162 S 
ATOM     18  H   UNL     1       4.537   1.818   3.412  1.00  0.00     0.349 HD
ATOM     19  O   UNL     1       2.765   5.799   2.337  1.00  0.00    -0.228 OA
ATOM     20  O   UNL     1       4.909   4.888   3.325  1.00  0.00    -0.228 OA
BRANCH  15  21
ATOM     21  C   UNL     1       3.570   0.072   3.422  1.00  0.00     0.301 C 
BRANCH  21  22
ATOM     22  C   UNL     1       2.685  -0.791   2.564  1.00  0.00     0.028 A 
ATOM     23  C   UNL     1       3.436  -1.826   1.264  1.00  0.00     0.050 A 
ATOM     24  C   UNL     1       0.888  -0.484   2.536  1.00  0.00     0.050 A 
ATOM     25  C   UNL     1       2.393  -2.463  -0.076  1.00  0.00     0.123 A 
ATOM     26  C   UNL     1      -0.153  -1.188   1.243  1.00  0.00     0.024 A 
ATOM     27  Cl  UNL     1       0.130   0.423   3.792  1.00  0.00    -0.084 Cl
ATOM     28  F   UNL     1       2.960  -3.145  -1.079  1.00  0.00    -0.207 F 
ATOM     29  C   UNL     1       0.608  -2.189  -0.074  1.00  0.00     0.041 A 
ENDBRANCH  21  22
ENDBRANCH  15  21
ENDBRANCH   7   8
ENDBRANCH   5   7
ENDBRANCH   2   3
ENDBRANCH   1   2
BRANCH   1  30
ATOM     30  C   UNL     1       3.490  -4.410   2.279  1.00  0.00     0.118 C 
BRANCH  30  31
ATOM     31  N   UNL     1       3.990  -3.738   3.473  1.00  0.00    -0.352 N 
ATOM     32  C   UNL     1       5.069  -4.112   4.245  1.00  0.00     0.251 C 
ATOM     33  H   UNL     1       3.505  -2.930   3.758  1.00  0.00     0.163 HD
ATOM     34  O   UNL     1       5.469  -3.410   5.164  1.00  0.00    -0.269 OA
BRANCH  32  35
ATOM     35  C   UNL     1       5.655  -5.434   3.973  1.00  0.00     0.039 A 
ATOM     36  C   UNL     1       5.396  -6.455   4.888  1.00  0.00     0.014 A 
ATOM     37  C   UNL     1       6.216  -5.701   2.722  1.00  0.00     0.014 A 
ATOM     38  C   UNL     1       5.606  -7.776   4.504  1.00  0.00     0.010 A 
ATOM     39  C   UNL     1       6.353  -7.023   2.318  1.00  0.00     0.010 A 
ATOM     40  C   UNL     1       6.024  -8.070   3.196  1.00  0.00    -0.014 A 
BRANCH  40  41
ATOM     41  C   UNL     1       6.081  -9.472   2.716  1.00  0.00     0.031 A 
ATOM     42  C   UNL     1       7.398 -10.071   2.321  1.00  0.00     0.074 A 
ATOM     43  C   UNL     1       4.938 -10.174   2.574  1.00  0.00     0.049 A 
ATOM     44  N   UNL     1       7.648 -11.257   1.832  1.00  0.00    -0.248 NA
ATOM     45  C   UNL     1       8.587  -9.216   2.469  1.00  0.00     0.031 C 
ATOM     46  C   UNL     1       3.592  -9.679   2.881  1.00  0.00     0.029 A 
ATOM     47  N   UNL     1       4.723 -11.456   2.133  1.00  0.00    -0.354 N 
ATOM     48  C   UNL     1       9.017 -11.286   1.602  1.00  0.00     0.074 A 
ATOM     49  C   UNL     1       9.535  -9.982   1.951  1.00  0.00     0.031 C 
ATOM     50  C   UNL     1       2.699 -10.655   2.646  1.00  0.00     0.029 A 
ATOM     51  C   UNL     1       3.399 -11.829   2.137  1.00  0.00     0.049 A 
ATOM     52  H   UNL     1       5.449 -12.053   1.840  1.00  0.00     0.167 HD
ATOM     53  C   UNL     1       9.778 -12.315   1.162  1.00  0.00     0.031 A 
ATOM     54  C   UNL     1       2.814 -12.986   1.767  1.00  0.00     0.031 A 
ATOM     55  C   UNL     1       9.256 -13.611   0.824  1.00  0.00     0.049 A 
ATOM     56  C   UNL     1       3.681 -14.110   1.268  1.00  0.00     0.074 A 
ATOM     57  C   UNL     1       9.949 -14.739   0.422  1.00  0.00     0.029 A 
ATOM     58  N   UNL     1       7.912 -13.952   0.846  1.00  0.00    -0.354 N 
ATOM     59  N   UNL     1       4.985 -14.144   1.128  1.00  0.00    -0.248 NA
ATOM     60  C   UNL     1       2.999 -15.354   0.884  1.00  0.00     0.031 C 
ATOM     61  C   UNL     1       9.018 -15.746   0.148  1.00  0.00     0.029 A 
ATOM     62  C   UNL     1       7.750 -15.264   0.436  1.00  0.00     0.049 A 
ATOM     63  H   UNL     1       7.180 -13.350   1.113  1.00  0.00     0.167 HD
ATOM     64  C   UNL     1       5.282 -15.418   0.659  1.00  0.00     0.074 A 
ATOM     65  C   UNL     1       4.024 -16.130   0.559  1.00  0.00     0.031 C 
ATOM     66  C   UNL     1       6.487 -15.951   0.337  1.00  0.00     0.031 A 
BRANCH  53  67
ATOM     67  C   UNL     1      11.256 -12.069   1.017  1.00  0.00    -0.014 A 
ATOM     68  C   UNL     1      12.075 -11.884   2.146  1.00  0.00     0.010 A 
ATOM     69  C   UNL     1      11.838 -12.043  -0.263  1.00  0.00     0.010 A 
ATOM     70  C   UNL     1      13.440 -11.633   1.996  1.00  0.00     0.020 A 
ATOM     71  C   UNL     1      13.210 -11.822  -0.416  1.00  0.00     0.020 A 
ATOM     72  C   UNL     1      13.999 -11.600   0.715  1.00  0.00     0.054 A 
BRANCH  72  73
ATOM     73  S   UNL     1      15.778 -11.289   0.553  1.00  0.00     0.124 S 
ATOM     74  O   UNL     1      15.865  -9.867   0.877  1.00  0.00    -0.237 OA
ATOM     75  O   UNL     1      16.352 -12.195   1.543  1.00  0.00    -0.237 OA
ATOM     76  O   UNL     1      16.064 -11.629  -0.839  1.00  0.00    -0.744 OA
ENDBRANCH  72  73
ENDBRANCH  53  67
BRANCH  54  77
ATOM     77  C   UNL     1       1.336 -13.143   1.863  1.00  0.00    -0.014 A 
ATOM     78  C   UNL     1       0.770 -14.001   2.823  1.00  0.00     0.010 A 
ATOM     79  C   UNL     1       0.485 -12.429   1.000  1.00  0.00     0.010 A 
ATOM     80  C   UNL     1      -0.618 -14.155   2.907  1.00  0.00     0.020 A 
ATOM     81  C   UNL     1      -0.904 -12.558   1.099  1.00  0.00     0.020 A 
ATOM     82  C   UNL     1      -1.446 -13.430   2.046  1.00  0.00     0.054 A 
BRANCH  82  83
ATOM     83  S   UNL     1      -3.245 -13.604   2.208  1.00  0.00     0.124 S 
ATOM     84  O   UNL     1      -3.474 -14.931   1.645  1.00  0.00    -0.237 OA
ATOM     85  O   UNL     1      -3.444 -13.483   3.650  1.00  0.00    -0.237 OA
ATOM     86  O   UNL     1      -3.768 -12.489   1.420  1.00  0.00    -0.744 OA
ENDBRANCH  82  83
ENDBRANCH  54  77
BRANCH  66  87
ATOM     87  C   UNL     1       6.505 -17.379  -0.139  1.00  0.00    -0.014 A 
ATOM     88  C   UNL     1       6.024 -17.726  -1.413  1.00  0.00     0.010 A 
ATOM     89  C   UNL     1       7.068 -18.377   0.678  1.00  0.00     0.010 A 
ATOM     90  C   UNL     1       6.079 -19.051  -1.851  1.00  0.00     0.020 A 
ATOM     91  C   UNL     1       7.152 -19.697   0.232  1.00  0.00     0.020 A 
ATOM     92  C   UNL     1       6.644 -20.028  -1.026  1.00  0.00     0.054 A 
BRANCH  92  93
ATOM     93  S   UNL     1       6.749 -21.732  -1.638  1.00  0.00     0.124 S 
ATOM     94  O   UNL     1       5.358 -22.170  -1.556  1.00  0.00    -0.237 OA
ATOM     95  O   UNL     1       7.273 -21.555  -2.990  1.00  0.00    -0.237 OA
ATOM     96  O   UNL     1       7.664 -22.381  -0.702  1.00  0.00    -0.744 OA
ENDBRANCH  92  93
ENDBRANCH  66  87
ENDBRANCH  40  41
ENDBRANCH  32  35
ENDBRANCH  30  31
ENDBRANCH   1  30
TORSDOF 16
