REMARK SMILES O=C(NCCCNC(=O)c1ccc(OC[C@H]2C[C@H]3CC[C@@H]2C3)c(Cl)c1)c1ccc(-c2c3nc(c(-c4ccc(S(=O)(=O)[O-])cc4)c4ccc([nH]4)c(-c4ccc(S(=O)(=O)[O-])cc4)c4nc(c(-c5ccc(S(=O)(=O)[O-])cc5)c5ccc2[nH]5)C=C4)C=C3)cc1
REMARK SMILES IDX 5 1 4 2 3 3 1 4 2 5 26 7 27 8 85 9 28 10 84 11 29 12 30 13
REMARK SMILES IDX 31 14 78 15 32 16 83 17 77 18 79 19 33 20 82 21 76 22 75 23
REMARK SMILES IDX 34 25 64 26 45 27 63 28 46 29 49 30 62 31 80 32 47 33 48 34
REMARK SMILES IDX 61 36 81 37 50 38 35 39 36 40 44 41 37 42 43 43 38 44 39 45
REMARK SMILES IDX 40 46 41 47 42 48 65 49 66 50 74 51 67 52 73 53 68 54 69 55
REMARK SMILES IDX 70 56 71 57 72 58 51 59 52 60 60 61 53 62 59 63 54 64 55 65
REMARK SMILES IDX 56 66 57 67 58 68 6 69 7 70 8 71 9 73 10 74 11 75 25 76
REMARK SMILES IDX 12 77 23 78 13 79 24 80 14 81 15 82 16 83 17 84 21 85 18 86
REMARK SMILES IDX 20 87 22 88 19 89
REMARK H PARENT 3 6 79 24 49 35 7 72
REMARK Flexibility Score: inf
ROOT
ATOM      1  C   UNL     1       4.297   2.473  -2.091  1.00  0.00     0.042 C 
ENDROOT
BRANCH   1   2
ATOM      2  C   UNL     1       2.903   2.297  -1.497  1.00  0.00     0.118 C 
BRANCH   2   3
ATOM      3  N   UNL     1       2.688   0.967  -0.943  1.00  0.00    -0.352 N 
ATOM      4  O   UNL     1       2.460  -0.630   0.620  1.00  0.00    -0.269 OA
ATOM      5  C   UNL     1       2.424   0.567   0.345  1.00  0.00     0.251 C 
ATOM      6  H   UNL     1       2.741   0.234  -1.598  1.00  0.00     0.163 HD
BRANCH   5   7
ATOM      7  C   UNL     1       2.112   1.559   1.399  1.00  0.00     0.039 A 
ATOM      8  C   UNL     1       1.291   2.655   1.133  1.00  0.00     0.014 A 
ATOM      9  C   UNL     1       2.611   1.363   2.692  1.00  0.00     0.014 A 
ATOM     10  C   UNL     1       1.094   3.626   2.108  1.00  0.00     0.010 A 
ATOM     11  C   UNL     1       2.334   2.294   3.700  1.00  0.00     0.010 A 
ATOM     12  C   UNL     1       1.596   3.450   3.408  1.00  0.00    -0.014 A 
BRANCH  12  13
ATOM     13  C   UNL     1       1.261   4.460   4.445  1.00  0.00     0.031 A 
ATOM     14  C   UNL     1       2.321   5.319   5.078  1.00  0.00     0.074 A 
ATOM     15  C   UNL     1      -0.037   4.645   4.761  1.00  0.00     0.049 A 
ATOM     16  N   UNL     1       2.176   6.306   5.927  1.00  0.00    -0.248 NA
ATOM     17  C   UNL     1       3.721   5.036   4.724  1.00  0.00     0.031 C 
ATOM     18  C   UNL     1      -1.154   3.856   4.229  1.00  0.00     0.029 A 
ATOM     19  N   UNL     1      -0.644   5.572   5.568  1.00  0.00    -0.354 N 
ATOM     20  C   UNL     1       3.459   6.753   6.218  1.00  0.00     0.074 A 
ATOM     21  C   UNL     1       4.375   5.915   5.473  1.00  0.00     0.031 C 
ATOM     22  C   UNL     1      -2.309   4.377   4.667  1.00  0.00     0.029 A 
ATOM     23  C   UNL     1      -2.017   5.496   5.553  1.00  0.00     0.049 A 
ATOM     24  H   UNL     1      -0.145   6.228   6.106  1.00  0.00     0.167 HD
ATOM     25  C   UNL     1       3.838   7.774   7.025  1.00  0.00     0.031 A 
ATOM     26  C   UNL     1      -2.943   6.242   6.183  1.00  0.00     0.031 A 
ATOM     27  C   UNL     1       2.924   8.608   7.763  1.00  0.00     0.049 A 
ATOM     28  C   UNL     1      -2.494   7.372   7.062  1.00  0.00     0.074 A 
ATOM     29  C   UNL     1       3.214   9.671   8.602  1.00  0.00     0.029 A 
ATOM     30  N   UNL     1       1.544   8.480   7.745  1.00  0.00    -0.354 N 
ATOM     31  N   UNL     1      -1.274   7.783   7.310  1.00  0.00    -0.248 NA
ATOM     32  C   UNL     1      -3.545   8.135   7.746  1.00  0.00     0.031 C 
ATOM     33  C   UNL     1       2.010  10.164   9.119  1.00  0.00     0.029 A 
ATOM     34  C   UNL     1       0.969   9.435   8.568  1.00  0.00     0.049 A 
ATOM     35  H   UNL     1       1.045   7.809   7.225  1.00  0.00     0.167 HD
ATOM     36  C   UNL     1      -1.411   8.853   8.184  1.00  0.00     0.074 A 
ATOM     37  C   UNL     1      -2.832   9.048   8.391  1.00  0.00     0.031 C 
ATOM     38  C   UNL     1      -0.446   9.600   8.775  1.00  0.00     0.031 A 
BRANCH  25  39
ATOM     39  C   UNL     1       5.312   8.044   7.168  1.00  0.00    -0.014 A 
ATOM     40  C   UNL     1       6.032   8.683   6.143  1.00  0.00     0.010 A 
ATOM     41  C   UNL     1       5.971   7.723   8.369  1.00  0.00     0.010 A 
ATOM     42  C   UNL     1       7.389   8.976   6.308  1.00  0.00     0.020 A 
ATOM     43  C   UNL     1       7.323   8.031   8.545  1.00  0.00     0.020 A 
ATOM     44  C   UNL     1       8.027   8.646   7.508  1.00  0.00     0.054 A 
BRANCH  44  45
ATOM     45  S   UNL     1       9.778   9.077   7.712  1.00  0.00     0.124 S 
ATOM     46  O   UNL     1      10.434   8.066   6.886  1.00  0.00    -0.237 OA
ATOM     47  O   UNL     1       9.837  10.442   7.197  1.00  0.00    -0.237 OA
ATOM     48  O   UNL     1      10.001   8.947   9.150  1.00  0.00    -0.744 OA
ENDBRANCH  44  45
ENDBRANCH  25  39
BRANCH  26  49
ATOM     49  C   UNL     1      -4.386   5.926   6.016  1.00  0.00    -0.014 A 
ATOM     50  C   UNL     1      -5.231   6.779   5.286  1.00  0.00     0.010 A 
ATOM     51  C   UNL     1      -4.917   4.750   6.577  1.00  0.00     0.010 A 
ATOM     52  C   UNL     1      -6.586   6.472   5.137  1.00  0.00     0.020 A 
ATOM     53  C   UNL     1      -6.264   4.426   6.407  1.00  0.00     0.020 A 
ATOM     54  C   UNL     1      -7.095   5.297   5.700  1.00  0.00     0.054 A 
BRANCH  54  55
ATOM     55  S   UNL     1      -8.844   4.883   5.458  1.00  0.00     0.124 S 
ATOM     56  O   UNL     1      -9.491   5.695   6.484  1.00  0.00    -0.237 OA
ATOM     57  O   UNL     1      -9.084   5.297   4.077  1.00  0.00    -0.237 OA
ATOM     58  O   UNL     1      -8.883   3.439   5.680  1.00  0.00    -0.744 OA
ENDBRANCH  54  55
ENDBRANCH  26  49
BRANCH  38  59
ATOM     59  C   UNL     1      -0.909  10.692   9.698  1.00  0.00    -0.014 A 
ATOM     60  C   UNL     1      -1.419  10.387  10.973  1.00  0.00     0.010 A 
ATOM     61  C   UNL     1      -0.830  12.034   9.290  1.00  0.00     0.010 A 
ATOM     62  C   UNL     1      -1.886  11.405  11.807  1.00  0.00     0.020 A 
ATOM     63  C   UNL     1      -1.276  13.057  10.131  1.00  0.00     0.020 A 
ATOM     64  C   UNL     1      -1.820  12.733  11.376  1.00  0.00     0.054 A 
BRANCH  64  65
ATOM     65  S   UNL     1      -2.424  14.043  12.476  1.00  0.00     0.124 S 
ATOM     66  O   UNL     1      -3.869  13.956  12.284  1.00  0.00    -0.237 OA
ATOM     67  O   UNL     1      -1.937  13.617  13.786  1.00  0.00    -0.237 OA
ATOM     68  O   UNL     1      -1.796  15.252  11.949  1.00  0.00    -0.744 OA
ENDBRANCH  64  65
ENDBRANCH  38  59
ENDBRANCH  12  13
ENDBRANCH   5   7
ENDBRANCH   2   3
ENDBRANCH   1   2
BRANCH   1  69
ATOM     69  C   UNL     1       4.585   1.553  -3.272  1.00  0.00     0.118 C 
BRANCH  69  70
ATOM     70  N   UNL     1       3.696   1.810  -4.394  1.00  0.00    -0.352 N 
ATOM     71  C   UNL     1       3.932   2.562  -5.516  1.00  0.00     0.251 C 
ATOM     72  H   UNL     1       2.807   1.389  -4.341  1.00  0.00     0.163 HD
ATOM     73  O   UNL     1       3.058   2.780  -6.342  1.00  0.00    -0.269 OA
BRANCH  71  74
ATOM     74  C   UNL     1       5.285   3.097  -5.726  1.00  0.00     0.041 A 
ATOM     75  C   UNL     1       6.282   2.250  -6.205  1.00  0.00     0.018 A 
ATOM     76  C   UNL     1       5.560   4.425  -5.401  1.00  0.00     0.038 A 
ATOM     77  C   UNL     1       7.573   2.747  -6.359  1.00  0.00     0.049 A 
ATOM     78  C   UNL     1       6.867   4.909  -5.527  1.00  0.00     0.083 A 
ATOM     79  C   UNL     1       7.872   4.083  -6.048  1.00  0.00     0.137 A 
ATOM     80  Cl  UNL     1       7.169   6.480  -4.882  1.00  0.00    -0.080 Cl
BRANCH  79  81
ATOM     81  O   UNL     1       9.195   4.380  -6.196  1.00  0.00    -0.492 OA
BRANCH  81  82
ATOM     82  C   UNL     1       9.579   5.556  -6.918  1.00  0.00     0.233 C 
BRANCH  82  83
ATOM     83  C   UNL     1       8.988   5.686  -8.331  1.00  0.00     0.030 C 
ATOM     84  C   UNL     1       7.876   6.759  -8.447  1.00  0.00     0.011 C 
ATOM     85  C   UNL     1      10.002   6.173  -9.405  1.00  0.00    -0.004 C 
ATOM     86  C   UNL     1       8.385   7.688  -9.562  1.00  0.00    -0.010 C 
ATOM     87  C   UNL     1      10.705   7.472  -8.972  1.00  0.00     0.004 C 
ATOM     88  C   UNL     1       9.070   6.700 -10.500  1.00  0.00     0.007 C 
ATOM     89  C   UNL     1       9.573   8.505  -9.021  1.00  0.00     0.004 C 
ENDBRANCH  82  83
ENDBRANCH  81  82
ENDBRANCH  79  81
ENDBRANCH  71  74
ENDBRANCH  69  70
ENDBRANCH   1  69
TORSDOF 16
