REMARK SMILES CS(=O)(=O)c1ccc(C(=O)N2C[C@@H](C(=O)NCCCNC(=O)c3ccc(-c4c5nc(c(-c6ccc(S(=O)(=O)[O-])cc6)c6ccc([nH]6)c(-c6ccc(S(=O)(=O)[O-])cc6)c6nc(c(-c7ccc(S(=O)(=O)[O-])cc7)c7ccc4[nH]7)C=C6)C=C5)cc3)[C@H](c3ccncc3)C2)cc1
REMARK SMILES IDX 18 1 17 2 16 3 14 4 15 5 13 7 11 8 12 9 90 10 83 11 9 12
REMARK SMILES IDX 10 13 8 14 5 15 6 16 92 17 7 18 91 19 2 20 1 21 3 22 4 23
REMARK SMILES IDX 84 24 85 25 89 26 86 27 88 28 87 29 19 30 20 31 21 32 22 34
REMARK SMILES IDX 23 35 24 36 82 37 25 38 81 39 26 40 27 41 28 42 75 43 29 44
REMARK SMILES IDX 80 45 74 46 76 47 30 48 79 49 73 50 72 51 31 53 61 54 42 55
REMARK SMILES IDX 60 56 43 57 46 58 59 59 77 60 44 61 45 62 58 64 78 65 47 66
REMARK SMILES IDX 32 67 33 68 41 69 34 70 40 71 35 72 36 73 37 74 38 75 39 76
REMARK SMILES IDX 62 77 63 78 71 79 64 80 70 81 65 82 66 83 67 84 68 85 69 86
REMARK SMILES IDX 48 87 49 88 57 89 50 90 56 91 51 92 52 93 53 94 54 95 55 96
REMARK H PARENT 16 6 20 33 76 52 46 63
REMARK Flexibility Score: inf
ROOT
ATOM      1  C   UNL     1       6.210  -1.410  -3.901  1.00  0.00     0.042 C 
ENDROOT
BRANCH   1   2
ATOM      2  C   UNL     1       5.696  -2.002  -5.207  1.00  0.00     0.117 C 
BRANCH   2   3
ATOM      3  N   UNL     1       6.340  -3.269  -5.518  1.00  0.00    -0.356 N 
ATOM      4  C   UNL     1       5.820  -4.523  -5.620  1.00  0.00     0.225 C 
ATOM      5  O   UNL     1       6.579  -5.447  -5.912  1.00  0.00    -0.275 OA
ATOM      6  H   UNL     1       7.309  -3.210  -5.680  1.00  0.00     0.163 HD
BRANCH   4   7
ATOM      7  C   UNL     1       4.348  -4.746  -5.381  1.00  0.00     0.107 C 
ATOM      8  N   UNL     1       2.806  -5.984  -4.217  1.00  0.00    -0.337 N 
ATOM      9  C   UNL     1       4.141  -5.449  -4.053  1.00  0.00     0.134 C 
ATOM     10  C   UNL     1       2.647  -6.477  -5.577  1.00  0.00     0.129 C 
ATOM     11  C   UNL     1       3.691  -5.699  -6.422  1.00  0.00     0.053 C 
BRANCH   8  12
ATOM     12  C   UNL     1       1.751  -6.036  -3.329  1.00  0.00     0.253 C 
ATOM     13  O   UNL     1       0.835  -6.847  -3.470  1.00  0.00    -0.269 OA
BRANCH  12  14
ATOM     14  C   UNL     1       1.614  -5.006  -2.258  1.00  0.00     0.040 A 
ATOM     15  C   UNL     1       0.909  -3.001  -0.429  1.00  0.00     0.067 A 
ATOM     16  C   UNL     1       0.499  -4.323  -0.214  1.00  0.00     0.021 A 
ATOM     17  C   UNL     1       1.697  -2.678  -1.532  1.00  0.00     0.021 A 
ATOM     18  C   UNL     1       0.853  -5.321  -1.125  1.00  0.00     0.015 A 
ATOM     19  C   UNL     1       2.024  -3.678  -2.455  1.00  0.00     0.015 A 
BRANCH  15  20
ATOM     20  S   UNL     1       0.291  -1.766   0.694  1.00  0.00     0.175 S 
ATOM     21  C   UNL     1       0.925  -0.198   0.167  1.00  0.00     0.163 C 
ATOM     22  O   UNL     1       0.873  -2.081   1.983  1.00  0.00    -0.224 OA
ATOM     23  O   UNL     1      -1.145  -1.745   0.494  1.00  0.00    -0.224 OA
ENDBRANCH  15  20
ENDBRANCH  12  14
ENDBRANCH   8  12
BRANCH  11  24
ATOM     24  C   UNL     1       3.209  -4.902  -7.633  1.00  0.00    -0.039 A 
ATOM     25  C   UNL     1       4.158  -4.227  -8.420  1.00  0.00     0.024 A 
ATOM     26  C   UNL     1       1.871  -4.778  -8.015  1.00  0.00     0.024 A 
ATOM     27  C   UNL     1       3.739  -3.448  -9.490  1.00  0.00     0.111 A 
ATOM     28  C   UNL     1       1.548  -3.987  -9.113  1.00  0.00     0.111 A 
ATOM     29  N   UNL     1       2.450  -3.310  -9.852  1.00  0.00    -0.265 NA
ENDBRANCH  11  24
ENDBRANCH   4   7
ENDBRANCH   2   3
ENDBRANCH   1   2
BRANCH   1  30
ATOM     30  C   UNL     1       7.676  -0.992  -3.946  1.00  0.00     0.118 C 
BRANCH  30  31
ATOM     31  N   UNL     1       7.926   0.070  -4.910  1.00  0.00    -0.352 N 
ATOM     32  C   UNL     1       8.474   1.316  -4.731  1.00  0.00     0.251 C 
ATOM     33  H   UNL     1       7.661  -0.138  -5.835  1.00  0.00     0.163 HD
ATOM     34  O   UNL     1       8.426   2.130  -5.649  1.00  0.00    -0.269 OA
BRANCH  32  35
ATOM     35  C   UNL     1       9.097   1.686  -3.441  1.00  0.00     0.039 A 
ATOM     36  C   UNL     1       8.855   2.960  -2.918  1.00  0.00     0.014 A 
ATOM     37  C   UNL     1       9.931   0.797  -2.758  1.00  0.00     0.014 A 
ATOM     38  C   UNL     1       9.394   3.315  -1.679  1.00  0.00     0.010 A 
ATOM     39  C   UNL     1      10.407   1.125  -1.492  1.00  0.00     0.010 A 
ATOM     40  C   UNL     1      10.145   2.388  -0.939  1.00  0.00    -0.014 A 
BRANCH  40  41
ATOM     41  C   UNL     1      10.656   2.713   0.416  1.00  0.00     0.031 A 
ATOM     42  C   UNL     1      12.137   2.767   0.676  1.00  0.00     0.074 A 
ATOM     43  C   UNL     1       9.787   2.884   1.432  1.00  0.00     0.049 A 
ATOM     44  N   UNL     1      12.768   2.954   1.807  1.00  0.00    -0.248 NA
ATOM     45  C   UNL     1      13.025   2.558  -0.479  1.00  0.00     0.031 C 
ATOM     46  C   UNL     1       8.328   2.811   1.321  1.00  0.00     0.029 A 
ATOM     47  N   UNL     1      10.005   3.142   2.762  1.00  0.00    -0.354 N 
ATOM     48  C   UNL     1      14.122   2.859   1.506  1.00  0.00     0.074 A 
ATOM     49  C   UNL     1      14.220   2.561   0.093  1.00  0.00     0.031 C 
ATOM     50  C   UNL     1       7.783   3.037   2.527  1.00  0.00     0.029 A 
ATOM     51  C   UNL     1       8.851   3.236   3.503  1.00  0.00     0.049 A 
ATOM     52  H   UNL     1      10.904   3.249   3.149  1.00  0.00     0.167 HD
ATOM     53  C   UNL     1      15.187   3.020   2.327  1.00  0.00     0.031 A 
ATOM     54  C   UNL     1       8.669   3.450   4.820  1.00  0.00     0.031 A 
ATOM     55  C   UNL     1      15.089   3.341   3.726  1.00  0.00     0.049 A 
ATOM     56  C   UNL     1       9.865   3.648   5.707  1.00  0.00     0.074 A 
ATOM     57  C   UNL     1      16.113   3.589   4.624  1.00  0.00     0.029 A 
ATOM     58  N   UNL     1      13.901   3.459   4.430  1.00  0.00    -0.354 N 
ATOM     59  N   UNL     1      11.137   3.616   5.389  1.00  0.00    -0.248 NA
ATOM     60  C   UNL     1       9.602   3.925   7.125  1.00  0.00     0.031 C 
ATOM     61  C   UNL     1      15.544   3.819   5.882  1.00  0.00     0.029 A 
ATOM     62  C   UNL     1      14.165   3.760   5.755  1.00  0.00     0.049 A 
ATOM     63  H   UNL     1      13.002   3.346   4.044  1.00  0.00     0.167 HD
ATOM     64  C   UNL     1      11.826   3.890   6.565  1.00  0.00     0.074 A 
ATOM     65  C   UNL     1      10.830   4.098   7.596  1.00  0.00     0.031 C 
ATOM     66  C   UNL     1      13.164   3.963   6.770  1.00  0.00     0.031 A 
BRANCH  53  67
ATOM     67  C   UNL     1      16.557   2.848   1.728  1.00  0.00    -0.014 A 
ATOM     68  C   UNL     1      17.090   3.808   0.848  1.00  0.00     0.010 A 
ATOM     69  C   UNL     1      17.338   1.732   2.080  1.00  0.00     0.010 A 
ATOM     70  C   UNL     1      18.363   3.633   0.299  1.00  0.00     0.020 A 
ATOM     71  C   UNL     1      18.622   1.567   1.552  1.00  0.00     0.020 A 
ATOM     72  C   UNL     1      19.119   2.511   0.650  1.00  0.00     0.054 A 
BRANCH  72  73
ATOM     73  S   UNL     1      20.776   2.319  -0.062  1.00  0.00     0.124 S 
ATOM     74  O   UNL     1      20.468   1.896  -1.426  1.00  0.00    -0.237 OA
ATOM     75  O   UNL     1      21.340   3.660   0.067  1.00  0.00    -0.237 OA
ATOM     76  O   UNL     1      21.399   1.301   0.780  1.00  0.00    -0.744 OA
ENDBRANCH  72  73
ENDBRANCH  53  67
BRANCH  54  77
ATOM     77  C   UNL     1       7.290   3.510   5.372  1.00  0.00    -0.014 A 
ATOM     78  C   UNL     1       6.730   4.742   5.751  1.00  0.00     0.010 A 
ATOM     79  C   UNL     1       6.519   2.339   5.494  1.00  0.00     0.010 A 
ATOM     80  C   UNL     1       5.426   4.803   6.249  1.00  0.00     0.020 A 
ATOM     81  C   UNL     1       5.207   2.399   5.969  1.00  0.00     0.020 A 
ATOM     82  C   UNL     1       4.671   3.631   6.351  1.00  0.00     0.054 A 
BRANCH  82  83
ATOM     83  S   UNL     1       2.955   3.744   6.929  1.00  0.00     0.124 S 
ATOM     84  O   UNL     1       3.130   3.917   8.367  1.00  0.00    -0.237 OA
ATOM     85  O   UNL     1       2.454   4.910   6.206  1.00  0.00    -0.237 OA
ATOM     86  O   UNL     1       2.374   2.469   6.514  1.00  0.00    -0.744 OA
ENDBRANCH  82  83
ENDBRANCH  54  77
BRANCH  66  87
ATOM     87  C   UNL     1      13.632   4.308   8.157  1.00  0.00    -0.014 A 
ATOM     88  C   UNL     1      13.573   3.367   9.199  1.00  0.00     0.010 A 
ATOM     89  C   UNL     1      14.190   5.576   8.405  1.00  0.00     0.010 A 
ATOM     90  C   UNL     1      14.039   3.697  10.475  1.00  0.00     0.020 A 
ATOM     91  C   UNL     1      14.678   5.901   9.673  1.00  0.00     0.020 A 
ATOM     92  C   UNL     1      14.587   4.963  10.704  1.00  0.00     0.054 A 
BRANCH  92  93
ATOM     93  S   UNL     1      15.228   5.354  12.355  1.00  0.00     0.124 S 
ATOM     94  O   UNL     1      14.000   5.594  13.108  1.00  0.00    -0.237 OA
ATOM     95  O   UNL     1      15.958   4.141  12.713  1.00  0.00    -0.237 OA
ATOM     96  O   UNL     1      16.063   6.532  12.132  1.00  0.00    -0.744 OA
ENDBRANCH  92  93
ENDBRANCH  66  87
ENDBRANCH  40  41
ENDBRANCH  32  35
ENDBRANCH  30  31
ENDBRANCH   1  30
TORSDOF 17
