REMARK SMILES O=C(NCCCNC(=O)[C@@H]1[C@@H](C(=O)Nc2ccc(OC(F)F)c(Cl)c2)[C@@H]2C=C[C@H]1O2)c1ccc(-c2c3nc(c(-c4ccc(S(=O)(=O)[O-])cc4)c4ccc([nH]4)c(-c4ccc(S(=O)(=O)[O-])cc4)c4nc(c(-c5ccc(S(=O)(=O)[O-])cc5)c5ccc2[nH]5)C=C4)C=C3)cc1
REMARK SMILES IDX 5 1 4 2 3 3 1 4 2 5 31 7 32 8 90 9 33 10 89 11 34 12 35 13
REMARK SMILES IDX 36 14 83 15 37 16 88 17 82 18 84 19 38 20 87 21 81 22 80 23
REMARK SMILES IDX 39 25 69 26 50 27 68 28 51 29 54 30 67 31 85 32 52 33 53 34
REMARK SMILES IDX 66 36 86 37 55 38 40 39 41 40 49 41 42 42 48 43 43 44 44 45
REMARK SMILES IDX 45 46 46 47 47 48 70 49 71 50 79 51 72 52 78 53 73 54 74 55
REMARK SMILES IDX 75 56 76 57 77 58 56 59 57 60 65 61 58 62 64 63 59 64 60 65
REMARK SMILES IDX 61 66 62 67 63 68 6 69 7 70 8 71 9 73 10 74 11 75 29 76
REMARK SMILES IDX 26 77 28 78 30 79 27 80 12 81 13 82 14 83 15 85 16 86 25 87
REMARK SMILES IDX 17 88 23 89 18 90 24 91 19 92 20 93 21 94 22 95
REMARK H PARENT 3 6 84 24 54 35 7 72 14 84
REMARK Flexibility Score: inf
ROOT
ATOM      1  C   UNL     1       5.281   1.830  -0.064  1.00  0.00     0.042 C 
ENDROOT
BRANCH   1   2
ATOM      2  C   UNL     1       4.611   1.027   1.038  1.00  0.00     0.118 C 
BRANCH   2   3
ATOM      3  N   UNL     1       3.183   0.830   0.812  1.00  0.00    -0.352 N 
ATOM      4  O   UNL     1       1.298  -0.006  -0.083  1.00  0.00    -0.269 OA
ATOM      5  C   UNL     1       2.499  -0.157   0.140  1.00  0.00     0.251 C 
ATOM      6  H   UNL     1       2.609   1.524   1.210  1.00  0.00     0.163 HD
BRANCH   5   7
ATOM      7  C   UNL     1       3.192  -1.373  -0.342  1.00  0.00     0.039 A 
ATOM      8  C   UNL     1       4.196  -1.966   0.417  1.00  0.00     0.014 A 
ATOM      9  C   UNL     1       2.809  -1.964  -1.552  1.00  0.00     0.014 A 
ATOM     10  C   UNL     1       4.955  -2.997  -0.114  1.00  0.00     0.010 A 
ATOM     11  C   UNL     1       3.475  -3.107  -2.017  1.00  0.00     0.010 A 
ATOM     12  C   UNL     1       4.575  -3.616  -1.313  1.00  0.00    -0.014 A 
BRANCH  12  13
ATOM     13  C   UNL     1       5.284  -4.860  -1.713  1.00  0.00     0.031 A 
ATOM     14  C   UNL     1       6.043  -4.956  -3.007  1.00  0.00     0.074 A 
ATOM     15  C   UNL     1       5.282  -5.894  -0.845  1.00  0.00     0.049 A 
ATOM     16  N   UNL     1       6.746  -5.959  -3.467  1.00  0.00    -0.248 NA
ATOM     17  C   UNL     1       6.007  -3.791  -3.906  1.00  0.00     0.031 C 
ATOM     18  C   UNL     1       4.566  -5.917   0.438  1.00  0.00     0.029 A 
ATOM     19  N   UNL     1       5.924  -7.105  -0.878  1.00  0.00    -0.354 N 
ATOM     20  C   UNL     1       7.208  -5.564  -4.717  1.00  0.00     0.074 A 
ATOM     21  C   UNL     1       6.700  -4.230  -4.950  1.00  0.00     0.031 C 
ATOM     22  C   UNL     1       4.874  -7.040   1.099  1.00  0.00     0.029 A 
ATOM     23  C   UNL     1       5.726  -7.862   0.253  1.00  0.00     0.049 A 
ATOM     24  H   UNL     1       6.474  -7.403  -1.638  1.00  0.00     0.167 HD
ATOM     25  C   UNL     1       7.982  -6.257  -5.586  1.00  0.00     0.031 A 
ATOM     26  C   UNL     1       6.154  -9.098   0.571  1.00  0.00     0.031 A 
ATOM     27  C   UNL     1       8.496  -7.579  -5.333  1.00  0.00     0.049 A 
ATOM     28  C   UNL     1       6.996  -9.841  -0.421  1.00  0.00     0.074 A 
ATOM     29  C   UNL     1       9.321  -8.348  -6.138  1.00  0.00     0.029 A 
ATOM     30  N   UNL     1       8.235  -8.330  -4.197  1.00  0.00    -0.354 N 
ATOM     31  N   UNL     1       7.443  -9.434  -1.585  1.00  0.00    -0.248 NA
ATOM     32  C   UNL     1       7.383 -11.211  -0.065  1.00  0.00     0.031 C 
ATOM     33  C   UNL     1       9.514  -9.584  -5.512  1.00  0.00     0.029 A 
ATOM     34  C   UNL     1       8.857  -9.564  -4.293  1.00  0.00     0.049 A 
ATOM     35  H   UNL     1       7.689  -8.031  -3.435  1.00  0.00     0.167 HD
ATOM     36  C   UNL     1       8.166 -10.500  -2.101  1.00  0.00     0.074 A 
ATOM     37  C   UNL     1       8.126 -11.555  -1.107  1.00  0.00     0.031 C 
ATOM     38  C   UNL     1       8.798 -10.602  -3.295  1.00  0.00     0.031 A 
BRANCH  25  39
ATOM     39  C   UNL     1       8.306  -5.623  -6.914  1.00  0.00    -0.014 A 
ATOM     40  C   UNL     1       9.249  -4.587  -7.020  1.00  0.00     0.010 A 
ATOM     41  C   UNL     1       7.727  -6.144  -8.087  1.00  0.00     0.010 A 
ATOM     42  C   UNL     1       9.599  -4.075  -8.274  1.00  0.00     0.020 A 
ATOM     43  C   UNL     1       8.090  -5.650  -9.344  1.00  0.00     0.020 A 
ATOM     44  C   UNL     1       9.019  -4.612  -9.428  1.00  0.00     0.054 A 
BRANCH  44  45
ATOM     45  S   UNL     1       9.538  -3.971 -11.045  1.00  0.00     0.124 S 
ATOM     46  O   UNL     1       8.903  -2.656 -11.065  1.00  0.00    -0.237 OA
ATOM     47  O   UNL     1      10.995  -3.962 -10.933  1.00  0.00    -0.237 OA
ATOM     48  O   UNL     1       8.995  -4.939 -11.994  1.00  0.00    -0.744 OA
ENDBRANCH  44  45
ENDBRANCH  25  39
BRANCH  26  49
ATOM     49  C   UNL     1       5.737  -9.722   1.856  1.00  0.00    -0.014 A 
ATOM     50  C   UNL     1       6.674  -9.994   2.867  1.00  0.00     0.010 A 
ATOM     51  C   UNL     1       4.384 -10.043   2.074  1.00  0.00     0.010 A 
ATOM     52  C   UNL     1       6.269 -10.598   4.061  1.00  0.00     0.020 A 
ATOM     53  C   UNL     1       3.969 -10.613   3.278  1.00  0.00     0.020 A 
ATOM     54  C   UNL     1       4.919 -10.905   4.258  1.00  0.00     0.054 A 
BRANCH  54  55
ATOM     55  S   UNL     1       4.405 -11.661   5.824  1.00  0.00     0.124 S 
ATOM     56  O   UNL     1       4.827 -13.046   5.643  1.00  0.00    -0.237 OA
ATOM     57  O   UNL     1       5.159 -10.892   6.811  1.00  0.00    -0.237 OA
ATOM     58  O   UNL     1       2.960 -11.443   5.849  1.00  0.00    -0.744 OA
ENDBRANCH  54  55
ENDBRANCH  26  49
BRANCH  38  59
ATOM     59  C   UNL     1       9.509 -11.895  -3.578  1.00  0.00    -0.014 A 
ATOM     60  C   UNL     1       8.790 -13.066  -3.873  1.00  0.00     0.010 A 
ATOM     61  C   UNL     1      10.915 -11.930  -3.576  1.00  0.00     0.010 A 
ATOM     62  C   UNL     1       9.465 -14.262  -4.125  1.00  0.00     0.020 A 
ATOM     63  C   UNL     1      11.594 -13.118  -3.855  1.00  0.00     0.020 A 
ATOM     64  C   UNL     1      10.864 -14.280  -4.112  1.00  0.00     0.054 A 
BRANCH  64  65
ATOM     65  S   UNL     1      11.719 -15.837  -4.474  1.00  0.00     0.124 S 
ATOM     66  O   UNL     1      11.526 -16.584  -3.234  1.00  0.00    -0.237 OA
ATOM     67  O   UNL     1      10.988 -16.344  -5.633  1.00  0.00    -0.237 OA
ATOM     68  O   UNL     1      13.093 -15.422  -4.744  1.00  0.00    -0.744 OA
ENDBRANCH  64  65
ENDBRANCH  38  59
ENDBRANCH  12  13
ENDBRANCH   5   7
ENDBRANCH   2   3
ENDBRANCH   1   2
BRANCH   1  69
ATOM     69  C   UNL     1       4.892   3.296  -0.061  1.00  0.00     0.117 C 
BRANCH  69  70
ATOM     70  N   UNL     1       5.280   4.000   1.146  1.00  0.00    -0.356 N 
ATOM     71  C   UNL     1       5.585   5.301   1.371  1.00  0.00     0.227 C 
ATOM     72  H   UNL     1       5.331   3.430   1.947  1.00  0.00     0.163 HD
ATOM     73  O   UNL     1       5.591   5.649   2.558  1.00  0.00    -0.275 OA
BRANCH  71  74
ATOM     74  C   UNL     1       6.025   6.271   0.290  1.00  0.00     0.127 C 
ATOM     75  C   UNL     1       5.583   7.736   0.680  1.00  0.00     0.127 C 
ATOM     76  C   UNL     1       5.466   6.164  -1.132  1.00  0.00     0.155 C 
ATOM     77  C   UNL     1       4.885   8.185  -0.614  1.00  0.00     0.155 C 
ATOM     78  C   UNL     1       3.966   6.186  -1.157  1.00  0.00     0.004 C 
ATOM     79  O   UNL     1       5.708   7.517  -1.601  1.00  0.00    -0.365 OA
ATOM     80  C   UNL     1       3.607   7.425  -0.806  1.00  0.00     0.004 C 
BRANCH  75  81
ATOM     81  C   UNL     1       6.768   8.633   1.006  1.00  0.00     0.231 C 
ATOM     82  O   UNL     1       7.902   8.185   1.188  1.00  0.00    -0.274 OA
ATOM     83  N   UNL     1       6.620   9.994   1.071  1.00  0.00    -0.326 N 
ATOM     84  H   UNL     1       7.468  10.493   1.108  1.00  0.00     0.169 HD
BRANCH  83  85
ATOM     85  C   UNL     1       5.474  10.800   1.095  1.00  0.00     0.042 A 
ATOM     86  C   UNL     1       4.297  10.443   1.737  1.00  0.00     0.030 A 
ATOM     87  C   UNL     1       5.535  12.024   0.427  1.00  0.00     0.050 A 
ATOM     88  C   UNL     1       3.182  11.282   1.656  1.00  0.00     0.050 A 
ATOM     89  C   UNL     1       4.407  12.858   0.317  1.00  0.00     0.085 A 
ATOM     90  C   UNL     1       3.207  12.493   0.940  1.00  0.00     0.144 A 
ATOM     91  Cl  UNL     1       4.655  14.258  -0.663  1.00  0.00    -0.080 Cl
BRANCH  90  92
ATOM     92  O   UNL     1       1.988  13.101   0.987  1.00  0.00    -0.433 OA
BRANCH  92  93
ATOM     93  C   UNL     1       1.752  14.396   0.467  1.00  0.00     0.542 C 
ATOM     94  F   UNL     1       2.624  15.284   0.993  1.00  0.00    -0.167 F 
ATOM     95  F   UNL     1       1.857  14.381  -0.879  1.00  0.00    -0.167 F 
ENDBRANCH  92  93
ENDBRANCH  90  92
ENDBRANCH  83  85
ENDBRANCH  75  81
ENDBRANCH  71  74
ENDBRANCH  69  70
ENDBRANCH   1  69
TORSDOF 17
