REMARK SMILES O=C(NCCCNC(=O)[C@H]1C[C@](O)(c2ccccc2Cl)[C@@H](c2ccccc2Cl)O1)c1ccc(-c2c3nc(c(-c4ccc(S(=O)(=O)[O-])cc4)c4ccc([nH]4)c(-c4ccc(S(=O)(=O)[O-])cc4)c4nc(c(-c5ccc(S(=O)(=O)[O-])cc5)c5ccc2[nH]5)C=C4)C=C3)cc1
REMARK SMILES IDX 4 1 3 2 1 3 2 4 30 6 31 7 89 8 32 9 88 10 33 11 34 12 35 13
REMARK SMILES IDX 82 14 36 15 87 16 81 17 83 18 37 19 86 20 80 21 79 22 38 24
REMARK SMILES IDX 68 25 49 26 67 27 50 28 53 29 66 30 84 31 51 32 52 33 65 35
REMARK SMILES IDX 85 36 54 37 39 38 40 39 48 40 41 41 47 42 42 43 43 44 44 45
REMARK SMILES IDX 45 46 46 47 69 48 70 49 78 50 71 51 77 52 72 53 73 54 74 55
REMARK SMILES IDX 75 56 76 57 55 58 56 59 64 60 57 61 63 62 58 63 59 64 60 65
REMARK SMILES IDX 61 66 62 67 5 68 6 69 7 70 8 71 9 73 10 74 11 75 29 76 12 77
REMARK SMILES IDX 21 78 14 79 15 80 19 81 16 82 18 83 20 84 17 85 13 86 22 88
REMARK SMILES IDX 23 89 27 90 24 91 26 92 28 93 25 94
REMARK H PARENT 3 5 83 23 53 34 7 72 13 87
REMARK Flexibility Score: inf
ROOT
ATOM      1  C   UNL     1       5.369  -0.651 -11.332  1.00  0.00     0.118 C 
ENDROOT
BRANCH   1   2
ATOM      2  N   UNL     1       6.733  -0.981 -11.739  1.00  0.00    -0.352 N 
ATOM      3  O   UNL     1       8.489  -2.077 -12.632  1.00  0.00    -0.269 OA
ATOM      4  C   UNL     1       7.267  -1.997 -12.502  1.00  0.00     0.251 C 
ATOM      5  H   UNL     1       7.407  -0.349 -11.400  1.00  0.00     0.163 HD
BRANCH   4   6
ATOM      6  C   UNL     1       6.406  -3.025 -13.127  1.00  0.00     0.039 A 
ATOM      7  C   UNL     1       5.158  -2.689 -13.625  1.00  0.00     0.014 A 
ATOM      8  C   UNL     1       6.847  -4.352 -13.237  1.00  0.00     0.014 A 
ATOM      9  C   UNL     1       4.259  -3.682 -13.962  1.00  0.00     0.010 A 
ATOM     10  C   UNL     1       5.998  -5.337 -13.765  1.00  0.00     0.010 A 
ATOM     11  C   UNL     1       4.674  -5.017 -14.089  1.00  0.00    -0.014 A 
BRANCH  11  12
ATOM     12  C   UNL     1       3.682  -5.979 -14.640  1.00  0.00     0.031 A 
ATOM     13  C   UNL     1       3.203  -7.162 -13.847  1.00  0.00     0.074 A 
ATOM     14  C   UNL     1       3.097  -5.657 -15.815  1.00  0.00     0.049 A 
ATOM     15  N   UNL     1       2.211  -7.973 -14.114  1.00  0.00    -0.248 NA
ATOM     16  C   UNL     1       3.925  -7.491 -12.607  1.00  0.00     0.031 C 
ATOM     17  C   UNL     1       3.505  -4.536 -16.674  1.00  0.00     0.029 A 
ATOM     18  N   UNL     1       1.986  -6.157 -16.443  1.00  0.00    -0.354 N 
ATOM     19  C   UNL     1       2.203  -8.918 -13.095  1.00  0.00     0.074 A 
ATOM     20  C   UNL     1       3.301  -8.593 -12.211  1.00  0.00     0.031 C 
ATOM     21  C   UNL     1       2.578  -4.343 -17.619  1.00  0.00     0.029 A 
ATOM     22  C   UNL     1       1.575  -5.393 -17.513  1.00  0.00     0.049 A 
ATOM     23  H   UNL     1       1.528  -6.981 -16.158  1.00  0.00     0.167 HD
ATOM     24  C   UNL     1       1.355  -9.961 -12.917  1.00  0.00     0.031 A 
ATOM     25  C   UNL     1       0.512  -5.521 -18.328  1.00  0.00     0.031 A 
ATOM     26  C   UNL     1       0.268 -10.269 -13.811  1.00  0.00     0.049 A 
ATOM     27  C   UNL     1      -0.419  -6.671 -18.096  1.00  0.00     0.074 A 
ATOM     28  C   UNL     1      -0.631 -11.320 -13.748  1.00  0.00     0.029 A 
ATOM     29  N   UNL     1      -0.077  -9.516 -14.925  1.00  0.00    -0.354 N 
ATOM     30  N   UNL     1      -0.389  -7.568 -17.138  1.00  0.00    -0.248 NA
ATOM     31  C   UNL     1      -1.513  -6.842 -19.058  1.00  0.00     0.031 C 
ATOM     32  C   UNL     1      -1.495 -11.223 -14.845  1.00  0.00     0.029 A 
ATOM     33  C   UNL     1      -1.169 -10.082 -15.562  1.00  0.00     0.049 A 
ATOM     34  H   UNL     1       0.387  -8.699 -15.220  1.00  0.00     0.167 HD
ATOM     35  C   UNL     1      -1.450  -8.424 -17.394  1.00  0.00     0.074 A 
ATOM     36  C   UNL     1      -2.132  -7.905 -18.564  1.00  0.00     0.031 C 
ATOM     37  C   UNL     1      -1.815  -9.551 -16.735  1.00  0.00     0.031 A 
BRANCH  24  38
ATOM     38  C   UNL     1       1.589 -10.862 -11.732  1.00  0.00    -0.014 A 
ATOM     39  C   UNL     1       1.292 -10.438 -10.424  1.00  0.00     0.010 A 
ATOM     40  C   UNL     1       2.075 -12.168 -11.930  1.00  0.00     0.010 A 
ATOM     41  C   UNL     1       1.504 -11.291  -9.336  1.00  0.00     0.020 A 
ATOM     42  C   UNL     1       2.266 -13.033 -10.848  1.00  0.00     0.020 A 
ATOM     43  C   UNL     1       1.994 -12.582  -9.554  1.00  0.00     0.054 A 
BRANCH  43  44
ATOM     44  S   UNL     1       2.238 -13.675  -8.126  1.00  0.00     0.124 S 
ATOM     45  O   UNL     1       3.425 -13.095  -7.503  1.00  0.00    -0.237 OA
ATOM     46  O   UNL     1       0.994 -13.510  -7.378  1.00  0.00    -0.237 OA
ATOM     47  O   UNL     1       2.431 -14.993  -8.725  1.00  0.00    -0.744 OA
ENDBRANCH  43  44
ENDBRANCH  24  38
BRANCH  25  48
ATOM     48  C   UNL     1       0.323  -4.571 -19.460  1.00  0.00    -0.014 A 
ATOM     49  C   UNL     1      -0.775  -3.694 -19.508  1.00  0.00     0.010 A 
ATOM     50  C   UNL     1       1.275  -4.524 -20.497  1.00  0.00     0.010 A 
ATOM     51  C   UNL     1      -0.922  -2.801 -20.576  1.00  0.00     0.020 A 
ATOM     52  C   UNL     1       1.153  -3.608 -21.543  1.00  0.00     0.020 A 
ATOM     53  C   UNL     1       0.045  -2.763 -21.585  1.00  0.00     0.054 A 
BRANCH  53  54
ATOM     54  S   UNL     1      -0.129  -1.565 -22.937  1.00  0.00     0.124 S 
ATOM     55  O   UNL     1      -1.128  -2.209 -23.783  1.00  0.00    -0.237 OA
ATOM     56  O   UNL     1      -0.569  -0.359 -22.241  1.00  0.00    -0.237 OA
ATOM     57  O   UNL     1       1.218  -1.492 -23.500  1.00  0.00    -0.744 OA
ENDBRANCH  53  54
ENDBRANCH  25  48
BRANCH  37  58
ATOM     58  C   UNL     1      -3.010 -10.283 -17.276  1.00  0.00    -0.014 A 
ATOM     59  C   UNL     1      -2.925 -11.015 -18.474  1.00  0.00     0.010 A 
ATOM     60  C   UNL     1      -4.227 -10.244 -16.573  1.00  0.00     0.010 A 
ATOM     61  C   UNL     1      -4.053 -11.658 -18.985  1.00  0.00     0.020 A 
ATOM     62  C   UNL     1      -5.350 -10.909 -17.069  1.00  0.00     0.020 A 
ATOM     63  C   UNL     1      -5.260 -11.595 -18.282  1.00  0.00     0.054 A 
BRANCH  63  64
ATOM     64  S   UNL     1      -6.709 -12.449 -18.958  1.00  0.00     0.124 S 
ATOM     65  O   UNL     1      -7.117 -11.549 -20.033  1.00  0.00    -0.237 OA
ATOM     66  O   UNL     1      -6.157 -13.732 -19.387  1.00  0.00    -0.237 OA
ATOM     67  O   UNL     1      -7.627 -12.521 -17.823  1.00  0.00    -0.744 OA
ENDBRANCH  63  64
ENDBRANCH  37  58
ENDBRANCH  11  12
ENDBRANCH   4   6
ENDBRANCH   1   2
BRANCH   1  68
ATOM     68  C   UNL     1       4.901  -1.367 -10.079  1.00  0.00     0.042 C 
BRANCH  68  69
ATOM     69  C   UNL     1       5.524  -0.832  -8.806  1.00  0.00     0.117 C 
BRANCH  69  70
ATOM     70  N   UNL     1       5.215   0.540  -8.474  1.00  0.00    -0.354 N 
ATOM     71  C   UNL     1       5.450   1.230  -7.325  1.00  0.00     0.249 C 
ATOM     72  H   UNL     1       4.768   1.052  -9.185  1.00  0.00     0.163 HD
ATOM     73  O   UNL     1       5.155   2.433  -7.351  1.00  0.00    -0.272 OA
BRANCH  71  74
ATOM     74  C   UNL     1       6.070   0.623  -6.029  1.00  0.00     0.211 C 
ATOM     75  C   UNL     1       5.611  -0.728  -5.553  1.00  0.00     0.085 C 
ATOM     76  O   UNL     1       7.479   0.631  -5.904  1.00  0.00    -0.357 OA
ATOM     77  C   UNL     1       6.812  -1.704  -5.694  1.00  0.00     0.124 C 
ATOM     78  C   UNL     1       8.007  -0.717  -6.044  1.00  0.00     0.187 C 
BRANCH  77  79
ATOM     79  C   UNL     1       6.791  -2.650  -4.469  1.00  0.00     0.005 A 
ATOM     80  C   UNL     1       5.524  -3.249  -4.180  1.00  0.00     0.008 A 
ATOM     81  C   UNL     1       7.858  -3.063  -3.654  1.00  0.00     0.047 A 
ATOM     82  C   UNL     1       5.324  -4.159  -3.143  1.00  0.00     0.001 A 
ATOM     83  C   UNL     1       7.652  -3.998  -2.619  1.00  0.00     0.021 A 
ATOM     84  Cl  UNL     1       9.493  -2.540  -3.803  1.00  0.00    -0.084 Cl
ATOM     85  C   UNL     1       6.396  -4.539  -2.359  1.00  0.00     0.002 A 
ENDBRANCH  77  79
BRANCH  77  86
ATOM     86  O   UNL     1       6.511  -2.557  -6.812  1.00  0.00    -0.382 OA
ATOM     87  H   UNL     1       6.505  -2.031  -7.628  1.00  0.00     0.212 HD
ENDBRANCH  77  86
BRANCH  78  88
ATOM     88  C   UNL     1       8.720  -0.771  -7.407  1.00  0.00     0.003 A 
ATOM     89  C   UNL     1       8.872   0.426  -8.160  1.00  0.00     0.008 A 
ATOM     90  C   UNL     1       9.277  -1.933  -7.970  1.00  0.00     0.046 A 
ATOM     91  C   UNL     1       9.444   0.446  -9.435  1.00  0.00     0.000 A 
ATOM     92  C   UNL     1       9.841  -1.912  -9.257  1.00  0.00     0.021 A 
ATOM     93  Cl  UNL     1       9.353  -3.446  -7.141  1.00  0.00    -0.084 Cl
ATOM     94  C   UNL     1       9.913  -0.731  -9.992  1.00  0.00     0.002 A 
ENDBRANCH  78  88
ENDBRANCH  71  74
ENDBRANCH  69  70
ENDBRANCH  68  69
ENDBRANCH   1  68
TORSDOF 16
