REMARK SMILES COc1cc(/C=C2\SC(=S)N(CC(=O)NCCCNC(=O)c3ccc(-c4c5nc(c(-c6ccc(S(=O)(=O)[O-])cc6)c6ccc([nH]6)c(-c6ccc(S(=O)(=O)[O-])cc6)c6nc(c(-c7ccc(S(=O)(=O)[O-])cc7)c7ccc4[nH]7)C=C6)C=C5)cc3)C2=O)cc2c1OCO2
REMARK SMILES IDX 17 1 16 2 15 3 13 4 14 5 12 7 11 8 6 9 7 10 8 11 82 12 9 13
REMARK SMILES IDX 83 14 10 15 5 16 3 17 4 18 86 19 85 20 87 21 84 22 89 23
REMARK SMILES IDX 88 24 2 25 1 26 18 27 19 28 20 29 21 31 22 32 23 33 81 34
REMARK SMILES IDX 24 35 80 36 25 37 26 38 27 39 74 40 28 41 79 42 73 43 75 44
REMARK SMILES IDX 29 45 78 46 72 47 71 48 30 50 60 51 41 52 59 53 42 54 45 55
REMARK SMILES IDX 58 56 76 57 43 58 44 59 57 61 77 62 46 63 31 64 32 65 40 66
REMARK SMILES IDX 33 67 39 68 34 69 35 70 36 71 37 72 38 73 61 74 62 75 70 76
REMARK SMILES IDX 63 77 69 78 64 79 65 80 66 81 67 82 68 83 47 84 48 85 56 86
REMARK SMILES IDX 49 87 55 88 50 89 51 90 52 91 53 92 54 93
REMARK H PARENT 15 6 19 30 75 49 45 60
REMARK Flexibility Score: inf
ROOT
ATOM      1  C   UNL     1      -2.399  -5.412   7.038  1.00  0.00     0.042 C 
ENDROOT
BRANCH   1   2
ATOM      2  C   UNL     1      -2.665  -6.860   7.427  1.00  0.00     0.117 C 
BRANCH   2   3
ATOM      3  N   UNL     1      -3.685  -7.480   6.608  1.00  0.00    -0.354 N 
ATOM      4  C   UNL     1      -3.581  -8.466   5.673  1.00  0.00     0.240 C 
ATOM      5  O   UNL     1      -4.625  -9.033   5.337  1.00  0.00    -0.273 OA
ATOM      6  H   UNL     1      -4.597  -7.136   6.749  1.00  0.00     0.163 HD
BRANCH   4   7
ATOM      7  C   UNL     1      -2.222  -8.989   5.194  1.00  0.00     0.227 C 
BRANCH   7   8
ATOM      8  N   UNL     1      -1.292  -7.960   4.734  1.00  0.00    -0.283 N 
ATOM      9  C   UNL     1      -0.657  -5.498   2.157  1.00  0.00     0.029 C 
ATOM     10  C   UNL     1      -0.559  -6.300   3.226  1.00  0.00     0.081 C 
ATOM     11  S   UNL     1       0.733  -6.421   4.350  1.00  0.00    -0.054 SA
ATOM     12  C   UNL     1      -1.641  -7.251   3.594  1.00  0.00     0.266 C 
ATOM     13  C   UNL     1      -0.016  -7.755   5.213  1.00  0.00     0.148 C 
ATOM     14  O   UNL     1      -2.668  -7.391   2.953  1.00  0.00    -0.268 OA
ATOM     15  S   UNL     1       0.800  -8.603   6.396  1.00  0.00    -0.052 S 
BRANCH   9  16
ATOM     16  C   UNL     1       0.354  -4.531   1.714  1.00  0.00    -0.017 A 
ATOM     17  C   UNL     1       0.918  -2.208   1.170  1.00  0.00     0.165 A 
ATOM     18  C   UNL     1      -0.008  -3.175   1.589  1.00  0.00     0.058 A 
ATOM     19  C   UNL     1       2.212  -2.626   0.921  1.00  0.00     0.207 A 
ATOM     20  C   UNL     1       2.563  -3.954   1.036  1.00  0.00     0.170 A 
ATOM     21  O   UNL     1       3.283  -1.861   0.571  1.00  0.00    -0.450 OA
ATOM     22  C   UNL     1       1.658  -4.930   1.401  1.00  0.00     0.059 A 
ATOM     23  O   UNL     1       3.880  -4.179   0.769  1.00  0.00    -0.453 OA
ATOM     24  C   UNL     1       4.351  -2.825   0.608  1.00  0.00     0.468 C 
BRANCH  17  25
ATOM     25  O   UNL     1       0.432  -0.934   1.106  1.00  0.00    -0.493 OA
ATOM     26  C   UNL     1       1.051  -0.086   0.144  1.00  0.00     0.278 C 
ENDBRANCH  17  25
ENDBRANCH   9  16
ENDBRANCH   7   8
ENDBRANCH   4   7
ENDBRANCH   2   3
ENDBRANCH   1   2
BRANCH   1  27
ATOM     27  C   UNL     1      -3.561  -4.468   7.342  1.00  0.00     0.118 C 
BRANCH  27  28
ATOM     28  N   UNL     1      -3.850  -4.373   8.767  1.00  0.00    -0.352 N 
ATOM     29  C   UNL     1      -3.875  -3.280   9.598  1.00  0.00     0.251 C 
ATOM     30  H   UNL     1      -4.061  -5.229   9.204  1.00  0.00     0.163 HD
ATOM     31  O   UNL     1      -3.963  -3.451  10.811  1.00  0.00    -0.269 OA
BRANCH  29  32
ATOM     32  C   UNL     1      -3.782  -1.909   9.048  1.00  0.00     0.039 A 
ATOM     33  C   UNL     1      -2.999  -0.966   9.720  1.00  0.00     0.014 A 
ATOM     34  C   UNL     1      -4.483  -1.541   7.897  1.00  0.00     0.014 A 
ATOM     35  C   UNL     1      -2.867   0.325   9.200  1.00  0.00     0.010 A 
ATOM     36  C   UNL     1      -4.287  -0.280   7.338  1.00  0.00     0.010 A 
ATOM     37  C   UNL     1      -3.480   0.668   7.984  1.00  0.00    -0.014 A 
BRANCH  37  38
ATOM     38  C   UNL     1      -3.280   2.006   7.369  1.00  0.00     0.031 A 
ATOM     39  C   UNL     1      -4.448   2.934   7.169  1.00  0.00     0.074 A 
ATOM     40  C   UNL     1      -2.054   2.359   6.931  1.00  0.00     0.049 A 
ATOM     41  N   UNL     1      -4.477   4.110   6.596  1.00  0.00    -0.248 NA
ATOM     42  C   UNL     1      -5.759   2.470   7.653  1.00  0.00     0.031 C 
ATOM     43  C   UNL     1      -0.848   1.533   7.031  1.00  0.00     0.029 A 
ATOM     44  N   UNL     1      -1.620   3.502   6.308  1.00  0.00    -0.354 N 
ATOM     45  C   UNL     1      -5.806   4.519   6.636  1.00  0.00     0.074 A 
ATOM     46  C   UNL     1      -6.559   3.444   7.244  1.00  0.00     0.031 C 
ATOM     47  C   UNL     1       0.191   2.206   6.512  1.00  0.00     0.029 A 
ATOM     48  C   UNL     1      -0.279   3.490   6.001  1.00  0.00     0.049 A 
ATOM     49  H   UNL     1      -2.213   4.260   6.099  1.00  0.00     0.167 HD
ATOM     50  C   UNL     1      -6.347   5.690   6.221  1.00  0.00     0.031 A 
ATOM     51  C   UNL     1       0.486   4.401   5.370  1.00  0.00     0.031 A 
ATOM     52  C   UNL     1      -5.592   6.759   5.622  1.00  0.00     0.049 A 
ATOM     53  C   UNL     1      -0.141   5.687   4.903  1.00  0.00     0.074 A 
ATOM     54  C   UNL     1      -6.039   8.005   5.217  1.00  0.00     0.029 A 
ATOM     55  N   UNL     1      -4.236   6.709   5.336  1.00  0.00    -0.354 N 
ATOM     56  N   UNL     1      -1.387   6.082   5.011  1.00  0.00    -0.248 NA
ATOM     57  C   UNL     1       0.743   6.654   4.239  1.00  0.00     0.031 C 
ATOM     58  C   UNL     1      -4.966   8.685   4.633  1.00  0.00     0.029 A 
ATOM     59  C   UNL     1      -3.835   7.891   4.736  1.00  0.00     0.049 A 
ATOM     60  H   UNL     1      -3.645   5.946   5.532  1.00  0.00     0.167 HD
ATOM     61  C   UNL     1      -1.430   7.356   4.455  1.00  0.00     0.074 A 
ATOM     62  C   UNL     1      -0.082   7.670   4.027  1.00  0.00     0.031 C 
ATOM     63  C   UNL     1      -2.489   8.191   4.314  1.00  0.00     0.031 A 
BRANCH  50  64
ATOM     64  C   UNL     1      -7.833   5.873   6.394  1.00  0.00    -0.014 A 
ATOM     65  C   UNL     1      -8.407   6.009   7.672  1.00  0.00     0.010 A 
ATOM     66  C   UNL     1      -8.665   5.954   5.262  1.00  0.00     0.010 A 
ATOM     67  C   UNL     1      -9.786   6.180   7.816  1.00  0.00     0.020 A 
ATOM     68  C   UNL     1     -10.041   6.156   5.400  1.00  0.00     0.020 A 
ATOM     69  C   UNL     1     -10.595   6.250   6.678  1.00  0.00     0.054 A 
BRANCH  69  70
ATOM     70  S   UNL     1     -12.379   6.495   6.895  1.00  0.00     0.124 S 
ATOM     71  O   UNL     1     -12.800   5.198   7.420  1.00  0.00    -0.237 OA
ATOM     72  O   UNL     1     -12.437   7.604   7.844  1.00  0.00    -0.237 OA
ATOM     73  O   UNL     1     -12.855   6.805   5.549  1.00  0.00    -0.744 OA
ENDBRANCH  69  70
ENDBRANCH  50  64
BRANCH  51  74
ATOM     74  C   UNL     1       1.935   4.133   5.154  1.00  0.00    -0.014 A 
ATOM     75  C   UNL     1       2.911   4.869   5.850  1.00  0.00     0.010 A 
ATOM     76  C   UNL     1       2.349   3.130   4.258  1.00  0.00     0.010 A 
ATOM     77  C   UNL     1       4.271   4.622   5.639  1.00  0.00     0.020 A 
ATOM     78  C   UNL     1       3.707   2.858   4.068  1.00  0.00     0.020 A 
ATOM     79  C   UNL     1       4.660   3.615   4.751  1.00  0.00     0.054 A 
BRANCH  79  80
ATOM     80  S   UNL     1       6.430   3.281   4.529  1.00  0.00     0.124 S 
ATOM     81  O   UNL     1       6.866   4.447   3.767  1.00  0.00    -0.237 OA
ATOM     82  O   UNL     1       6.912   3.207   5.905  1.00  0.00    -0.237 OA
ATOM     83  O   UNL     1       6.451   2.014   3.800  1.00  0.00    -0.744 OA
ENDBRANCH  79  80
ENDBRANCH  51  74
BRANCH  63  84
ATOM     84  C   UNL     1      -2.232   9.543   3.703  1.00  0.00    -0.014 A 
ATOM     85  C   UNL     1      -1.937   9.686   2.335  1.00  0.00     0.010 A 
ATOM     86  C   UNL     1      -2.342  10.696   4.503  1.00  0.00     0.010 A 
ATOM     87  C   UNL     1      -1.726  10.954   1.786  1.00  0.00     0.020 A 
ATOM     88  C   UNL     1      -2.163  11.967   3.951  1.00  0.00     0.020 A 
ATOM     89  C   UNL     1      -1.842  12.087   2.598  1.00  0.00     0.054 A 
BRANCH  89  90
ATOM     90  S   UNL     1      -1.608  13.723   1.851  1.00  0.00     0.124 S 
ATOM     91  O   UNL     1      -0.165  13.751   1.627  1.00  0.00    -0.237 OA
ATOM     92  O   UNL     1      -2.429  13.644   0.645  1.00  0.00    -0.237 OA
ATOM     93  O   UNL     1      -2.098  14.645   2.873  1.00  0.00    -0.744 OA
ENDBRANCH  89  90
ENDBRANCH  63  84
ENDBRANCH  37  38
ENDBRANCH  29  32
ENDBRANCH  27  28
ENDBRANCH   1  27
TORSDOF 16
