REMARK SMILES CCCc1nc2cc(C(=O)NCCCNC(=O)c3ccc(-c4c5nc(c(-c6ccc(S(=O)(=O)[O-])cc6)c6ccc([nH]6)c(-c6ccc(S(=O)(=O)[O-])cc6)c6nc(c(-c7ccc(S(=O)(=O)[O-])cc7)c7ccc4[nH]7)C=C6)C=C5)cc3)ccc2n1[C@H](CO)C(C)C
REMARK SMILES IDX 13 1 12 2 11 3 9 4 10 5 8 7 4 8 5 9 81 10 6 11 80 12 7 13
REMARK SMILES IDX 79 14 78 15 3 16 2 17 1 18 82 19 85 20 86 21 87 22 83 23
REMARK SMILES IDX 84 24 14 26 15 27 16 28 17 30 18 31 19 32 77 33 20 34 76 35
REMARK SMILES IDX 21 36 22 37 23 38 70 39 24 40 75 41 69 42 71 43 25 44 74 45
REMARK SMILES IDX 68 46 67 47 26 49 56 50 37 51 55 52 38 53 41 54 54 55 72 56
REMARK SMILES IDX 39 57 40 58 53 60 73 61 42 62 27 63 28 64 36 65 29 66 35 67
REMARK SMILES IDX 30 68 31 69 32 70 33 71 34 72 57 73 58 74 66 75 59 76 65 77
REMARK SMILES IDX 60 78 61 79 62 80 63 81 64 82 43 83 44 84 52 85 45 86 51 87
REMARK SMILES IDX 46 88 47 89 48 90 49 91 50 92
REMARK H PARENT 11 6 84 25 15 29 71 48 41 59
REMARK Flexibility Score: inf
ROOT
ATOM      1  C   UNL     1      -6.158   7.088  -7.162  1.00  0.00     0.042 C 
ENDROOT
BRANCH   1   2
ATOM      2  C   UNL     1      -5.418   7.764  -6.000  1.00  0.00     0.118 C 
BRANCH   2   3
ATOM      3  N   UNL     1      -6.016   7.459  -4.710  1.00  0.00    -0.352 N 
ATOM      4  C   UNL     1      -5.698   6.583  -3.702  1.00  0.00     0.251 C 
ATOM      5  O   UNL     1      -6.368   6.677  -2.670  1.00  0.00    -0.269 OA
ATOM      6  H   UNL     1      -6.820   7.994  -4.519  1.00  0.00     0.163 HD
BRANCH   4   7
ATOM      7  C   UNL     1      -4.602   5.567  -3.760  1.00  0.00     0.042 A 
ATOM      8  C   UNL     1      -1.746   2.559  -1.899  1.00  0.00     0.110 A 
ATOM      9  N   UNL     1      -2.683   3.365  -1.430  1.00  0.00    -0.233 NA
ATOM     10  N   UNL     1      -1.510   2.823  -3.244  1.00  0.00    -0.322 N 
ATOM     11  C   UNL     1      -3.178   4.054  -2.492  1.00  0.00     0.090 A 
ATOM     12  C   UNL     1      -2.539   3.672  -3.660  1.00  0.00     0.069 A 
ATOM     13  C   UNL     1      -4.199   5.016  -2.529  1.00  0.00     0.044 A 
ATOM     14  C   UNL     1      -2.945   4.167  -4.906  1.00  0.00     0.029 A 
ATOM     15  C   UNL     1      -3.999   5.097  -4.929  1.00  0.00     0.016 A 
BRANCH   8  16
ATOM     16  C   UNL     1      -1.180   1.478  -1.031  1.00  0.00     0.075 C 
BRANCH  16  17
ATOM     17  C   UNL     1      -0.356   2.009   0.144  1.00  0.00     0.005 C 
ATOM     18  C   UNL     1      -1.211   2.612   1.254  1.00  0.00     0.004 C 
ENDBRANCH  16  17
ENDBRANCH   8  16
BRANCH  10  19
ATOM     19  C   UNL     1      -0.421   2.409  -4.154  1.00  0.00     0.117 C 
BRANCH  19  20
ATOM     20  C   UNL     1       0.769   3.432  -4.206  1.00  0.00     0.008 C 
ATOM     21  C   UNL     1       1.851   2.993  -5.209  1.00  0.00     0.009 C 
ATOM     22  C   UNL     1       0.344   4.855  -4.597  1.00  0.00     0.009 C 
ENDBRANCH  19  20
BRANCH  19  23
ATOM     23  C   UNL     1       0.040   0.940  -3.999  1.00  0.00     0.181 C 
BRANCH  23  24
ATOM     24  O   UNL     1       1.135   0.742  -3.102  1.00  0.00    -0.394 OA
ATOM     25  H   UNL     1       1.917   1.208  -3.438  1.00  0.00     0.210 HD
ENDBRANCH  23  24
ENDBRANCH  19  23
ENDBRANCH  10  19
ENDBRANCH   4   7
ENDBRANCH   2   3
ENDBRANCH   1   2
BRANCH   1  26
ATOM     26  C   UNL     1      -7.465   7.779  -7.558  1.00  0.00     0.118 C 
BRANCH  26  27
ATOM     27  N   UNL     1      -7.300   9.175  -7.922  1.00  0.00    -0.352 N 
ATOM     28  C   UNL     1      -7.005   9.882  -9.055  1.00  0.00     0.251 C 
ATOM     29  H   UNL     1      -7.437   9.770  -7.150  1.00  0.00     0.163 HD
ATOM     30  O   UNL     1      -7.015  11.110  -8.914  1.00  0.00    -0.269 OA
BRANCH  28  31
ATOM     31  C   UNL     1      -6.658   9.326 -10.396  1.00  0.00     0.039 A 
ATOM     32  C   UNL     1      -6.622   7.980 -10.749  1.00  0.00     0.014 A 
ATOM     33  C   UNL     1      -6.327  10.278 -11.388  1.00  0.00     0.014 A 
ATOM     34  C   UNL     1      -6.237   7.604 -12.044  1.00  0.00     0.010 A 
ATOM     35  C   UNL     1      -5.945   9.906 -12.680  1.00  0.00     0.010 A 
ATOM     36  C   UNL     1      -5.882   8.561 -13.012  1.00  0.00    -0.014 A 
BRANCH  36  37
ATOM     37  C   UNL     1      -5.612   8.108 -14.384  1.00  0.00     0.031 A 
ATOM     38  C   UNL     1      -6.709   7.314 -14.992  1.00  0.00     0.074 A 
ATOM     39  C   UNL     1      -4.526   8.362 -15.148  1.00  0.00     0.049 A 
ATOM     40  N   UNL     1      -6.747   6.028 -15.107  1.00  0.00    -0.248 NA
ATOM     41  C   UNL     1      -7.944   7.993 -15.402  1.00  0.00     0.031 C 
ATOM     42  C   UNL     1      -3.421   9.286 -14.886  1.00  0.00     0.029 A 
ATOM     43  N   UNL     1      -4.209   7.847 -16.380  1.00  0.00    -0.354 N 
ATOM     44  C   UNL     1      -7.915   5.739 -15.800  1.00  0.00     0.074 A 
ATOM     45  C   UNL     1      -8.683   6.960 -15.817  1.00  0.00     0.031 C 
ATOM     46  C   UNL     1      -2.660   9.411 -16.002  1.00  0.00     0.029 A 
ATOM     47  C   UNL     1      -3.123   8.456 -16.996  1.00  0.00     0.049 A 
ATOM     48  H   UNL     1      -4.709   7.106 -16.792  1.00  0.00     0.167 HD
ATOM     49  C   UNL     1      -8.047   4.576 -16.495  1.00  0.00     0.031 A 
ATOM     50  C   UNL     1      -2.600   8.166 -18.214  1.00  0.00     0.031 A 
ATOM     51  C   UNL     1      -6.989   3.648 -16.184  1.00  0.00     0.049 A 
ATOM     52  C   UNL     1      -2.890   6.745 -18.497  1.00  0.00     0.074 A 
ATOM     53  C   UNL     1      -6.594   2.922 -15.083  1.00  0.00     0.029 A 
ATOM     54  N   UNL     1      -5.930   3.672 -17.056  1.00  0.00    -0.354 N 
ATOM     55  N   UNL     1      -2.354   5.759 -17.836  1.00  0.00    -0.248 NA
ATOM     56  C   UNL     1      -4.000   6.386 -19.368  1.00  0.00     0.031 C 
ATOM     57  C   UNL     1      -5.179   2.790 -15.197  1.00  0.00     0.029 A 
ATOM     58  C   UNL     1      -4.767   3.403 -16.383  1.00  0.00     0.049 A 
ATOM     59  H   UNL     1      -5.996   3.854 -18.021  1.00  0.00     0.167 HD
ATOM     60  C   UNL     1      -3.316   4.768 -17.861  1.00  0.00     0.074 A 
ATOM     61  C   UNL     1      -4.205   5.134 -18.955  1.00  0.00     0.031 C 
ATOM     62  C   UNL     1      -3.476   3.923 -16.803  1.00  0.00     0.031 A 
BRANCH  49  63
ATOM     63  C   UNL     1      -8.868   4.420 -17.754  1.00  0.00    -0.014 A 
ATOM     64  C   UNL     1      -9.350   5.511 -18.501  1.00  0.00     0.010 A 
ATOM     65  C   UNL     1      -8.938   3.148 -18.366  1.00  0.00     0.010 A 
ATOM     66  C   UNL     1      -9.888   5.352 -19.781  1.00  0.00     0.020 A 
ATOM     67  C   UNL     1      -9.437   2.982 -19.665  1.00  0.00     0.020 A 
ATOM     68  C   UNL     1      -9.918   4.088 -20.360  1.00  0.00     0.054 A 
BRANCH  68  69
ATOM     69  S   UNL     1     -10.540   3.939 -22.053  1.00  0.00     0.124 S 
ATOM     70  O   UNL     1     -11.958   4.244 -21.877  1.00  0.00    -0.237 OA
ATOM     71  O   UNL     1      -9.760   4.949 -22.762  1.00  0.00    -0.237 OA
ATOM     72  O   UNL     1     -10.239   2.555 -22.409  1.00  0.00    -0.744 OA
ENDBRANCH  68  69
ENDBRANCH  49  63
BRANCH  50  73
ATOM     73  C   UNL     1      -2.183   9.097 -19.296  1.00  0.00    -0.014 A 
ATOM     74  C   UNL     1      -2.711  10.400 -19.343  1.00  0.00     0.010 A 
ATOM     75  C   UNL     1      -1.565   8.592 -20.461  1.00  0.00     0.010 A 
ATOM     76  C   UNL     1      -2.739  11.123 -20.542  1.00  0.00     0.020 A 
ATOM     77  C   UNL     1      -1.596   9.309 -21.668  1.00  0.00     0.020 A 
ATOM     78  C   UNL     1      -2.227  10.552 -21.708  1.00  0.00     0.054 A 
BRANCH  78  79
ATOM     79  S   UNL     1      -2.500  11.409 -23.288  1.00  0.00     0.124 S 
ATOM     80  O   UNL     1      -3.954  11.316 -23.432  1.00  0.00    -0.237 OA
ATOM     81  O   UNL     1      -1.989  12.753 -23.007  1.00  0.00    -0.237 OA
ATOM     82  O   UNL     1      -1.725  10.639 -24.244  1.00  0.00    -0.744 OA
ENDBRANCH  78  79
ENDBRANCH  50  73
BRANCH  62  83
ATOM     83  C   UNL     1      -2.306   3.696 -15.873  1.00  0.00    -0.014 A 
ATOM     84  C   UNL     1      -1.943   2.360 -15.621  1.00  0.00     0.010 A 
ATOM     85  C   UNL     1      -1.641   4.714 -15.164  1.00  0.00     0.010 A 
ATOM     86  C   UNL     1      -0.977   2.041 -14.665  1.00  0.00     0.020 A 
ATOM     87  C   UNL     1      -0.645   4.402 -14.224  1.00  0.00     0.020 A 
ATOM     88  C   UNL     1      -0.341   3.064 -13.962  1.00  0.00     0.054 A 
BRANCH  88  89
ATOM     89  S   UNL     1       0.868   2.606 -12.692  1.00  0.00     0.124 S 
ATOM     90  O   UNL     1       0.016   2.064 -11.634  1.00  0.00    -0.237 OA
ATOM     91  O   UNL     1       1.706   1.625 -13.380  1.00  0.00    -0.237 OA
ATOM     92  O   UNL     1       1.534   3.864 -12.363  1.00  0.00    -0.744 OA
ENDBRANCH  88  89
ENDBRANCH  62  83
ENDBRANCH  36  37
ENDBRANCH  28  31
ENDBRANCH  26  27
ENDBRANCH   1  26
TORSDOF 19
