REMARK SMILES C=C(C)COc1cc2oc(=O)c(CC(=O)N3CCC[C@H](C(=O)NCCCNC(=O)c4ccc(-c5c6nc(c(-c7ccc(S(=O)(=O)[O-])cc7)c7ccc([nH]7)c(-c7ccc(S(=O)(=O)[O-])cc7)c7nc(c(-c8ccc(S(=O)(=O)[O-])cc8)c8ccc5[nH]8)C=C7)C=C6)cc4)C3)c(C)c2cc1Cl
REMARK SMILES IDX 21 1 22 2 23 3 20 5 16 6 17 7 90 8 18 9 19 10 14 11 15 12
REMARK SMILES IDX 13 13 12 14 6 15 7 16 95 17 8 18 94 19 96 20 9 21 93 22
REMARK SMILES IDX 10 23 91 24 11 25 92 26 5 27 4 28 2 29 1 30 3 31 24 32 25 33
REMARK SMILES IDX 26 34 27 35 28 36 29 38 30 39 31 40 89 41 32 42 88 43 33 44
REMARK SMILES IDX 34 45 35 46 82 47 36 48 87 49 81 50 83 51 37 52 86 53 80 54
REMARK SMILES IDX 79 55 38 57 68 58 49 59 67 60 50 61 53 62 66 63 84 64 51 65
REMARK SMILES IDX 52 66 65 68 85 69 54 70 39 71 40 72 48 73 41 74 47 75 42 76
REMARK SMILES IDX 43 77 44 78 45 79 46 80 69 81 70 82 78 83 71 84 77 85 72 86
REMARK SMILES IDX 73 87 74 88 75 89 76 90 55 91 56 92 64 93 57 94 63 95 58 96
REMARK SMILES IDX 59 97 60 98 61 99 62 100
REMARK H PARENT 23 4 27 37 83 56 53 67
REMARK Flexibility Score: inf
ROOT
ATOM      1  C   UNL     1      -3.956   1.554   5.310  1.00  0.00     0.224 C 
ATOM      2  O   UNL     1      -3.488   1.559   4.163  1.00  0.00    -0.275 OA
ATOM      3  N   UNL     1      -4.803   0.534   5.596  1.00  0.00    -0.356 N 
ATOM      4  H   UNL     1      -5.047  -0.012   4.815  1.00  0.00     0.163 HD
ENDROOT
BRANCH   1   5
ATOM      5  C   UNL     1      -3.517   2.645   6.295  1.00  0.00     0.098 C 
ATOM      6  N   UNL     1      -3.142   1.745   8.611  1.00  0.00    -0.342 N 
ATOM      7  C   UNL     1      -4.061   2.735   9.188  1.00  0.00     0.119 C 
ATOM      8  C   UNL     1      -2.531   2.158   7.355  1.00  0.00     0.133 C 
ATOM      9  C   UNL     1      -5.125   3.235   8.214  1.00  0.00     0.022 C 
ATOM     10  C   UNL     1      -4.599   3.576   6.826  1.00  0.00     0.017 C 
BRANCH   6  11
ATOM     11  C   UNL     1      -2.941   0.555   9.302  1.00  0.00     0.227 C 
ATOM     12  O   UNL     1      -3.786   0.179  10.129  1.00  0.00    -0.275 OA
BRANCH  11  13
ATOM     13  C   UNL     1      -1.674  -0.323   9.185  1.00  0.00     0.143 C 
BRANCH  13  14
ATOM     14  C   UNL     1      -0.781  -0.261   7.981  1.00  0.00     0.051 A 
ATOM     15  C   UNL     1       1.302   0.249   3.415  1.00  0.00     0.142 A 
ATOM     16  C   UNL     1       1.437   0.914   4.630  1.00  0.00     0.096 A 
ATOM     17  C   UNL     1       0.560  -0.934   3.352  1.00  0.00     0.083 A 
ATOM     18  C   UNL     1       0.747   0.435   5.744  1.00  0.00     0.142 A 
ATOM     19  C   UNL     1      -0.157  -1.373   4.472  1.00  0.00     0.036 A 
ATOM     20  Cl  UNL     1       0.497  -1.904   1.927  1.00  0.00    -0.080 Cl
ATOM     21  O   UNL     1       0.951   1.129   6.945  1.00  0.00    -0.422 OA
ATOM     22  C   UNL     1      -0.099  -0.671   5.683  1.00  0.00     0.023 A 
ATOM     23  C   UNL     1       0.314   0.744   8.111  1.00  0.00     0.340 A 
ATOM     24  C   UNL     1      -0.947  -0.985   6.850  1.00  0.00    -0.029 A 
ATOM     25  O   UNL     1       0.589   1.274   9.181  1.00  0.00    -0.246 OA
ATOM     26  C   UNL     1      -2.056  -1.987   6.644  1.00  0.00     0.046 C 
BRANCH  15  27
ATOM     27  O   UNL     1       1.960   0.746   2.321  1.00  0.00    -0.488 OA
BRANCH  27  28
ATOM     28  C   UNL     1       1.191   1.777   1.671  1.00  0.00     0.260 C 
BRANCH  28  29
ATOM     29  C   UNL     1       0.441   1.211   0.488  1.00  0.00    -0.043 C 
ATOM     30  C   UNL     1       1.078   0.623  -0.539  1.00  0.00     0.011 C 
ATOM     31  C   UNL     1      -1.058   1.299   0.544  1.00  0.00     0.042 C 
ENDBRANCH  28  29
ENDBRANCH  27  28
ENDBRANCH  15  27
ENDBRANCH  13  14
ENDBRANCH  11  13
ENDBRANCH   6  11
ENDBRANCH   1   5
BRANCH   3  32
ATOM     32  C   UNL     1      -5.416   0.097   6.834  1.00  0.00     0.117 C 
BRANCH  32  33
ATOM     33  C   UNL     1      -6.900   0.412   6.908  1.00  0.00     0.042 C 
BRANCH  33  34
ATOM     34  C   UNL     1      -7.768  -0.678   6.304  1.00  0.00     0.118 C 
BRANCH  34  35
ATOM     35  N   UNL     1      -7.847  -1.868   7.149  1.00  0.00    -0.352 N 
ATOM     36  C   UNL     1      -8.896  -2.397   7.868  1.00  0.00     0.251 C 
ATOM     37  H   UNL     1      -7.008  -2.379   7.216  1.00  0.00     0.163 HD
ATOM     38  O   UNL     1      -8.688  -3.333   8.637  1.00  0.00    -0.269 OA
BRANCH  36  39
ATOM     39  C   UNL     1     -10.256  -1.825   7.750  1.00  0.00     0.039 A 
ATOM     40  C   UNL     1     -10.743  -1.401   6.518  1.00  0.00     0.014 A 
ATOM     41  C   UNL     1     -11.054  -1.696   8.892  1.00  0.00     0.014 A 
ATOM     42  C   UNL     1     -11.900  -0.637   6.462  1.00  0.00     0.010 A 
ATOM     43  C   UNL     1     -12.291  -1.046   8.808  1.00  0.00     0.010 A 
ATOM     44  C   UNL     1     -12.698  -0.455   7.603  1.00  0.00    -0.014 A 
BRANCH  44  45
ATOM     45  C   UNL     1     -13.951   0.340   7.489  1.00  0.00     0.031 A 
ATOM     46  C   UNL     1     -14.157   1.595   8.296  1.00  0.00     0.074 A 
ATOM     47  C   UNL     1     -14.883  -0.041   6.591  1.00  0.00     0.049 A 
ATOM     48  N   UNL     1     -15.170   2.424   8.275  1.00  0.00    -0.248 NA
ATOM     49  C   UNL     1     -13.102   1.969   9.252  1.00  0.00     0.031 C 
ATOM     50  C   UNL     1     -14.789  -1.231   5.741  1.00  0.00     0.029 A 
ATOM     51  N   UNL     1     -16.062   0.547   6.206  1.00  0.00    -0.354 N 
ATOM     52  C   UNL     1     -14.896   3.389   9.237  1.00  0.00     0.074 A 
ATOM     53  C   UNL     1     -13.628   3.038   9.836  1.00  0.00     0.031 C 
ATOM     54  C   UNL     1     -15.807  -1.232   4.872  1.00  0.00     0.029 A 
ATOM     55  C   UNL     1     -16.682  -0.101   5.163  1.00  0.00     0.049 A 
ATOM     56  H   UNL     1     -16.428   1.355   6.634  1.00  0.00     0.167 HD
ATOM     57  C   UNL     1     -15.633   4.471   9.584  1.00  0.00     0.031 A 
ATOM     58  C   UNL     1     -17.831   0.166   4.511  1.00  0.00     0.031 A 
ATOM     59  C   UNL     1     -16.879   4.830   8.957  1.00  0.00     0.049 A 
ATOM     60  C   UNL     1     -18.641   1.357   4.922  1.00  0.00     0.074 A 
ATOM     61  C   UNL     1     -17.674   5.934   9.208  1.00  0.00     0.029 A 
ATOM     62  N   UNL     1     -17.511   4.101   7.960  1.00  0.00    -0.354 N 
ATOM     63  N   UNL     1     -18.360   2.260   5.830  1.00  0.00    -0.248 NA
ATOM     64  C   UNL     1     -19.923   1.562   4.238  1.00  0.00     0.031 C 
ATOM     65  C   UNL     1     -18.819   5.837   8.413  1.00  0.00     0.029 A 
ATOM     66  C   UNL     1     -18.705   4.711   7.613  1.00  0.00     0.049 A 
ATOM     67  H   UNL     1     -17.163   3.272   7.559  1.00  0.00     0.167 HD
ATOM     68  C   UNL     1     -19.433   3.140   5.834  1.00  0.00     0.074 A 
ATOM     69  C   UNL     1     -20.358   2.676   4.819  1.00  0.00     0.031 C 
ATOM     70  C   UNL     1     -19.631   4.230   6.615  1.00  0.00     0.031 A 
BRANCH  57  71
ATOM     71  C   UNL     1     -15.138   5.343  10.710  1.00  0.00    -0.014 A 
ATOM     72  C   UNL     1     -15.861   5.388  11.917  1.00  0.00     0.010 A 
ATOM     73  C   UNL     1     -14.023   6.185  10.553  1.00  0.00     0.010 A 
ATOM     74  C   UNL     1     -15.490   6.266  12.940  1.00  0.00     0.020 A 
ATOM     75  C   UNL     1     -13.630   7.045  11.585  1.00  0.00     0.020 A 
ATOM     76  C   UNL     1     -14.378   7.093  12.765  1.00  0.00     0.054 A 
BRANCH  76  77
ATOM     77  S   UNL     1     -13.901   8.219  14.106  1.00  0.00     0.124 S 
ATOM     78  O   UNL     1     -14.859   9.309  13.948  1.00  0.00    -0.237 OA
ATOM     79  O   UNL     1     -14.074   7.392  15.298  1.00  0.00    -0.237 OA
ATOM     80  O   UNL     1     -12.514   8.554  13.789  1.00  0.00    -0.744 OA
ENDBRANCH  76  77
ENDBRANCH  57  71
BRANCH  58  81
ATOM     81  C   UNL     1     -18.234  -0.730   3.393  1.00  0.00    -0.014 A 
ATOM     82  C   UNL     1     -18.591  -2.068   3.652  1.00  0.00     0.010 A 
ATOM     83  C   UNL     1     -18.089  -0.306   2.061  1.00  0.00     0.010 A 
ATOM     84  C   UNL     1     -18.697  -2.988   2.607  1.00  0.00     0.020 A 
ATOM     85  C   UNL     1     -18.226  -1.218   1.010  1.00  0.00     0.020 A 
ATOM     86  C   UNL     1     -18.485  -2.561   1.294  1.00  0.00     0.054 A 
BRANCH  86  87
ATOM     87  S   UNL     1     -18.492  -3.797  -0.034  1.00  0.00     0.124 S 
ATOM     88  O   UNL     1     -17.197  -4.445   0.156  1.00  0.00    -0.237 OA
ATOM     89  O   UNL     1     -19.658  -4.613   0.293  1.00  0.00    -0.237 OA
ATOM     90  O   UNL     1     -18.617  -2.994  -1.248  1.00  0.00    -0.744 OA
ENDBRANCH  86  87
ENDBRANCH  58  81
BRANCH  70  91
ATOM     91  C   UNL     1     -20.908   5.005   6.436  1.00  0.00    -0.014 A 
ATOM     92  C   UNL     1     -20.867   6.307   5.904  1.00  0.00     0.010 A 
ATOM     93  C   UNL     1     -22.126   4.501   6.925  1.00  0.00     0.010 A 
ATOM     94  C   UNL     1     -22.011   7.107   5.902  1.00  0.00     0.020 A 
ATOM     95  C   UNL     1     -23.279   5.289   6.899  1.00  0.00     0.020 A 
ATOM     96  C   UNL     1     -23.207   6.597   6.412  1.00  0.00     0.054 A 
BRANCH  96  97
ATOM     97  S   UNL     1     -24.672   7.667   6.442  1.00  0.00     0.124 S 
ATOM     98  O   UNL     1     -24.392   8.538   7.580  1.00  0.00    -0.237 OA
ATOM     99  O   UNL     1     -24.627   8.310   5.131  1.00  0.00    -0.237 OA
ATOM    100  O   UNL     1     -25.777   6.729   6.629  1.00  0.00    -0.744 OA
ENDBRANCH  96  97
ENDBRANCH  70  91
ENDBRANCH  44  45
ENDBRANCH  36  39
ENDBRANCH  34  35
ENDBRANCH  33  34
ENDBRANCH  32  33
ENDBRANCH   3  32
TORSDOF 19
