REMARK SMILES NC(=O)c1ccc(Nc2ccc(C(=O)NCCCNC(=O)c3ccc(-c4c5nc(c(-c6ccc(S(=O)(=O)[O-])cc6)c6ccc([nH]6)c(-c6ccc(S(=O)(=O)[O-])cc6)c6nc(c(-c7ccc(S(=O)(=O)[O-])cc7)c7ccc4[nH]7)C=C6)C=C5)cc3)c(Cl)c2)nn1
REMARK SMILES IDX 17 1 16 2 15 3 13 4 14 5 12 7 9 8 10 9 84 10 11 11 82 12
REMARK SMILES IDX 83 13 8 14 7 16 4 17 5 18 86 19 6 20 85 21 2 22 1 23 3 26
REMARK SMILES IDX 18 27 19 28 20 29 21 31 22 32 23 33 81 34 24 35 80 36 25 37
REMARK SMILES IDX 26 38 27 39 74 40 28 41 79 42 73 43 75 44 29 45 78 46 72 47
REMARK SMILES IDX 71 48 30 50 60 51 41 52 59 53 42 54 45 55 58 56 76 57 43 58
REMARK SMILES IDX 44 59 57 61 77 62 46 63 31 64 32 65 40 66 33 67 39 68 34 69
REMARK SMILES IDX 35 70 36 71 37 72 38 73 61 74 62 75 70 76 63 77 69 78 64 79
REMARK SMILES IDX 65 80 66 81 67 82 68 83 47 84 48 85 56 86 49 87 55 88 50 89
REMARK SMILES IDX 51 90 52 91 53 92 54 93
REMARK H PARENT 15 6 8 15 1 24 1 25 19 30 75 49 45 60
REMARK Flexibility Score: inf
ROOT
ATOM      1  C   UNL     1       0.200  -6.308  10.890  1.00  0.00     0.042 C 
ENDROOT
BRANCH   1   2
ATOM      2  C   UNL     1       1.483  -6.859  10.265  1.00  0.00     0.118 C 
BRANCH   2   3
ATOM      3  N   UNL     1       1.196  -7.464   8.979  1.00  0.00    -0.352 N 
ATOM      4  C   UNL     1       1.340  -7.066   7.678  1.00  0.00     0.252 C 
ATOM      5  O   UNL     1       0.929  -7.872   6.836  1.00  0.00    -0.269 OA
ATOM      6  H   UNL     1       0.808  -8.365   9.060  1.00  0.00     0.163 HD
BRANCH   4   7
ATOM      7  C   UNL     1       2.026  -5.833   7.185  1.00  0.00     0.058 A 
ATOM      8  C   UNL     1       3.270  -3.675   5.793  1.00  0.00     0.041 A 
ATOM      9  C   UNL     1       3.260  -4.949   5.241  1.00  0.00     0.027 A 
ATOM     10  C   UNL     1       2.660  -3.486   7.032  1.00  0.00     0.047 A 
ATOM     11  C   UNL     1       2.679  -6.014   5.942  1.00  0.00     0.017 A 
ATOM     12  C   UNL     1       1.995  -4.532   7.697  1.00  0.00     0.055 A 
ATOM     13  Cl  UNL     1       1.031  -3.969   9.003  1.00  0.00    -0.083 Cl
BRANCH   8  14
ATOM     14  N   UNL     1       3.655  -2.541   5.047  1.00  0.00    -0.339 N 
ATOM     15  H   UNL     1       4.522  -2.117   5.242  1.00  0.00     0.168 HD
BRANCH  14  16
ATOM     16  C   UNL     1       2.839  -1.993   4.029  1.00  0.00     0.153 A 
ATOM     17  C   UNL     1       1.234  -0.893   2.097  1.00  0.00     0.150 A 
ATOM     18  C   UNL     1       2.350  -0.186   2.514  1.00  0.00     0.040 A 
ATOM     19  N   UNL     1       0.932  -2.100   2.610  1.00  0.00    -0.143 NA
ATOM     20  C   UNL     1       3.170  -0.754   3.489  1.00  0.00     0.051 A 
ATOM     21  N   UNL     1       1.750  -2.650   3.573  1.00  0.00    -0.132 NA
BRANCH  17  22
ATOM     22  C   UNL     1       0.326  -0.376   1.039  1.00  0.00     0.269 C 
ATOM     23  N   UNL     1       0.913   0.278  -0.016  1.00  0.00    -0.364 N 
ATOM     24  H   UNL     1       0.355   0.640  -0.743  1.00  0.00     0.160 HD
ATOM     25  H   UNL     1       1.891   0.386  -0.047  1.00  0.00     0.160 HD
ATOM     26  O   UNL     1      -0.888  -0.528   1.071  1.00  0.00    -0.268 OA
ENDBRANCH  17  22
ENDBRANCH  14  16
ENDBRANCH   8  14
ENDBRANCH   4   7
ENDBRANCH   2   3
ENDBRANCH   1   2
BRANCH   1  27
ATOM     27  C   UNL     1      -0.674  -7.357  11.563  1.00  0.00     0.118 C 
BRANCH  27  28
ATOM     28  N   UNL     1      -0.161  -7.723  12.872  1.00  0.00    -0.352 N 
ATOM     29  C   UNL     1      -0.691  -7.494  14.119  1.00  0.00     0.251 C 
ATOM     30  H   UNL     1       0.695  -8.209  12.865  1.00  0.00     0.163 HD
ATOM     31  O   UNL     1       0.026  -7.645  15.106  1.00  0.00    -0.269 OA
BRANCH  29  32
ATOM     32  C   UNL     1      -2.102  -7.067  14.291  1.00  0.00     0.039 A 
ATOM     33  C   UNL     1      -2.411  -6.162  15.312  1.00  0.00     0.014 A 
ATOM     34  C   UNL     1      -3.130  -7.599  13.508  1.00  0.00     0.014 A 
ATOM     35  C   UNL     1      -3.736  -5.764  15.521  1.00  0.00     0.010 A 
ATOM     36  C   UNL     1      -4.439  -7.146  13.666  1.00  0.00     0.010 A 
ATOM     37  C   UNL     1      -4.760  -6.238  14.686  1.00  0.00    -0.014 A 
BRANCH  37  38
ATOM     38  C   UNL     1      -6.173  -5.820  14.879  1.00  0.00     0.031 A 
ATOM     39  C   UNL     1      -7.216  -6.837  15.264  1.00  0.00     0.074 A 
ATOM     40  C   UNL     1      -6.533  -4.544  14.641  1.00  0.00     0.049 A 
ATOM     41  N   UNL     1      -8.508  -6.682  15.408  1.00  0.00    -0.248 NA
ATOM     42  C   UNL     1      -6.749  -8.214  15.492  1.00  0.00     0.031 C 
ATOM     43  C   UNL     1      -5.628  -3.474  14.215  1.00  0.00     0.029 A 
ATOM     44  N   UNL     1      -7.760  -3.933  14.709  1.00  0.00    -0.354 N 
ATOM     45  C   UNL     1      -9.010  -7.943  15.710  1.00  0.00     0.074 A 
ATOM     46  C   UNL     1      -7.890  -8.858  15.692  1.00  0.00     0.031 C 
ATOM     47  C   UNL     1      -6.328  -2.337  14.072  1.00  0.00     0.029 A 
ATOM     48  C   UNL     1      -7.733  -2.602  14.363  1.00  0.00     0.049 A 
ATOM     49  H   UNL     1      -8.582  -4.402  14.980  1.00  0.00     0.167 HD
ATOM     50  C   UNL     1     -10.285  -8.306  15.991  1.00  0.00     0.031 A 
ATOM     51  C   UNL     1      -8.728  -1.697  14.280  1.00  0.00     0.031 A 
ATOM     52  C   UNL     1     -11.394  -7.391  16.029  1.00  0.00     0.049 A 
ATOM     53  C   UNL     1     -10.130  -2.114  14.626  1.00  0.00     0.074 A 
ATOM     54  C   UNL     1     -12.711  -7.645  16.372  1.00  0.00     0.029 A 
ATOM     55  N   UNL     1     -11.316  -6.042  15.713  1.00  0.00    -0.354 N 
ATOM     56  N   UNL     1     -10.573  -3.296  14.981  1.00  0.00    -0.248 NA
ATOM     57  C   UNL     1     -11.164  -1.071  14.576  1.00  0.00     0.031 C 
ATOM     58  C   UNL     1     -13.437  -6.458  16.225  1.00  0.00     0.029 A 
ATOM     59  C   UNL     1     -12.564  -5.455  15.836  1.00  0.00     0.049 A 
ATOM     60  H   UNL     1     -10.495  -5.572  15.442  1.00  0.00     0.167 HD
ATOM     61  C   UNL     1     -11.934  -3.137  15.214  1.00  0.00     0.074 A 
ATOM     62  C   UNL     1     -12.238  -1.740  14.976  1.00  0.00     0.031 C 
ATOM     63  C   UNL     1     -12.849  -4.063  15.591  1.00  0.00     0.031 A 
BRANCH  50  64
ATOM     64  C   UNL     1     -10.544  -9.764  16.268  1.00  0.00    -0.014 A 
ATOM     65  C   UNL     1     -10.085 -10.373  17.451  1.00  0.00     0.010 A 
ATOM     66  C   UNL     1     -11.269 -10.535  15.341  1.00  0.00     0.010 A 
ATOM     67  C   UNL     1     -10.295 -11.737  17.674  1.00  0.00     0.020 A 
ATOM     68  C   UNL     1     -11.505 -11.894  15.573  1.00  0.00     0.020 A 
ATOM     69  C   UNL     1     -10.996 -12.491  16.728  1.00  0.00     0.054 A 
BRANCH  69  70
ATOM     70  S   UNL     1     -11.253 -14.260  17.039  1.00  0.00     0.124 S 
ATOM     71  O   UNL     1      -9.936 -14.812  16.731  1.00  0.00    -0.237 OA
ATOM     72  O   UNL     1     -11.630 -14.289  18.450  1.00  0.00    -0.237 OA
ATOM     73  O   UNL     1     -12.316 -14.624  16.106  1.00  0.00    -0.744 OA
ENDBRANCH  69  70
ENDBRANCH  50  64
BRANCH  51  74
ATOM     74  C   UNL     1      -8.419  -0.302  13.867  1.00  0.00    -0.014 A 
ATOM     75  C   UNL     1      -8.417   0.737  14.813  1.00  0.00     0.010 A 
ATOM     76  C   UNL     1      -8.084  -0.013  12.531  1.00  0.00     0.010 A 
ATOM     77  C   UNL     1      -8.092   2.042  14.431  1.00  0.00     0.020 A 
ATOM     78  C   UNL     1      -7.736   1.286  12.150  1.00  0.00     0.020 A 
ATOM     79  C   UNL     1      -7.749   2.308  13.102  1.00  0.00     0.054 A 
BRANCH  79  80
ATOM     80  S   UNL     1      -7.255   3.993  12.644  1.00  0.00     0.124 S 
ATOM     81  O   UNL     1      -8.539   4.684  12.595  1.00  0.00    -0.237 OA
ATOM     82  O   UNL     1      -6.373   4.376  13.745  1.00  0.00    -0.237 OA
ATOM     83  O   UNL     1      -6.587   3.815  11.357  1.00  0.00    -0.744 OA
ENDBRANCH  79  80
ENDBRANCH  51  74
BRANCH  63  84
ATOM     84  C   UNL     1     -14.264  -3.593  15.795  1.00  0.00    -0.014 A 
ATOM     85  C   UNL     1     -15.093  -3.291  14.700  1.00  0.00     0.010 A 
ATOM     86  C   UNL     1     -14.785  -3.504  17.098  1.00  0.00     0.010 A 
ATOM     87  C   UNL     1     -16.413  -2.882  14.908  1.00  0.00     0.020 A 
ATOM     88  C   UNL     1     -16.111  -3.118  17.308  1.00  0.00     0.020 A 
ATOM     89  C   UNL     1     -16.913  -2.796  16.211  1.00  0.00     0.054 A 
BRANCH  89  90
ATOM     90  S   UNL     1     -18.643  -2.307  16.455  1.00  0.00     0.124 S 
ATOM     91  O   UNL     1     -18.584  -0.865  16.232  1.00  0.00    -0.237 OA
ATOM     92  O   UNL     1     -19.343  -3.074  15.427  1.00  0.00    -0.237 OA
ATOM     93  O   UNL     1     -18.927  -2.715  17.829  1.00  0.00    -0.744 OA
ENDBRANCH  89  90
ENDBRANCH  63  84
ENDBRANCH  37  38
ENDBRANCH  29  32
ENDBRANCH  27  28
ENDBRANCH   1  27
TORSDOF 16
