REMARK SMILES COc1cccc(/C=C(/CC(=O)NCCCNC(=O)c2ccc(-c3c4nc(c(-c5ccc(S(=O)(=O)[O-])cc5)c5ccc([nH]5)c(-c5ccc(S(=O)(=O)[O-])cc5)c5nc(c(-c6ccc(S(=O)(=O)[O-])cc6)c6ccc3[nH]6)C=C5)C=C4)cc2)c2nc3ccccc3o2)c1
REMARK SMILES IDX 15 1 14 2 13 3 11 4 12 5 10 7 9 8 8 9 7 10 3 11 4 12 89 13
REMARK SMILES IDX 5 14 6 15 2 16 1 17 80 18 81 19 88 20 82 21 87 22 83 23
REMARK SMILES IDX 86 24 84 25 85 26 16 27 17 28 18 29 19 31 20 32 21 33 79 34
REMARK SMILES IDX 22 35 78 36 23 37 24 38 25 39 72 40 26 41 77 42 71 43 73 44
REMARK SMILES IDX 27 45 76 46 70 47 69 48 28 50 58 51 39 52 57 53 40 54 43 55
REMARK SMILES IDX 56 56 74 57 41 58 42 59 55 61 75 62 44 63 29 64 30 65 38 66
REMARK SMILES IDX 31 67 37 68 32 69 33 70 34 71 35 72 36 73 59 74 60 75 68 76
REMARK SMILES IDX 61 77 67 78 62 79 63 80 64 81 65 82 66 83 45 84 46 85 54 86
REMARK SMILES IDX 47 87 53 88 48 89 49 90 50 91 51 92 52 93
REMARK H PARENT 13 6 17 30 73 49 43 60
REMARK Flexibility Score: inf
ROOT
ATOM      1  C   UNL     1       4.916   4.707   3.348  1.00  0.00     0.042 C 
ENDROOT
BRANCH   1   2
ATOM      2  C   UNL     1       6.122   3.798   3.563  1.00  0.00     0.117 C 
BRANCH   2   3
ATOM      3  N   UNL     1       6.656   3.858   4.910  1.00  0.00    -0.356 N 
ATOM      4  C   UNL     1       6.578   2.940   5.918  1.00  0.00     0.224 C 
ATOM      5  O   UNL     1       7.249   3.131   6.935  1.00  0.00    -0.275 OA
ATOM      6  H   UNL     1       7.147   4.682   5.130  1.00  0.00     0.163 HD
BRANCH   4   7
ATOM      7  C   UNL     1       5.745   1.671   5.744  1.00  0.00     0.141 C 
BRANCH   7   8
ATOM      8  C   UNL     1       4.240   1.940   5.688  1.00  0.00     0.025 C 
ATOM      9  C   UNL     1       3.578   1.544   4.572  1.00  0.00     0.018 C 
BRANCH   9  10
ATOM     10  C   UNL     1       2.217   1.711   3.996  1.00  0.00    -0.021 A 
ATOM     11  C   UNL     1       0.812   1.456   1.997  1.00  0.00     0.119 A 
ATOM     12  C   UNL     1      -0.252   2.054   2.659  1.00  0.00     0.046 A 
ATOM     13  C   UNL     1       2.034   1.286   2.659  1.00  0.00     0.054 A 
ATOM     14  C   UNL     1      -0.102   2.463   3.978  1.00  0.00     0.004 A 
ATOM     15  C   UNL     1       1.125   2.304   4.633  1.00  0.00     0.008 A 
BRANCH  11  16
ATOM     16  O   UNL     1       0.595   1.158   0.681  1.00  0.00    -0.497 OA
ATOM     17  C   UNL     1       1.165  -0.064   0.232  1.00  0.00     0.278 C 
ENDBRANCH  11  16
ENDBRANCH   9  10
BRANCH   8  18
ATOM     18  C   UNL     1       3.620   2.628   6.784  1.00  0.00     0.223 A 
ATOM     19  N   UNL     1       4.165   3.667   7.405  1.00  0.00    -0.210 NA
ATOM     20  O   UNL     1       2.456   2.207   7.411  1.00  0.00    -0.436 OA
ATOM     21  C   UNL     1       3.334   3.954   8.450  1.00  0.00     0.110 A 
ATOM     22  C   UNL     1       2.264   3.083   8.437  1.00  0.00     0.155 A 
ATOM     23  C   UNL     1       3.413   4.929   9.451  1.00  0.00     0.032 A 
ATOM     24  C   UNL     1       1.203   3.125   9.333  1.00  0.00     0.049 A 
ATOM     25  C   UNL     1       2.369   5.000  10.384  1.00  0.00     0.003 A 
ATOM     26  C   UNL     1       1.279   4.122  10.316  1.00  0.00     0.004 A 
ENDBRANCH   8  18
ENDBRANCH   7   8
ENDBRANCH   4   7
ENDBRANCH   2   3
ENDBRANCH   1   2
BRANCH   1  27
ATOM     27  C   UNL     1       5.217   6.201   3.451  1.00  0.00     0.118 C 
BRANCH  27  28
ATOM     28  N   UNL     1       6.183   6.656   2.458  1.00  0.00    -0.352 N 
ATOM     29  C   UNL     1       6.073   7.599   1.468  1.00  0.00     0.251 C 
ATOM     30  H   UNL     1       7.061   6.213   2.506  1.00  0.00     0.163 HD
ATOM     31  O   UNL     1       6.974   7.691   0.630  1.00  0.00    -0.269 OA
BRANCH  29  32
ATOM     32  C   UNL     1       4.895   8.490   1.378  1.00  0.00     0.039 A 
ATOM     33  C   UNL     1       4.373   8.789   0.115  1.00  0.00     0.014 A 
ATOM     34  C   UNL     1       4.327   9.067   2.516  1.00  0.00     0.014 A 
ATOM     35  C   UNL     1       3.245   9.608   0.001  1.00  0.00     0.010 A 
ATOM     36  C   UNL     1       3.159   9.820   2.407  1.00  0.00     0.010 A 
ATOM     37  C   UNL     1       2.604  10.100   1.149  1.00  0.00    -0.014 A 
BRANCH  37  38
ATOM     38  C   UNL     1       1.347  10.889   1.052  1.00  0.00     0.031 A 
ATOM     39  C   UNL     1       1.297  12.314   1.533  1.00  0.00     0.074 A 
ATOM     40  C   UNL     1       0.224  10.294   0.602  1.00  0.00     0.049 A 
ATOM     41  N   UNL     1       0.277  13.132   1.584  1.00  0.00    -0.248 NA
ATOM     42  C   UNL     1       2.551  12.887   2.048  1.00  0.00     0.031 C 
ATOM     43  C   UNL     1       0.126   8.902   0.155  1.00  0.00     0.029 A 
ATOM     44  N   UNL     1      -1.053  10.778   0.459  1.00  0.00    -0.354 N 
ATOM     45  C   UNL     1       0.756  14.304   2.159  1.00  0.00     0.074 A 
ATOM     46  C   UNL     1       2.150  14.075   2.477  1.00  0.00     0.031 C 
ATOM     47  C   UNL     1      -1.137   8.650  -0.225  1.00  0.00     0.029 A 
ATOM     48  C   UNL     1      -1.947   9.845  -0.010  1.00  0.00     0.049 A 
ATOM     49  H   UNL     1      -1.304  11.706   0.673  1.00  0.00     0.167 HD
ATOM     50  C   UNL     1       0.101  15.467   2.392  1.00  0.00     0.031 A 
ATOM     51  C   UNL     1      -3.274   9.929  -0.229  1.00  0.00     0.031 A 
ATOM     52  C   UNL     1      -1.284  15.692   2.068  1.00  0.00     0.049 A 
ATOM     53  C   UNL     1      -3.980  11.232   0.025  1.00  0.00     0.074 A 
ATOM     54  C   UNL     1      -2.017  16.859   2.193  1.00  0.00     0.029 A 
ATOM     55  N   UNL     1      -2.148  14.730   1.566  1.00  0.00    -0.354 N 
ATOM     56  N   UNL     1      -3.488  12.357   0.487  1.00  0.00    -0.248 NA
ATOM     57  C   UNL     1      -5.415  11.282  -0.284  1.00  0.00     0.031 C 
ATOM     58  C   UNL     1      -3.340  16.586   1.828  1.00  0.00     0.029 A 
ATOM     59  C   UNL     1      -3.416  15.267   1.409  1.00  0.00     0.049 A 
ATOM     60  H   UNL     1      -1.898  13.802   1.354  1.00  0.00     0.167 HD
ATOM     61  C   UNL     1      -4.549  13.256   0.503  1.00  0.00     0.074 A 
ATOM     62  C   UNL     1      -5.704  12.548  -0.011  1.00  0.00     0.031 C 
ATOM     63  C   UNL     1      -4.562  14.551   0.905  1.00  0.00     0.031 A 
BRANCH  50  64
ATOM     64  C   UNL     1       0.873  16.583   3.051  1.00  0.00    -0.014 A 
ATOM     65  C   UNL     1       1.917  17.247   2.383  1.00  0.00     0.010 A 
ATOM     66  C   UNL     1       0.527  16.992   4.352  1.00  0.00     0.010 A 
ATOM     67  C   UNL     1       2.636  18.262   3.022  1.00  0.00     0.020 A 
ATOM     68  C   UNL     1       1.223  18.027   4.984  1.00  0.00     0.020 A 
ATOM     69  C   UNL     1       2.288  18.641   4.322  1.00  0.00     0.054 A 
BRANCH  69  70
ATOM     70  S   UNL     1       3.236  19.962   5.127  1.00  0.00     0.124 S 
ATOM     71  O   UNL     1       4.501  19.291   5.415  1.00  0.00    -0.237 OA
ATOM     72  O   UNL     1       3.293  20.991   4.092  1.00  0.00    -0.237 OA
ATOM     73  O   UNL     1       2.432  20.303   6.298  1.00  0.00    -0.744 OA
ENDBRANCH  69  70
ENDBRANCH  50  64
BRANCH  51  74
ATOM     74  C   UNL     1      -4.013   8.735  -0.723  1.00  0.00    -0.014 A 
ATOM     75  C   UNL     1      -4.492   8.680  -2.043  1.00  0.00     0.010 A 
ATOM     76  C   UNL     1      -4.203   7.623   0.119  1.00  0.00     0.010 A 
ATOM     77  C   UNL     1      -5.151   7.539  -2.511  1.00  0.00     0.020 A 
ATOM     78  C   UNL     1      -4.835   6.470  -0.353  1.00  0.00     0.020 A 
ATOM     79  C   UNL     1      -5.312   6.438  -1.665  1.00  0.00     0.054 A 
BRANCH  79  80
ATOM     80  S   UNL     1      -6.103   4.940  -2.317  1.00  0.00     0.124 S 
ATOM     81  O   UNL     1      -7.500   5.351  -2.412  1.00  0.00    -0.237 OA
ATOM     82  O   UNL     1      -5.412   4.748  -3.590  1.00  0.00    -0.237 OA
ATOM     83  O   UNL     1      -5.814   3.930  -1.302  1.00  0.00    -0.744 OA
ENDBRANCH  79  80
ENDBRANCH  51  74
BRANCH  63  84
ATOM     84  C   UNL     1      -5.861  15.305   0.782  1.00  0.00    -0.014 A 
ATOM     85  C   UNL     1      -6.947  15.035   1.634  1.00  0.00     0.010 A 
ATOM     86  C   UNL     1      -5.975  16.339  -0.165  1.00  0.00     0.010 A 
ATOM     87  C   UNL     1      -8.133  15.766   1.520  1.00  0.00     0.020 A 
ATOM     88  C   UNL     1      -7.148  17.092  -0.261  1.00  0.00     0.020 A 
ATOM     89  C   UNL     1      -8.225  16.791   0.573  1.00  0.00     0.054 A 
BRANCH  89  90
ATOM     90  S   UNL     1      -9.759  17.755   0.476  1.00  0.00     0.124 S 
ATOM     91  O   UNL     1     -10.677  16.805  -0.145  1.00  0.00    -0.237 OA
ATOM     92  O   UNL     1     -10.031  18.068   1.877  1.00  0.00    -0.237 OA
ATOM     93  O   UNL     1      -9.396  18.903  -0.353  1.00  0.00    -0.744 OA
ENDBRANCH  89  90
ENDBRANCH  63  84
ENDBRANCH  37  38
ENDBRANCH  29  32
ENDBRANCH  27  28
ENDBRANCH   1  27
TORSDOF 17
