REMARK SMILES CC[C@H](C)Nc1ncnc(N2CCC(C(=O)NCCCNC(=O)c3ccc(-c4c5nc(c(-c6ccc(S(=O)(=O)[O-])cc6)c6ccc([nH]6)c(-c6ccc(S(=O)(=O)[O-])cc6)c6nc(c(-c7ccc(S(=O)(=O)[O-])cc7)c7ccc4[nH]7)C=C6)C=C5)cc3)CC2)c1[N+](=O)[O-]
REMARK SMILES IDX 18 1 17 2 15 3 16 4 14 6 11 7 12 8 85 9 13 10 84 11 10 12
REMARK SMILES IDX 6 13 7 14 86 15 8 16 9 17 5 18 3 20 4 21 2 22 1 23 87 24
REMARK SMILES IDX 88 25 89 26 19 27 20 28 21 29 22 30 23 32 24 33 25 34 83 35
REMARK SMILES IDX 26 36 82 37 27 38 28 39 29 40 76 41 30 42 81 43 75 44 77 45
REMARK SMILES IDX 31 46 80 47 74 48 73 49 32 51 62 52 43 53 61 54 44 55 47 56
REMARK SMILES IDX 60 57 78 58 45 59 46 60 59 62 79 63 48 64 33 65 34 66 42 67
REMARK SMILES IDX 35 68 41 69 36 70 37 71 38 72 39 73 40 74 63 75 64 76 72 77
REMARK SMILES IDX 65 78 71 79 66 80 67 81 68 82 69 83 70 84 49 85 50 86 58 87
REMARK SMILES IDX 51 88 57 89 52 90 53 91 54 92 55 93 56 94
REMARK H PARENT 17 5 5 19 21 31 77 50 47 61
REMARK Flexibility Score: inf
ROOT
ATOM      1  C   UNL     1       5.196  -1.930  10.247  1.00  0.00     0.117 C 
ENDROOT
BRANCH   1   2
ATOM      2  N   UNL     1       6.423  -1.186  10.507  1.00  0.00    -0.356 N 
ATOM      3  C   UNL     1       7.120  -0.316   9.723  1.00  0.00     0.223 C 
ATOM      4  O   UNL     1       8.140   0.197  10.188  1.00  0.00    -0.275 OA
ATOM      5  H   UNL     1       6.813  -1.337  11.399  1.00  0.00     0.163 HD
BRANCH   3   6
ATOM      6  C   UNL     1       6.648   0.038   8.321  1.00  0.00     0.082 C 
ATOM      7  N   UNL     1       4.545  -0.551   6.535  1.00  0.00    -0.351 N 
ATOM      8  C   UNL     1       5.846  -1.081   6.161  1.00  0.00     0.119 C 
ATOM      9  C   UNL     1       4.522   0.787   7.098  1.00  0.00     0.119 C 
ATOM     10  C   UNL     1       6.711  -1.195   7.404  1.00  0.00     0.035 C 
ATOM     11  C   UNL     1       5.311   0.797   8.396  1.00  0.00     0.035 C 
BRANCH   7  12
ATOM     12  C   UNL     1       3.438  -1.157   5.984  1.00  0.00     0.213 A 
ATOM     13  C   UNL     1       1.518  -1.306   4.553  1.00  0.00     0.211 A 
ATOM     14  N   UNL     1       1.237  -2.514   5.077  1.00  0.00    -0.213 NA
ATOM     15  C   UNL     1       2.613  -0.599   5.016  1.00  0.00     0.353 A 
ATOM     16  C   UNL     1       2.087  -3.009   5.988  1.00  0.00     0.227 A 
ATOM     17  N   UNL     1       3.181  -2.394   6.453  1.00  0.00    -0.212 NA
BRANCH  13  18
ATOM     18  N   UNL     1       0.607  -0.952   3.591  1.00  0.00    -0.362 N 
ATOM     19  H   UNL     1      -0.320  -1.247   3.739  1.00  0.00     0.162 HD
BRANCH  18  20
ATOM     20  C   UNL     1       0.854  -0.190   2.375  1.00  0.00     0.077 C 
ATOM     21  C   UNL     1       0.625  -1.088   1.160  1.00  0.00     0.031 C 
BRANCH  20  22
ATOM     22  C   UNL     1      -0.021   1.074   2.374  1.00  0.00     0.021 C 
ATOM     23  C   UNL     1      -1.511   0.830   2.170  1.00  0.00     0.006 C 
ENDBRANCH  20  22
ENDBRANCH  18  20
ENDBRANCH  13  18
BRANCH  15  24
ATOM     24  N   UNL     1       2.919   0.700   4.521  1.00  0.00     0.070 N 
ATOM     25  O   UNL     1       3.865   0.801   3.723  1.00  0.00    -0.258 OA
ATOM     26  O   UNL     1       2.242   1.649   4.943  1.00  0.00    -0.258 OA
ENDBRANCH  15  24
ENDBRANCH   7  12
ENDBRANCH   3   6
ENDBRANCH   1   2
BRANCH   1  27
ATOM     27  C   UNL     1       5.418  -3.436  10.240  1.00  0.00     0.042 C 
BRANCH  27  28
ATOM     28  C   UNL     1       5.872  -3.997  11.579  1.00  0.00     0.118 C 
BRANCH  28  29
ATOM     29  N   UNL     1       4.876  -3.824  12.627  1.00  0.00    -0.352 N 
ATOM     30  C   UNL     1       4.193  -4.765  13.358  1.00  0.00     0.251 C 
ATOM     31  H   UNL     1       4.659  -2.888  12.845  1.00  0.00     0.163 HD
ATOM     32  O   UNL     1       3.247  -4.418  14.058  1.00  0.00    -0.269 OA
BRANCH  30  33
ATOM     33  C   UNL     1       4.581  -6.190  13.283  1.00  0.00     0.039 A 
ATOM     34  C   UNL     1       3.579  -7.161  13.215  1.00  0.00     0.014 A 
ATOM     35  C   UNL     1       5.925  -6.571  13.281  1.00  0.00     0.014 A 
ATOM     36  C   UNL     1       3.929  -8.505  13.068  1.00  0.00     0.010 A 
ATOM     37  C   UNL     1       6.270  -7.896  13.038  1.00  0.00     0.010 A 
ATOM     38  C   UNL     1       5.276  -8.880  12.933  1.00  0.00    -0.014 A 
BRANCH  38  39
ATOM     39  C   UNL     1       5.664 -10.290  12.670  1.00  0.00     0.031 A 
ATOM     40  C   UNL     1       6.527 -11.036  13.652  1.00  0.00     0.074 A 
ATOM     41  C   UNL     1       5.293 -10.876  11.514  1.00  0.00     0.049 A 
ATOM     42  N   UNL     1       7.009 -12.249  13.569  1.00  0.00    -0.248 NA
ATOM     43  C   UNL     1       6.921 -10.318  14.876  1.00  0.00     0.031 C 
ATOM     44  C   UNL     1       4.493 -10.244  10.461  1.00  0.00     0.029 A 
ATOM     45  N   UNL     1       5.542 -12.135  11.027  1.00  0.00    -0.354 N 
ATOM     46  C   UNL     1       7.773 -12.433  14.716  1.00  0.00     0.074 A 
ATOM     47  C   UNL     1       7.735 -11.190  15.453  1.00  0.00     0.031 C 
ATOM     48  C   UNL     1       4.291 -11.127   9.471  1.00  0.00     0.029 A 
ATOM     49  C   UNL     1       4.985 -12.370   9.792  1.00  0.00     0.049 A 
ATOM     50  H   UNL     1       6.069 -12.807  11.516  1.00  0.00     0.167 HD
ATOM     51  C   UNL     1       8.429 -13.544  15.130  1.00  0.00     0.031 A 
ATOM     52  C   UNL     1       5.034 -13.458   8.999  1.00  0.00     0.031 A 
ATOM     53  C   UNL     1       8.459 -14.781  14.394  1.00  0.00     0.049 A 
ATOM     54  C   UNL     1       5.787 -14.672   9.470  1.00  0.00     0.074 A 
ATOM     55  C   UNL     1       9.049 -15.980  14.754  1.00  0.00     0.029 A 
ATOM     56  N   UNL     1       7.882 -14.977  13.148  1.00  0.00    -0.354 N 
ATOM     57  N   UNL     1       6.442 -14.850  10.593  1.00  0.00    -0.248 NA
ATOM     58  C   UNL     1       5.799 -15.835   8.573  1.00  0.00     0.031 C 
ATOM     59  C   UNL     1       8.883 -16.882  13.699  1.00  0.00     0.029 A 
ATOM     60  C   UNL     1       8.129 -16.268  12.711  1.00  0.00     0.049 A 
ATOM     61  H   UNL     1       7.373 -14.299  12.649  1.00  0.00     0.167 HD
ATOM     62  C   UNL     1       6.922 -16.154  10.548  1.00  0.00     0.074 A 
ATOM     63  C   UNL     1       6.465 -16.724   9.297  1.00  0.00     0.031 C 
ATOM     64  C   UNL     1       7.672 -16.820  11.460  1.00  0.00     0.031 A 
BRANCH  51  65
ATOM     65  C   UNL     1       9.177 -13.468  16.436  1.00  0.00    -0.014 A 
ATOM     66  C   UNL     1       8.495 -13.352  17.662  1.00  0.00     0.010 A 
ATOM     67  C   UNL     1      10.581 -13.559  16.444  1.00  0.00     0.010 A 
ATOM     68  C   UNL     1       9.203 -13.287  18.864  1.00  0.00     0.020 A 
ATOM     69  C   UNL     1      11.292 -13.526  17.648  1.00  0.00     0.020 A 
ATOM     70  C   UNL     1      10.598 -13.373  18.849  1.00  0.00     0.054 A 
BRANCH  70  71
ATOM     71  S   UNL     1      11.488 -13.312  20.429  1.00  0.00     0.124 S 
ATOM     72  O   UNL     1      11.316 -11.914  20.817  1.00  0.00    -0.237 OA
ATOM     73  O   UNL     1      10.761 -14.283  21.242  1.00  0.00    -0.237 OA
ATOM     74  O   UNL     1      12.852 -13.696  20.075  1.00  0.00    -0.744 OA
ENDBRANCH  70  71
ENDBRANCH  51  65
BRANCH  52  75
ATOM     75  C   UNL     1       4.341 -13.450   7.680  1.00  0.00    -0.014 A 
ATOM     76  C   UNL     1       3.206 -14.252   7.463  1.00  0.00     0.010 A 
ATOM     77  C   UNL     1       4.807 -12.629   6.637  1.00  0.00     0.010 A 
ATOM     78  C   UNL     1       2.562 -14.247   6.221  1.00  0.00     0.020 A 
ATOM     79  C   UNL     1       4.146 -12.597   5.405  1.00  0.00     0.020 A 
ATOM     80  C   UNL     1       3.034 -13.416   5.202  1.00  0.00     0.054 A 
BRANCH  80  81
ATOM     81  S   UNL     1       2.151 -13.387   3.617  1.00  0.00     0.124 S 
ATOM     82  O   UNL     1       2.502 -14.684   3.049  1.00  0.00    -0.237 OA
ATOM     83  O   UNL     1       0.760 -13.233   4.036  1.00  0.00    -0.237 OA
ATOM     84  O   UNL     1       2.717 -12.227   2.931  1.00  0.00    -0.744 OA
ENDBRANCH  80  81
ENDBRANCH  52  75
BRANCH  64  85
ATOM     85  C   UNL     1       8.023 -18.254  11.157  1.00  0.00    -0.014 A 
ATOM     86  C   UNL     1       8.940 -18.584  10.143  1.00  0.00     0.010 A 
ATOM     87  C   UNL     1       7.463 -19.284  11.936  1.00  0.00     0.010 A 
ATOM     88  C   UNL     1       9.265 -19.920   9.892  1.00  0.00     0.020 A 
ATOM     89  C   UNL     1       7.810 -20.618  11.709  1.00  0.00     0.020 A 
ATOM     90  C   UNL     1       8.698 -20.928  10.678  1.00  0.00     0.054 A 
BRANCH  90  91
ATOM     91  S   UNL     1       9.169 -22.650  10.359  1.00  0.00     0.124 S 
ATOM     92  O   UNL     1       8.490 -22.922   9.095  1.00  0.00    -0.237 OA
ATOM     93  O   UNL     1      10.626 -22.574  10.286  1.00  0.00    -0.237 OA
ATOM     94  O   UNL     1       8.646 -23.374  11.515  1.00  0.00    -0.744 OA
ENDBRANCH  90  91
ENDBRANCH  64  85
ENDBRANCH  38  39
ENDBRANCH  30  33
ENDBRANCH  28  29
ENDBRANCH  27  28
ENDBRANCH   1  27
TORSDOF 18
