REMARK SMILES COc1ccc(NC(=O)/C(C#N)=C/c2cc(C)n(-c3ccc(C(=O)NCCCNC(=O)c4ccc(-c5c6nc(c(-c7ccc(S(=O)(=O)[O-])cc7)c7ccc([nH]7)c(-c7ccc(S(=O)(=O)[O-])cc7)c7nc(c(-c8ccc(S(=O)(=O)[O-])cc8)c8ccc5[nH]8)C=C7)C=C6)cc4)cc3)c2C)cc1
REMARK SMILES IDX 26 1 25 2 23 3 24 4 22 6 19 7 20 8 93 9 21 10 92 11 18 12
REMARK SMILES IDX 14 13 15 14 94 15 16 16 95 17 17 18 13 19 10 20 8 21 7 22
REMARK SMILES IDX 9 24 6 25 3 26 4 27 97 28 5 29 96 30 2 31 1 32 11 33 12 34
REMARK SMILES IDX 27 35 28 36 29 37 30 38 31 40 32 41 33 42 91 43 34 44 90 45
REMARK SMILES IDX 35 46 36 47 37 48 84 49 38 50 89 51 83 52 85 53 39 54 88 55
REMARK SMILES IDX 82 56 81 57 40 59 70 60 51 61 69 62 52 63 55 64 68 65 86 66
REMARK SMILES IDX 53 67 54 68 67 70 87 71 56 72 41 73 42 74 50 75 43 76 49 77
REMARK SMILES IDX 44 78 45 79 46 80 47 81 48 82 71 83 72 84 80 85 73 86 79 87
REMARK SMILES IDX 74 88 75 89 76 90 77 91 78 92 57 93 58 94 66 95 59 96 65 97
REMARK SMILES IDX 60 98 61 99 62 100 63 101 64 102
REMARK H PARENT 25 5 7 23 29 39 85 58 55 69
REMARK Flexibility Score: inf
ROOT
ATOM      1  C   UNL     1      -7.721   8.495   8.930  1.00  0.00     0.118 C 
ENDROOT
BRANCH   1   2
ATOM      2  N   UNL     1      -8.718   7.450   9.076  1.00  0.00    -0.352 N 
ATOM      3  C   UNL     1      -8.760   6.090   8.948  1.00  0.00     0.251 C 
ATOM      4  O   UNL     1      -9.870   5.574   9.117  1.00  0.00    -0.269 OA
ATOM      5  H   UNL     1      -9.594   7.818   9.336  1.00  0.00     0.163 HD
BRANCH   3   6
ATOM      6  C   UNL     1      -7.604   5.185   8.661  1.00  0.00     0.039 A 
ATOM      7  C   UNL     1      -5.594   3.256   8.199  1.00  0.00     0.046 A 
ATOM      8  C   UNL     1      -6.868   2.842   8.576  1.00  0.00     0.027 A 
ATOM      9  C   UNL     1      -5.320   4.617   8.030  1.00  0.00     0.027 A 
ATOM     10  C   UNL     1      -7.854   3.803   8.818  1.00  0.00     0.016 A 
ATOM     11  C   UNL     1      -6.331   5.573   8.239  1.00  0.00     0.016 A 
BRANCH   7  12
ATOM     12  N   UNL     1      -4.594   2.288   7.919  1.00  0.00    -0.318 N 
ATOM     13  C   UNL     1      -2.629   1.206   7.857  1.00  0.00    -0.003 A 
ATOM     14  C   UNL     1      -3.516   0.583   6.949  1.00  0.00     0.031 A 
ATOM     15  C   UNL     1      -3.326   2.216   8.498  1.00  0.00     0.027 A 
ATOM     16  C   UNL     1      -4.702   1.287   6.963  1.00  0.00     0.020 A 
ATOM     17  C   UNL     1      -2.909   3.097   9.629  1.00  0.00     0.065 C 
ATOM     18  C   UNL     1      -5.865   1.136   6.040  1.00  0.00     0.065 C 
BRANCH  13  19
ATOM     19  C   UNL     1      -1.248   0.885   8.058  1.00  0.00     0.035 C 
ATOM     20  C   UNL     1      -0.349   0.768   7.062  1.00  0.00     0.118 C 
BRANCH  20  21
ATOM     21  C   UNL     1       1.118   0.455   7.276  1.00  0.00     0.266 C 
ATOM     22  N   UNL     1       2.058   0.246   6.277  1.00  0.00    -0.321 N 
ATOM     23  H   UNL     1       2.859  -0.197   6.638  1.00  0.00     0.170 HD
ATOM     24  O   UNL     1       1.503   0.240   8.433  1.00  0.00    -0.268 OA
BRANCH  22  25
ATOM     25  C   UNL     1       2.200   0.487   4.880  1.00  0.00     0.041 A 
ATOM     26  C   UNL     1       2.343   0.639   2.047  1.00  0.00     0.119 A 
ATOM     27  C   UNL     1       1.690   1.621   2.779  1.00  0.00     0.048 A 
ATOM     28  C   UNL     1       3.058  -0.339   2.727  1.00  0.00     0.048 A 
ATOM     29  C   UNL     1       1.672   1.573   4.188  1.00  0.00     0.030 A 
ATOM     30  C   UNL     1       2.988  -0.410   4.134  1.00  0.00     0.030 A 
BRANCH  26  31
ATOM     31  O   UNL     1       2.354   0.747   0.685  1.00  0.00    -0.497 OA
ATOM     32  C   UNL     1       1.665  -0.322   0.031  1.00  0.00     0.278 C 
ENDBRANCH  26  31
ENDBRANCH  22  25
ENDBRANCH  20  21
BRANCH  20  33
ATOM     33  C   UNL     1      -0.740   0.999   5.612  1.00  0.00     0.105 C 
ATOM     34  N   UNL     1      -1.063   1.190   4.408  1.00  0.00    -0.192 NA
ENDBRANCH  20  33
ENDBRANCH  13  19
ENDBRANCH   7  12
ENDBRANCH   3   6
ENDBRANCH   1   2
BRANCH   1  35
ATOM     35  C   UNL     1      -7.673   9.064   7.505  1.00  0.00     0.042 C 
BRANCH  35  36
ATOM     36  C   UNL     1      -9.011   9.613   6.961  1.00  0.00     0.118 C 
BRANCH  36  37
ATOM     37  N   UNL     1      -9.185  11.036   7.160  1.00  0.00    -0.352 N 
ATOM     38  C   UNL     1      -9.986  11.921   6.461  1.00  0.00     0.251 C 
ATOM     39  H   UNL     1      -8.660  11.429   7.894  1.00  0.00     0.163 HD
ATOM     40  O   UNL     1      -9.896  13.110   6.757  1.00  0.00    -0.269 OA
BRANCH  38  41
ATOM     41  C   UNL     1     -10.826  11.501   5.286  1.00  0.00     0.039 A 
ATOM     42  C   UNL     1     -10.313  11.753   4.025  1.00  0.00     0.014 A 
ATOM     43  C   UNL     1     -12.174  11.101   5.353  1.00  0.00     0.014 A 
ATOM     44  C   UNL     1     -11.114  11.564   2.869  1.00  0.00     0.010 A 
ATOM     45  C   UNL     1     -13.014  10.995   4.169  1.00  0.00     0.010 A 
ATOM     46  C   UNL     1     -12.518  11.247   2.877  1.00  0.00    -0.014 A 
BRANCH  46  47
ATOM     47  C   UNL     1     -13.331  11.716   1.593  1.00  0.00     0.031 A 
ATOM     48  C   UNL     1     -12.803  13.086   1.331  1.00  0.00     0.074 A 
ATOM     49  C   UNL     1     -14.381  11.377   0.752  1.00  0.00     0.049 A 
ATOM     50  N   UNL     1     -12.878  13.996   2.257  1.00  0.00    -0.248 NA
ATOM     51  C   UNL     1     -11.858  13.377   0.251  1.00  0.00     0.031 C 
ATOM     52  C   UNL     1     -15.308  10.242   0.851  1.00  0.00     0.029 A 
ATOM     53  N   UNL     1     -14.870  11.992  -0.438  1.00  0.00    -0.354 N 
ATOM     54  C   UNL     1     -12.201  15.086   1.778  1.00  0.00     0.074 A 
ATOM     55  C   UNL     1     -11.420  14.572   0.660  1.00  0.00     0.031 C 
ATOM     56  C   UNL     1     -16.114  10.157  -0.250  1.00  0.00     0.029 A 
ATOM     57  C   UNL     1     -15.854  11.256  -1.178  1.00  0.00     0.049 A 
ATOM     58  H   UNL     1     -14.549  12.873  -0.735  1.00  0.00     0.167 HD
ATOM     59  C   UNL     1     -12.810  16.299   1.896  1.00  0.00     0.031 A 
ATOM     60  C   UNL     1     -16.459  11.532  -2.397  1.00  0.00     0.031 A 
ATOM     61  C   UNL     1     -13.320  16.756   0.629  1.00  0.00     0.049 A 
ATOM     62  C   UNL     1     -16.364  12.989  -2.582  1.00  0.00     0.074 A 
ATOM     63  C   UNL     1     -12.794  16.823  -0.646  1.00  0.00     0.029 A 
ATOM     64  N   UNL     1     -14.694  16.755   0.492  1.00  0.00    -0.354 N 
ATOM     65  N   UNL     1     -17.147  13.805  -1.946  1.00  0.00    -0.248 NA
ATOM     66  C   UNL     1     -15.487  13.602  -3.573  1.00  0.00     0.031 C 
ATOM     67  C   UNL     1     -13.831  16.363  -1.495  1.00  0.00     0.029 A 
ATOM     68  C   UNL     1     -15.021  16.323  -0.780  1.00  0.00     0.049 A 
ATOM     69  H   UNL     1     -15.337  17.019   1.188  1.00  0.00     0.167 HD
ATOM     70  C   UNL     1     -16.533  15.012  -2.091  1.00  0.00     0.074 A 
ATOM     71  C   UNL     1     -15.714  14.884  -3.280  1.00  0.00     0.031 C 
ATOM     72  C   UNL     1     -16.340  15.763  -0.979  1.00  0.00     0.031 A 
BRANCH  59  73
ATOM     73  C   UNL     1     -13.501  16.555   3.212  1.00  0.00    -0.014 A 
ATOM     74  C   UNL     1     -13.010  17.562   4.054  1.00  0.00     0.010 A 
ATOM     75  C   UNL     1     -14.566  15.751   3.679  1.00  0.00     0.010 A 
ATOM     76  C   UNL     1     -13.523  17.714   5.350  1.00  0.00     0.020 A 
ATOM     77  C   UNL     1     -15.061  15.878   4.979  1.00  0.00     0.020 A 
ATOM     78  C   UNL     1     -14.527  16.855   5.813  1.00  0.00     0.054 A 
BRANCH  78  79
ATOM     79  S   UNL     1     -15.049  16.980   7.546  1.00  0.00     0.124 S 
ATOM     80  O   UNL     1     -13.778  17.077   8.259  1.00  0.00    -0.237 OA
ATOM     81  O   UNL     1     -15.850  18.197   7.543  1.00  0.00    -0.237 OA
ATOM     82  O   UNL     1     -15.782  15.733   7.787  1.00  0.00    -0.744 OA
ENDBRANCH  78  79
ENDBRANCH  59  73
BRANCH  60  83
ATOM     83  C   UNL     1     -17.332  10.936  -3.528  1.00  0.00    -0.014 A 
ATOM     84  C   UNL     1     -18.192  11.810  -4.278  1.00  0.00     0.010 A 
ATOM     85  C   UNL     1     -17.066   9.705  -4.148  1.00  0.00     0.010 A 
ATOM     86  C   UNL     1     -18.612  11.558  -5.602  1.00  0.00     0.020 A 
ATOM     87  C   UNL     1     -17.520   9.423  -5.474  1.00  0.00     0.020 A 
ATOM     88  C   UNL     1     -18.240  10.372  -6.213  1.00  0.00     0.054 A 
BRANCH  88  89
ATOM     89  S   UNL     1     -18.576  10.164  -8.001  1.00  0.00     0.124 S 
ATOM     90  O   UNL     1     -20.034  10.123  -8.059  1.00  0.00    -0.237 OA
ATOM     91  O   UNL     1     -17.959  11.355  -8.582  1.00  0.00    -0.237 OA
ATOM     92  O   UNL     1     -17.906   8.908  -8.333  1.00  0.00    -0.744 OA
ENDBRANCH  88  89
ENDBRANCH  60  83
BRANCH  72  93
ATOM     93  C   UNL     1     -17.435  15.757   0.082  1.00  0.00    -0.014 A 
ATOM     94  C   UNL     1     -18.115  14.609   0.552  1.00  0.00     0.010 A 
ATOM     95  C   UNL     1     -17.837  16.997   0.607  1.00  0.00     0.010 A 
ATOM     96  C   UNL     1     -19.206  14.704   1.428  1.00  0.00     0.020 A 
ATOM     97  C   UNL     1     -18.894  17.098   1.521  1.00  0.00     0.020 A 
ATOM     98  C   UNL     1     -19.601  15.955   1.893  1.00  0.00     0.054 A 
BRANCH  98  99
ATOM     99  S   UNL     1     -21.062  16.081   2.962  1.00  0.00     0.124 S 
ATOM    100  O   UNL     1     -22.153  15.841   2.019  1.00  0.00    -0.237 OA
ATOM    101  O   UNL     1     -20.845  15.023   3.943  1.00  0.00    -0.237 OA
ATOM    102  O   UNL     1     -20.993  17.445   3.480  1.00  0.00    -0.744 OA
ENDBRANCH  98  99
ENDBRANCH  72  93
ENDBRANCH  46  47
ENDBRANCH  38  41
ENDBRANCH  36  37
ENDBRANCH  35  36
ENDBRANCH   1  35
TORSDOF 19
