REMARK SMILES [NH3+][C@]1(C(=O)NCCCNC(=O)c2ccc(-c3c4nc(c(-c5ccc(S(=O)(=O)[O-])cc5)c5ccc([nH]5)c(-c5ccc(S(=O)(=O)[O-])cc5)c5nc(c(-c6ccc(S(=O)(=O)[O-])cc6)c6ccc3[nH]6)C=C5)C=C4)cc2)CCC[C@@H]1CCn1cc(I)cn1
REMARK SMILES IDX 7 1 6 2 5 3 3 4 4 5 2 7 72 8 75 9 73 10 74 11 1 12 76 16
REMARK SMILES IDX 77 17 78 18 79 19 83 20 80 21 82 22 81 23 8 24 9 25 10 26
REMARK SMILES IDX 11 28 12 29 13 30 71 31 14 32 70 33 15 34 16 35 17 36 64 37
REMARK SMILES IDX 18 38 69 39 63 40 65 41 19 42 68 43 62 44 61 45 20 47 50 48
REMARK SMILES IDX 31 49 49 50 32 51 35 52 48 53 66 54 33 55 34 56 47 58 67 59
REMARK SMILES IDX 36 60 21 61 22 62 30 63 23 64 29 65 24 66 25 67 26 68 27 69
REMARK SMILES IDX 28 70 51 71 52 72 60 73 53 74 59 75 54 76 55 77 56 78 57 79
REMARK SMILES IDX 58 80 37 81 38 82 46 83 39 84 45 85 40 86 41 87 42 88 43 89
REMARK SMILES IDX 44 90
REMARK H PARENT 5 6 1 13 1 14 1 15 9 27 65 46 35 57
REMARK Flexibility Score: inf
ROOT
ATOM      1  C   UNL     1      -1.869   2.074  -0.495  1.00  0.00     0.042 C 
ENDROOT
BRANCH   1   2
ATOM      2  C   UNL     1      -1.074   1.126  -1.387  1.00  0.00     0.118 C 
BRANCH   2   3
ATOM      3  N   UNL     1       0.261   0.902  -0.862  1.00  0.00    -0.351 N 
ATOM      4  C   UNL     1       0.918  -0.130  -0.283  1.00  0.00     0.281 C 
ATOM      5  O   UNL     1       2.054   0.158   0.123  1.00  0.00    -0.268 OA
ATOM      6  H   UNL     1       0.831   1.700  -0.950  1.00  0.00     0.163 HD
BRANCH   4   7
ATOM      7  C   UNL     1       0.394  -1.584  -0.141  1.00  0.00     0.176 C 
ATOM      8  C   UNL     1       1.361  -2.513  -0.905  1.00  0.00     0.079 C 
ATOM      9  C   UNL     1       0.572  -2.101   1.313  1.00  0.00     0.062 C 
ATOM     10  C   UNL     1       1.138  -3.885  -0.295  1.00  0.00     0.008 C 
ATOM     11  C   UNL     1       0.768  -3.624   1.164  1.00  0.00     0.011 C 
BRANCH   7  12
ATOM     12  N   UNL     1      -0.970  -1.851  -0.612  1.00  0.00    -0.345 N 
ATOM     13  H   UNL     1      -1.195  -2.835  -0.465  1.00  0.00     0.345 HD
ATOM     14  H   UNL     1      -1.036  -1.632  -1.606  1.00  0.00     0.345 HD
ATOM     15  H   UNL     1      -1.629  -1.270  -0.092  1.00  0.00     0.345 HD
ENDBRANCH   7  12
BRANCH   9  16
ATOM     16  C   UNL     1      -0.480  -1.581   2.327  1.00  0.00     0.034 C 
BRANCH  16  17
ATOM     17  C   UNL     1      -1.627  -2.517   2.734  1.00  0.00     0.145 C 
BRANCH  17  18
ATOM     18  N   UNL     1      -1.262  -3.658   3.558  1.00  0.00    -0.272 N 
ATOM     19  C   UNL     1      -0.157  -3.811   4.352  1.00  0.00     0.123 A 
ATOM     20  N   UNL     1      -2.020  -4.777   3.491  1.00  0.00    -0.180 NA
ATOM     21  C   UNL     1      -0.145  -5.133   4.709  1.00  0.00     0.051 A 
ATOM     22  C   UNL     1      -1.315  -5.682   4.177  1.00  0.00     0.149 A 
ATOM     23  I   UNL     1       1.304  -6.064   5.741  1.00  0.00    -0.041 I 
ENDBRANCH  17  18
ENDBRANCH  16  17
ENDBRANCH   9  16
ENDBRANCH   4   7
ENDBRANCH   2   3
ENDBRANCH   1   2
BRANCH   1  24
ATOM     24  C   UNL     1      -1.350   3.510  -0.517  1.00  0.00     0.118 C 
BRANCH  24  25
ATOM     25  N   UNL     1      -1.415   4.099  -1.850  1.00  0.00    -0.352 N 
ATOM     26  C   UNL     1      -2.194   5.117  -2.333  1.00  0.00     0.251 C 
ATOM     27  H   UNL     1      -0.800   3.701  -2.508  1.00  0.00     0.163 HD
ATOM     28  O   UNL     1      -2.273   5.285  -3.553  1.00  0.00    -0.269 OA
BRANCH  26  29
ATOM     29  C   UNL     1      -2.937   6.002  -1.415  1.00  0.00     0.039 A 
ATOM     30  C   UNL     1      -4.224   6.420  -1.764  1.00  0.00     0.014 A 
ATOM     31  C   UNL     1      -2.355   6.454  -0.228  1.00  0.00     0.014 A 
ATOM     32  C   UNL     1      -4.948   7.236  -0.892  1.00  0.00     0.010 A 
ATOM     33  C   UNL     1      -3.108   7.192   0.679  1.00  0.00     0.010 A 
ATOM     34  C   UNL     1      -4.411   7.598   0.354  1.00  0.00    -0.014 A 
BRANCH  34  35
ATOM     35  C   UNL     1      -5.189   8.404   1.329  1.00  0.00     0.031 A 
ATOM     36  C   UNL     1      -4.696   9.762   1.754  1.00  0.00     0.074 A 
ATOM     37  C   UNL     1      -6.305   7.886   1.880  1.00  0.00     0.049 A 
ATOM     38  N   UNL     1      -5.199  10.581   2.643  1.00  0.00    -0.248 NA
ATOM     39  C   UNL     1      -3.462  10.254   1.117  1.00  0.00     0.031 C 
ATOM     40  C   UNL     1      -6.866   6.566   1.579  1.00  0.00     0.029 A 
ATOM     41  N   UNL     1      -7.168   8.406   2.812  1.00  0.00    -0.354 N 
ATOM     42  C   UNL     1      -4.339  11.673   2.681  1.00  0.00     0.074 A 
ATOM     43  C   UNL     1      -3.253  11.389   1.769  1.00  0.00     0.031 C 
ATOM     44  C   UNL     1      -7.993   6.394   2.288  1.00  0.00     0.029 A 
ATOM     45  C   UNL     1      -8.211   7.567   3.128  1.00  0.00     0.049 A 
ATOM     46  H   UNL     1      -7.050   9.295   3.218  1.00  0.00     0.167 HD
ATOM     47  C   UNL     1      -4.454  12.819   3.394  1.00  0.00     0.031 A 
ATOM     48  C   UNL     1      -9.226   7.721   4.001  1.00  0.00     0.031 A 
ATOM     49  C   UNL     1      -5.542  13.103   4.292  1.00  0.00     0.049 A 
ATOM     50  C   UNL     1      -9.320   8.995   4.795  1.00  0.00     0.074 A 
ATOM     51  C   UNL     1      -5.774  14.253   5.025  1.00  0.00     0.029 A 
ATOM     52  N   UNL     1      -6.580  12.229   4.579  1.00  0.00    -0.354 N 
ATOM     53  N   UNL     1      -8.527  10.040   4.774  1.00  0.00    -0.248 NA
ATOM     54  C   UNL     1     -10.454   9.116   5.722  1.00  0.00     0.031 C 
ATOM     55  C   UNL     1      -6.924  14.056   5.795  1.00  0.00     0.029 A 
ATOM     56  C   UNL     1      -7.444  12.807   5.494  1.00  0.00     0.049 A 
ATOM     57  H   UNL     1      -6.687  11.332   4.189  1.00  0.00     0.167 HD
ATOM     58  C   UNL     1      -9.084  10.955   5.661  1.00  0.00     0.074 A 
ATOM     59  C   UNL     1     -10.288  10.346   6.188  1.00  0.00     0.031 C 
ATOM     60  C   UNL     1      -8.640  12.189   6.006  1.00  0.00     0.031 A 
BRANCH  47  61
ATOM     61  C   UNL     1      -3.372  13.855   3.229  1.00  0.00    -0.014 A 
ATOM     62  C   UNL     1      -3.231  14.571   2.026  1.00  0.00     0.010 A 
ATOM     63  C   UNL     1      -2.516  14.153   4.305  1.00  0.00     0.010 A 
ATOM     64  C   UNL     1      -2.229  15.535   1.888  1.00  0.00     0.020 A 
ATOM     65  C   UNL     1      -1.532  15.139   4.181  1.00  0.00     0.020 A 
ATOM     66  C   UNL     1      -1.385  15.813   2.967  1.00  0.00     0.054 A 
BRANCH  66  67
ATOM     67  S   UNL     1      -0.114  17.091   2.768  1.00  0.00     0.124 S 
ATOM     68  O   UNL     1       0.838  16.431   1.877  1.00  0.00    -0.237 OA
ATOM     69  O   UNL     1      -0.863  18.197   2.178  1.00  0.00    -0.237 OA
ATOM     70  O   UNL     1       0.364  17.320   4.129  1.00  0.00    -0.744 OA
ENDBRANCH  66  67
ENDBRANCH  47  61
BRANCH  48  71
ATOM     71  C   UNL     1     -10.244   6.646   4.160  1.00  0.00    -0.014 A 
ATOM     72  C   UNL     1     -11.565   6.844   3.720  1.00  0.00     0.010 A 
ATOM     73  C   UNL     1      -9.899   5.419   4.756  1.00  0.00     0.010 A 
ATOM     74  C   UNL     1     -12.528   5.846   3.896  1.00  0.00     0.020 A 
ATOM     75  C   UNL     1     -10.852   4.407   4.906  1.00  0.00     0.020 A 
ATOM     76  C   UNL     1     -12.164   4.633   4.488  1.00  0.00     0.054 A 
BRANCH  76  77
ATOM     77  S   UNL     1     -13.423   3.340   4.675  1.00  0.00     0.124 S 
ATOM     78  O   UNL     1     -14.243   3.869   5.759  1.00  0.00    -0.237 OA
ATOM     79  O   UNL     1     -14.050   3.319   3.356  1.00  0.00    -0.237 OA
ATOM     80  O   UNL     1     -12.641   2.149   5.003  1.00  0.00    -0.744 OA
ENDBRANCH  76  77
ENDBRANCH  48  71
BRANCH  60  81
ATOM     81  C   UNL     1      -9.482  12.983   6.969  1.00  0.00    -0.014 A 
ATOM     82  C   UNL     1      -9.566  12.636   8.329  1.00  0.00     0.010 A 
ATOM     83  C   UNL     1     -10.161  14.128   6.511  1.00  0.00     0.010 A 
ATOM     84  C   UNL     1     -10.341  13.399   9.206  1.00  0.00     0.020 A 
ATOM     85  C   UNL     1     -10.912  14.911   7.391  1.00  0.00     0.020 A 
ATOM     86  C   UNL     1     -11.009  14.532   8.731  1.00  0.00     0.054 A 
BRANCH  86  87
ATOM     87  S   UNL     1     -11.975  15.528   9.899  1.00  0.00     0.124 S 
ATOM     88  O   UNL     1     -13.138  14.678  10.134  1.00  0.00    -0.237 OA
ATOM     89  O   UNL     1     -11.061  15.671  11.030  1.00  0.00    -0.237 OA
ATOM     90  O   UNL     1     -12.243  16.762   9.163  1.00  0.00    -0.744 OA
ENDBRANCH  86  87
ENDBRANCH  60  81
ENDBRANCH  34  35
ENDBRANCH  26  29
ENDBRANCH  24  25
ENDBRANCH   1  24
TORSDOF 17
