REMARK SMILES CO[C@@H]1C[C@H](C(=O)NCCCNC(=O)c2ccc(-c3c4nc(c(-c5ccc(S(=O)(=O)[O-])cc5)c5ccc([nH]5)c(-c5ccc(S(=O)(=O)[O-])cc5)c5nc(c(-c6ccc(S(=O)(=O)[O-])cc6)c6ccc3[nH]6)C=C5)C=C4)cc2)N(C(=O)[C@H](CC(C)C)NC(N)=O)C1
REMARK SMILES IDX 9 1 8 2 6 3 7 4 5 6 3 7 4 8 87 9 75 10 2 11 1 12 76 13 77 14
REMARK SMILES IDX 78 15 83 16 84 17 85 19 86 20 79 23 80 24 81 25 82 26 10 27
REMARK SMILES IDX 11 28 12 29 13 30 14 32 15 33 16 34 74 35 17 36 73 37 18 38
REMARK SMILES IDX 19 39 20 40 67 41 21 42 72 43 66 44 68 45 22 46 71 47 65 48
REMARK SMILES IDX 64 49 23 51 53 52 34 53 52 54 35 55 38 56 51 57 69 58 36 59
REMARK SMILES IDX 37 60 50 62 70 63 39 64 24 65 25 66 33 67 26 68 32 69 27 70
REMARK SMILES IDX 28 71 29 72 30 73 31 74 54 75 55 76 63 77 56 78 62 79 57 80
REMARK SMILES IDX 58 81 59 82 60 83 61 84 40 85 41 86 49 87 42 88 48 89 43 90
REMARK SMILES IDX 44 91 45 92 46 93 47 94
REMARK H PARENT 8 5 83 18 85 21 85 22 12 31 68 50 38 61
REMARK Flexibility Score: inf
ROOT
ATOM      1  C   UNL     1       1.684  -3.652  -3.189  1.00  0.00     0.117 C 
ENDROOT
BRANCH   1   2
ATOM      2  N   UNL     1       1.374  -4.785  -2.327  1.00  0.00    -0.354 N 
ATOM      3  C   UNL     1       2.055  -5.543  -1.438  1.00  0.00     0.242 C 
ATOM      4  O   UNL     1       1.391  -6.468  -0.941  1.00  0.00    -0.273 OA
ATOM      5  H   UNL     1       0.435  -5.069  -2.413  1.00  0.00     0.163 HD
BRANCH   3   6
ATOM      6  C   UNL     1       3.556  -5.455  -1.059  1.00  0.00     0.177 C 
ATOM      7  C   UNL     1       4.936  -5.767  -2.988  1.00  0.00     0.139 C 
ATOM      8  C   UNL     1       4.408  -6.506  -1.763  1.00  0.00     0.069 C 
ATOM      9  C   UNL     1       5.139  -4.329  -2.465  1.00  0.00     0.152 C 
ATOM     10  N   UNL     1       4.332  -4.236  -1.244  1.00  0.00    -0.326 N 
BRANCH   7  11
ATOM     11  O   UNL     1       4.006  -5.760  -4.064  1.00  0.00    -0.380 OA
ATOM     12  C   UNL     1       3.596  -7.049  -4.510  1.00  0.00     0.195 C 
ENDBRANCH   7  11
BRANCH  10  13
ATOM     13  C   UNL     1       4.672  -3.307  -0.276  1.00  0.00     0.246 C 
ATOM     14  O   UNL     1       5.278  -2.270  -0.571  1.00  0.00    -0.272 OA
BRANCH  13  15
ATOM     15  C   UNL     1       4.333  -3.613   1.210  1.00  0.00     0.173 C 
BRANCH  15  16
ATOM     16  N   UNL     1       5.408  -3.062   2.029  1.00  0.00    -0.327 N 
ATOM     17  C   UNL     1       6.236  -3.859   2.753  1.00  0.00     0.312 C 
ATOM     18  H   UNL     1       5.536  -2.086   2.057  1.00  0.00     0.166 HD
ATOM     19  N   UNL     1       7.132  -3.172   3.491  1.00  0.00    -0.352 N 
ATOM     20  O   UNL     1       6.183  -5.084   2.799  1.00  0.00    -0.249 OA
ATOM     21  H   UNL     1       7.160  -2.189   3.442  1.00  0.00     0.161 HD
ATOM     22  H   UNL     1       7.758  -3.654   4.079  1.00  0.00     0.161 HD
ENDBRANCH  15  16
BRANCH  15  23
ATOM     23  C   UNL     1       2.953  -3.071   1.596  1.00  0.00     0.038 C 
BRANCH  23  24
ATOM     24  C   UNL     1       2.519  -3.443   3.035  1.00  0.00    -0.015 C 
ATOM     25  C   UNL     1       3.070  -2.473   4.085  1.00  0.00     0.007 C 
ATOM     26  C   UNL     1       0.992  -3.464   3.136  1.00  0.00     0.007 C 
ENDBRANCH  23  24
ENDBRANCH  15  23
ENDBRANCH  13  15
ENDBRANCH  10  13
ENDBRANCH   3   6
ENDBRANCH   1   2
BRANCH   1  27
ATOM     27  C   UNL     1       1.513  -3.952  -4.687  1.00  0.00     0.042 C 
BRANCH  27  28
ATOM     28  C   UNL     1       0.151  -4.500  -5.117  1.00  0.00     0.118 C 
BRANCH  28  29
ATOM     29  N   UNL     1      -0.775  -3.438  -5.466  1.00  0.00    -0.352 N 
ATOM     30  C   UNL     1      -1.304  -3.106  -6.691  1.00  0.00     0.251 C 
ATOM     31  H   UNL     1      -1.068  -2.873  -4.715  1.00  0.00     0.163 HD
ATOM     32  O   UNL     1      -1.846  -2.010  -6.823  1.00  0.00    -0.269 OA
BRANCH  30  33
ATOM     33  C   UNL     1      -1.240  -4.034  -7.850  1.00  0.00     0.039 A 
ATOM     34  C   UNL     1      -1.012  -3.498  -9.123  1.00  0.00     0.014 A 
ATOM     35  C   UNL     1      -1.506  -5.401  -7.721  1.00  0.00     0.014 A 
ATOM     36  C   UNL     1      -1.032  -4.326 -10.253  1.00  0.00     0.010 A 
ATOM     37  C   UNL     1      -1.473  -6.236  -8.844  1.00  0.00     0.010 A 
ATOM     38  C   UNL     1      -1.257  -5.706 -10.126  1.00  0.00    -0.014 A 
BRANCH  38  39
ATOM     39  C   UNL     1      -1.304  -6.587 -11.328  1.00  0.00     0.031 A 
ATOM     40  C   UNL     1      -2.593  -7.260 -11.732  1.00  0.00     0.074 A 
ATOM     41  C   UNL     1      -0.185  -6.808 -12.048  1.00  0.00     0.049 A 
ATOM     42  N   UNL     1      -2.820  -8.079 -12.729  1.00  0.00    -0.248 NA
ATOM     43  C   UNL     1      -3.777  -6.992 -10.900  1.00  0.00     0.031 C 
ATOM     44  C   UNL     1       1.136  -6.248 -11.756  1.00  0.00     0.029 A 
ATOM     45  N   UNL     1       0.020  -7.568 -13.175  1.00  0.00    -0.354 N 
ATOM     46  C   UNL     1      -4.160  -8.439 -12.632  1.00  0.00     0.074 A 
ATOM     47  C   UNL     1      -4.688  -7.776 -11.459  1.00  0.00     0.031 C 
ATOM     48  C   UNL     1       2.008  -6.667 -12.688  1.00  0.00     0.029 A 
ATOM     49  C   UNL     1       1.319  -7.548 -13.627  1.00  0.00     0.049 A 
ATOM     50  H   UNL     1      -0.696  -8.079 -13.617  1.00  0.00     0.167 HD
ATOM     51  C   UNL     1      -4.891  -9.234 -13.450  1.00  0.00     0.031 A 
ATOM     52  C   UNL     1       1.896  -8.169 -14.675  1.00  0.00     0.031 A 
ATOM     53  C   UNL     1      -4.380  -9.872 -14.635  1.00  0.00     0.049 A 
ATOM     54  C   UNL     1       1.059  -9.039 -15.575  1.00  0.00     0.074 A 
ATOM     55  C   UNL     1      -5.065 -10.645 -15.559  1.00  0.00     0.029 A 
ATOM     56  N   UNL     1      -3.064  -9.812 -15.063  1.00  0.00    -0.354 N 
ATOM     57  N   UNL     1      -0.221  -9.314 -15.496  1.00  0.00    -0.248 NA
ATOM     58  C   UNL     1       1.743  -9.670 -16.713  1.00  0.00     0.031 C 
ATOM     59  C   UNL     1      -4.153 -11.085 -16.524  1.00  0.00     0.029 A 
ATOM     60  C   UNL     1      -2.912 -10.548 -16.227  1.00  0.00     0.049 A 
ATOM     61  H   UNL     1      -2.344  -9.319 -14.608  1.00  0.00     0.167 HD
ATOM     62  C   UNL     1      -0.499 -10.131 -16.587  1.00  0.00     0.074 A 
ATOM     63  C   UNL     1       0.740 -10.291 -17.319  1.00  0.00     0.031 C 
ATOM     64  C   UNL     1      -1.675 -10.698 -16.949  1.00  0.00     0.031 A 
BRANCH  51  65
ATOM     65  C   UNL     1      -6.338  -9.465 -13.097  1.00  0.00    -0.014 A 
ATOM     66  C   UNL     1      -7.297  -8.452 -13.269  1.00  0.00     0.010 A 
ATOM     67  C   UNL     1      -6.755 -10.734 -12.653  1.00  0.00     0.010 A 
ATOM     68  C   UNL     1      -8.643  -8.694 -12.976  1.00  0.00     0.020 A 
ATOM     69  C   UNL     1      -8.103 -10.987 -12.382  1.00  0.00     0.020 A 
ATOM     70  C   UNL     1      -9.037  -9.960 -12.533  1.00  0.00     0.054 A 
BRANCH  70  71
ATOM     71  S   UNL     1     -10.795 -10.258 -12.198  1.00  0.00     0.124 S 
ATOM     72  O   UNL     1     -10.985  -9.551 -10.934  1.00  0.00    -0.237 OA
ATOM     73  O   UNL     1     -11.449  -9.657 -13.358  1.00  0.00    -0.237 OA
ATOM     74  O   UNL     1     -10.891 -11.713 -12.119  1.00  0.00    -0.744 OA
ENDBRANCH  70  71
ENDBRANCH  51  65
BRANCH  52  75
ATOM     75  C   UNL     1       3.350  -7.991 -14.942  1.00  0.00    -0.014 A 
ATOM     76  C   UNL     1       3.787  -7.242 -16.049  1.00  0.00     0.010 A 
ATOM     77  C   UNL     1       4.305  -8.582 -14.095  1.00  0.00     0.010 A 
ATOM     78  C   UNL     1       5.152  -7.110 -16.320  1.00  0.00     0.020 A 
ATOM     79  C   UNL     1       5.671  -8.430 -14.348  1.00  0.00     0.020 A 
ATOM     80  C   UNL     1       6.086  -7.708 -15.468  1.00  0.00     0.054 A 
BRANCH  80  81
ATOM     81  S   UNL     1       7.854  -7.496 -15.814  1.00  0.00     0.124 S 
ATOM     82  O   UNL     1       8.065  -8.443 -16.904  1.00  0.00    -0.237 OA
ATOM     83  O   UNL     1       7.941  -6.083 -16.177  1.00  0.00    -0.237 OA
ATOM     84  O   UNL     1       8.492  -7.845 -14.546  1.00  0.00    -0.744 OA
ENDBRANCH  80  81
ENDBRANCH  52  75
BRANCH  64  85
ATOM     85  C   UNL     1      -1.689 -11.520 -18.210  1.00  0.00    -0.014 A 
ATOM     86  C   UNL     1      -1.102 -12.797 -18.252  1.00  0.00     0.010 A 
ATOM     87  C   UNL     1      -2.338 -11.024 -19.356  1.00  0.00     0.010 A 
ATOM     88  C   UNL     1      -1.133 -13.549 -19.429  1.00  0.00     0.020 A 
ATOM     89  C   UNL     1      -2.392 -11.784 -20.527  1.00  0.00     0.020 A 
ATOM     90  C   UNL     1      -1.775 -13.036 -20.561  1.00  0.00     0.054 A 
BRANCH  90  91
ATOM     91  S   UNL     1      -1.833 -14.045 -22.067  1.00  0.00     0.124 S 
ATOM     92  O   UNL     1      -0.480 -13.886 -22.592  1.00  0.00    -0.237 OA
ATOM     93  O   UNL     1      -2.156 -15.374 -21.554  1.00  0.00    -0.237 OA
ATOM     94  O   UNL     1      -2.888 -13.419 -22.862  1.00  0.00    -0.744 OA
ENDBRANCH  90  91
ENDBRANCH  64  85
ENDBRANCH  38  39
ENDBRANCH  30  33
ENDBRANCH  28  29
ENDBRANCH  27  28
ENDBRANCH   1  27
TORSDOF 19
