REMARK SMILES COc1ccc(N2CC[C@H](C(=O)NCCCNC(=O)c3ccc(-c4c5nc(c(-c6ccc(S(=O)(=O)[O-])cc6)c6ccc([nH]6)c(-c6ccc(S(=O)(=O)[O-])cc6)c6nc(c(-c7ccc(S(=O)(=O)[O-])cc7)c7ccc4[nH]7)C=C6)C=C5)cc3)C2=O)cc1
REMARK SMILES IDX 15 1 14 2 13 3 11 4 12 5 10 7 7 8 8 9 80 10 9 11 81 12 6 13
REMARK SMILES IDX 3 14 4 15 83 16 5 17 82 18 2 19 1 20 16 21 17 22 18 23 19 25
REMARK SMILES IDX 20 26 21 27 79 28 22 29 78 30 23 31 24 32 25 33 72 34 26 35
REMARK SMILES IDX 77 36 71 37 73 38 27 39 76 40 70 41 69 42 28 44 58 45 39 46
REMARK SMILES IDX 57 47 40 48 43 49 56 50 74 51 41 52 42 53 55 55 75 56 44 57
REMARK SMILES IDX 29 58 30 59 38 60 31 61 37 62 32 63 33 64 34 65 35 66 36 67
REMARK SMILES IDX 59 68 60 69 68 70 61 71 67 72 62 73 63 74 64 75 65 76 66 77
REMARK SMILES IDX 45 78 46 79 54 80 47 81 53 82 48 83 49 84 50 85 51 86 52 87
REMARK H PARENT 13 6 17 24 73 43 43 54
REMARK Flexibility Score: inf
ROOT
ATOM      1  C   UNL     1       7.309  -4.898   7.582  1.00  0.00     0.042 C 
ENDROOT
BRANCH   1   2
ATOM      2  C   UNL     1       6.099  -5.813   7.720  1.00  0.00     0.117 C 
BRANCH   2   3
ATOM      3  N   UNL     1       5.040  -5.197   8.499  1.00  0.00    -0.355 N 
ATOM      4  C   UNL     1       3.831  -4.704   8.112  1.00  0.00     0.232 C 
ATOM      5  O   UNL     1       3.141  -4.151   8.971  1.00  0.00    -0.274 OA
ATOM      6  H   UNL     1       5.226  -5.123   9.463  1.00  0.00     0.163 HD
BRANCH   4   7
ATOM      7  C   UNL     1       3.340  -4.903   6.699  1.00  0.00     0.169 C 
ATOM      8  N   UNL     1       1.999  -3.636   5.241  1.00  0.00    -0.312 N 
ATOM      9  C   UNL     1       1.278  -4.861   5.474  1.00  0.00     0.127 C 
ATOM     10  C   UNL     1       3.223  -3.619   5.918  1.00  0.00     0.239 C 
ATOM     11  C   UNL     1       1.912  -5.449   6.712  1.00  0.00     0.045 C 
ATOM     12  O   UNL     1       4.101  -2.762   5.870  1.00  0.00    -0.274 OA
BRANCH   8  13
ATOM     13  C   UNL     1       1.581  -2.710   4.258  1.00  0.00     0.044 A 
ATOM     14  C   UNL     1       0.722  -0.966   2.216  1.00  0.00     0.119 A 
ATOM     15  C   UNL     1      -0.202  -1.555   3.078  1.00  0.00     0.048 A 
ATOM     16  C   UNL     1       2.079  -1.221   2.397  1.00  0.00     0.048 A 
ATOM     17  C   UNL     1       0.221  -2.441   4.072  1.00  0.00     0.030 A 
ATOM     18  C   UNL     1       2.506  -2.071   3.426  1.00  0.00     0.030 A 
BRANCH  14  19
ATOM     19  O   UNL     1       0.187  -0.135   1.271  1.00  0.00    -0.497 OA
ATOM     20  C   UNL     1       0.946   0.009   0.076  1.00  0.00     0.278 C 
ENDBRANCH  14  19
ENDBRANCH   8  13
ENDBRANCH   4   7
ENDBRANCH   2   3
ENDBRANCH   1   2
BRANCH   1  21
ATOM     21  C   UNL     1       8.019  -4.612   8.902  1.00  0.00     0.118 C 
BRANCH  21  22
ATOM     22  N   UNL     1       8.591  -5.811   9.505  1.00  0.00    -0.352 N 
ATOM     23  C   UNL     1       9.897  -6.088   9.835  1.00  0.00     0.251 C 
ATOM     24  H   UNL     1       7.947  -6.528   9.706  1.00  0.00     0.163 HD
ATOM     25  O   UNL     1      10.216  -7.224  10.170  1.00  0.00    -0.269 OA
BRANCH  23  26
ATOM     26  C   UNL     1      10.913  -5.018   9.765  1.00  0.00     0.039 A 
ATOM     27  C   UNL     1      12.138  -5.277   9.143  1.00  0.00     0.014 A 
ATOM     28  C   UNL     1      10.649  -3.757  10.303  1.00  0.00     0.014 A 
ATOM     29  C   UNL     1      13.067  -4.244   8.987  1.00  0.00     0.010 A 
ATOM     30  C   UNL     1      11.541  -2.714  10.083  1.00  0.00     0.010 A 
ATOM     31  C   UNL     1      12.757  -2.945   9.419  1.00  0.00    -0.014 A 
BRANCH  31  32
ATOM     32  C   UNL     1      13.674  -1.797   9.205  1.00  0.00     0.031 A 
ATOM     33  C   UNL     1      14.231  -1.065  10.396  1.00  0.00     0.074 A 
ATOM     34  C   UNL     1      13.911  -1.344   7.958  1.00  0.00     0.049 A 
ATOM     35  N   UNL     1      14.877   0.071  10.439  1.00  0.00    -0.248 NA
ATOM     36  C   UNL     1      14.002  -1.679  11.714  1.00  0.00     0.031 C 
ATOM     37  C   UNL     1      13.418  -1.956   6.722  1.00  0.00     0.029 A 
ATOM     38  N   UNL     1      14.610  -0.244   7.526  1.00  0.00    -0.354 N 
ATOM     39  C   UNL     1      15.101   0.325  11.787  1.00  0.00     0.074 A 
ATOM     40  C   UNL     1      14.492  -0.757  12.530  1.00  0.00     0.031 C 
ATOM     41  C   UNL     1      13.837  -1.228   5.673  1.00  0.00     0.029 A 
ATOM     42  C   UNL     1      14.580  -0.071   6.162  1.00  0.00     0.049 A 
ATOM     43  H   UNL     1      15.088   0.364   8.136  1.00  0.00     0.167 HD
ATOM     44  C   UNL     1      15.764   1.360  12.355  1.00  0.00     0.031 A 
ATOM     45  C   UNL     1      15.074   0.919   5.393  1.00  0.00     0.031 A 
ATOM     46  C   UNL     1      16.383   2.423  11.611  1.00  0.00     0.049 A 
ATOM     47  C   UNL     1      15.794   2.068   6.047  1.00  0.00     0.074 A 
ATOM     48  C   UNL     1      17.108   3.499  12.090  1.00  0.00     0.029 A 
ATOM     49  N   UNL     1      16.357   2.539  10.229  1.00  0.00    -0.354 N 
ATOM     50  N   UNL     1      16.017   2.280   7.322  1.00  0.00    -0.248 NA
ATOM     51  C   UNL     1      16.333   3.108   5.160  1.00  0.00     0.031 C 
ATOM     52  C   UNL     1      17.491   4.287  11.000  1.00  0.00     0.029 A 
ATOM     53  C   UNL     1      17.049   3.672   9.839  1.00  0.00     0.049 A 
ATOM     54  H   UNL     1      15.913   1.910   9.617  1.00  0.00     0.167 HD
ATOM     55  C   UNL     1      16.759   3.454   7.386  1.00  0.00     0.074 A 
ATOM     56  C   UNL     1      16.944   3.909   6.023  1.00  0.00     0.031 C 
ATOM     57  C   UNL     1      17.248   4.094   8.476  1.00  0.00     0.031 A 
BRANCH  44  58
ATOM     58  C   UNL     1      15.845   1.393  13.858  1.00  0.00    -0.014 A 
ATOM     59  C   UNL     1      16.638   0.469  14.562  1.00  0.00     0.010 A 
ATOM     60  C   UNL     1      15.145   2.380  14.575  1.00  0.00     0.010 A 
ATOM     61  C   UNL     1      16.694   0.502  15.957  1.00  0.00     0.020 A 
ATOM     62  C   UNL     1      15.221   2.435  15.970  1.00  0.00     0.020 A 
ATOM     63  C   UNL     1      15.981   1.483  16.653  1.00  0.00     0.054 A 
BRANCH  63  64
ATOM     64  S   UNL     1      16.085   1.513  18.463  1.00  0.00     0.124 S 
ATOM     65  O   UNL     1      15.252   0.370  18.830  1.00  0.00    -0.237 OA
ATOM     66  O   UNL     1      17.516   1.351  18.706  1.00  0.00    -0.237 OA
ATOM     67  O   UNL     1      15.540   2.821  18.820  1.00  0.00    -0.744 OA
ENDBRANCH  63  64
ENDBRANCH  44  58
BRANCH  45  68
ATOM     68  C   UNL     1      14.912   0.866   3.914  1.00  0.00    -0.014 A 
ATOM     69  C   UNL     1      16.022   0.614   3.088  1.00  0.00     0.010 A 
ATOM     70  C   UNL     1      13.650   1.058   3.322  1.00  0.00     0.010 A 
ATOM     71  C   UNL     1      15.878   0.576   1.698  1.00  0.00     0.020 A 
ATOM     72  C   UNL     1      13.497   0.994   1.934  1.00  0.00     0.020 A 
ATOM     73  C   UNL     1      14.616   0.766   1.130  1.00  0.00     0.054 A 
BRANCH  73  74
ATOM     74  S   UNL     1      14.445   0.667  -0.674  1.00  0.00     0.124 S 
ATOM     75  O   UNL     1      15.028   1.933  -1.104  1.00  0.00    -0.237 OA
ATOM     76  O   UNL     1      15.218  -0.529  -1.000  1.00  0.00    -0.237 OA
ATOM     77  O   UNL     1      13.003   0.540  -0.874  1.00  0.00    -0.744 OA
ENDBRANCH  73  74
ENDBRANCH  45  68
BRANCH  57  78
ATOM     78  C   UNL     1      18.094   5.317   8.252  1.00  0.00    -0.014 A 
ATOM     79  C   UNL     1      17.523   6.549   7.894  1.00  0.00     0.010 A 
ATOM     80  C   UNL     1      19.478   5.246   8.502  1.00  0.00     0.010 A 
ATOM     81  C   UNL     1      18.323   7.690   7.782  1.00  0.00     0.020 A 
ATOM     82  C   UNL     1      20.276   6.388   8.414  1.00  0.00     0.020 A 
ATOM     83  C   UNL     1      19.694   7.603   8.048  1.00  0.00     0.054 A 
BRANCH  83  84
ATOM     84  S   UNL     1      20.697   9.113   7.978  1.00  0.00     0.124 S 
ATOM     85  O   UNL     1      20.809   9.337   6.540  1.00  0.00    -0.237 OA
ATOM     86  O   UNL     1      19.875  10.079   8.703  1.00  0.00    -0.237 OA
ATOM     87  O   UNL     1      21.940   8.735   8.648  1.00  0.00    -0.744 OA
ENDBRANCH  83  84
ENDBRANCH  57  78
ENDBRANCH  31  32
ENDBRANCH  23  26
ENDBRANCH  21  22
ENDBRANCH   1  21
TORSDOF 15
