REMARK SMILES Cc1cnc(NC(=O)NC[C@H]2CC[C@H](C(=O)NCCCNC(=O)c3ccc(-c4c5nc(c(-c6ccc(S(=O)(=O)[O-])cc6)c6ccc([nH]6)c(-c6ccc(S(=O)(=O)[O-])cc6)c6nc(c(-c7ccc(S(=O)(=O)[O-])cc7)c7ccc4[nH]7)C=C6)C=C5)cc3)O2)s1
REMARK SMILES IDX 19 1 18 2 17 3 15 4 16 5 14 7 11 8 12 9 84 10 13 11 10 12
REMARK SMILES IDX 9 13 6 14 7 15 8 17 5 19 1 20 2 21 3 22 85 23 4 24 20 25
REMARK SMILES IDX 21 26 22 27 23 29 24 30 25 31 83 32 26 33 82 34 27 35 28 36
REMARK SMILES IDX 29 37 76 38 30 39 81 40 75 41 77 42 31 43 80 44 74 45 73 46
REMARK SMILES IDX 32 48 62 49 43 50 61 51 44 52 47 53 60 54 78 55 45 56 46 57
REMARK SMILES IDX 59 59 79 60 48 61 33 62 34 63 42 64 35 65 41 66 36 67 37 68
REMARK SMILES IDX 38 69 39 70 40 71 63 72 64 73 72 74 65 75 71 76 66 77 67 78
REMARK SMILES IDX 68 79 69 80 70 81 49 82 50 83 58 84 51 85 57 86 52 87 53 88
REMARK SMILES IDX 54 89 55 90 56 91
REMARK H PARENT 17 6 6 16 9 18 21 28 77 47 47 58
REMARK Flexibility Score: inf
ROOT
ATOM      1  C   UNL     1      -2.927   4.505  -1.528  1.00  0.00     0.042 C 
ENDROOT
BRANCH   1   2
ATOM      2  C   UNL     1      -2.752   3.018  -1.817  1.00  0.00     0.117 C 
BRANCH   2   3
ATOM      3  N   UNL     1      -2.682   2.733  -3.231  1.00  0.00    -0.354 N 
ATOM      4  C   UNL     1      -1.614   2.406  -4.013  1.00  0.00     0.249 C 
ATOM      5  O   UNL     1      -1.851   2.141  -5.197  1.00  0.00    -0.272 OA
ATOM      6  H   UNL     1      -3.543   2.782  -3.706  1.00  0.00     0.163 HD
BRANCH   4   7
ATOM      7  C   UNL     1      -0.154   2.441  -3.494  1.00  0.00     0.207 C 
ATOM      8  C   UNL     1       0.672   2.742  -1.321  1.00  0.00     0.138 C 
ATOM      9  C   UNL     1       0.617   4.108  -1.966  1.00  0.00     0.037 C 
ATOM     10  O   UNL     1       0.135   1.793  -2.254  1.00  0.00    -0.363 OA
ATOM     11  C   UNL     1       0.383   3.859  -3.427  1.00  0.00     0.045 C 
BRANCH   8  12
ATOM     12  C   UNL     1       2.004   2.277  -0.719  1.00  0.00     0.149 C 
BRANCH  12  13
ATOM     13  N   UNL     1       3.037   1.809  -1.629  1.00  0.00    -0.335 N 
ATOM     14  N   UNL     1       4.464   3.527  -2.495  1.00  0.00    -0.284 N 
ATOM     15  C   UNL     1       4.082   2.263  -2.317  1.00  0.00     0.321 C 
ATOM     16  H   UNL     1       5.155   3.613  -3.191  1.00  0.00     0.174 HD
ATOM     17  O   UNL     1       4.700   1.401  -2.958  1.00  0.00    -0.248 OA
ATOM     18  H   UNL     1       2.928   0.844  -1.788  1.00  0.00     0.165 HD
BRANCH  14  19
ATOM     19  C   UNL     1       4.132   4.724  -1.951  1.00  0.00     0.190 A 
ATOM     20  C   UNL     1       2.251   7.145   0.319  1.00  0.00     0.058 C 
ATOM     21  C   UNL     1       3.154   6.465  -0.641  1.00  0.00     0.023 A 
ATOM     22  C   UNL     1       3.501   6.822  -1.930  1.00  0.00     0.128 A 
ATOM     23  S   UNL     1       3.889   4.954  -0.284  1.00  0.00    -0.102 S 
ATOM     24  N   UNL     1       4.121   5.827  -2.663  1.00  0.00    -0.228 NA
ENDBRANCH  14  19
ENDBRANCH  12  13
ENDBRANCH   8  12
ENDBRANCH   4   7
ENDBRANCH   2   3
ENDBRANCH   1   2
BRANCH   1  25
ATOM     25  C   UNL     1      -4.382   4.948  -1.553  1.00  0.00     0.118 C 
BRANCH  25  26
ATOM     26  N   UNL     1      -5.151   4.342  -0.473  1.00  0.00    -0.352 N 
ATOM     27  C   UNL     1      -5.934   4.922   0.492  1.00  0.00     0.251 C 
ATOM     28  H   UNL     1      -5.099   3.360  -0.429  1.00  0.00     0.163 HD
ATOM     29  O   UNL     1      -6.313   4.246   1.443  1.00  0.00    -0.269 OA
BRANCH  27  30
ATOM     30  C   UNL     1      -6.307   6.349   0.396  1.00  0.00     0.039 A 
ATOM     31  C   UNL     1      -6.367   7.109   1.567  1.00  0.00     0.014 A 
ATOM     32  C   UNL     1      -6.624   6.931  -0.834  1.00  0.00     0.014 A 
ATOM     33  C   UNL     1      -6.692   8.465   1.496  1.00  0.00     0.010 A 
ATOM     34  C   UNL     1      -6.858   8.299  -0.914  1.00  0.00     0.010 A 
ATOM     35  C   UNL     1      -6.906   9.078   0.251  1.00  0.00    -0.014 A 
BRANCH  35  36
ATOM     36  C   UNL     1      -7.188  10.530   0.144  1.00  0.00     0.031 A 
ATOM     37  C   UNL     1      -8.498  11.005  -0.423  1.00  0.00     0.074 A 
ATOM     38  C   UNL     1      -6.236  11.416   0.498  1.00  0.00     0.049 A 
ATOM     39  N   UNL     1      -8.900  12.227  -0.653  1.00  0.00    -0.248 NA
ATOM     40  C   UNL     1      -9.473   9.970  -0.809  1.00  0.00     0.031 C 
ATOM     41  C   UNL     1      -4.910  11.073   1.020  1.00  0.00     0.029 A 
ATOM     42  N   UNL     1      -6.233  12.787   0.466  1.00  0.00    -0.354 N 
ATOM     43  C   UNL     1     -10.162  12.109  -1.225  1.00  0.00     0.074 A 
ATOM     44  C   UNL     1     -10.437  10.696  -1.357  1.00  0.00     0.031 C 
ATOM     45  C   UNL     1      -4.236  12.202   1.287  1.00  0.00     0.029 A 
ATOM     46  C   UNL     1      -5.059  13.347   0.912  1.00  0.00     0.049 A 
ATOM     47  H   UNL     1      -6.999  13.320   0.152  1.00  0.00     0.167 HD
ATOM     48  C   UNL     1     -11.023  13.090  -1.588  1.00  0.00     0.031 A 
ATOM     49  C   UNL     1      -4.683  14.637   1.002  1.00  0.00     0.031 A 
ATOM     50  C   UNL     1     -10.745  14.494  -1.443  1.00  0.00     0.049 A 
ATOM     51  C   UNL     1      -5.653  15.708   0.583  1.00  0.00     0.074 A 
ATOM     52  C   UNL     1     -11.570  15.568  -1.727  1.00  0.00     0.029 A 
ATOM     53  N   UNL     1      -9.549  15.019  -0.976  1.00  0.00    -0.354 N 
ATOM     54  N   UNL     1      -6.869  15.576   0.108  1.00  0.00    -0.248 NA
ATOM     55  C   UNL     1      -5.206  17.099   0.726  1.00  0.00     0.031 C 
ATOM     56  C   UNL     1     -10.852  16.743  -1.487  1.00  0.00     0.029 A 
ATOM     57  C   UNL     1      -9.604  16.402  -0.989  1.00  0.00     0.049 A 
ATOM     58  H   UNL     1      -8.775  14.488  -0.679  1.00  0.00     0.167 HD
ATOM     59  C   UNL     1      -7.343  16.870  -0.078  1.00  0.00     0.074 A 
ATOM     60  C   UNL     1      -6.289  17.767   0.351  1.00  0.00     0.031 C 
ATOM     61  C   UNL     1      -8.544  17.279  -0.557  1.00  0.00     0.031 A 
BRANCH  48  62
ATOM     62  C   UNL     1     -12.344  12.677  -2.184  1.00  0.00    -0.014 A 
ATOM     63  C   UNL     1     -13.326  12.036  -1.406  1.00  0.00     0.010 A 
ATOM     64  C   UNL     1     -12.627  12.972  -3.530  1.00  0.00     0.010 A 
ATOM     65  C   UNL     1     -14.548  11.662  -1.972  1.00  0.00     0.020 A 
ATOM     66  C   UNL     1     -13.860  12.629  -4.093  1.00  0.00     0.020 A 
ATOM     67  C   UNL     1     -14.806  11.961  -3.313  1.00  0.00     0.054 A 
BRANCH  67  68
ATOM     68  S   UNL     1     -16.412  11.489  -4.013  1.00  0.00     0.124 S 
ATOM     69  O   UNL     1     -16.288  10.036  -4.096  1.00  0.00    -0.237 OA
ATOM     70  O   UNL     1     -17.354  11.983  -3.012  1.00  0.00    -0.237 OA
ATOM     71  O   UNL     1     -16.450  12.184  -5.297  1.00  0.00    -0.744 OA
ENDBRANCH  67  68
ENDBRANCH  48  62
BRANCH  49  72
ATOM     72  C   UNL     1      -3.331  14.983   1.521  1.00  0.00    -0.014 A 
ATOM     73  C   UNL     1      -3.182  15.608   2.771  1.00  0.00     0.010 A 
ATOM     74  C   UNL     1      -2.182  14.672   0.771  1.00  0.00     0.010 A 
ATOM     75  C   UNL     1      -1.911  15.933   3.254  1.00  0.00     0.020 A 
ATOM     76  C   UNL     1      -0.908  14.967   1.264  1.00  0.00     0.020 A 
ATOM     77  C   UNL     1      -0.781  15.606   2.499  1.00  0.00     0.054 A 
BRANCH  77  78
ATOM     78  S   UNL     1       0.861  15.988   3.169  1.00  0.00     0.124 S 
ATOM     79  O   UNL     1       0.914  17.440   3.033  1.00  0.00    -0.237 OA
ATOM     80  O   UNL     1       0.767  15.482   4.536  1.00  0.00    -0.237 OA
ATOM     81  O   UNL     1       1.766  15.242   2.298  1.00  0.00    -0.744 OA
ENDBRANCH  77  78
ENDBRANCH  49  72
BRANCH  61  82
ATOM     82  C   UNL     1      -8.801  18.762  -0.608  1.00  0.00    -0.014 A 
ATOM     83  C   UNL     1      -8.149  19.587  -1.540  1.00  0.00     0.010 A 
ATOM     84  C   UNL     1      -9.758  19.325   0.257  1.00  0.00     0.010 A 
ATOM     85  C   UNL     1      -8.424  20.956  -1.583  1.00  0.00     0.020 A 
ATOM     86  C   UNL     1     -10.059  20.687   0.195  1.00  0.00     0.020 A 
ATOM     87  C   UNL     1      -9.380  21.497  -0.717  1.00  0.00     0.054 A 
BRANCH  87  88
ATOM     88  S   UNL     1      -9.752  23.268  -0.826  1.00  0.00     0.124 S 
ATOM     89  O   UNL     1      -8.553  23.866  -0.246  1.00  0.00    -0.237 OA
ATOM     90  O   UNL     1      -9.924  23.471  -2.262  1.00  0.00    -0.237 OA
ATOM     91  O   UNL     1     -10.969  23.416  -0.031  1.00  0.00    -0.744 OA
ENDBRANCH  87  88
ENDBRANCH  61  82
ENDBRANCH  35  36
ENDBRANCH  27  30
ENDBRANCH  25  26
ENDBRANCH   1  25
TORSDOF 16
