REMARK SMILES O=C(NCCCNC(=O)[C@@H]1CCC[N@@H+](Cc2cccc3ccccc23)C1)c1ccc(-c2c3nc(c(-c4ccc(S(=O)(=O)[O-])cc4)c4ccc([nH]4)c(-c4ccc(S(=O)(=O)[O-])cc4)c4nc(c(-c5ccc(S(=O)(=O)[O-])cc5)c5ccc2[nH]5)C=C4)C=C3)cc1
REMARK SMILES IDX 4 1 3 2 1 3 2 4 27 6 28 7 86 8 29 9 85 10 30 11 31 12 32 13
REMARK SMILES IDX 79 14 33 15 84 16 78 17 80 18 34 19 83 20 77 21 76 22 35 24
REMARK SMILES IDX 65 25 46 26 64 27 47 28 50 29 63 30 81 31 48 32 49 33 62 35
REMARK SMILES IDX 82 36 51 37 36 38 37 39 45 40 38 41 44 42 39 43 40 44 41 45
REMARK SMILES IDX 42 46 43 47 66 48 67 49 75 50 68 51 74 52 69 53 70 54 71 55
REMARK SMILES IDX 72 56 73 57 52 58 53 59 61 60 54 61 60 62 55 63 56 64 57 65
REMARK SMILES IDX 58 66 59 67 5 68 6 69 7 70 8 71 9 73 10 74 11 75 26 76 12 77
REMARK SMILES IDX 14 78 13 79 15 81 16 82 17 83 25 84 18 85 20 86 24 87 19 88
REMARK SMILES IDX 21 89 23 90 22 91
REMARK H PARENT 3 5 80 23 50 34 7 72 14 80
REMARK Flexibility Score: inf
ROOT
ATOM      1  C   UNL     1       4.551  -0.827  -1.201  1.00  0.00     0.118 C 
ENDROOT
BRANCH   1   2
ATOM      2  N   UNL     1       3.141  -0.498  -1.021  1.00  0.00    -0.352 N 
ATOM      3  O   UNL     1       1.234   0.098   0.004  1.00  0.00    -0.269 OA
ATOM      4  C   UNL     1       2.464   0.067   0.033  1.00  0.00     0.251 C 
ATOM      5  H   UNL     1       2.572  -0.720  -1.794  1.00  0.00     0.163 HD
BRANCH   4   6
ATOM      6  C   UNL     1       3.183   0.613   1.206  1.00  0.00     0.039 A 
ATOM      7  C   UNL     1       4.353   1.356   1.056  1.00  0.00     0.014 A 
ATOM      8  C   UNL     1       2.647   0.416   2.484  1.00  0.00     0.014 A 
ATOM      9  C   UNL     1       5.074   1.748   2.180  1.00  0.00     0.010 A 
ATOM     10  C   UNL     1       3.326   0.894   3.611  1.00  0.00     0.010 A 
ATOM     11  C   UNL     1       4.570   1.526   3.473  1.00  0.00    -0.014 A 
BRANCH  11  12
ATOM     12  C   UNL     1       5.351   1.995   4.649  1.00  0.00     0.031 A 
ATOM     13  C   UNL     1       5.913   1.020   5.650  1.00  0.00     0.074 A 
ATOM     14  C   UNL     1       5.601   3.313   4.783  1.00  0.00     0.049 A 
ATOM     15  N   UNL     1       6.687   1.254   6.681  1.00  0.00    -0.248 NA
ATOM     16  C   UNL     1       5.558  -0.398   5.482  1.00  0.00     0.031 C 
ATOM     17  C   UNL     1       5.105   4.360   3.884  1.00  0.00     0.029 A 
ATOM     18  N   UNL     1       6.358   3.997   5.700  1.00  0.00    -0.354 N 
ATOM     19  C   UNL     1       6.890   0.024   7.296  1.00  0.00     0.074 A 
ATOM     20  C   UNL     1       6.139  -0.953   6.536  1.00  0.00     0.031 C 
ATOM     21  C   UNL     1       5.626   5.540   4.253  1.00  0.00     0.029 A 
ATOM     22  C   UNL     1       6.441   5.346   5.447  1.00  0.00     0.049 A 
ATOM     23  H   UNL     1       6.799   3.563   6.466  1.00  0.00     0.167 HD
ATOM     24  C   UNL     1       7.636  -0.268   8.390  1.00  0.00     0.031 A 
ATOM     25  C   UNL     1       7.098   6.324   6.099  1.00  0.00     0.031 A 
ATOM     26  C   UNL     1       8.388   0.705   9.140  1.00  0.00     0.049 A 
ATOM     27  C   UNL     1       7.906   5.975   7.316  1.00  0.00     0.074 A 
ATOM     28  C   UNL     1       9.209   0.499  10.237  1.00  0.00     0.029 A 
ATOM     29  N   UNL     1       8.408   2.067   8.878  1.00  0.00    -0.354 N 
ATOM     30  N   UNL     1       8.119   4.798   7.853  1.00  0.00    -0.248 NA
ATOM     31  C   UNL     1       8.565   7.088   8.011  1.00  0.00     0.031 C 
ATOM     32  C   UNL     1       9.683   1.743  10.669  1.00  0.00     0.029 A 
ATOM     33  C   UNL     1       9.204   2.717   9.807  1.00  0.00     0.049 A 
ATOM     34  H   UNL     1       7.927   2.507   8.140  1.00  0.00     0.167 HD
ATOM     35  C   UNL     1       8.953   5.027   8.941  1.00  0.00     0.074 A 
ATOM     36  C   UNL     1       9.220   6.451   8.972  1.00  0.00     0.031 C 
ATOM     37  C   UNL     1       9.454   4.136   9.832  1.00  0.00     0.031 A 
BRANCH  24  38
ATOM     38  C   UNL     1       7.650  -1.699   8.864  1.00  0.00    -0.014 A 
ATOM     39  C   UNL     1       8.323  -2.704   8.146  1.00  0.00     0.010 A 
ATOM     40  C   UNL     1       7.008  -2.037  10.070  1.00  0.00     0.010 A 
ATOM     41  C   UNL     1       8.313  -4.027   8.600  1.00  0.00     0.020 A 
ATOM     42  C   UNL     1       7.017  -3.353  10.541  1.00  0.00     0.020 A 
ATOM     43  C   UNL     1       7.653  -4.344   9.791  1.00  0.00     0.054 A 
BRANCH  43  44
ATOM     44  S   UNL     1       7.658  -6.067  10.360  1.00  0.00     0.124 S 
ATOM     45  O   UNL     1       6.710  -6.689   9.439  1.00  0.00    -0.237 OA
ATOM     46  O   UNL     1       9.054  -6.460  10.182  1.00  0.00    -0.237 OA
ATOM     47  O   UNL     1       7.212  -5.976  11.748  1.00  0.00    -0.744 OA
ENDBRANCH  43  44
ENDBRANCH  24  38
BRANCH  25  48
ATOM     48  C   UNL     1       7.020   7.724   5.603  1.00  0.00    -0.014 A 
ATOM     49  C   UNL     1       8.142   8.338   5.021  1.00  0.00     0.010 A 
ATOM     50  C   UNL     1       5.812   8.440   5.684  1.00  0.00     0.010 A 
ATOM     51  C   UNL     1       8.061   9.648   4.538  1.00  0.00     0.020 A 
ATOM     52  C   UNL     1       5.719   9.739   5.178  1.00  0.00     0.020 A 
ATOM     53  C   UNL     1       6.848  10.338   4.617  1.00  0.00     0.054 A 
BRANCH  53  54
ATOM     54  S   UNL     1       6.747  12.014   3.930  1.00  0.00     0.124 S 
ATOM     55  O   UNL     1       7.449  12.799   4.941  1.00  0.00    -0.237 OA
ATOM     56  O   UNL     1       7.433  11.873   2.648  1.00  0.00    -0.237 OA
ATOM     57  O   UNL     1       5.309  12.257   3.834  1.00  0.00    -0.744 OA
ENDBRANCH  53  54
ENDBRANCH  25  48
BRANCH  37  58
ATOM     58  C   UNL     1      10.367   4.676  10.900  1.00  0.00    -0.014 A 
ATOM     59  C   UNL     1       9.870   5.448  11.964  1.00  0.00     0.010 A 
ATOM     60  C   UNL     1      11.742   4.383  10.848  1.00  0.00     0.010 A 
ATOM     61  C   UNL     1      10.738   5.953  12.936  1.00  0.00     0.020 A 
ATOM     62  C   UNL     1      12.609   4.863  11.832  1.00  0.00     0.020 A 
ATOM     63  C   UNL     1      12.104   5.660  12.861  1.00  0.00     0.054 A 
BRANCH  63  64
ATOM     64  S   UNL     1      13.209   6.305  14.146  1.00  0.00     0.124 S 
ATOM     65  O   UNL     1      13.329   7.710  13.766  1.00  0.00    -0.237 OA
ATOM     66  O   UNL     1      12.461   6.047  15.374  1.00  0.00    -0.237 OA
ATOM     67  O   UNL     1      14.425   5.510  13.987  1.00  0.00    -0.744 OA
ENDBRANCH  63  64
ENDBRANCH  37  58
ENDBRANCH  11  12
ENDBRANCH   4   6
ENDBRANCH   1   2
BRANCH   1  68
ATOM     68  C   UNL     1       4.822  -2.330  -1.268  1.00  0.00     0.042 C 
BRANCH  68  69
ATOM     69  C   UNL     1       4.097  -3.049  -2.399  1.00  0.00     0.117 C 
BRANCH  69  70
ATOM     70  N   UNL     1       4.444  -2.550  -3.713  1.00  0.00    -0.356 N 
ATOM     71  C   UNL     1       5.313  -2.927  -4.678  1.00  0.00     0.228 C 
ATOM     72  H   UNL     1       3.926  -1.751  -3.963  1.00  0.00     0.163 HD
ATOM     73  O   UNL     1       5.222  -2.263  -5.721  1.00  0.00    -0.275 OA
BRANCH  71  74
ATOM     74  C   UNL     1       6.449  -3.946  -4.508  1.00  0.00     0.133 C 
ATOM     75  C   UNL     1       7.035  -4.300  -5.894  1.00  0.00     0.025 C 
ATOM     76  C   UNL     1       6.209  -5.273  -3.782  1.00  0.00     0.276 C 
ATOM     77  C   UNL     1       6.088  -5.239  -6.646  1.00  0.00     0.062 C 
ATOM     78  N   UNL     1       5.321  -6.210  -4.484  1.00  0.00    -0.331 N 
ATOM     79  C   UNL     1       5.804  -6.509  -5.840  1.00  0.00     0.262 C 
ATOM     80  H   UNL     1       4.426  -5.729  -4.580  1.00  0.00     0.348 HD
BRANCH  78  81
ATOM     81  C   UNL     1       5.032  -7.442  -3.707  1.00  0.00     0.299 C 
BRANCH  81  82
ATOM     82  C   UNL     1       6.192  -8.411  -3.482  1.00  0.00     0.014 A 
ATOM     83  C   UNL     1       7.153  -8.057  -2.512  1.00  0.00     0.010 A 
ATOM     84  C   UNL     1       6.361  -9.632  -4.207  1.00  0.00    -0.010 A 
ATOM     85  C   UNL     1       8.314  -8.798  -2.335  1.00  0.00     0.001 A 
ATOM     86  C   UNL     1       7.549 -10.386  -3.998  1.00  0.00    -0.018 A 
ATOM     87  C   UNL     1       5.417 -10.170  -5.116  1.00  0.00     0.009 A 
ATOM     88  C   UNL     1       8.518  -9.944  -3.090  1.00  0.00     0.009 A 
ATOM     89  C   UNL     1       7.761 -11.591  -4.688  1.00  0.00     0.009 A 
ATOM     90  C   UNL     1       5.629 -11.389  -5.772  1.00  0.00     0.001 A 
ATOM     91  C   UNL     1       6.804 -12.096  -5.563  1.00  0.00     0.001 A 
ENDBRANCH  81  82
ENDBRANCH  78  81
ENDBRANCH  71  74
ENDBRANCH  69  70
ENDBRANCH  68  69
ENDBRANCH   1  68
TORSDOF 15
