REMARK SMILES COc1ccc(NC(=O)N[C@@H]2C=C[C@H](C(=O)NCCCNC(=O)c3ccc(-c4c5nc(c(-c6ccc(S(=O)(=O)[O-])cc6)c6ccc([nH]6)c(-c6ccc(S(=O)(=O)[O-])cc6)c6nc(c(-c7ccc(S(=O)(=O)[O-])cc7)c7ccc4[nH]7)C=C6)C=C5)cc3)C2)c(C)c1
REMARK SMILES IDX 19 1 18 2 17 3 15 4 16 5 14 7 11 8 12 9 84 10 13 11 10 12
REMARK SMILES IDX 7 13 8 14 9 16 6 18 3 19 4 20 87 21 5 22 85 23 86 24 2 25
REMARK SMILES IDX 1 26 20 27 21 28 22 29 23 31 24 32 25 33 83 34 26 35 82 36
REMARK SMILES IDX 27 37 28 38 29 39 76 40 30 41 81 42 75 43 77 44 31 45 80 46
REMARK SMILES IDX 74 47 73 48 32 50 62 51 43 52 61 53 44 54 47 55 60 56 78 57
REMARK SMILES IDX 45 58 46 59 59 61 79 62 48 63 33 64 34 65 42 66 35 67 41 68
REMARK SMILES IDX 36 69 37 70 38 71 39 72 40 73 63 74 64 75 72 76 65 77 71 78
REMARK SMILES IDX 66 79 67 80 68 81 69 82 70 83 49 84 50 85 58 86 51 87 57 88
REMARK SMILES IDX 52 89 53 90 54 91 55 92 56 93
REMARK H PARENT 17 6 7 15 10 17 21 30 77 49 47 60
REMARK Flexibility Score: inf
ROOT
ATOM      1  C   UNL     1       1.773  -0.240  -1.135  1.00  0.00     0.042 C 
ENDROOT
BRANCH   1   2
ATOM      2  C   UNL     1       2.610   0.950  -0.700  1.00  0.00     0.117 C 
BRANCH   2   3
ATOM      3  N   UNL     1       3.893   0.538  -0.137  1.00  0.00    -0.356 N 
ATOM      4  C   UNL     1       5.087   0.124  -0.610  1.00  0.00     0.227 C 
ATOM      5  O   UNL     1       5.904  -0.181   0.277  1.00  0.00    -0.274 OA
ATOM      6  H   UNL     1       3.884   0.572   0.847  1.00  0.00     0.163 HD
BRANCH   4   7
ATOM      7  C   UNL     1       5.561  -0.047  -2.073  1.00  0.00     0.103 C 
ATOM      8  C   UNL     1       4.662   0.568  -5.143  1.00  0.00     0.107 C 
ATOM      9  C   UNL     1       4.606  -1.372  -4.788  1.00  0.00    -0.006 C 
ATOM     10  C   UNL     1       5.367   1.418  -3.447  1.00  0.00     0.047 C 
ATOM     11  C   UNL     1       5.009  -1.736  -3.000  1.00  0.00    -0.016 C 
BRANCH   8  12
ATOM     12  N   UNL     1       3.198   0.868  -5.465  1.00  0.00    -0.332 N 
ATOM     13  N   UNL     1       1.896  -0.924  -4.436  1.00  0.00    -0.308 N 
ATOM     14  C   UNL     1       1.995   0.242  -5.178  1.00  0.00     0.319 C 
ATOM     15  H   UNL     1       1.046  -1.419  -4.495  1.00  0.00     0.171 HD
ATOM     16  O   UNL     1       0.977   0.740  -5.665  1.00  0.00    -0.248 OA
ATOM     17  H   UNL     1       3.085   1.690  -5.994  1.00  0.00     0.165 HD
BRANCH  13  18
ATOM     18  C   UNL     1       2.913  -1.479  -3.592  1.00  0.00     0.046 A 
ATOM     19  C   UNL     1       6.492  -2.223  -4.435  1.00  0.00     0.119 A 
ATOM     20  C   UNL     1       6.045  -0.515  -3.992  1.00  0.00     0.048 A 
ATOM     21  C   UNL     1       5.216  -3.468  -4.402  1.00  0.00     0.052 A 
ATOM     22  C   UNL     1       4.113  -0.182  -3.422  1.00  0.00     0.030 A 
ATOM     23  C   UNL     1       3.501  -3.108  -3.993  1.00  0.00    -0.024 A 
ATOM     24  C   UNL     1       2.619  -4.255  -3.583  1.00  0.00     0.047 C 
BRANCH  19  25
ATOM     25  O   UNL     1       7.767  -2.618  -4.707  1.00  0.00    -0.497 OA
ATOM     26  C   UNL     1       8.660  -2.088  -3.736  1.00  0.00     0.278 C 
ENDBRANCH  19  25
ENDBRANCH  13  18
ENDBRANCH   8  12
ENDBRANCH   4   7
ENDBRANCH   2   3
ENDBRANCH   1   2
BRANCH   1  27
ATOM     27  C   UNL     1       0.517  -0.526  -0.338  1.00  0.00     0.118 C 
BRANCH  27  28
ATOM     28  N   UNL     1      -0.701  -0.204  -1.091  1.00  0.00    -0.352 N 
ATOM     29  C   UNL     1      -1.962  -0.777  -0.999  1.00  0.00     0.251 C 
ATOM     30  H   UNL     1      -0.611   0.519  -1.754  1.00  0.00     0.163 HD
ATOM     31  O   UNL     1      -2.807  -0.710  -1.881  1.00  0.00    -0.269 OA
BRANCH  29  32
ATOM     32  C   UNL     1      -2.313  -1.353   0.311  1.00  0.00     0.039 A 
ATOM     33  C   UNL     1      -3.014  -0.480   1.157  1.00  0.00     0.014 A 
ATOM     34  C   UNL     1      -1.462  -2.329   0.801  1.00  0.00     0.014 A 
ATOM     35  C   UNL     1      -2.619  -0.368   2.477  1.00  0.00     0.010 A 
ATOM     36  C   UNL     1      -0.949  -2.097   2.050  1.00  0.00     0.010 A 
ATOM     37  C   UNL     1      -1.499  -1.085   2.858  1.00  0.00    -0.014 A 
BRANCH  37  38
ATOM     38  C   UNL     1      -0.882  -1.013   4.160  1.00  0.00     0.031 A 
ATOM     39  C   UNL     1      -1.220  -2.141   5.043  1.00  0.00     0.074 A 
ATOM     40  C   UNL     1       0.125  -0.137   4.362  1.00  0.00     0.049 A 
ATOM     41  N   UNL     1      -0.853  -2.243   6.263  1.00  0.00    -0.248 NA
ATOM     42  C   UNL     1      -2.042  -3.275   4.601  1.00  0.00     0.031 C 
ATOM     43  C   UNL     1       1.178  -0.177   5.370  1.00  0.00     0.029 A 
ATOM     44  N   UNL     1       0.246   1.134   3.802  1.00  0.00    -0.354 N 
ATOM     45  C   UNL     1      -1.052  -3.556   6.630  1.00  0.00     0.074 A 
ATOM     46  C   UNL     1      -1.885  -4.130   5.611  1.00  0.00     0.031 C 
ATOM     47  C   UNL     1       1.656   1.068   5.555  1.00  0.00     0.029 A 
ATOM     48  C   UNL     1       0.806   1.968   4.788  1.00  0.00     0.049 A 
ATOM     49  H   UNL     1      -0.010   1.398   2.889  1.00  0.00     0.167 HD
ATOM     50  C   UNL     1      -0.329  -4.023   7.679  1.00  0.00     0.031 A 
ATOM     51  C   UNL     1       0.027   2.945   5.351  1.00  0.00     0.031 A 
ATOM     52  C   UNL     1       0.322  -2.905   8.363  1.00  0.00     0.049 A 
ATOM     53  C   UNL     1      -0.292   2.654   6.807  1.00  0.00     0.074 A 
ATOM     54  C   UNL     1       1.609  -2.399   8.333  1.00  0.00     0.029 A 
ATOM     55  N   UNL     1      -0.489  -1.897   8.874  1.00  0.00    -0.354 N 
ATOM     56  N   UNL     1      -0.269   1.462   7.344  1.00  0.00    -0.248 NA
ATOM     57  C   UNL     1      -0.586   3.695   7.787  1.00  0.00     0.031 C 
ATOM     58  C   UNL     1       1.540  -1.030   8.727  1.00  0.00     0.029 A 
ATOM     59  C   UNL     1       0.222  -0.724   9.026  1.00  0.00     0.049 A 
ATOM     60  H   UNL     1      -1.442  -2.006   9.097  1.00  0.00     0.167 HD
ATOM     61  C   UNL     1      -0.482   1.554   8.696  1.00  0.00     0.074 A 
ATOM     62  C   UNL     1      -0.685   2.976   8.919  1.00  0.00     0.031 C 
ATOM     63  C   UNL     1      -0.451   0.469   9.531  1.00  0.00     0.031 A 
BRANCH  50  64
ATOM     64  C   UNL     1      -0.008  -5.474   7.928  1.00  0.00    -0.014 A 
ATOM     65  C   UNL     1       1.010  -5.779   8.853  1.00  0.00     0.010 A 
ATOM     66  C   UNL     1      -0.577  -6.570   7.248  1.00  0.00     0.010 A 
ATOM     67  C   UNL     1       1.454  -7.089   9.068  1.00  0.00     0.020 A 
ATOM     68  C   UNL     1      -0.146  -7.890   7.455  1.00  0.00     0.020 A 
ATOM     69  C   UNL     1       0.874  -8.140   8.364  1.00  0.00     0.054 A 
BRANCH  69  70
ATOM     70  S   UNL     1       1.467  -9.823   8.660  1.00  0.00     0.124 S 
ATOM     71  O   UNL     1       2.865  -9.739   8.247  1.00  0.00    -0.237 OA
ATOM     72  O   UNL     1       1.240  -9.986  10.093  1.00  0.00    -0.237 OA
ATOM     73  O   UNL     1       0.618 -10.647   7.801  1.00  0.00    -0.744 OA
ENDBRANCH  69  70
ENDBRANCH  50  64
BRANCH  51  74
ATOM     74  C   UNL     1      -0.870   3.599   4.341  1.00  0.00    -0.014 A 
ATOM     75  C   UNL     1      -0.224   4.335   3.317  1.00  0.00     0.010 A 
ATOM     76  C   UNL     1      -2.157   3.091   4.088  1.00  0.00     0.010 A 
ATOM     77  C   UNL     1      -0.736   4.351   2.016  1.00  0.00     0.020 A 
ATOM     78  C   UNL     1      -2.686   3.132   2.784  1.00  0.00     0.020 A 
ATOM     79  C   UNL     1      -1.929   3.685   1.745  1.00  0.00     0.054 A 
BRANCH  79  80
ATOM     80  S   UNL     1      -2.343   3.365   0.000  1.00  0.00     0.124 S 
ATOM     81  O   UNL     1      -2.516   4.715  -0.528  1.00  0.00    -0.237 OA
ATOM     82  O   UNL     1      -1.152   2.653  -0.474  1.00  0.00    -0.237 OA
ATOM     83  O   UNL     1      -3.559   2.564   0.081  1.00  0.00    -0.744 OA
ENDBRANCH  79  80
ENDBRANCH  51  74
BRANCH  63  84
ATOM     84  C   UNL     1      -0.993   0.416  10.948  1.00  0.00    -0.014 A 
ATOM     85  C   UNL     1      -1.783   1.412  11.536  1.00  0.00     0.010 A 
ATOM     86  C   UNL     1      -0.806  -0.768  11.710  1.00  0.00     0.010 A 
ATOM     87  C   UNL     1      -2.292   1.270  12.834  1.00  0.00     0.020 A 
ATOM     88  C   UNL     1      -1.368  -0.953  12.974  1.00  0.00     0.020 A 
ATOM     89  C   UNL     1      -2.081   0.089  13.544  1.00  0.00     0.054 A 
BRANCH  89  90
ATOM     90  S   UNL     1      -2.774  -0.080  15.203  1.00  0.00     0.124 S 
ATOM     91  O   UNL     1      -1.846   0.722  15.996  1.00  0.00    -0.237 OA
ATOM     92  O   UNL     1      -4.114   0.481  15.048  1.00  0.00    -0.237 OA
ATOM     93  O   UNL     1      -2.732  -1.518  15.453  1.00  0.00    -0.744 OA
ENDBRANCH  89  90
ENDBRANCH  63  84
ENDBRANCH  37  38
ENDBRANCH  29  32
ENDBRANCH  27  28
ENDBRANCH   1  27
TORSDOF 16
