REMARK SMILES CC[NH2+][C@@]1(C(=O)NCCCNC(=O)c2ccc(-c3c4nc(c(-c5ccc(S(=O)(=O)[O-])cc5)c5ccc([nH]5)c(-c5ccc(S(=O)(=O)[O-])cc5)c5nc(c(-c6ccc(S(=O)(=O)[O-])cc6)c6ccc3[nH]6)C=C5)C=C4)cc2)CC[C@H](Oc2ccc3c(c2)OCO3)C1
REMARK SMILES IDX 9 1 8 2 7 3 5 4 6 5 4 7 74 8 87 9 75 10 76 11 3 12 2 15 1 16
REMARK SMILES IDX 77 17 78 18 79 19 83 20 80 21 82 22 81 23 84 24 86 25 85 26
REMARK SMILES IDX 10 27 11 28 12 29 13 31 14 32 15 33 73 34 16 35 72 36 17 37
REMARK SMILES IDX 18 38 19 39 66 40 20 41 71 42 65 43 67 44 21 45 70 46 64 47
REMARK SMILES IDX 63 48 22 50 52 51 33 52 51 53 34 54 37 55 50 56 68 57 35 58
REMARK SMILES IDX 36 59 49 61 69 62 38 63 23 64 24 65 32 66 25 67 31 68 26 69
REMARK SMILES IDX 27 70 28 71 29 72 30 73 53 74 54 75 62 76 55 77 61 78 56 79
REMARK SMILES IDX 57 80 58 81 59 82 60 83 39 84 40 85 48 86 41 87 47 88 42 89
REMARK SMILES IDX 43 90 44 91 45 92 46 93
REMARK H PARENT 7 6 3 13 3 14 11 30 67 49 37 60
REMARK Flexibility Score: inf
ROOT
ATOM      1  C   UNL     1      -2.688  -6.249  -0.122  1.00  0.00     0.042 C 
ENDROOT
BRANCH   1   2
ATOM      2  C   UNL     1      -2.091  -5.197  -1.043  1.00  0.00     0.118 C 
BRANCH   2   3
ATOM      3  N   UNL     1      -1.943  -3.936  -0.354  1.00  0.00    -0.351 N 
ATOM      4  C   UNL     1      -0.917  -3.424   0.374  1.00  0.00     0.281 C 
ATOM      5  O   UNL     1      -1.285  -2.650   1.272  1.00  0.00    -0.268 OA
ATOM      6  H   UNL     1      -2.725  -3.342  -0.424  1.00  0.00     0.163 HD
BRANCH   4   7
ATOM      7  C   UNL     1       0.628  -3.676   0.101  1.00  0.00     0.179 C 
ATOM      8  C   UNL     1       1.069  -4.186  -1.272  1.00  0.00     0.083 C 
ATOM      9  C   UNL     1       1.211  -4.700   1.096  1.00  0.00     0.124 C 
ATOM     10  C   UNL     1       1.371  -5.677  -1.140  1.00  0.00     0.052 C 
ATOM     11  C   UNL     1       1.398  -6.031   0.347  1.00  0.00     0.180 C 
BRANCH   7  12
ATOM     12  N   UNL     1       1.312  -2.369   0.371  1.00  0.00    -0.334 N 
ATOM     13  H   UNL     1       1.093  -2.088   1.327  1.00  0.00     0.347 HD
ATOM     14  H   UNL     1       2.307  -2.529   0.215  1.00  0.00     0.347 HD
BRANCH  12  15
ATOM     15  C   UNL     1       0.928  -1.277  -0.521  1.00  0.00     0.257 C 
ATOM     16  C   UNL     1       1.390   0.042   0.081  1.00  0.00     0.071 C 
ENDBRANCH  12  15
ENDBRANCH   7  12
BRANCH  11  17
ATOM     17  O   UNL     1       0.354  -6.870   0.821  1.00  0.00    -0.490 OA
BRANCH  17  18
ATOM     18  C   UNL     1       0.116  -8.133   0.379  1.00  0.00     0.123 A 
ATOM     19  C   UNL     1       0.679  -8.764  -0.739  1.00  0.00     0.050 A 
ATOM     20  C   UNL     1      -0.923  -8.758   1.084  1.00  0.00     0.097 A 
ATOM     21  C   UNL     1       0.121  -9.955  -1.232  1.00  0.00     0.054 A 
ATOM     22  C   UNL     1      -1.455  -9.919   0.578  1.00  0.00     0.169 A 
ATOM     23  C   UNL     1      -0.957 -10.495  -0.562  1.00  0.00     0.166 A 
ATOM     24  O   UNL     1      -2.530 -10.581   1.076  1.00  0.00    -0.453 OA
ATOM     25  O   UNL     1      -1.652 -11.606  -0.922  1.00  0.00    -0.454 OA
ATOM     26  C   UNL     1      -2.581 -11.709   0.180  1.00  0.00     0.468 C 
ENDBRANCH  17  18
ENDBRANCH  11  17
ENDBRANCH   4   7
ENDBRANCH   2   3
ENDBRANCH   1   2
BRANCH   1  27
ATOM     27  C   UNL     1      -4.203  -6.214  -0.029  1.00  0.00     0.118 C 
BRANCH  27  28
ATOM     28  N   UNL     1      -4.821  -6.820  -1.200  1.00  0.00    -0.352 N 
ATOM     29  C   UNL     1      -5.412  -8.042  -1.410  1.00  0.00     0.251 C 
ATOM     30  H   UNL     1      -4.813  -6.241  -1.996  1.00  0.00     0.163 HD
ATOM     31  O   UNL     1      -5.609  -8.383  -2.576  1.00  0.00    -0.269 OA
BRANCH  29  32
ATOM     32  C   UNL     1      -5.818  -8.957  -0.307  1.00  0.00     0.039 A 
ATOM     33  C   UNL     1      -5.978 -10.321  -0.598  1.00  0.00     0.014 A 
ATOM     34  C   UNL     1      -6.149  -8.509   0.971  1.00  0.00     0.014 A 
ATOM     35  C   UNL     1      -6.429 -11.216   0.381  1.00  0.00     0.010 A 
ATOM     36  C   UNL     1      -6.489  -9.411   1.979  1.00  0.00     0.010 A 
ATOM     37  C   UNL     1      -6.681 -10.765   1.683  1.00  0.00    -0.014 A 
BRANCH  37  38
ATOM     38  C   UNL     1      -7.302 -11.646   2.705  1.00  0.00     0.031 A 
ATOM     39  C   UNL     1      -8.713 -11.359   3.152  1.00  0.00     0.074 A 
ATOM     40  C   UNL     1      -6.610 -12.659   3.260  1.00  0.00     0.049 A 
ATOM     41  N   UNL     1      -9.441 -11.978   4.045  1.00  0.00    -0.248 NA
ATOM     42  C   UNL     1      -9.384 -10.203   2.531  1.00  0.00     0.031 C 
ATOM     43  C   UNL     1      -5.225 -13.011   2.949  1.00  0.00     0.029 A 
ATOM     44  N   UNL     1      -6.979 -13.575   4.213  1.00  0.00    -0.354 N 
ATOM     45  C   UNL     1     -10.642 -11.279   4.100  1.00  0.00     0.074 A 
ATOM     46  C   UNL     1     -10.519 -10.149   3.208  1.00  0.00     0.031 C 
ATOM     47  C   UNL     1      -4.867 -14.081   3.680  1.00  0.00     0.029 A 
ATOM     48  C   UNL     1      -5.987 -14.474   4.532  1.00  0.00     0.049 A 
ATOM     49  H   UNL     1      -7.871 -13.588   4.631  1.00  0.00     0.167 HD
ATOM     50  C   UNL     1     -11.763 -11.565   4.803  1.00  0.00     0.031 A 
ATOM     51  C   UNL     1      -5.987 -15.498   5.408  1.00  0.00     0.031 A 
ATOM     52  C   UNL     1     -11.888 -12.692   5.686  1.00  0.00     0.049 A 
ATOM     53  C   UNL     1      -7.243 -15.798   6.186  1.00  0.00     0.074 A 
ATOM     54  C   UNL     1     -12.991 -13.100   6.413  1.00  0.00     0.029 A 
ATOM     55  N   UNL     1     -10.870 -13.593   5.959  1.00  0.00    -0.354 N 
ATOM     56  N   UNL     1      -8.396 -15.169   6.169  1.00  0.00    -0.248 NA
ATOM     57  C   UNL     1      -7.207 -16.963   7.080  1.00  0.00     0.031 C 
ATOM     58  C   UNL     1     -12.626 -14.221   7.165  1.00  0.00     0.029 A 
ATOM     59  C   UNL     1     -11.315 -14.550   6.854  1.00  0.00     0.049 A 
ATOM     60  H   UNL     1      -9.965 -13.557   5.574  1.00  0.00     0.167 HD
ATOM     61  C   UNL     1      -9.234 -15.891   7.013  1.00  0.00     0.074 A 
ATOM     62  C   UNL     1      -8.458 -17.006   7.517  1.00  0.00     0.031 C 
ATOM     63  C   UNL     1     -10.532 -15.660   7.335  1.00  0.00     0.031 A 
BRANCH  50  64
ATOM     64  C   UNL     1     -12.938 -10.637   4.635  1.00  0.00    -0.014 A 
ATOM     65  C   UNL     1     -13.633 -10.562   3.413  1.00  0.00     0.010 A 
ATOM     66  C   UNL     1     -13.357  -9.834   5.710  1.00  0.00     0.010 A 
ATOM     67  C   UNL     1     -14.691  -9.664   3.253  1.00  0.00     0.020 A 
ATOM     68  C   UNL     1     -14.437  -8.957   5.564  1.00  0.00     0.020 A 
ATOM     69  C   UNL     1     -15.083  -8.864   4.330  1.00  0.00     0.054 A 
BRANCH  69  70
ATOM     70  S   UNL     1     -16.468  -7.716   4.096  1.00  0.00     0.124 S 
ATOM     71  O   UNL     1     -15.867  -6.689   3.249  1.00  0.00    -0.237 OA
ATOM     72  O   UNL     1     -17.473  -8.555   3.450  1.00  0.00    -0.237 OA
ATOM     73  O   UNL     1     -16.797  -7.289   5.454  1.00  0.00    -0.744 OA
ENDBRANCH  69  70
ENDBRANCH  50  64
BRANCH  51  74
ATOM     74  C   UNL     1      -4.772 -16.347   5.571  1.00  0.00    -0.014 A 
ATOM     75  C   UNL     1      -4.766 -17.679   5.117  1.00  0.00     0.010 A 
ATOM     76  C   UNL     1      -3.619 -15.835   6.191  1.00  0.00     0.010 A 
ATOM     77  C   UNL     1      -3.644 -18.491   5.308  1.00  0.00     0.020 A 
ATOM     78  C   UNL     1      -2.483 -16.634   6.358  1.00  0.00     0.020 A 
ATOM     79  C   UNL     1      -2.508 -17.962   5.928  1.00  0.00     0.054 A 
BRANCH  79  80
ATOM     80  S   UNL     1      -1.051 -19.025   6.132  1.00  0.00     0.124 S 
ATOM     81  O   UNL     1      -1.487 -19.942   7.179  1.00  0.00    -0.237 OA
ATOM     82  O   UNL     1      -0.899 -19.608   4.801  1.00  0.00    -0.237 OA
ATOM     83  O   UNL     1       0.004 -18.089   6.517  1.00  0.00    -0.744 OA
ENDBRANCH  79  80
ENDBRANCH  51  74
BRANCH  63  84
ATOM     84  C   UNL     1     -11.220 -16.666   8.220  1.00  0.00    -0.014 A 
ATOM     85  C   UNL     1     -10.899 -16.797   9.582  1.00  0.00     0.010 A 
ATOM     86  C   UNL     1     -12.246 -17.464   7.678  1.00  0.00     0.010 A 
ATOM     87  C   UNL     1     -11.560 -17.740  10.375  1.00  0.00     0.020 A 
ATOM     88  C   UNL     1     -12.931 -18.384   8.475  1.00  0.00     0.020 A 
ATOM     89  C   UNL     1     -12.569 -18.530   9.814  1.00  0.00     0.054 A 
BRANCH  89  90
ATOM     90  S   UNL     1     -13.428 -19.730  10.868  1.00  0.00     0.124 S 
ATOM     91  O   UNL     1     -12.419 -20.774  11.023  1.00  0.00    -0.237 OA
ATOM     92  O   UNL     1     -13.718 -18.952  12.070  1.00  0.00    -0.237 OA
ATOM     93  O   UNL     1     -14.600 -20.107  10.081  1.00  0.00    -0.744 OA
ENDBRANCH  89  90
ENDBRANCH  63  84
ENDBRANCH  37  38
ENDBRANCH  29  32
ENDBRANCH  27  28
ENDBRANCH   1  27
TORSDOF 17
