REMARK SMILES CCCC[C@@H](Sc1nc(OCCC2CCCCC2)cc(OCCC2CCCCC2)n1)C(=O)NCCCNC(=O)c1ccc(-c2c3nc(c(-c4ccc(S(=O)(=O)[O-])cc4)c4ccc([nH]4)c(-c4ccc(S(=O)(=O)[O-])cc4)c4nc(c(-c5ccc(S(=O)(=O)[O-])cc5)c5ccc2[nH]5)C=C4)C=C3)cc1
REMARK SMILES IDX 31 1 32 2 33 3 5 5 4 6 3 7 2 8 1 9 6 10 7 11 8 12 30 13 9 14
REMARK SMILES IDX 20 15 19 16 10 17 11 18 12 19 13 20 14 21 18 22 15 23 17 24
REMARK SMILES IDX 16 25 21 26 22 27 23 28 24 29 25 30 29 31 26 32 28 33 27 34
REMARK SMILES IDX 34 35 35 36 36 37 37 38 38 39 39 41 40 42 41 43 99 44 42 45
REMARK SMILES IDX 98 46 43 47 44 48 45 49 92 50 46 51 97 52 91 53 93 54 47 55
REMARK SMILES IDX 96 56 90 57 89 58 48 60 78 61 59 62 77 63 60 64 63 65 76 66
REMARK SMILES IDX 94 67 61 68 62 69 75 71 95 72 64 73 49 74 50 75 58 76 51 77
REMARK SMILES IDX 57 78 52 79 53 80 54 81 55 82 56 83 79 84 80 85 88 86 81 87
REMARK SMILES IDX 87 88 82 89 83 90 84 91 85 92 86 93 65 94 66 95 74 96 67 97
REMARK SMILES IDX 73 98 68 99 69 100 70 101 71 102 72 103
REMARK H PARENT 33 4 37 40 93 59 63 70
REMARK Flexibility Score: inf
ROOT
ATOM      1  C   UNL     1      -1.529  -2.909   2.595  1.00  0.00     0.233 C 
ATOM      2  O   UNL     1      -2.167  -2.002   3.133  1.00  0.00    -0.274 OA
ATOM      3  N   UNL     1      -1.239  -4.037   3.326  1.00  0.00    -0.355 N 
ATOM      4  H   UNL     1      -1.530  -4.019   4.266  1.00  0.00     0.163 HD
ENDROOT
BRANCH   1   5
ATOM      5  C   UNL     1      -1.013  -2.789   1.149  1.00  0.00     0.144 C 
BRANCH   5   6
ATOM      6  C   UNL     1       0.543  -2.720   1.280  1.00  0.00     0.025 C 
BRANCH   6   7
ATOM      7  C   UNL     1       1.448  -1.961   0.299  1.00  0.00     0.001 C 
BRANCH   7   8
ATOM      8  C   UNL     1       0.988  -0.597  -0.210  1.00  0.00    -0.003 C 
ATOM      9  C   UNL     1       1.203   0.521   0.792  1.00  0.00     0.004 C 
ENDBRANCH   7   8
ENDBRANCH   6   7
ENDBRANCH   5   6
BRANCH   5  10
ATOM     10  S   UNL     1      -1.993  -4.174   0.273  1.00  0.00    -0.073 SA
BRANCH  10  11
ATOM     11  C   UNL     1      -1.429  -4.068  -1.372  1.00  0.00     0.195 A 
ATOM     12  N   UNL     1      -0.336  -3.332  -1.534  1.00  0.00    -0.187 NA
ATOM     13  N   UNL     1      -2.188  -4.577  -2.360  1.00  0.00    -0.187 NA
ATOM     14  C   UNL     1      -0.105  -2.849  -2.737  1.00  0.00     0.221 A 
ATOM     15  C   UNL     1      -1.892  -4.113  -3.570  1.00  0.00     0.221 A 
ATOM     16  C   UNL     1      -0.973  -3.118  -3.742  1.00  0.00     0.136 A 
BRANCH  14  17
ATOM     17  O   UNL     1       1.071  -2.175  -2.829  1.00  0.00    -0.477 OA
BRANCH  17  18
ATOM     18  C   UNL     1       1.363  -1.345  -3.939  1.00  0.00     0.231 C 
BRANCH  18  19
ATOM     19  C   UNL     1       2.541  -1.833  -4.805  1.00  0.00     0.045 C 
BRANCH  19  20
ATOM     20  C   UNL     1       2.945  -3.313  -4.683  1.00  0.00    -0.008 C 
ATOM     21  C   UNL     1       1.886  -4.266  -5.228  1.00  0.00     0.004 C 
ATOM     22  C   UNL     1       4.251  -3.615  -5.435  1.00  0.00     0.004 C 
ATOM     23  C   UNL     1       2.243  -5.709  -4.913  1.00  0.00     0.000 C 
ATOM     24  C   UNL     1       4.665  -5.084  -5.272  1.00  0.00     0.000 C 
ATOM     25  C   UNL     1       3.547  -6.076  -5.600  1.00  0.00     0.000 C 
ENDBRANCH  19  20
ENDBRANCH  18  19
ENDBRANCH  17  18
ENDBRANCH  14  17
BRANCH  15  26
ATOM     26  O   UNL     1      -2.587  -4.595  -4.669  1.00  0.00    -0.477 OA
BRANCH  26  27
ATOM     27  C   UNL     1      -1.719  -5.087  -5.717  1.00  0.00     0.231 C 
BRANCH  27  28
ATOM     28  C   UNL     1      -1.790  -4.333  -7.083  1.00  0.00     0.045 C 
BRANCH  28  29
ATOM     29  C   UNL     1      -2.091  -2.825  -7.056  1.00  0.00    -0.008 C 
ATOM     30  C   UNL     1      -0.883  -1.905  -6.817  1.00  0.00     0.004 C 
ATOM     31  C   UNL     1      -2.693  -2.261  -8.353  1.00  0.00     0.004 C 
ATOM     32  C   UNL     1      -1.461  -0.609  -6.238  1.00  0.00     0.000 C 
ATOM     33  C   UNL     1      -3.165  -0.805  -8.139  1.00  0.00     0.000 C 
ATOM     34  C   UNL     1      -2.215   0.110  -7.346  1.00  0.00     0.000 C 
ENDBRANCH  28  29
ENDBRANCH  27  28
ENDBRANCH  26  27
ENDBRANCH  15  26
ENDBRANCH  10  11
ENDBRANCH   5  10
ENDBRANCH   1   5
BRANCH   3  35
ATOM     35  C   UNL     1      -0.560  -5.257   2.901  1.00  0.00     0.117 C 
BRANCH  35  36
ATOM     36  C   UNL     1       0.771  -5.454   3.596  1.00  0.00     0.042 C 
BRANCH  36  37
ATOM     37  C   UNL     1       0.600  -5.810   5.055  1.00  0.00     0.118 C 
BRANCH  37  38
ATOM     38  N   UNL     1      -0.107  -7.075   5.224  1.00  0.00    -0.352 N 
ATOM     39  C   UNL     1       0.336  -8.245   5.777  1.00  0.00     0.251 C 
ATOM     40  H   UNL     1      -1.034  -7.089   4.893  1.00  0.00     0.163 HD
ATOM     41  O   UNL     1      -0.309  -9.287   5.611  1.00  0.00    -0.269 OA
BRANCH  39  42
ATOM     42  C   UNL     1       1.585  -8.255   6.555  1.00  0.00     0.039 A 
ATOM     43  C   UNL     1       2.479  -9.315   6.404  1.00  0.00     0.014 A 
ATOM     44  C   UNL     1       1.878  -7.199   7.423  1.00  0.00     0.014 A 
ATOM     45  C   UNL     1       3.696  -9.284   7.084  1.00  0.00     0.010 A 
ATOM     46  C   UNL     1       3.132  -7.115   8.006  1.00  0.00     0.010 A 
ATOM     47  C   UNL     1       4.045  -8.167   7.861  1.00  0.00    -0.014 A 
BRANCH  47  48
ATOM     48  C   UNL     1       5.350  -8.085   8.557  1.00  0.00     0.031 A 
ATOM     49  C   UNL     1       5.390  -7.989  10.058  1.00  0.00     0.074 A 
ATOM     50  C   UNL     1       6.486  -8.028   7.835  1.00  0.00     0.049 A 
ATOM     51  N   UNL     1       6.423  -7.846  10.846  1.00  0.00    -0.248 NA
ATOM     52  C   UNL     1       4.098  -8.028  10.765  1.00  0.00     0.031 C 
ATOM     53  C   UNL     1       6.566  -8.063   6.372  1.00  0.00     0.029 A 
ATOM     54  N   UNL     1       7.793  -7.925   8.236  1.00  0.00    -0.354 N 
ATOM     55  C   UNL     1       5.906  -7.759  12.133  1.00  0.00     0.074 A 
ATOM     56  C   UNL     1       4.466  -7.804  12.017  1.00  0.00     0.031 C 
ATOM     57  C   UNL     1       7.856  -8.017   6.002  1.00  0.00     0.029 A 
ATOM     58  C   UNL     1       8.690  -7.904   7.194  1.00  0.00     0.049 A 
ATOM     59  H   UNL     1       8.065  -7.871   9.181  1.00  0.00     0.167 HD
ATOM     60  C   UNL     1       6.571  -7.673  13.309  1.00  0.00     0.031 A 
ATOM     61  C   UNL     1      10.032  -7.798   7.199  1.00  0.00     0.031 A 
ATOM     62  C   UNL     1       8.004  -7.645  13.416  1.00  0.00     0.049 A 
ATOM     63  C   UNL     1      10.749  -7.700   8.517  1.00  0.00     0.074 A 
ATOM     64  C   UNL     1       8.780  -7.620  14.560  1.00  0.00     0.029 A 
ATOM     65  N   UNL     1       8.877  -7.639  12.338  1.00  0.00    -0.354 N 
ATOM     66  N   UNL     1      10.246  -7.689   9.729  1.00  0.00    -0.248 NA
ATOM     67  C   UNL     1      12.214  -7.614   8.470  1.00  0.00     0.031 C 
ATOM     68  C   UNL     1      10.122  -7.542  14.173  1.00  0.00     0.029 A 
ATOM     69  C   UNL     1      10.184  -7.585  12.789  1.00  0.00     0.049 A 
ATOM     70  H   UNL     1       8.607  -7.669  11.391  1.00  0.00     0.167 HD
ATOM     71  C   UNL     1      11.335  -7.622  10.590  1.00  0.00     0.074 A 
ATOM     72  C   UNL     1      12.523  -7.612   9.760  1.00  0.00     0.031 C 
ATOM     73  C   UNL     1      11.353  -7.574  11.945  1.00  0.00     0.031 A 
BRANCH  60  74
ATOM     74  C   UNL     1       5.750  -7.601  14.570  1.00  0.00    -0.014 A 
ATOM     75  C   UNL     1       5.001  -8.706  15.016  1.00  0.00     0.010 A 
ATOM     76  C   UNL     1       5.754  -6.424  15.340  1.00  0.00     0.010 A 
ATOM     77  C   UNL     1       4.239  -8.621  16.184  1.00  0.00     0.020 A 
ATOM     78  C   UNL     1       5.018  -6.345  16.526  1.00  0.00     0.020 A 
ATOM     79  C   UNL     1       4.251  -7.440  16.931  1.00  0.00     0.054 A 
BRANCH  79  80
ATOM     80  S   UNL     1       3.273  -7.367  18.456  1.00  0.00     0.124 S 
ATOM     81  O   UNL     1       1.909  -7.307  17.937  1.00  0.00    -0.237 OA
ATOM     82  O   UNL     1       3.634  -8.614  19.127  1.00  0.00    -0.237 OA
ATOM     83  O   UNL     1       3.744  -6.151  19.113  1.00  0.00    -0.744 OA
ENDBRANCH  79  80
ENDBRANCH  60  74
BRANCH  61  84
ATOM     84  C   UNL     1      10.782  -7.800   5.913  1.00  0.00    -0.014 A 
ATOM     85  C   UNL     1      11.584  -8.897   5.555  1.00  0.00     0.010 A 
ATOM     86  C   UNL     1      10.684  -6.708   5.030  1.00  0.00     0.010 A 
ATOM     87  C   UNL     1      12.290  -8.896   4.348  1.00  0.00     0.020 A 
ATOM     88  C   UNL     1      11.365  -6.716   3.809  1.00  0.00     0.020 A 
ATOM     89  C   UNL     1      12.174  -7.805   3.482  1.00  0.00     0.054 A 
BRANCH  89  90
ATOM     90  S   UNL     1      13.062  -7.846   1.900  1.00  0.00     0.124 S 
ATOM     91  O   UNL     1      14.444  -7.644   2.321  1.00  0.00    -0.237 OA
ATOM     92  O   UNL     1      12.742  -9.179   1.393  1.00  0.00    -0.237 OA
ATOM     93  O   UNL     1      12.468  -6.743   1.146  1.00  0.00    -0.744 OA
ENDBRANCH  89  90
ENDBRANCH  61  84
BRANCH  73  94
ATOM     94  C   UNL     1      12.698  -7.544  12.619  1.00  0.00    -0.014 A 
ATOM     95  C   UNL     1      13.511  -6.398  12.575  1.00  0.00     0.010 A 
ATOM     96  C   UNL     1      13.127  -8.663  13.357  1.00  0.00     0.010 A 
ATOM     97  C   UNL     1      14.745  -6.384  13.231  1.00  0.00     0.020 A 
ATOM     98  C   UNL     1      14.345  -8.641  14.040  1.00  0.00     0.020 A 
ATOM     99  C   UNL     1      15.153  -7.506  13.960  1.00  0.00     0.054 A 
BRANCH  99 100
ATOM    100  S   UNL     1      16.738  -7.445  14.839  1.00  0.00     0.124 S 
ATOM    101  O   UNL     1      17.697  -7.540  13.742  1.00  0.00    -0.237 OA
ATOM    102  O   UNL     1      16.681  -6.150  15.514  1.00  0.00    -0.237 OA
ATOM    103  O   UNL     1      16.688  -8.605  15.725  1.00  0.00    -0.744 OA
ENDBRANCH  99 100
ENDBRANCH  73  94
ENDBRANCH  47  48
ENDBRANCH  39  42
ENDBRANCH  37  38
ENDBRANCH  36  37
ENDBRANCH  35  36
ENDBRANCH   3  35
TORSDOF 26
