REMARK SMILES NS(=O)(=O)c1ccc(C#Cc2cc(Cl)cc3c2O[C@H](C(F)(F)F)C(C(=O)NCCCNC(=O)c2ccc(-c4c5nc(c(-c6ccc(S(=O)(=O)[O-])cc6)c6ccc([nH]6)c(-c6ccc(S(=O)(=O)[O-])cc6)c6nc(c(-c7ccc(S(=O)(=O)[O-])cc7)c7ccc4[nH]7)C=C6)C=C5)cc2)=C3)cc1
REMARK SMILES IDX 28 1 27 2 25 3 26 4 24 6 11 7 12 8 17 9 13 10 16 11 18 12
REMARK SMILES IDX 14 13 15 14 94 15 19 16 10 17 9 18 8 19 5 20 6 21 96 22 7 23
REMARK SMILES IDX 95 24 2 25 3 26 4 27 1 28 20 31 21 32 22 33 23 34 29 35
REMARK SMILES IDX 30 36 31 37 32 38 33 40 34 41 35 42 93 43 36 44 92 45 37 46
REMARK SMILES IDX 38 47 39 48 86 49 40 50 91 51 85 52 87 53 41 54 90 55 84 56
REMARK SMILES IDX 83 57 42 59 72 60 53 61 71 62 54 63 57 64 70 65 88 66 55 67
REMARK SMILES IDX 56 68 69 70 89 71 58 72 43 73 44 74 52 75 45 76 51 77 46 78
REMARK SMILES IDX 47 79 48 80 49 81 50 82 73 83 74 84 82 85 75 86 81 87 76 88
REMARK SMILES IDX 77 89 78 90 79 91 80 92 59 93 60 94 68 95 61 96 67 97 62 98
REMARK SMILES IDX 63 99 64 100 65 101 66 102
REMARK H PARENT 27 5 1 29 1 30 31 39 87 58 57 69
REMARK Flexibility Score: inf
ROOT
ATOM      1  C   UNL     1       1.232  -0.173 -11.498  1.00  0.00     0.118 C 
ENDROOT
BRANCH   1   2
ATOM      2  N   UNL     1       1.378  -1.260 -12.456  1.00  0.00    -0.352 N 
ATOM      3  C   UNL     1       1.419  -2.613 -12.417  1.00  0.00     0.251 C 
ATOM      4  O   UNL     1       1.522  -3.177 -13.511  1.00  0.00    -0.270 OA
ATOM      5  H   UNL     1       1.473  -0.922 -13.375  1.00  0.00     0.163 HD
BRANCH   3   6
ATOM      6  C   UNL     1       1.345  -3.426 -11.170  1.00  0.00     0.067 C 
ATOM      7  C   UNL     1       1.432  -5.760  -7.680  1.00  0.00     0.069 A 
ATOM      8  C   UNL     1       1.377  -7.150  -7.776  1.00  0.00     0.041 A 
ATOM      9  C   UNL     1       1.447  -4.989  -8.849  1.00  0.00     0.143 A 
ATOM     10  C   UNL     1       1.349  -7.753  -9.034  1.00  0.00     0.043 A 
ATOM     11  C   UNL     1       1.427  -5.593 -10.111  1.00  0.00     0.020 A 
ATOM     12  O   UNL     1       1.527  -3.634  -8.701  1.00  0.00    -0.474 OA
ATOM     13  Cl  UNL     1       1.281  -9.470  -9.151  1.00  0.00    -0.084 Cl
ATOM     14  C   UNL     1       1.379  -6.985 -10.201  1.00  0.00     0.032 A 
ATOM     15  C   UNL     1       1.498  -4.756 -11.306  1.00  0.00     0.025 C 
ATOM     16  C   UNL     1       1.085  -2.833  -9.819  1.00  0.00     0.314 C 
BRANCH   7  17
ATOM     17  C   UNL     1       1.442  -5.124  -6.395  1.00  0.00    -0.058 C 
ATOM     18  C   UNL     1       1.405  -4.547  -5.339  1.00  0.00    -0.062 C 
BRANCH  18  19
ATOM     19  C   UNL     1       1.280  -3.878  -4.081  1.00  0.00     0.025 A 
ATOM     20  C   UNL     1       0.864  -2.603  -1.633  1.00  0.00     0.082 A 
ATOM     21  C   UNL     1       1.159  -1.841  -2.766  1.00  0.00     0.023 A 
ATOM     22  C   UNL     1       0.817  -3.999  -1.708  1.00  0.00     0.023 A 
ATOM     23  C   UNL     1       1.366  -2.484  -3.993  1.00  0.00     0.018 A 
ATOM     24  C   UNL     1       1.021  -4.633  -2.934  1.00  0.00     0.018 A 
BRANCH  20  25
ATOM     25  S   UNL     1       0.538  -1.849  -0.066  1.00  0.00     0.238 S 
ATOM     26  O   UNL     1       1.263  -2.574   0.952  1.00  0.00    -0.207 OA
ATOM     27  O   UNL     1      -0.883  -1.608   0.022  1.00  0.00    -0.207 OA
BRANCH  25  28
ATOM     28  N   UNL     1       1.264  -0.341  -0.154  1.00  0.00    -0.225 NA
ATOM     29  H   UNL     1       1.116   0.159   0.723  1.00  0.00     0.137 HD
ATOM     30  H   UNL     1       0.852   0.190  -0.921  1.00  0.00     0.137 HD
ENDBRANCH  25  28
ENDBRANCH  20  25
ENDBRANCH  18  19
ENDBRANCH   7  17
BRANCH  16  31
ATOM     31  C   UNL     1      -0.395  -2.445  -9.625  1.00  0.00     0.429 C 
ATOM     32  F   UNL     1      -0.530  -1.575  -8.595  1.00  0.00    -0.167 F 
ATOM     33  F   UNL     1      -0.922  -1.833 -10.714  1.00  0.00    -0.167 F 
ATOM     34  F   UNL     1      -1.183  -3.513  -9.365  1.00  0.00    -0.167 F 
ENDBRANCH  16  31
ENDBRANCH   3   6
ENDBRANCH   1   2
BRANCH   1  35
ATOM     35  C   UNL     1       2.525   0.600 -11.312  1.00  0.00     0.042 C 
BRANCH  35  36
ATOM     36  C   UNL     1       2.724   1.619 -12.420  1.00  0.00     0.118 C 
BRANCH  36  37
ATOM     37  N   UNL     1       1.684   2.651 -12.413  1.00  0.00    -0.352 N 
ATOM     38  C   UNL     1       1.758   3.990 -12.113  1.00  0.00     0.251 C 
ATOM     39  H   UNL     1       0.787   2.333 -12.665  1.00  0.00     0.163 HD
ATOM     40  O   UNL     1       0.730   4.637 -11.938  1.00  0.00    -0.269 OA
BRANCH  38  41
ATOM     41  C   UNL     1       3.081   4.624 -11.974  1.00  0.00     0.039 A 
ATOM     42  C   UNL     1       4.108   4.266 -12.844  1.00  0.00     0.014 A 
ATOM     43  C   UNL     1       3.315   5.529 -10.938  1.00  0.00     0.014 A 
ATOM     44  C   UNL     1       5.412   4.595 -12.523  1.00  0.00     0.010 A 
ATOM     45  C   UNL     1       4.615   5.984 -10.710  1.00  0.00     0.010 A 
ATOM     46  C   UNL     1       5.684   5.465 -11.457  1.00  0.00    -0.014 A 
BRANCH  46  47
ATOM     47  C   UNL     1       7.095   5.814 -11.152  1.00  0.00     0.031 A 
ATOM     48  C   UNL     1       7.696   5.495  -9.810  1.00  0.00     0.074 A 
ATOM     49  C   UNL     1       7.849   6.369 -12.122  1.00  0.00     0.049 A 
ATOM     50  N   UNL     1       8.912   5.720  -9.384  1.00  0.00    -0.248 NA
ATOM     51  C   UNL     1       6.826   4.849  -8.812  1.00  0.00     0.031 C 
ATOM     52  C   UNL     1       7.378   6.686 -13.473  1.00  0.00     0.029 A 
ATOM     53  N   UNL     1       9.171   6.732 -12.141  1.00  0.00    -0.354 N 
ATOM     54  C   UNL     1       8.946   5.274  -8.068  1.00  0.00     0.074 A 
ATOM     55  C   UNL     1       7.620   4.796  -7.750  1.00  0.00     0.031 C 
ATOM     56  C   UNL     1       8.409   7.120 -14.208  1.00  0.00     0.029 A 
ATOM     57  C   UNL     1       9.589   7.216 -13.358  1.00  0.00     0.049 A 
ATOM     58  H   UNL     1       9.764   6.654 -11.358  1.00  0.00     0.167 HD
ATOM     59  C   UNL     1       9.994   5.255  -7.212  1.00  0.00     0.031 A 
ATOM     60  C   UNL     1      10.781   7.705 -13.753  1.00  0.00     0.031 A 
ATOM     61  C   UNL     1      11.315   5.716  -7.559  1.00  0.00     0.049 A 
ATOM     62  C   UNL     1      11.911   7.729 -12.767  1.00  0.00     0.074 A 
ATOM     63  C   UNL     1      12.454   5.706  -6.773  1.00  0.00     0.029 A 
ATOM     64  N   UNL     1      11.678   6.267  -8.781  1.00  0.00    -0.354 N 
ATOM     65  N   UNL     1      11.932   7.280 -11.535  1.00  0.00    -0.248 NA
ATOM     66  C   UNL     1      13.177   8.317 -13.219  1.00  0.00     0.031 C 
ATOM     67  C   UNL     1      13.476   6.339  -7.481  1.00  0.00     0.029 A 
ATOM     68  C   UNL     1      13.011   6.645  -8.751  1.00  0.00     0.049 A 
ATOM     69  H   UNL     1      11.078   6.373  -9.553  1.00  0.00     0.167 HD
ATOM     70  C   UNL     1      13.219   7.514 -11.068  1.00  0.00     0.074 A 
ATOM     71  C   UNL     1      13.953   8.123 -12.159  1.00  0.00     0.031 C 
ATOM     72  C   UNL     1      13.738   7.250  -9.844  1.00  0.00     0.031 A 
BRANCH  59  73
ATOM     73  C   UNL     1       9.777   4.734  -5.810  1.00  0.00    -0.014 A 
ATOM     74  C   UNL     1       9.974   5.594  -4.712  1.00  0.00     0.010 A 
ATOM     75  C   UNL     1       9.502   3.376  -5.565  1.00  0.00     0.010 A 
ATOM     76  C   UNL     1       9.941   5.104  -3.404  1.00  0.00     0.020 A 
ATOM     77  C   UNL     1       9.428   2.888  -4.256  1.00  0.00     0.020 A 
ATOM     78  C   UNL     1       9.675   3.751  -3.185  1.00  0.00     0.054 A 
BRANCH  78  79
ATOM     79  S   UNL     1       9.670   3.127  -1.481  1.00  0.00     0.124 S 
ATOM     80  O   UNL     1      11.087   3.163  -1.134  1.00  0.00    -0.237 OA
ATOM     81  O   UNL     1       8.824   4.097  -0.791  1.00  0.00    -0.237 OA
ATOM     82  O   UNL     1       9.090   1.791  -1.608  1.00  0.00    -0.744 OA
ENDBRANCH  78  79
ENDBRANCH  59  73
BRANCH  60  83
ATOM     83  C   UNL     1      10.937   8.168 -15.161  1.00  0.00    -0.014 A 
ATOM     84  C   UNL     1      10.174   9.248 -15.646  1.00  0.00     0.010 A 
ATOM     85  C   UNL     1      11.742   7.446 -16.058  1.00  0.00     0.010 A 
ATOM     86  C   UNL     1      10.138   9.536 -17.012  1.00  0.00     0.020 A 
ATOM     87  C   UNL     1      11.741   7.758 -17.421  1.00  0.00     0.020 A 
ATOM     88  C   UNL     1      10.907   8.773 -17.894  1.00  0.00     0.054 A 
BRANCH  88  89
ATOM     89  S   UNL     1      10.755   9.092 -19.672  1.00  0.00     0.124 S 
ATOM     90  O   UNL     1       9.408   8.600 -19.949  1.00  0.00    -0.237 OA
ATOM     91  O   UNL     1      10.925  10.540 -19.750  1.00  0.00    -0.237 OA
ATOM     92  O   UNL     1      11.838   8.306 -20.256  1.00  0.00    -0.744 OA
ENDBRANCH  88  89
ENDBRANCH  60  83
BRANCH  72  93
ATOM     93  C   UNL     1      15.181   7.611  -9.586  1.00  0.00    -0.014 A 
ATOM     94  C   UNL     1      16.107   6.596  -9.277  1.00  0.00     0.010 A 
ATOM     95  C   UNL     1      15.585   8.954  -9.495  1.00  0.00     0.010 A 
ATOM     96  C   UNL     1      17.388   6.917  -8.823  1.00  0.00     0.020 A 
ATOM     97  C   UNL     1      16.880   9.279  -9.082  1.00  0.00     0.020 A 
ATOM     98  C   UNL     1      17.761   8.259  -8.715  1.00  0.00     0.054 A 
BRANCH  98  99
ATOM     99  S   UNL     1      19.402   8.655  -8.054  1.00  0.00     0.124 S 
ATOM    100  O   UNL     1      19.259   8.302  -6.644  1.00  0.00    -0.237 OA
ATOM    101  O   UNL     1      20.278   7.785  -8.835  1.00  0.00    -0.237 OA
ATOM    102  O   UNL     1      19.549  10.083  -8.328  1.00  0.00    -0.744 OA
ENDBRANCH  98  99
ENDBRANCH  72  93
ENDBRANCH  46  47
ENDBRANCH  38  41
ENDBRANCH  36  37
ENDBRANCH  35  36
ENDBRANCH   1  35
TORSDOF 18
