REMARK SMILES C[C@@H](Oc1ccc(/C=C2\C(=O)[NH+]=C(NCCCNC(=O)c3ccc(-c4c5nc(c(-c6ccc(S(=O)(=O)[O-])cc6)c6ccc([nH]6)c(-c6ccc(S(=O)(=O)[O-])cc6)c6nc(c(-c7ccc(S(=O)(=O)[O-])cc7)c7ccc4[nH]7)C=C6)C=C5)cc3)N(c3ccc4c(c3)OCO4)C2=O)cc1)C(=O)[O-]
REMARK SMILES IDX 16 1 15 2 14 3 8 4 9 5 10 6 91 7 11 8 12 9 81 10 92 11 13 12
REMARK SMILES IDX 7 15 4 16 5 17 94 18 6 19 93 20 3 21 2 22 1 23 95 24 96 25
REMARK SMILES IDX 97 26 82 27 83 28 87 29 84 30 86 31 85 32 88 33 90 34 89 35
REMARK SMILES IDX 17 36 18 37 19 38 20 40 21 41 22 42 80 43 23 44 79 45 24 46
REMARK SMILES IDX 25 47 26 48 73 49 27 50 78 51 72 52 74 53 28 54 77 55 71 56
REMARK SMILES IDX 70 57 29 59 59 60 40 61 58 62 41 63 44 64 57 65 75 66 42 67
REMARK SMILES IDX 43 68 56 70 76 71 45 72 30 73 31 74 39 75 32 76 38 77 33 78
REMARK SMILES IDX 34 79 35 80 36 81 37 82 60 83 61 84 69 85 62 86 68 87 63 88
REMARK SMILES IDX 64 89 65 90 66 91 67 92 46 93 47 94 55 95 48 96 54 97 49 98
REMARK SMILES IDX 50 99 51 100 52 101 53 102
REMARK H PARENT 12 13 14 14 18 39 74 58 44 69
REMARK Flexibility Score: inf
ROOT
ATOM      1  C   UNL     1       7.822   1.726  10.136  1.00  0.00     0.059 C 
ENDROOT
BRANCH   1   2
ATOM      2  C   UNL     1       7.497   2.824   9.133  1.00  0.00     0.199 C 
BRANCH   2   3
ATOM      3  N   UNL     1       8.322   2.703   7.946  1.00  0.00    -0.277 N 
ATOM      4  C   UNL     1       6.201   1.637   3.204  1.00  0.00     0.031 C 
ATOM      5  C   UNL     1       6.862   1.453   4.363  1.00  0.00     0.138 C 
ATOM      6  C   UNL     1       6.315   0.896   5.611  1.00  0.00     0.321 C 
ATOM      7  C   UNL     1       8.279   1.863   4.393  1.00  0.00     0.328 C 
ATOM      8  O   UNL     1       5.508  -0.020   5.618  1.00  0.00    -0.250 OA
ATOM      9  N   UNL     1       6.765   1.508   6.745  1.00  0.00    -0.210 N 
ATOM     10  N   UNL     1       8.750   2.156   5.668  1.00  0.00    -0.162 N 
ATOM     11  O   UNL     1       8.936   1.954   3.356  1.00  0.00    -0.249 OA
ATOM     12  C   UNL     1       7.923   2.090   6.784  1.00  0.00     0.366 C 
ATOM     13  H   UNL     1       6.199   1.508   7.550  1.00  0.00     0.270 HD
ATOM     14  H   UNL     1       9.229   3.086   7.975  1.00  0.00     0.260 HD
BRANCH   4  15
ATOM     15  C   UNL     1       4.788   1.408   2.868  1.00  0.00    -0.024 A 
ATOM     16  C   UNL     1       2.121   1.078   2.036  1.00  0.00     0.120 A 
ATOM     17  C   UNL     1       2.405   1.397   3.360  1.00  0.00     0.047 A 
ATOM     18  C   UNL     1       3.157   0.977   1.114  1.00  0.00     0.047 A 
ATOM     19  C   UNL     1       3.732   1.575   3.771  1.00  0.00     0.012 A 
ATOM     20  C   UNL     1       4.481   1.126   1.530  1.00  0.00     0.012 A 
BRANCH  16  21
ATOM     21  O   UNL     1       0.810   1.025   1.658  1.00  0.00    -0.485 OA
BRANCH  21  22
ATOM     22  C   UNL     1       0.383  -0.258   1.177  1.00  0.00     0.216 C 
ATOM     23  C   UNL     1       0.596  -0.404  -0.327  1.00  0.00     0.059 C 
BRANCH  22  24
ATOM     24  C   UNL     1      -1.113  -0.389   1.439  1.00  0.00     0.082 C 
ATOM     25  O   UNL     1      -1.694  -1.408   1.784  1.00  0.00    -0.546 OA
ATOM     26  O   UNL     1      -1.824   0.725   1.161  1.00  0.00    -0.546 OA
ENDBRANCH  22  24
ENDBRANCH  21  22
ENDBRANCH  16  21
ENDBRANCH   4  15
BRANCH  10  27
ATOM     27  C   UNL     1      10.075   2.658   5.750  1.00  0.00     0.115 A 
ATOM     28  C   UNL     1      11.104   1.851   6.282  1.00  0.00     0.048 A 
ATOM     29  C   UNL     1      10.363   3.903   5.175  1.00  0.00     0.094 A 
ATOM     30  C   UNL     1      12.438   2.263   6.188  1.00  0.00     0.054 A 
ATOM     31  C   UNL     1      11.684   4.269   5.088  1.00  0.00     0.169 A 
ATOM     32  C   UNL     1      12.695   3.466   5.564  1.00  0.00     0.166 A 
ATOM     33  O   UNL     1      12.151   5.398   4.490  1.00  0.00    -0.453 OA
ATOM     34  O   UNL     1      13.924   3.986   5.299  1.00  0.00    -0.454 OA
ATOM     35  C   UNL     1      13.561   5.097   4.452  1.00  0.00     0.468 C 
ENDBRANCH  10  27
ENDBRANCH   2   3
ENDBRANCH   1   2
BRANCH   1  36
ATOM     36  C   UNL     1       9.256   1.760  10.653  1.00  0.00     0.119 C 
BRANCH  36  37
ATOM     37  N   UNL     1       9.589   3.007  11.327  1.00  0.00    -0.352 N 
ATOM     38  C   UNL     1      10.103   3.239  12.578  1.00  0.00     0.251 C 
ATOM     39  H   UNL     1       9.417   3.819  10.797  1.00  0.00     0.163 HD
ATOM     40  O   UNL     1      10.142   4.394  12.995  1.00  0.00    -0.269 OA
BRANCH  38  41
ATOM     41  C   UNL     1      10.589   2.128  13.428  1.00  0.00     0.039 A 
ATOM     42  C   UNL     1      10.355   2.197  14.804  1.00  0.00     0.014 A 
ATOM     43  C   UNL     1      11.305   1.050  12.901  1.00  0.00     0.014 A 
ATOM     44  C   UNL     1      10.791   1.164  15.637  1.00  0.00     0.010 A 
ATOM     45  C   UNL     1      11.663  -0.021  13.720  1.00  0.00     0.010 A 
ATOM     46  C   UNL     1      11.417   0.026  15.099  1.00  0.00    -0.014 A 
BRANCH  46  47
ATOM     47  C   UNL     1      11.785  -1.115  15.979  1.00  0.00     0.031 A 
ATOM     48  C   UNL     1      13.223  -1.525  16.161  1.00  0.00     0.074 A 
ATOM     49  C   UNL     1      10.807  -1.798  16.608  1.00  0.00     0.049 A 
ATOM     50  N   UNL     1      13.720  -2.456  16.937  1.00  0.00    -0.248 NA
ATOM     51  C   UNL     1      14.231  -0.818  15.357  1.00  0.00     0.031 C 
ATOM     52  C   UNL     1       9.371  -1.539  16.468  1.00  0.00     0.029 A 
ATOM     53  N   UNL     1      10.869  -2.840  17.500  1.00  0.00    -0.354 N 
ATOM     54  C   UNL     1      15.092  -2.449  16.712  1.00  0.00     0.074 A 
ATOM     55  C   UNL     1      15.342  -1.461  15.685  1.00  0.00     0.031 C 
ATOM     56  C   UNL     1       8.694  -2.361  17.285  1.00  0.00     0.029 A 
ATOM     57  C   UNL     1       9.639  -3.232  17.974  1.00  0.00     0.049 A 
ATOM     58  H   UNL     1      11.713  -3.265  17.774  1.00  0.00     0.167 HD
ATOM     59  C   UNL     1      16.058  -3.180  17.319  1.00  0.00     0.031 A 
ATOM     60  C   UNL     1       9.305  -4.181  18.870  1.00  0.00     0.031 A 
ATOM     61  C   UNL     1      15.805  -4.166  18.338  1.00  0.00     0.049 A 
ATOM     62  C   UNL     1      10.396  -4.976  19.533  1.00  0.00     0.074 A 
ATOM     63  C   UNL     1      16.719  -4.923  19.051  1.00  0.00     0.029 A 
ATOM     64  N   UNL     1      14.546  -4.538  18.788  1.00  0.00    -0.354 N 
ATOM     65  N   UNL     1      11.695  -4.898  19.361  1.00  0.00    -0.248 NA
ATOM     66  C   UNL     1       9.975  -5.971  20.527  1.00  0.00     0.031 C 
ATOM     67  C   UNL     1      16.012  -5.795  19.886  1.00  0.00     0.029 A 
ATOM     68  C   UNL     1      14.659  -5.531  19.748  1.00  0.00     0.049 A 
ATOM     69  H   UNL     1      13.697  -4.154  18.471  1.00  0.00     0.167 HD
ATOM     70  C   UNL     1      12.248  -5.816  20.248  1.00  0.00     0.074 A 
ATOM     71  C   UNL     1      11.143  -6.414  20.970  1.00  0.00     0.031 C 
ATOM     72  C   UNL     1      13.552  -6.134  20.448  1.00  0.00     0.031 A 
BRANCH  59  73
ATOM     73  C   UNL     1      17.486  -2.947  16.889  1.00  0.00    -0.014 A 
ATOM     74  C   UNL     1      18.146  -1.737  17.175  1.00  0.00     0.010 A 
ATOM     75  C   UNL     1      18.196  -3.970  16.232  1.00  0.00     0.010 A 
ATOM     76  C   UNL     1      19.471  -1.539  16.777  1.00  0.00     0.020 A 
ATOM     77  C   UNL     1      19.532  -3.788  15.861  1.00  0.00     0.020 A 
ATOM     78  C   UNL     1      20.156  -2.566  16.122  1.00  0.00     0.054 A 
BRANCH  78  79
ATOM     79  S   UNL     1      21.883  -2.289  15.641  1.00  0.00     0.124 S 
ATOM     80  O   UNL     1      21.741  -1.330  14.548  1.00  0.00    -0.237 OA
ATOM     81  O   UNL     1      22.475  -1.761  16.866  1.00  0.00    -0.237 OA
ATOM     82  O   UNL     1      22.351  -3.616  15.247  1.00  0.00    -0.744 OA
ENDBRANCH  78  79
ENDBRANCH  59  73
BRANCH  60  83
ATOM     83  C   UNL     1       7.874  -4.411  19.211  1.00  0.00    -0.014 A 
ATOM     84  C   UNL     1       7.376  -4.077  20.483  1.00  0.00     0.010 A 
ATOM     85  C   UNL     1       6.996  -4.957  18.256  1.00  0.00     0.010 A 
ATOM     86  C   UNL     1       6.034  -4.307  20.802  1.00  0.00     0.020 A 
ATOM     87  C   UNL     1       5.647  -5.156  18.560  1.00  0.00     0.020 A 
ATOM     88  C   UNL     1       5.177  -4.842  19.836  1.00  0.00     0.054 A 
BRANCH  88  89
ATOM     89  S   UNL     1       3.429  -5.086  20.256  1.00  0.00     0.124 S 
ATOM     90  O   UNL     1       3.491  -6.225  21.166  1.00  0.00    -0.237 OA
ATOM     91  O   UNL     1       3.071  -3.807  20.864  1.00  0.00    -0.237 OA
ATOM     92  O   UNL     1       2.801  -5.350  18.963  1.00  0.00    -0.744 OA
ENDBRANCH  88  89
ENDBRANCH  60  83
BRANCH  72  93
ATOM     93  C   UNL     1      13.851  -7.154  21.517  1.00  0.00    -0.014 A 
ATOM     94  C   UNL     1      13.476  -8.503  21.374  1.00  0.00     0.010 A 
ATOM     95  C   UNL     1      14.518  -6.752  22.690  1.00  0.00     0.010 A 
ATOM     96  C   UNL     1      13.699  -9.413  22.412  1.00  0.00     0.020 A 
ATOM     97  C   UNL     1      14.776  -7.667  23.713  1.00  0.00     0.020 A 
ATOM     98  C   UNL     1      14.340  -8.986  23.579  1.00  0.00     0.054 A 
BRANCH  98  99
ATOM     99  S   UNL     1      14.605 -10.181  24.917  1.00  0.00     0.124 S 
ATOM    100  O   UNL     1      13.258 -10.333  25.459  1.00  0.00    -0.237 OA
ATOM    101  O   UNL     1      15.133 -11.345  24.208  1.00  0.00    -0.237 OA
ATOM    102  O   UNL     1      15.559  -9.510  25.797  1.00  0.00    -0.744 OA
ENDBRANCH  98  99
ENDBRANCH  72  93
ENDBRANCH  46  47
ENDBRANCH  38  41
ENDBRANCH  36  37
ENDBRANCH   1  36
TORSDOF 17
