REMARK SMILES Cc1cc(C(=O)N[C@@H]2CC2(C)C)sc1/C=C/C(=O)NCCCNC(=O)c1ccc(-c2c3nc(c(-c4ccc(S(=O)(=O)[O-])cc4)c4ccc([nH]4)c(-c4ccc(S(=O)(=O)[O-])cc4)c4nc(c(-c5ccc(S(=O)(=O)[O-])cc5)c5ccc2[nH]5)C=C4)C=C3)cc1
REMARK SMILES IDX 21 1 20 2 19 3 17 4 18 5 16 7 15 8 14 9 1 10 2 11 3 12 4 13
REMARK SMILES IDX 13 14 5 15 6 16 7 17 8 19 9 20 10 21 11 22 12 23 22 24 23 25
REMARK SMILES IDX 24 26 25 28 26 29 27 30 85 31 28 32 84 33 29 34 30 35 31 36
REMARK SMILES IDX 78 37 32 38 83 39 77 40 79 41 33 42 82 43 76 44 75 45 34 47
REMARK SMILES IDX 64 48 45 49 63 50 46 51 49 52 62 53 80 54 47 55 48 56 61 58
REMARK SMILES IDX 81 59 50 60 35 61 36 62 44 63 37 64 43 65 38 66 39 67 40 68
REMARK SMILES IDX 41 69 42 70 65 71 66 72 74 73 67 74 73 75 68 76 69 77 70 78
REMARK SMILES IDX 71 79 72 80 51 81 52 82 60 83 53 84 59 85 54 86 55 87 56 88
REMARK SMILES IDX 57 89 58 90
REMARK H PARENT 19 6 7 18 23 27 79 46 49 57
REMARK Flexibility Score: inf
ROOT
ATOM      1  C   UNL     1     -11.021  -4.232   1.031  1.00  0.00     0.042 C 
ENDROOT
BRANCH   1   2
ATOM      2  C   UNL     1     -10.758  -3.335  -0.175  1.00  0.00     0.118 C 
BRANCH   2   3
ATOM      3  N   UNL     1     -10.900  -1.932   0.166  1.00  0.00    -0.352 N 
ATOM      4  C   UNL     1      -9.956  -1.001   0.465  1.00  0.00     0.244 C 
ATOM      5  O   UNL     1     -10.287   0.174   0.607  1.00  0.00    -0.270 OA
ATOM      6  H   UNL     1     -11.827  -1.602   0.183  1.00  0.00     0.163 HD
BRANCH   4   7
ATOM      7  C   UNL     1      -8.521  -1.354   0.494  1.00  0.00     0.072 C 
ATOM      8  C   UNL     1      -7.959  -2.417   1.091  1.00  0.00     0.025 C 
BRANCH   8   9
ATOM      9  C   UNL     1      -6.563  -2.631   0.938  1.00  0.00     0.031 A 
ATOM     10  C   UNL     1      -6.464  -4.964  -0.144  1.00  0.00     0.046 C 
ATOM     11  C   UNL     1      -5.880  -3.670   0.319  1.00  0.00    -0.032 A 
ATOM     12  C   UNL     1      -4.520  -3.275   0.072  1.00  0.00     0.029 A 
ATOM     13  C   UNL     1      -4.238  -1.995   0.526  1.00  0.00     0.093 A 
ATOM     14  S   UNL     1      -5.430  -1.548   1.650  1.00  0.00    -0.130 S 
BRANCH  13  15
ATOM     15  C   UNL     1      -3.029  -1.247   0.281  1.00  0.00     0.261 C 
ATOM     16  O   UNL     1      -1.943  -1.828   0.153  1.00  0.00    -0.268 OA
ATOM     17  N   UNL     1      -2.963   0.115   0.068  1.00  0.00    -0.348 N 
ATOM     18  H   UNL     1      -2.026   0.374  -0.087  1.00  0.00     0.164 HD
BRANCH  17  19
ATOM     19  C   UNL     1      -3.792   1.278  -0.005  1.00  0.00     0.088 C 
ATOM     20  C   UNL     1      -5.163   1.548   0.517  1.00  0.00     0.034 C 
ATOM     21  C   UNL     1      -4.938   1.510  -0.977  1.00  0.00    -0.013 C 
ATOM     22  C   UNL     1      -5.038   2.837  -1.690  1.00  0.00     0.013 C 
ATOM     23  C   UNL     1      -5.517   0.371  -1.772  1.00  0.00     0.013 C 
ENDBRANCH  17  19
ENDBRANCH  13  15
ENDBRANCH   8   9
ENDBRANCH   4   7
ENDBRANCH   2   3
ENDBRANCH   1   2
BRANCH   1  24
ATOM     24  C   UNL     1     -12.498  -4.361   1.380  1.00  0.00     0.118 C 
BRANCH  24  25
ATOM     25  N   UNL     1     -13.221  -5.153   0.398  1.00  0.00    -0.352 N 
ATOM     26  C   UNL     1     -13.848  -6.367   0.530  1.00  0.00     0.251 C 
ATOM     27  H   UNL     1     -13.269  -4.756  -0.502  1.00  0.00     0.163 HD
ATOM     28  O   UNL     1     -14.184  -6.977  -0.481  1.00  0.00    -0.269 OA
BRANCH  26  29
ATOM     29  C   UNL     1     -14.111  -6.948   1.867  1.00  0.00     0.039 A 
ATOM     30  C   UNL     1     -13.982  -8.330   2.037  1.00  0.00     0.014 A 
ATOM     31  C   UNL     1     -14.534  -6.155   2.937  1.00  0.00     0.014 A 
ATOM     32  C   UNL     1     -14.229  -8.906   3.286  1.00  0.00     0.010 A 
ATOM     33  C   UNL     1     -14.704  -6.718   4.200  1.00  0.00     0.010 A 
ATOM     34  C   UNL     1     -14.566  -8.101   4.386  1.00  0.00    -0.014 A 
BRANCH  34  35
ATOM     35  C   UNL     1     -14.786  -8.688   5.733  1.00  0.00     0.031 A 
ATOM     36  C   UNL     1     -16.140  -8.598   6.388  1.00  0.00     0.074 A 
ATOM     37  C   UNL     1     -13.754  -9.250   6.392  1.00  0.00     0.049 A 
ATOM     38  N   UNL     1     -16.508  -8.997   7.579  1.00  0.00    -0.248 NA
ATOM     39  C   UNL     1     -17.214  -7.955   5.613  1.00  0.00     0.031 C 
ATOM     40  C   UNL     1     -12.385  -9.363   5.883  1.00  0.00     0.029 A 
ATOM     41  N   UNL     1     -13.693  -9.826   7.636  1.00  0.00    -0.354 N 
ATOM     42  C   UNL     1     -17.846  -8.638   7.703  1.00  0.00     0.074 A 
ATOM     43  C   UNL     1     -18.211  -7.947   6.486  1.00  0.00     0.031 C 
ATOM     44  C   UNL     1     -11.627  -9.992   6.795  1.00  0.00     0.029 A 
ATOM     45  C   UNL     1     -12.442 -10.291   7.968  1.00  0.00     0.049 A 
ATOM     46  H   UNL     1     -14.471  -9.900   8.235  1.00  0.00     0.167 HD
ATOM     47  C   UNL     1     -18.698  -8.878   8.728  1.00  0.00     0.031 A 
ATOM     48  C   UNL     1     -11.997 -10.885   9.092  1.00  0.00     0.031 A 
ATOM     49  C   UNL     1     -18.334  -9.576   9.933  1.00  0.00     0.049 A 
ATOM     50  C   UNL     1     -12.961 -11.141  10.217  1.00  0.00     0.074 A 
ATOM     51  C   UNL     1     -19.138  -9.913  11.008  1.00  0.00     0.029 A 
ATOM     52  N   UNL     1     -17.061 -10.044  10.222  1.00  0.00    -0.354 N 
ATOM     53  N   UNL     1     -14.237 -10.844  10.291  1.00  0.00    -0.248 NA
ATOM     54  C   UNL     1     -12.429 -11.824  11.404  1.00  0.00     0.031 C 
ATOM     55  C   UNL     1     -18.340 -10.544  11.968  1.00  0.00     0.029 A 
ATOM     56  C   UNL     1     -17.052 -10.651  11.467  1.00  0.00     0.049 A 
ATOM     57  H   UNL     1     -16.280  -9.957   9.630  1.00  0.00     0.167 HD
ATOM     58  C   UNL     1     -14.666 -11.326  11.522  1.00  0.00     0.074 A 
ATOM     59  C   UNL     1     -13.518 -11.948  12.151  1.00  0.00     0.031 C 
ATOM     60  C   UNL     1     -15.900 -11.261  12.081  1.00  0.00     0.031 A 
BRANCH  47  61
ATOM     61  C   UNL     1     -20.113  -8.375   8.589  1.00  0.00    -0.014 A 
ATOM     62  C   UNL     1     -21.003  -8.957   7.667  1.00  0.00     0.010 A 
ATOM     63  C   UNL     1     -20.570  -7.330   9.413  1.00  0.00     0.010 A 
ATOM     64  C   UNL     1     -22.308  -8.473   7.540  1.00  0.00     0.020 A 
ATOM     65  C   UNL     1     -21.884  -6.863   9.309  1.00  0.00     0.020 A 
ATOM     66  C   UNL     1     -22.739  -7.426   8.359  1.00  0.00     0.054 A 
BRANCH  66  67
ATOM     67  S   UNL     1     -24.442  -6.829   8.183  1.00  0.00     0.124 S 
ATOM     68  O   UNL     1     -24.375  -6.097   6.920  1.00  0.00    -0.237 OA
ATOM     69  O   UNL     1     -25.215  -8.068   8.148  1.00  0.00    -0.237 OA
ATOM     70  O   UNL     1     -24.646  -6.004   9.371  1.00  0.00    -0.744 OA
ENDBRANCH  66  67
ENDBRANCH  47  61
BRANCH  48  71
ATOM     71  C   UNL     1     -10.570 -11.295   9.197  1.00  0.00    -0.014 A 
ATOM     72  C   UNL     1     -10.213 -12.654   9.157  1.00  0.00     0.010 A 
ATOM     73  C   UNL     1      -9.557 -10.325   9.311  1.00  0.00     0.010 A 
ATOM     74  C   UNL     1      -8.871 -13.037   9.242  1.00  0.00     0.020 A 
ATOM     75  C   UNL     1      -8.213 -10.703   9.369  1.00  0.00     0.020 A 
ATOM     76  C   UNL     1      -7.879 -12.058   9.345  1.00  0.00     0.054 A 
BRANCH  76  77
ATOM     77  S   UNL     1      -6.141 -12.576   9.392  1.00  0.00     0.124 S 
ATOM     78  O   UNL     1      -6.019 -13.108  10.745  1.00  0.00    -0.237 OA
ATOM     79  O   UNL     1      -6.075 -13.561   8.315  1.00  0.00    -0.237 OA
ATOM     80  O   UNL     1      -5.409 -11.337   9.137  1.00  0.00    -0.744 OA
ENDBRANCH  76  77
ENDBRANCH  48  71
BRANCH  60  81
ATOM     81  C   UNL     1     -16.083 -11.906  13.428  1.00  0.00    -0.014 A 
ATOM     82  C   UNL     1     -15.546 -11.329  14.592  1.00  0.00     0.010 A 
ATOM     83  C   UNL     1     -16.848 -13.082  13.535  1.00  0.00     0.010 A 
ATOM     84  C   UNL     1     -15.744 -11.935  15.836  1.00  0.00     0.020 A 
ATOM     85  C   UNL     1     -17.071 -13.676  14.780  1.00  0.00     0.020 A 
ATOM     86  C   UNL     1     -16.504 -13.106  15.922  1.00  0.00     0.054 A 
BRANCH  86  87
ATOM     87  S   UNL     1     -16.780 -13.851  17.552  1.00  0.00     0.124 S 
ATOM     88  O   UNL     1     -15.481 -14.454  17.834  1.00  0.00    -0.237 OA
ATOM     89  O   UNL     1     -17.131 -12.698  18.377  1.00  0.00    -0.237 OA
ATOM     90  O   UNL     1     -17.869 -14.797  17.320  1.00  0.00    -0.744 OA
ENDBRANCH  86  87
ENDBRANCH  60  81
ENDBRANCH  34  35
ENDBRANCH  26  29
ENDBRANCH  24  25
ENDBRANCH   1  24
TORSDOF 16
