REMARK SMILES C[C@H](NC(N)=O)C(=O)N[C@@H](CO)C(=O)NCCCNC(=O)c1ccc(-c2c3nc(c(-c4ccc(S(=O)(=O)[O-])cc4)c4ccc([nH]4)c(-c4ccc(S(=O)(=O)[O-])cc4)c4nc(c(-c5ccc(S(=O)(=O)[O-])cc5)c5ccc2[nH]5)C=C4)C=C3)cc1
REMARK SMILES IDX 17 1 16 2 15 3 13 4 14 5 10 7 9 8 7 9 8 10 2 12 1 13 3 14
REMARK SMILES IDX 4 15 5 17 6 18 11 21 12 22 18 24 19 25 20 26 21 28 22 29
REMARK SMILES IDX 23 30 81 31 24 32 80 33 25 34 26 35 27 36 74 37 28 38 79 39
REMARK SMILES IDX 73 40 75 41 29 42 78 43 72 44 71 45 30 47 60 48 41 49 59 50
REMARK SMILES IDX 42 51 45 52 58 53 76 54 43 55 44 56 57 58 77 59 46 60 31 61
REMARK SMILES IDX 32 62 40 63 33 64 39 65 34 66 35 67 36 68 37 69 38 70 61 71
REMARK SMILES IDX 62 72 70 73 63 74 69 75 64 76 65 77 66 78 67 79 68 80 47 81
REMARK SMILES IDX 48 82 56 83 49 84 55 85 50 86 51 87 52 88 53 89 54 90
REMARK H PARENT 15 6 9 11 3 16 5 19 5 20 12 23 19 27 75 46 45 57
REMARK Flexibility Score: inf
ROOT
ATOM      1  C   UNL     1      -4.914  -1.877   2.472  1.00  0.00     0.042 C 
ENDROOT
BRANCH   1   2
ATOM      2  C   UNL     1      -3.889  -0.924   3.060  1.00  0.00     0.117 C 
BRANCH   2   3
ATOM      3  N   UNL     1      -2.699  -1.610   3.525  1.00  0.00    -0.354 N 
ATOM      4  C   UNL     1      -1.383  -1.400   3.256  1.00  0.00     0.244 C 
ATOM      5  O   UNL     1      -0.566  -2.014   3.951  1.00  0.00    -0.273 OA
ATOM      6  H   UNL     1      -2.874  -2.357   4.142  1.00  0.00     0.163 HD
BRANCH   4   7
ATOM      7  C   UNL     1      -0.893  -0.387   2.207  1.00  0.00     0.197 C 
BRANCH   7   8
ATOM      8  N   UNL     1      -1.458  -0.618   0.873  1.00  0.00    -0.340 N 
ATOM      9  C   UNL     1      -0.874  -1.169  -0.233  1.00  0.00     0.243 C 
ATOM     10  O   UNL     1      -1.625  -1.525  -1.142  1.00  0.00    -0.273 OA
ATOM     11  H   UNL     1      -2.394  -0.334   0.757  1.00  0.00     0.164 HD
BRANCH   9  12
ATOM     12  C   UNL     1       0.647  -1.403  -0.316  1.00  0.00     0.170 C 
ATOM     13  C   UNL     1       1.046  -2.634   0.496  1.00  0.00     0.041 C 
BRANCH  12  14
ATOM     14  N   UNL     1       1.353  -0.176   0.055  1.00  0.00    -0.327 N 
ATOM     15  C   UNL     1       2.704  -0.060   0.033  1.00  0.00     0.312 C 
ATOM     16  H   UNL     1       0.821   0.604   0.333  1.00  0.00     0.166 HD
ATOM     17  N   UNL     1       3.131   1.172   0.392  1.00  0.00    -0.352 N 
ATOM     18  O   UNL     1       3.496  -0.948  -0.254  1.00  0.00    -0.249 OA
ATOM     19  H   UNL     1       2.477   1.872   0.620  1.00  0.00     0.161 HD
ATOM     20  H   UNL     1       4.095   1.368   0.426  1.00  0.00     0.161 HD
ENDBRANCH  12  14
ENDBRANCH   9  12
ENDBRANCH   7   8
BRANCH   7  21
ATOM     21  C   UNL     1      -1.019   1.067   2.686  1.00  0.00     0.191 C 
BRANCH  21  22
ATOM     22  O   UNL     1      -2.311   1.637   2.506  1.00  0.00    -0.394 OA
ATOM     23  H   UNL     1      -2.523   1.666   1.560  1.00  0.00     0.210 HD
ENDBRANCH  21  22
ENDBRANCH   7  21
ENDBRANCH   4   7
ENDBRANCH   2   3
ENDBRANCH   1   2
BRANCH   1  24
ATOM     24  C   UNL     1      -5.500  -2.843   3.490  1.00  0.00     0.118 C 
BRANCH  24  25
ATOM     25  N   UNL     1      -6.281  -2.168   4.522  1.00  0.00    -0.352 N 
ATOM     26  C   UNL     1      -7.632  -2.219   4.774  1.00  0.00     0.251 C 
ATOM     27  H   UNL     1      -5.763  -1.589   5.127  1.00  0.00     0.163 HD
ATOM     28  O   UNL     1      -8.140  -1.433   5.567  1.00  0.00    -0.269 OA
BRANCH  26  29
ATOM     29  C   UNL     1      -8.466  -3.210   4.064  1.00  0.00     0.039 A 
ATOM     30  C   UNL     1      -9.684  -2.815   3.506  1.00  0.00     0.014 A 
ATOM     31  C   UNL     1      -8.021  -4.525   3.923  1.00  0.00     0.014 A 
ATOM     32  C   UNL     1     -10.414  -3.720   2.730  1.00  0.00     0.010 A 
ATOM     33  C   UNL     1      -8.688  -5.386   3.065  1.00  0.00     0.010 A 
ATOM     34  C   UNL     1      -9.898  -4.999   2.467  1.00  0.00    -0.014 A 
BRANCH  34  35
ATOM     35  C   UNL     1     -10.601  -5.984   1.606  1.00  0.00     0.031 A 
ATOM     36  C   UNL     1     -10.998  -7.313   2.190  1.00  0.00     0.074 A 
ATOM     37  C   UNL     1     -10.777  -5.739   0.293  1.00  0.00     0.049 A 
ATOM     38  N   UNL     1     -11.435  -8.385   1.585  1.00  0.00    -0.248 NA
ATOM     39  C   UNL     1     -10.837  -7.467   3.647  1.00  0.00     0.031 C 
ATOM     40  C   UNL     1     -10.412  -4.501  -0.399  1.00  0.00     0.029 A 
ATOM     41  N   UNL     1     -11.287  -6.536  -0.702  1.00  0.00    -0.354 N 
ATOM     42  C   UNL     1     -11.571  -9.348   2.579  1.00  0.00     0.074 A 
ATOM     43  C   UNL     1     -11.110  -8.752   3.813  1.00  0.00     0.031 C 
ATOM     44  C   UNL     1     -10.717  -4.620  -1.702  1.00  0.00     0.029 A 
ATOM     45  C   UNL     1     -11.247  -5.957  -1.949  1.00  0.00     0.049 A 
ATOM     46  H   UNL     1     -11.648  -7.438  -0.538  1.00  0.00     0.167 HD
ATOM     47  C   UNL     1     -12.055 -10.608   2.479  1.00  0.00     0.031 A 
ATOM     48  C   UNL     1     -11.575  -6.454  -3.159  1.00  0.00     0.031 A 
ATOM     49  C   UNL     1     -12.522 -11.188   1.250  1.00  0.00     0.049 A 
ATOM     50  C   UNL     1     -12.096  -7.863  -3.254  1.00  0.00     0.074 A 
ATOM     51  C   UNL     1     -13.069 -12.441   1.045  1.00  0.00     0.029 A 
ATOM     52  N   UNL     1     -12.499 -10.551   0.018  1.00  0.00    -0.354 N 
ATOM     53  N   UNL     1     -12.256  -8.747  -2.298  1.00  0.00    -0.248 NA
ATOM     54  C   UNL     1     -12.491  -8.340  -4.587  1.00  0.00     0.031 C 
ATOM     55  C   UNL     1     -13.331 -12.581  -0.321  1.00  0.00     0.029 A 
ATOM     56  C   UNL     1     -13.012 -11.390  -0.955  1.00  0.00     0.049 A 
ATOM     57  H   UNL     1     -12.168  -9.638  -0.140  1.00  0.00     0.167 HD
ATOM     58  C   UNL     1     -12.807  -9.870  -2.906  1.00  0.00     0.074 A 
ATOM     59  C   UNL     1     -12.952  -9.554  -4.313  1.00  0.00     0.031 C 
ATOM     60  C   UNL     1     -13.170 -11.050  -2.348  1.00  0.00     0.031 A 
BRANCH  47  61
ATOM     61  C   UNL     1     -12.092 -11.437   3.737  1.00  0.00    -0.014 A 
ATOM     62  C   UNL     1     -12.944 -11.101   4.806  1.00  0.00     0.010 A 
ATOM     63  C   UNL     1     -11.268 -12.571   3.853  1.00  0.00     0.010 A 
ATOM     64  C   UNL     1     -12.927 -11.845   5.987  1.00  0.00     0.020 A 
ATOM     65  C   UNL     1     -11.275 -13.341   5.020  1.00  0.00     0.020 A 
ATOM     66  C   UNL     1     -12.087 -12.957   6.089  1.00  0.00     0.054 A 
BRANCH  66  67
ATOM     67  S   UNL     1     -12.083 -13.901   7.637  1.00  0.00     0.124 S 
ATOM     68  O   UNL     1     -11.384 -12.991   8.542  1.00  0.00    -0.237 OA
ATOM     69  O   UNL     1     -13.508 -14.081   7.905  1.00  0.00    -0.237 OA
ATOM     70  O   UNL     1     -11.356 -15.122   7.298  1.00  0.00    -0.744 OA
ENDBRANCH  66  67
ENDBRANCH  47  61
BRANCH  48  71
ATOM     71  C   UNL     1     -11.425  -5.604  -4.372  1.00  0.00    -0.014 A 
ATOM     72  C   UNL     1     -12.556  -5.109  -5.044  1.00  0.00     0.010 A 
ATOM     73  C   UNL     1     -10.145  -5.253  -4.843  1.00  0.00     0.010 A 
ATOM     74  C   UNL     1     -12.412  -4.290  -6.168  1.00  0.00     0.020 A 
ATOM     75  C   UNL     1      -9.997  -4.410  -5.948  1.00  0.00     0.020 A 
ATOM     76  C   UNL     1     -11.133  -3.940  -6.609  1.00  0.00     0.054 A 
BRANCH  76  77
ATOM     77  S   UNL     1     -10.974  -2.821  -8.029  1.00  0.00     0.124 S 
ATOM     78  O   UNL     1     -11.387  -3.675  -9.138  1.00  0.00    -0.237 OA
ATOM     79  O   UNL     1     -11.896  -1.742  -7.683  1.00  0.00    -0.237 OA
ATOM     80  O   UNL     1      -9.560  -2.450  -8.016  1.00  0.00    -0.744 OA
ENDBRANCH  76  77
ENDBRANCH  48  71
BRANCH  60  81
ATOM     81  C   UNL     1     -13.825 -12.080  -3.229  1.00  0.00    -0.014 A 
ATOM     82  C   UNL     1     -13.086 -12.831  -4.158  1.00  0.00     0.010 A 
ATOM     83  C   UNL     1     -15.187 -12.377  -3.031  1.00  0.00     0.010 A 
ATOM     84  C   UNL     1     -13.700 -13.863  -4.875  1.00  0.00     0.020 A 
ATOM     85  C   UNL     1     -15.796 -13.425  -3.724  1.00  0.00     0.020 A 
ATOM     86  C   UNL     1     -15.048 -14.160  -4.645  1.00  0.00     0.054 A 
BRANCH  86  87
ATOM     87  S   UNL     1     -15.794 -15.566  -5.516  1.00  0.00     0.124 S 
ATOM     88  O   UNL     1     -15.894 -15.061  -6.882  1.00  0.00    -0.237 OA
ATOM     89  O   UNL     1     -14.811 -16.627  -5.308  1.00  0.00    -0.237 OA
ATOM     90  O   UNL     1     -17.069 -15.763  -4.830  1.00  0.00    -0.744 OA
ENDBRANCH  86  87
ENDBRANCH  60  81
ENDBRANCH  34  35
ENDBRANCH  26  29
ENDBRANCH  24  25
ENDBRANCH   1  24
TORSDOF 18
