REMARK SMILES CC[C@H]1CCCC[C@@H]1C1(C(=O)NCCCNC(=O)c2ccc(-c3c4nc(c(-c5ccc(S(=O)(=O)[O-])cc5)c5ccc([nH]5)c(-c5ccc(S(=O)(=O)[O-])cc5)c5nc(c(-c6ccc(S(=O)(=O)[O-])cc6)c6ccc3[nH]6)C=C5)C=C4)cc2)CC1
REMARK SMILES IDX 14 1 13 2 12 3 10 4 11 5 9 7 79 8 80 9 8 10 3 11 4 12 5 13
REMARK SMILES IDX 7 14 6 15 2 16 1 17 15 18 16 19 17 20 18 22 19 23 20 24
REMARK SMILES IDX 78 25 21 26 77 27 22 28 23 29 24 30 71 31 25 32 76 33 70 34
REMARK SMILES IDX 72 35 26 36 75 37 69 38 68 39 27 41 57 42 38 43 56 44 39 45
REMARK SMILES IDX 42 46 55 47 73 48 40 49 41 50 54 52 74 53 43 54 28 55 29 56
REMARK SMILES IDX 37 57 30 58 36 59 31 60 32 61 33 62 34 63 35 64 58 65 59 66
REMARK SMILES IDX 67 67 60 68 66 69 61 70 62 71 63 72 64 73 65 74 44 75 45 76
REMARK SMILES IDX 53 77 46 78 52 79 47 80 48 81 49 82 50 83 51 84
REMARK H PARENT 12 6 16 21 72 40 42 51
REMARK Flexibility Score: inf
ROOT
ATOM      1  C   UNL     1       1.028   7.769   3.049  1.00  0.00     0.042 C 
ENDROOT
BRANCH   1   2
ATOM      2  C   UNL     1       0.109   6.584   3.333  1.00  0.00     0.117 C 
BRANCH   2   3
ATOM      3  N   UNL     1      -0.710   6.222   2.196  1.00  0.00    -0.356 N 
ATOM      4  C   UNL     1      -0.661   5.258   1.231  1.00  0.00     0.226 C 
ATOM      5  O   UNL     1      -1.650   5.193   0.501  1.00  0.00    -0.274 OA
ATOM      6  H   UNL     1      -1.490   6.814   2.093  1.00  0.00     0.163 HD
BRANCH   4   7
ATOM      7  C   UNL     1       0.488   4.272   1.006  1.00  0.00     0.052 C 
ATOM      8  C   UNL     1       0.746   3.332   2.189  1.00  0.00     0.018 C 
ATOM      9  C   UNL     1       1.795   4.317   1.780  1.00  0.00     0.018 C 
BRANCH   7  10
ATOM     10  C   UNL     1       0.546   3.741  -0.474  1.00  0.00     0.008 C 
ATOM     11  C   UNL     1       1.195   2.356  -0.770  1.00  0.00    -0.007 C 
ATOM     12  C   UNL     1       2.727   2.422  -0.928  1.00  0.00     0.004 C 
ATOM     13  C   UNL     1       3.210   3.557  -1.827  1.00  0.00     0.000 C 
ATOM     14  C   UNL     1       1.074   4.837  -1.420  1.00  0.00     0.005 C 
ATOM     15  C   UNL     1       2.595   4.904  -1.470  1.00  0.00     0.000 C 
BRANCH  11  16
ATOM     16  C   UNL     1       0.542   1.749  -2.048  1.00  0.00     0.000 C 
ATOM     17  C   UNL     1       0.797   0.256  -2.222  1.00  0.00     0.004 C 
ENDBRANCH  11  16
ENDBRANCH   7  10
ENDBRANCH   4   7
ENDBRANCH   2   3
ENDBRANCH   1   2
BRANCH   1  18
ATOM     18  C   UNL     1       0.304   9.025   2.562  1.00  0.00     0.118 C 
BRANCH  18  19
ATOM     19  N   UNL     1      -0.808   9.410   3.422  1.00  0.00    -0.352 N 
ATOM     20  C   UNL     1      -1.023  10.540   4.166  1.00  0.00     0.251 C 
ATOM     21  H   UNL     1      -1.529   8.742   3.477  1.00  0.00     0.163 HD
ATOM     22  O   UNL     1      -1.945  10.553   4.979  1.00  0.00    -0.269 OA
BRANCH  20  23
ATOM     23  C   UNL     1      -0.158  11.728   4.011  1.00  0.00     0.039 A 
ATOM     24  C   UNL     1       0.202  12.448   5.153  1.00  0.00     0.014 A 
ATOM     25  C   UNL     1       0.259  12.163   2.751  1.00  0.00     0.014 A 
ATOM     26  C   UNL     1       1.027  13.568   5.035  1.00  0.00     0.010 A 
ATOM     27  C   UNL     1       1.147  13.231   2.642  1.00  0.00     0.010 A 
ATOM     28  C   UNL     1       1.535  13.949   3.782  1.00  0.00    -0.014 A 
BRANCH  28  29
ATOM     29  C   UNL     1       2.477  15.091   3.659  1.00  0.00     0.031 A 
ATOM     30  C   UNL     1       2.097  16.316   2.872  1.00  0.00     0.074 A 
ATOM     31  C   UNL     1       3.699  15.001   4.223  1.00  0.00     0.049 A 
ATOM     32  N   UNL     1       2.793  17.404   2.656  1.00  0.00    -0.248 NA
ATOM     33  C   UNL     1       0.776  16.312   2.221  1.00  0.00     0.031 C 
ATOM     34  C   UNL     1       4.205  13.843   4.965  1.00  0.00     0.029 A 
ATOM     35  N   UNL     1       4.737  15.897   4.263  1.00  0.00    -0.354 N 
ATOM     36  C   UNL     1       2.005  18.203   1.835  1.00  0.00     0.074 A 
ATOM     37  C   UNL     1       0.800  17.455   1.550  1.00  0.00     0.031 C 
ATOM     38  C   UNL     1       5.440  14.114   5.415  1.00  0.00     0.029 A 
ATOM     39  C   UNL     1       5.830  15.445   4.964  1.00  0.00     0.049 A 
ATOM     40  H   UNL     1       4.702  16.781   3.831  1.00  0.00     0.167 HD
ATOM     41  C   UNL     1       2.252  19.453   1.376  1.00  0.00     0.031 A 
ATOM     42  C   UNL     1       7.016  16.033   5.215  1.00  0.00     0.031 A 
ATOM     43  C   UNL     1       3.448  20.197   1.673  1.00  0.00     0.049 A 
ATOM     44  C   UNL     1       7.262  17.426   4.702  1.00  0.00     0.074 A 
ATOM     45  C   UNL     1       3.765  21.496   1.313  1.00  0.00     0.029 A 
ATOM     46  N   UNL     1       4.527  19.709   2.396  1.00  0.00    -0.354 N 
ATOM     47  N   UNL     1       6.467  18.197   3.998  1.00  0.00    -0.248 NA
ATOM     48  C   UNL     1       8.557  18.034   5.034  1.00  0.00     0.031 C 
ATOM     49  C   UNL     1       5.058  21.772   1.768  1.00  0.00     0.029 A 
ATOM     50  C   UNL     1       5.521  20.670   2.468  1.00  0.00     0.049 A 
ATOM     51  H   UNL     1       4.577  18.812   2.798  1.00  0.00     0.167 HD
ATOM     52  C   UNL     1       7.158  19.392   3.824  1.00  0.00     0.074 A 
ATOM     53  C   UNL     1       8.423  19.247   4.516  1.00  0.00     0.031 C 
ATOM     54  C   UNL     1       6.779  20.508   3.153  1.00  0.00     0.031 A 
BRANCH  41  55
ATOM     55  C   UNL     1       1.210  20.096   0.496  1.00  0.00    -0.014 A 
ATOM     56  C   UNL     1      -0.038  20.491   1.011  1.00  0.00     0.010 A 
ATOM     57  C   UNL     1       1.502  20.353  -0.857  1.00  0.00     0.010 A 
ATOM     58  C   UNL     1      -0.988  21.094   0.183  1.00  0.00     0.020 A 
ATOM     59  C   UNL     1       0.565  20.983  -1.681  1.00  0.00     0.020 A 
ATOM     60  C   UNL     1      -0.681  21.336  -1.159  1.00  0.00     0.054 A 
BRANCH  60  61
ATOM     61  S   UNL     1      -1.923  22.148  -2.202  1.00  0.00     0.124 S 
ATOM     62  O   UNL     1      -2.915  21.089  -2.369  1.00  0.00    -0.237 OA
ATOM     63  O   UNL     1      -2.343  23.279  -1.378  1.00  0.00    -0.237 OA
ATOM     64  O   UNL     1      -1.183  22.503  -3.411  1.00  0.00    -0.744 OA
ENDBRANCH  60  61
ENDBRANCH  41  55
BRANCH  42  65
ATOM     65  C   UNL     1       8.053  15.312   6.003  1.00  0.00    -0.014 A 
ATOM     66  C   UNL     1       8.392  15.737   7.300  1.00  0.00     0.010 A 
ATOM     67  C   UNL     1       8.703  14.188   5.461  1.00  0.00     0.010 A 
ATOM     68  C   UNL     1       9.378  15.066   8.030  1.00  0.00     0.020 A 
ATOM     69  C   UNL     1       9.666  13.496   6.200  1.00  0.00     0.020 A 
ATOM     70  C   UNL     1      10.008  13.948   7.475  1.00  0.00     0.054 A 
BRANCH  70  71
ATOM     71  S   UNL     1      11.252  13.066   8.458  1.00  0.00     0.124 S 
ATOM     72  O   UNL     1      12.383  13.987   8.413  1.00  0.00    -0.237 OA
ATOM     73  O   UNL     1      10.593  12.933   9.755  1.00  0.00    -0.237 OA
ATOM     74  O   UNL     1      11.436  11.812   7.730  1.00  0.00    -0.744 OA
ENDBRANCH  70  71
ENDBRANCH  42  65
BRANCH  54  75
ATOM     75  C   UNL     1       7.734  21.672   3.160  1.00  0.00    -0.014 A 
ATOM     76  C   UNL     1       8.948  21.629   2.450  1.00  0.00     0.010 A 
ATOM     77  C   UNL     1       7.396  22.842   3.866  1.00  0.00     0.010 A 
ATOM     78  C   UNL     1       9.825  22.715   2.485  1.00  0.00     0.020 A 
ATOM     79  C   UNL     1       8.256  23.942   3.876  1.00  0.00     0.020 A 
ATOM     80  C   UNL     1       9.475  23.864   3.201  1.00  0.00     0.054 A 
BRANCH  80  81
ATOM     81  S   UNL     1      10.622  25.268   3.214  1.00  0.00     0.124 S 
ATOM     82  O   UNL     1      11.679  24.788   4.100  1.00  0.00    -0.237 OA
ATOM     83  O   UNL     1      10.992  25.394   1.806  1.00  0.00    -0.237 OA
ATOM     84  O   UNL     1       9.818  26.368   3.741  1.00  0.00    -0.744 OA
ENDBRANCH  80  81
ENDBRANCH  54  75
ENDBRANCH  28  29
ENDBRANCH  20  23
ENDBRANCH  18  19
ENDBRANCH   1  18
TORSDOF 15
