REMARK SMILES Cc1ccc(-c2[nH]c3ccccc3c2[C@@H]2c3ccccc3C(=O)N2[C@H](C)C(=O)NCCCNC(=O)c2ccc(-c3c4nc(c(-c5ccc(S(=O)(=O)[O-])cc5)c5ccc([nH]5)c(-c5ccc(S(=O)(=O)[O-])cc5)c5nc(c(-c6ccc(S(=O)(=O)[O-])cc6)c6ccc3[nH]6)C=C5)C=C4)cc2)cc1
REMARK SMILES IDX 31 1 30 2 29 3 27 4 28 5 25 7 26 8 24 9 15 10 16 11 17 12
REMARK SMILES IDX 21 13 22 14 18 15 20 16 23 17 19 18 14 19 6 20 7 21 8 22
REMARK SMILES IDX 13 24 9 25 12 26 10 27 11 28 5 29 1 30 2 31 3 32 97 33 4 34
REMARK SMILES IDX 96 35 32 36 33 37 34 38 35 40 36 41 37 42 95 43 38 44 94 45
REMARK SMILES IDX 39 46 40 47 41 48 88 49 42 50 93 51 87 52 89 53 43 54 92 55
REMARK SMILES IDX 86 56 85 57 44 59 74 60 55 61 73 62 56 63 59 64 72 65 90 66
REMARK SMILES IDX 57 67 58 68 71 70 91 71 60 72 45 73 46 74 54 75 47 76 53 77
REMARK SMILES IDX 48 78 49 79 50 80 51 81 52 82 75 83 76 84 84 85 77 86 83 87
REMARK SMILES IDX 78 88 79 89 80 90 81 91 82 92 61 93 62 94 70 95 63 96 69 97
REMARK SMILES IDX 64 98 65 99 66 100 67 101 68 102
REMARK H PARENT 29 6 7 23 33 39 89 58 59 69
REMARK Flexibility Score: inf
ROOT
ATOM      1  C   UNL     1      -5.491  -2.999   0.756  1.00  0.00     0.042 C 
ENDROOT
BRANCH   1   2
ATOM      2  C   UNL     1      -6.688  -2.086   0.874  1.00  0.00     0.117 C 
BRANCH   2   3
ATOM      3  N   UNL     1      -7.341  -2.163   2.154  1.00  0.00    -0.354 N 
ATOM      4  C   UNL     1      -7.169  -1.483   3.309  1.00  0.00     0.242 C 
ATOM      5  O   UNL     1      -8.094  -1.636   4.127  1.00  0.00    -0.273 OA
ATOM      6  H   UNL     1      -8.052  -2.843   2.196  1.00  0.00     0.163 HD
BRANCH   4   7
ATOM      7  C   UNL     1      -5.860  -0.786   3.809  1.00  0.00     0.172 C 
ATOM      8  C   UNL     1      -5.034  -1.910   4.477  1.00  0.00     0.042 C 
BRANCH   7   9
ATOM      9  N   UNL     1      -4.952   0.253   3.261  1.00  0.00    -0.316 N 
ATOM     10  C   UNL     1      -4.849   0.823   1.903  1.00  0.00     0.151 C 
ATOM     11  C   UNL     1      -4.166   2.151   2.178  1.00  0.00    -0.008 A 
ATOM     12  C   UNL     1      -4.061   3.322   1.445  1.00  0.00     0.007 A 
ATOM     13  C   UNL     1      -3.650   2.152   3.467  1.00  0.00     0.045 A 
ATOM     14  C   UNL     1      -4.209   1.012   4.174  1.00  0.00     0.255 C 
ATOM     15  C   UNL     1      -3.332   4.402   1.977  1.00  0.00     0.000 A 
ATOM     16  C   UNL     1      -2.893   3.176   4.011  1.00  0.00     0.014 A 
ATOM     17  O   UNL     1      -4.082   0.868   5.375  1.00  0.00    -0.269 OA
ATOM     18  C   UNL     1      -2.714   4.314   3.235  1.00  0.00     0.001 A 
BRANCH  10  19
ATOM     19  C   UNL     1      -3.875   0.052   1.007  1.00  0.00     0.013 A 
ATOM     20  C   UNL     1      -3.916  -0.044  -0.396  1.00  0.00     0.052 A 
ATOM     21  N   UNL     1      -3.010  -1.010  -0.780  1.00  0.00    -0.354 N 
ATOM     22  C   UNL     1      -2.390  -1.568   0.306  1.00  0.00     0.046 A 
ATOM     23  H   UNL     1      -2.832  -1.266  -1.714  1.00  0.00     0.167 HD
ATOM     24  C   UNL     1      -2.798  -0.842   1.425  1.00  0.00     0.006 A 
ATOM     25  C   UNL     1      -1.563  -2.698   0.375  1.00  0.00     0.027 A 
ATOM     26  C   UNL     1      -2.203  -1.197   2.658  1.00  0.00     0.011 A 
ATOM     27  C   UNL     1      -1.077  -3.075   1.627  1.00  0.00     0.002 A 
ATOM     28  C   UNL     1      -1.363  -2.313   2.750  1.00  0.00     0.001 A 
BRANCH  20  29
ATOM     29  C   UNL     1      -4.763   0.563  -1.424  1.00  0.00    -0.002 A 
ATOM     30  C   UNL     1      -7.113   2.342  -4.586  1.00  0.00     0.044 C 
ATOM     31  C   UNL     1      -6.297   1.714  -3.496  1.00  0.00    -0.051 A 
ATOM     32  C   UNL     1      -5.357   2.478  -2.796  1.00  0.00     0.004 A 
ATOM     33  C   UNL     1      -6.442   0.361  -3.175  1.00  0.00     0.004 A 
ATOM     34  C   UNL     1      -4.584   1.899  -1.785  1.00  0.00     0.010 A 
ATOM     35  C   UNL     1      -5.679  -0.209  -2.150  1.00  0.00     0.010 A 
ENDBRANCH  20  29
ENDBRANCH  10  19
ENDBRANCH   7   9
ENDBRANCH   4   7
ENDBRANCH   2   3
ENDBRANCH   1   2
BRANCH   1  36
ATOM     36  C   UNL     1      -5.768  -4.349   0.116  1.00  0.00     0.118 C 
BRANCH  36  37
ATOM     37  N   UNL     1      -5.415  -4.313  -1.312  1.00  0.00    -0.352 N 
ATOM     38  C   UNL     1      -4.531  -5.123  -2.003  1.00  0.00     0.251 C 
ATOM     39  H   UNL     1      -5.867  -3.621  -1.847  1.00  0.00     0.163 HD
ATOM     40  O   UNL     1      -3.942  -4.785  -3.020  1.00  0.00    -0.269 OA
BRANCH  38  41
ATOM     41  C   UNL     1      -4.450  -6.509  -1.510  1.00  0.00     0.039 A 
ATOM     42  C   UNL     1      -5.497  -7.339  -1.938  1.00  0.00     0.014 A 
ATOM     43  C   UNL     1      -3.780  -6.720  -0.312  1.00  0.00     0.014 A 
ATOM     44  C   UNL     1      -6.077  -8.212  -1.032  1.00  0.00     0.010 A 
ATOM     45  C   UNL     1      -4.406  -7.536   0.609  1.00  0.00     0.010 A 
ATOM     46  C   UNL     1      -5.603  -8.201   0.274  1.00  0.00    -0.014 A 
BRANCH  46  47
ATOM     47  C   UNL     1      -6.328  -8.776   1.399  1.00  0.00     0.031 A 
ATOM     48  C   UNL     1      -5.769  -9.986   2.039  1.00  0.00     0.074 A 
ATOM     49  C   UNL     1      -7.390  -8.130   1.938  1.00  0.00     0.049 A 
ATOM     50  N   UNL     1      -6.391 -10.725   2.890  1.00  0.00    -0.248 NA
ATOM     51  C   UNL     1      -4.446 -10.504   1.695  1.00  0.00     0.031 C 
ATOM     52  C   UNL     1      -7.952  -8.343   3.271  1.00  0.00     0.029 A 
ATOM     53  N   UNL     1      -8.318  -7.282   1.323  1.00  0.00    -0.354 N 
ATOM     54  C   UNL     1      -5.468 -11.588   3.437  1.00  0.00     0.074 A 
ATOM     55  C   UNL     1      -4.309 -11.485   2.588  1.00  0.00     0.031 C 
ATOM     56  C   UNL     1      -9.223  -7.916   3.281  1.00  0.00     0.029 A 
ATOM     57  C   UNL     1      -9.563  -7.574   1.911  1.00  0.00     0.049 A 
ATOM     58  H   UNL     1      -8.136  -6.615   0.622  1.00  0.00     0.167 HD
ATOM     59  C   UNL     1      -5.747 -12.181   4.631  1.00  0.00     0.031 A 
ATOM     60  C   UNL     1     -10.637  -8.079   1.233  1.00  0.00     0.031 A 
ATOM     61  C   UNL     1      -7.147 -11.975   5.001  1.00  0.00     0.049 A 
ATOM     62  C   UNL     1     -11.106  -9.410   1.788  1.00  0.00     0.074 A 
ATOM     63  C   UNL     1      -7.783 -11.114   5.877  1.00  0.00     0.029 A 
ATOM     64  N   UNL     1      -8.136 -12.509   4.181  1.00  0.00    -0.354 N 
ATOM     65  N   UNL     1     -10.373 -10.175   2.551  1.00  0.00    -0.248 NA
ATOM     66  C   UNL     1     -12.416  -9.995   1.515  1.00  0.00     0.031 C 
ATOM     67  C   UNL     1      -9.155 -11.054   5.505  1.00  0.00     0.029 A 
ATOM     68  C   UNL     1      -9.354 -11.910   4.435  1.00  0.00     0.049 A 
ATOM     69  H   UNL     1      -7.988 -13.217   3.513  1.00  0.00     0.167 HD
ATOM     70  C   UNL     1     -11.068 -11.310   2.876  1.00  0.00     0.074 A 
ATOM     71  C   UNL     1     -12.345 -11.149   2.203  1.00  0.00     0.031 C 
ATOM     72  C   UNL     1     -10.534 -12.289   3.667  1.00  0.00     0.031 A 
BRANCH  59  73
ATOM     73  C   UNL     1      -4.695 -12.717   5.581  1.00  0.00    -0.014 A 
ATOM     74  C   UNL     1      -5.019 -12.894   6.943  1.00  0.00     0.010 A 
ATOM     75  C   UNL     1      -3.355 -12.977   5.234  1.00  0.00     0.010 A 
ATOM     76  C   UNL     1      -4.053 -13.240   7.904  1.00  0.00     0.020 A 
ATOM     77  C   UNL     1      -2.376 -13.311   6.181  1.00  0.00     0.020 A 
ATOM     78  C   UNL     1      -2.729 -13.429   7.517  1.00  0.00     0.054 A 
BRANCH  78  79
ATOM     79  S   UNL     1      -1.478 -13.820   8.767  1.00  0.00     0.124 S 
ATOM     80  O   UNL     1      -1.533 -12.652   9.642  1.00  0.00    -0.237 OA
ATOM     81  O   UNL     1      -1.984 -15.064   9.339  1.00  0.00    -0.237 OA
ATOM     82  O   UNL     1      -0.244 -13.952   7.993  1.00  0.00    -0.744 OA
ENDBRANCH  78  79
ENDBRANCH  59  73
BRANCH  60  83
ATOM     83  C   UNL     1     -10.716  -7.664  -0.195  1.00  0.00    -0.014 A 
ATOM     84  C   UNL     1     -11.076  -6.324  -0.452  1.00  0.00     0.010 A 
ATOM     85  C   UNL     1     -10.011  -8.380  -1.179  1.00  0.00     0.010 A 
ATOM     86  C   UNL     1     -10.560  -5.653  -1.563  1.00  0.00     0.020 A 
ATOM     87  C   UNL     1      -9.494  -7.707  -2.297  1.00  0.00     0.020 A 
ATOM     88  C   UNL     1      -9.706  -6.331  -2.433  1.00  0.00     0.054 A 
BRANCH  88  89
ATOM     89  S   UNL     1      -8.705  -5.337  -3.584  1.00  0.00     0.124 S 
ATOM     90  O   UNL     1      -9.720  -4.697  -4.414  1.00  0.00    -0.237 OA
ATOM     91  O   UNL     1      -7.982  -4.443  -2.675  1.00  0.00    -0.237 OA
ATOM     92  O   UNL     1      -7.877  -6.333  -4.255  1.00  0.00    -0.744 OA
ENDBRANCH  88  89
ENDBRANCH  60  83
BRANCH  72  93
ATOM     93  C   UNL     1     -11.098 -13.679   3.862  1.00  0.00    -0.014 A 
ATOM     94  C   UNL     1     -12.006 -14.293   2.985  1.00  0.00     0.010 A 
ATOM     95  C   UNL     1     -10.593 -14.480   4.917  1.00  0.00     0.010 A 
ATOM     96  C   UNL     1     -12.443 -15.610   3.190  1.00  0.00     0.020 A 
ATOM     97  C   UNL     1     -10.981 -15.810   5.100  1.00  0.00     0.020 A 
ATOM     98  C   UNL     1     -11.931 -16.359   4.250  1.00  0.00     0.054 A 
BRANCH  98  99
ATOM     99  S   UNL     1     -12.467 -18.073   4.475  1.00  0.00     0.124 S 
ATOM    100  O   UNL     1     -13.680 -17.906   5.270  1.00  0.00    -0.237 OA
ATOM    101  O   UNL     1     -12.676 -18.534   3.104  1.00  0.00    -0.237 OA
ATOM    102  O   UNL     1     -11.342 -18.696   5.168  1.00  0.00    -0.744 OA
ENDBRANCH  98  99
ENDBRANCH  72  93
ENDBRANCH  46  47
ENDBRANCH  38  41
ENDBRANCH  36  37
ENDBRANCH   1  36
TORSDOF 16
