REMARK SMILES CCOc1cccc(OCC)c1-c1ccc([C@@H](C)C(=O)NCCCNC(=O)c2ccc(-c3c4nc(c(-c5ccc(S(=O)(=O)[O-])cc5)c5ccc([nH]5)c(-c5ccc(S(=O)(=O)[O-])cc5)c5nc(c(-c6ccc(S(=O)(=O)[O-])cc6)c6ccc3[nH]6)C=C5)C=C4)cc2)cc1F
REMARK SMILES IDX 22 1 21 2 19 3 20 4 17 6 18 7 16 8 13 9 14 10 89 11 15 12
REMARK SMILES IDX 88 13 90 14 12 15 4 16 5 17 6 18 8 19 7 20 3 21 2 22 1 23
REMARK SMILES IDX 9 24 10 25 11 26 23 27 24 28 25 29 26 30 27 32 28 33 29 34
REMARK SMILES IDX 87 35 30 36 86 37 31 38 32 39 33 40 80 41 34 42 85 43 79 44
REMARK SMILES IDX 81 45 35 46 84 47 78 48 77 49 36 51 66 52 47 53 65 54 48 55
REMARK SMILES IDX 51 56 64 57 82 58 49 59 50 60 63 62 83 63 52 64 37 65 38 66
REMARK SMILES IDX 46 67 39 68 45 69 40 70 41 71 42 72 43 73 44 74 67 75 68 76
REMARK SMILES IDX 76 77 69 78 75 79 70 80 71 81 72 82 73 83 74 84 53 85 54 86
REMARK SMILES IDX 62 87 55 88 61 89 56 90 57 91 58 92 59 93 60 94
REMARK H PARENT 21 5 25 31 81 50 51 61
REMARK Flexibility Score: inf
ROOT
ATOM      1  C   UNL     1       2.542  -0.708  -4.992  1.00  0.00     0.117 C 
ENDROOT
BRANCH   1   2
ATOM      2  N   UNL     1       1.135  -0.399  -4.772  1.00  0.00    -0.356 N 
ATOM      3  C   UNL     1       0.458   0.641  -4.207  1.00  0.00     0.227 C 
ATOM      4  O   UNL     1      -0.775   0.512  -4.183  1.00  0.00    -0.274 OA
ATOM      5  H   UNL     1       0.534  -1.102  -5.111  1.00  0.00     0.163 HD
BRANCH   3   6
ATOM      6  C   UNL     1       1.088   1.924  -3.612  1.00  0.00     0.105 C 
ATOM      7  C   UNL     1       2.032   2.670  -4.548  1.00  0.00     0.023 C 
BRANCH   6   8
ATOM      8  C   UNL     1       1.650   1.739  -2.213  1.00  0.00    -0.033 A 
ATOM      9  C   UNL     1       2.614   1.122   0.393  1.00  0.00     0.025 A 
ATOM     10  C   UNL     1       3.064   0.443  -0.736  1.00  0.00     0.012 A 
ATOM     11  C   UNL     1       1.655   2.123   0.193  1.00  0.00     0.131 A 
ATOM     12  C   UNL     1       2.689   0.846  -2.006  1.00  0.00     0.005 A 
ATOM     13  C   UNL     1       1.145   2.403  -1.087  1.00  0.00     0.044 A 
ATOM     14  F   UNL     1       1.171   2.818   1.234  1.00  0.00    -0.206 F 
BRANCH   9  15
ATOM     15  C   UNL     1       3.109   0.667   1.699  1.00  0.00     0.069 A 
ATOM     16  C   UNL     1       2.192  -0.026   2.536  1.00  0.00     0.130 A 
ATOM     17  C   UNL     1       2.584  -0.649   3.723  1.00  0.00     0.047 A 
ATOM     18  C   UNL     1       3.917  -0.616   4.099  1.00  0.00     0.008 A 
ATOM     19  C   UNL     1       4.463   0.718   2.112  1.00  0.00     0.130 A 
ATOM     20  C   UNL     1       4.836   0.071   3.308  1.00  0.00     0.047 A 
BRANCH  16  21
ATOM     21  O   UNL     1       0.855  -0.033   2.211  1.00  0.00    -0.493 OA
BRANCH  21  22
ATOM     22  C   UNL     1       0.403  -1.296   1.710  1.00  0.00     0.226 C 
ATOM     23  C   UNL     1      -0.229  -1.075   0.344  1.00  0.00     0.049 C 
ENDBRANCH  21  22
ENDBRANCH  16  21
BRANCH  19  24
ATOM     24  O   UNL     1       5.561   1.325   1.563  1.00  0.00    -0.493 OA
BRANCH  24  25
ATOM     25  C   UNL     1       5.652   1.824   0.239  1.00  0.00     0.226 C 
ATOM     26  C   UNL     1       6.218   0.763  -0.696  1.00  0.00     0.049 C 
ENDBRANCH  24  25
ENDBRANCH  19  24
ENDBRANCH   9  15
ENDBRANCH   6   8
ENDBRANCH   3   6
ENDBRANCH   1   2
BRANCH   1  27
ATOM     27  C   UNL     1       3.086  -1.718  -3.971  1.00  0.00     0.042 C 
BRANCH  27  28
ATOM     28  C   UNL     1       2.933  -3.184  -4.339  1.00  0.00     0.118 C 
BRANCH  28  29
ATOM     29  N   UNL     1       3.858  -3.592  -5.380  1.00  0.00    -0.352 N 
ATOM     30  C   UNL     1       4.857  -4.533  -5.381  1.00  0.00     0.251 C 
ATOM     31  H   UNL     1       3.751  -3.110  -6.232  1.00  0.00     0.163 HD
ATOM     32  O   UNL     1       5.632  -4.548  -6.341  1.00  0.00    -0.269 OA
BRANCH  30  33
ATOM     33  C   UNL     1       5.043  -5.513  -4.278  1.00  0.00     0.039 A 
ATOM     34  C   UNL     1       6.339  -5.975  -4.015  1.00  0.00     0.014 A 
ATOM     35  C   UNL     1       3.975  -6.051  -3.554  1.00  0.00     0.014 A 
ATOM     36  C   UNL     1       6.562  -6.940  -3.026  1.00  0.00     0.010 A 
ATOM     37  C   UNL     1       4.208  -6.945  -2.505  1.00  0.00     0.010 A 
ATOM     38  C   UNL     1       5.500  -7.422  -2.245  1.00  0.00    -0.014 A 
BRANCH  38  39
ATOM     39  C   UNL     1       5.729  -8.448  -1.190  1.00  0.00     0.031 A 
ATOM     40  C   UNL     1       5.086  -9.810  -1.295  1.00  0.00     0.074 A 
ATOM     41  C   UNL     1       6.489  -8.148  -0.117  1.00  0.00     0.049 A 
ATOM     42  N   UNL     1       5.163 -10.825  -0.470  1.00  0.00    -0.248 NA
ATOM     43  C   UNL     1       4.223 -10.058  -2.462  1.00  0.00     0.031 C 
ATOM     44  C   UNL     1       7.122  -6.852   0.138  1.00  0.00     0.029 A 
ATOM     45  N   UNL     1       6.856  -8.912   0.964  1.00  0.00    -0.354 N 
ATOM     46  C   UNL     1       4.342 -11.814  -1.003  1.00  0.00     0.074 A 
ATOM     47  C   UNL     1       3.743 -11.265  -2.199  1.00  0.00     0.031 C 
ATOM     48  C   UNL     1       7.819  -6.919   1.284  1.00  0.00     0.029 A 
ATOM     49  C   UNL     1       7.659  -8.249   1.863  1.00  0.00     0.049 A 
ATOM     50  H   UNL     1       6.571  -9.847   1.085  1.00  0.00     0.167 HD
ATOM     51  C   UNL     1       4.120 -13.072  -0.550  1.00  0.00     0.031 A 
ATOM     52  C   UNL     1       8.207  -8.662   3.023  1.00  0.00     0.031 A 
ATOM     53  C   UNL     1       4.743 -13.631   0.620  1.00  0.00     0.049 A 
ATOM     54  C   UNL     1       7.987 -10.080   3.475  1.00  0.00     0.074 A 
ATOM     55  C   UNL     1       4.641 -14.920   1.115  1.00  0.00     0.029 A 
ATOM     56  N   UNL     1       5.586 -12.940   1.476  1.00  0.00    -0.354 N 
ATOM     57  N   UNL     1       7.269 -11.022   2.912  1.00  0.00    -0.248 NA
ATOM     58  C   UNL     1       8.670 -10.496   4.707  1.00  0.00     0.031 C 
ATOM     59  C   UNL     1       5.387 -14.995   2.297  1.00  0.00     0.029 A 
ATOM     60  C   UNL     1       5.999 -13.770   2.505  1.00  0.00     0.049 A 
ATOM     61  H   UNL     1       5.853 -11.998   1.368  1.00  0.00     0.167 HD
ATOM     62  C   UNL     1       7.440 -12.152   3.706  1.00  0.00     0.074 A 
ATOM     63  C   UNL     1       8.343 -11.779   4.775  1.00  0.00     0.031 C 
ATOM     64  C   UNL     1       6.899 -13.387   3.562  1.00  0.00     0.031 A 
BRANCH  51  65
ATOM     65  C   UNL     1       3.159 -13.940  -1.322  1.00  0.00    -0.014 A 
ATOM     66  C   UNL     1       3.494 -14.453  -2.588  1.00  0.00     0.010 A 
ATOM     67  C   UNL     1       1.930 -14.304  -0.742  1.00  0.00     0.010 A 
ATOM     68  C   UNL     1       2.606 -15.289  -3.272  1.00  0.00     0.020 A 
ATOM     69  C   UNL     1       1.051 -15.162  -1.410  1.00  0.00     0.020 A 
ATOM     70  C   UNL     1       1.390 -15.639  -2.678  1.00  0.00     0.054 A 
BRANCH  70  71
ATOM     71  S   UNL     1       0.277 -16.763  -3.566  1.00  0.00     0.124 S 
ATOM     72  O   UNL     1      -0.242 -15.897  -4.624  1.00  0.00    -0.237 OA
ATOM     73  O   UNL     1       1.182 -17.822  -4.012  1.00  0.00    -0.237 OA
ATOM     74  O   UNL     1      -0.694 -17.162  -2.555  1.00  0.00    -0.744 OA
ENDBRANCH  70  71
ENDBRANCH  51  65
BRANCH  52  75
ATOM     75  C   UNL     1       9.035  -7.725   3.832  1.00  0.00    -0.014 A 
ATOM     76  C   UNL     1      10.425  -7.904   3.942  1.00  0.00     0.010 A 
ATOM     77  C   UNL     1       8.430  -6.646   4.502  1.00  0.00     0.010 A 
ATOM     78  C   UNL     1      11.191  -7.041   4.732  1.00  0.00     0.020 A 
ATOM     79  C   UNL     1       9.196  -5.763   5.268  1.00  0.00     0.020 A 
ATOM     80  C   UNL     1      10.570  -5.976   5.391  1.00  0.00     0.054 A 
BRANCH  80  81
ATOM     81  S   UNL     1      11.585  -4.845   6.383  1.00  0.00     0.124 S 
ATOM     82  O   UNL     1      11.850  -5.643   7.576  1.00  0.00    -0.237 OA
ATOM     83  O   UNL     1      12.735  -4.605   5.513  1.00  0.00    -0.237 OA
ATOM     84  O   UNL     1      10.713  -3.690   6.581  1.00  0.00    -0.744 OA
ENDBRANCH  80  81
ENDBRANCH  52  75
BRANCH  64  85
ATOM     85  C   UNL     1       7.306 -14.438   4.559  1.00  0.00    -0.014 A 
ATOM     86  C   UNL     1       6.868 -14.392   5.894  1.00  0.00     0.010 A 
ATOM     87  C   UNL     1       8.127 -15.503   4.143  1.00  0.00     0.010 A 
ATOM     88  C   UNL     1       7.288 -15.362   6.809  1.00  0.00     0.020 A 
ATOM     89  C   UNL     1       8.524 -16.491   5.047  1.00  0.00     0.020 A 
ATOM     90  C   UNL     1       8.120 -16.401   6.380  1.00  0.00     0.054 A 
BRANCH  90  91
ATOM     91  S   UNL     1       8.649 -17.652   7.582  1.00  0.00     0.124 S 
ATOM     92  O   UNL     1       9.671 -16.933   8.337  1.00  0.00    -0.237 OA
ATOM     93  O   UNL     1       7.416 -17.942   8.311  1.00  0.00    -0.237 OA
ATOM     94  O   UNL     1       9.143 -18.746   6.748  1.00  0.00    -0.744 OA
ENDBRANCH  90  91
ENDBRANCH  64  85
ENDBRANCH  38  39
ENDBRANCH  30  33
ENDBRANCH  28  29
ENDBRANCH  27  28
ENDBRANCH   1  27
TORSDOF 19
