REMARK SMILES Cc1c(Cl)cccc1NC(=O)C[C@](C)(C(=O)NCCCNC(=O)c1ccc(-c2c3nc(c(-c4ccc(S(=O)(=O)[O-])cc4)c4ccc([nH]4)c(-c4ccc(S(=O)(=O)[O-])cc4)c4nc(c(-c5ccc(S(=O)(=O)[O-])cc5)c5ccc2[nH]5)C=C4)C=C3)cc1)c1ccccc1
REMARK SMILES IDX 19 1 18 2 17 3 15 4 16 5 13 7 14 8 12 9 10 10 9 11 11 13
REMARK SMILES IDX 8 14 1 15 2 16 3 17 4 18 5 19 7 20 6 21 84 22 85 23 89 24
REMARK SMILES IDX 86 25 88 26 87 27 20 28 21 29 22 30 23 32 24 33 25 34 83 35
REMARK SMILES IDX 26 36 82 37 27 38 28 39 29 40 76 41 30 42 81 43 75 44 77 45
REMARK SMILES IDX 31 46 80 47 74 48 73 49 32 51 62 52 43 53 61 54 44 55 47 56
REMARK SMILES IDX 60 57 78 58 45 59 46 60 59 62 79 63 48 64 33 65 34 66 42 67
REMARK SMILES IDX 35 68 41 69 36 70 37 71 38 72 39 73 40 74 63 75 64 76 72 77
REMARK SMILES IDX 65 78 71 79 66 80 67 81 68 82 69 83 70 84 49 85 50 86 58 87
REMARK SMILES IDX 51 88 57 89 52 90 53 91 54 92 55 93 56 94
REMARK H PARENT 17 6 9 12 21 31 77 50 47 61
REMARK Flexibility Score: inf
ROOT
ATOM      1  C   UNL     1      -4.450  -1.815   3.278  1.00  0.00     0.042 C 
ENDROOT
BRANCH   1   2
ATOM      2  C   UNL     1      -4.285  -2.216   1.631  1.00  0.00     0.117 C 
BRANCH   2   3
ATOM      3  N   UNL     1      -5.143  -1.461  -0.121  1.00  0.00    -0.355 N 
ATOM      4  C   UNL     1      -5.169  -0.603  -1.274  1.00  0.00     0.230 C 
ATOM      5  O   UNL     1      -6.156  -0.895  -1.975  1.00  0.00    -0.274 OA
ATOM      6  H   UNL     1      -5.983  -1.969  -0.198  1.00  0.00     0.163 HD
BRANCH   4   7
ATOM      7  C   UNL     1      -4.225   0.648  -1.705  1.00  0.00     0.080 C 
ATOM      8  C   UNL     1      -4.559   1.817  -0.702  1.00  0.00     0.027 C 
BRANCH   7   9
ATOM      9  C   UNL     1      -2.682   0.372  -1.829  1.00  0.00     0.121 C 
BRANCH   9  10
ATOM     10  C   UNL     1      -2.196  -1.025  -2.166  1.00  0.00     0.225 C 
ATOM     11  N   UNL     1      -2.318  -2.043  -1.269  1.00  0.00    -0.326 N 
ATOM     12  H   UNL     1      -1.738  -2.831  -1.376  1.00  0.00     0.169 HD
ATOM     13  O   UNL     1      -1.640  -1.263  -3.242  1.00  0.00    -0.275 OA
BRANCH  11  14
ATOM     14  C   UNL     1      -3.219  -2.027  -0.211  1.00  0.00     0.045 A 
ATOM     15  C   UNL     1      -3.941  -4.787  -0.546  1.00  0.00     0.048 C 
ATOM     16  C   UNL     1      -4.401  -3.399  -0.191  1.00  0.00    -0.009 A 
ATOM     17  C   UNL     1      -5.965  -3.226   0.701  1.00  0.00     0.046 A 
ATOM     18  Cl  UNL     1      -7.030  -4.562   0.881  1.00  0.00    -0.084 Cl
ATOM     19  C   UNL     1      -6.377  -1.678   1.515  1.00  0.00     0.021 A 
ATOM     20  C   UNL     1      -3.579  -0.491   0.724  1.00  0.00     0.026 A 
ATOM     21  C   UNL     1      -5.200  -0.302   1.525  1.00  0.00     0.004 A 
ENDBRANCH  11  14
ENDBRANCH   9  10
ENDBRANCH   7   9
BRANCH   7  22
ATOM     22  C   UNL     1      -4.569   1.341  -3.091  1.00  0.00    -0.032 A 
ATOM     23  C   UNL     1      -4.090   2.666  -3.313  1.00  0.00     0.005 A 
ATOM     24  C   UNL     1      -5.310   0.764  -4.124  1.00  0.00     0.005 A 
ATOM     25  C   UNL     1      -4.444   3.416  -4.431  1.00  0.00     0.000 A 
ATOM     26  C   UNL     1      -5.656   1.516  -5.259  1.00  0.00     0.000 A 
ATOM     27  C   UNL     1      -5.247   2.842  -5.400  1.00  0.00     0.000 A 
ENDBRANCH   7  22
ENDBRANCH   4   7
ENDBRANCH   2   3
ENDBRANCH   1   2
BRANCH   1  28
ATOM     28  C   UNL     1      -4.927  -3.017   4.073  1.00  0.00     0.118 C 
BRANCH  28  29
ATOM     29  N   UNL     1      -4.138  -4.229   3.884  1.00  0.00    -0.352 N 
ATOM     30  C   UNL     1      -4.414  -5.450   4.454  1.00  0.00     0.251 C 
ATOM     31  H   UNL     1      -3.346  -4.168   3.302  1.00  0.00     0.163 HD
ATOM     32  O   UNL     1      -3.773  -6.457   4.195  1.00  0.00    -0.269 OA
BRANCH  30  33
ATOM     33  C   UNL     1      -5.450  -5.422   5.494  1.00  0.00     0.039 A 
ATOM     34  C   UNL     1      -4.997  -5.315   6.808  1.00  0.00     0.014 A 
ATOM     35  C   UNL     1      -6.765  -5.114   5.136  1.00  0.00     0.014 A 
ATOM     36  C   UNL     1      -5.871  -4.856   7.781  1.00  0.00     0.010 A 
ATOM     37  C   UNL     1      -7.591  -4.537   6.088  1.00  0.00     0.010 A 
ATOM     38  C   UNL     1      -7.162  -4.436   7.422  1.00  0.00    -0.014 A 
BRANCH  38  39
ATOM     39  C   UNL     1      -8.099  -3.993   8.475  1.00  0.00     0.031 A 
ATOM     40  C   UNL     1      -9.318  -4.829   8.741  1.00  0.00     0.074 A 
ATOM     41  C   UNL     1      -7.826  -2.895   9.208  1.00  0.00     0.049 A 
ATOM     42  N   UNL     1     -10.217  -4.694   9.677  1.00  0.00    -0.248 NA
ATOM     43  C   UNL     1      -9.574  -5.955   7.823  1.00  0.00     0.031 C 
ATOM     44  C   UNL     1      -6.684  -1.998   9.004  1.00  0.00     0.029 A 
ATOM     45  N   UNL     1      -8.472  -2.363  10.293  1.00  0.00    -0.354 N 
ATOM     46  C   UNL     1     -11.140  -5.707   9.451  1.00  0.00     0.074 A 
ATOM     47  C   UNL     1     -10.743  -6.399   8.251  1.00  0.00     0.031 C 
ATOM     48  C   UNL     1      -6.682  -1.061   9.967  1.00  0.00     0.029 A 
ATOM     49  C   UNL     1      -7.840  -1.266  10.832  1.00  0.00     0.049 A 
ATOM     50  H   UNL     1      -9.311  -2.732  10.654  1.00  0.00     0.167 HD
ATOM     51  C   UNL     1     -12.208  -6.055  10.202  1.00  0.00     0.031 A 
ATOM     52  C   UNL     1      -8.160  -0.519  11.907  1.00  0.00     0.031 A 
ATOM     53  C   UNL     1     -12.581  -5.365  11.402  1.00  0.00     0.049 A 
ATOM     54  C   UNL     1      -9.368  -0.914  12.715  1.00  0.00     0.074 A 
ATOM     55  C   UNL     1     -13.617  -5.652  12.270  1.00  0.00     0.029 A 
ATOM     56  N   UNL     1     -11.933  -4.243  11.899  1.00  0.00    -0.354 N 
ATOM     57  N   UNL     1     -10.187  -1.924  12.532  1.00  0.00    -0.248 NA
ATOM     58  C   UNL     1      -9.687  -0.082  13.882  1.00  0.00     0.031 C 
ATOM     59  C   UNL     1     -13.644  -4.655  13.249  1.00  0.00     0.029 A 
ATOM     60  C   UNL     1     -12.571  -3.800  13.042  1.00  0.00     0.049 A 
ATOM     61  H   UNL     1     -11.137  -3.825  11.497  1.00  0.00     0.167 HD
ATOM     62  C   UNL     1     -11.103  -1.864  13.576  1.00  0.00     0.074 A 
ATOM     63  C   UNL     1     -10.720  -0.734  14.398  1.00  0.00     0.031 C 
ATOM     64  C   UNL     1     -12.165  -2.667  13.835  1.00  0.00     0.031 A 
BRANCH  51  65
ATOM     65  C   UNL     1     -13.046  -7.212   9.728  1.00  0.00    -0.014 A 
ATOM     66  C   UNL     1     -12.544  -8.527   9.710  1.00  0.00     0.010 A 
ATOM     67  C   UNL     1     -14.368  -6.979   9.311  1.00  0.00     0.010 A 
ATOM     68  C   UNL     1     -13.339  -9.582   9.255  1.00  0.00     0.020 A 
ATOM     69  C   UNL     1     -15.178  -8.035   8.890  1.00  0.00     0.020 A 
ATOM     70  C   UNL     1     -14.655  -9.329   8.854  1.00  0.00     0.054 A 
BRANCH  70  71
ATOM     71  S   UNL     1     -15.681 -10.724   8.320  1.00  0.00     0.124 S 
ATOM     72  O   UNL     1     -15.053 -11.095   7.054  1.00  0.00    -0.237 OA
ATOM     73  O   UNL     1     -15.507 -11.680   9.411  1.00  0.00    -0.237 OA
ATOM     74  O   UNL     1     -17.018 -10.149   8.206  1.00  0.00    -0.744 OA
ENDBRANCH  70  71
ENDBRANCH  51  65
BRANCH  52  75
ATOM     75  C   UNL     1      -7.333   0.666  12.274  1.00  0.00    -0.014 A 
ATOM     76  C   UNL     1      -6.598   0.703  13.473  1.00  0.00     0.010 A 
ATOM     77  C   UNL     1      -7.281   1.779  11.414  1.00  0.00     0.010 A 
ATOM     78  C   UNL     1      -5.849   1.835  13.814  1.00  0.00     0.020 A 
ATOM     79  C   UNL     1      -6.507   2.897  11.733  1.00  0.00     0.020 A 
ATOM     80  C   UNL     1      -5.806   2.924  12.938  1.00  0.00     0.054 A 
BRANCH  80  81
ATOM     81  S   UNL     1      -4.796   4.366  13.379  1.00  0.00     0.124 S 
ATOM     82  O   UNL     1      -5.545   4.933  14.495  1.00  0.00    -0.237 OA
ATOM     83  O   UNL     1      -3.513   3.756  13.719  1.00  0.00    -0.237 OA
ATOM     84  O   UNL     1      -4.791   5.167  12.156  1.00  0.00    -0.744 OA
ENDBRANCH  80  81
ENDBRANCH  52  75
BRANCH  64  85
ATOM     85  C   UNL     1     -12.966  -2.374  15.075  1.00  0.00    -0.014 A 
ATOM     86  C   UNL     1     -13.768  -1.224  15.175  1.00  0.00     0.010 A 
ATOM     87  C   UNL     1     -12.962  -3.305  16.131  1.00  0.00     0.010 A 
ATOM     88  C   UNL     1     -14.518  -0.989  16.329  1.00  0.00     0.020 A 
ATOM     89  C   UNL     1     -13.743  -3.093  17.267  1.00  0.00     0.020 A 
ATOM     90  C   UNL     1     -14.502  -1.927  17.366  1.00  0.00     0.054 A 
BRANCH  90  91
ATOM     91  S   UNL     1     -15.516  -1.614  18.835  1.00  0.00     0.124 S 
ATOM     92  O   UNL     1     -14.808  -0.501  19.460  1.00  0.00    -0.237 OA
ATOM     93  O   UNL     1     -16.818  -1.288  18.259  1.00  0.00    -0.237 OA
ATOM     94  O   UNL     1     -15.463  -2.877  19.569  1.00  0.00    -0.744 OA
ENDBRANCH  90  91
ENDBRANCH  64  85
ENDBRANCH  38  39
ENDBRANCH  30  33
ENDBRANCH  28  29
ENDBRANCH   1  28
TORSDOF 17
