REMARK SMILES Cc1cc(NC(=O)CCC(=O)NCCCNC(=O)c2ccc(-c3c4nc(c(-c5ccc(S(=O)(=O)[O-])cc5)c5ccc([nH]5)c(-c5ccc(S(=O)(=O)[O-])cc5)c5nc(c(-c6ccc(S(=O)(=O)[O-])cc6)c6ccc3[nH]6)C=C5)C=C4)cc2)ccc1S(=O)(=O)[O-]
REMARK SMILES IDX 13 1 12 2 10 3 11 4 9 6 8 7 6 8 5 9 7 11 4 12 1 13 2 14 3 15
REMARK SMILES IDX 81 16 80 17 79 18 82 19 83 20 84 21 85 22 14 23 15 24 16 25
REMARK SMILES IDX 17 26 18 28 19 29 20 30 78 31 21 32 77 33 22 34 23 35 24 36
REMARK SMILES IDX 71 37 25 38 76 39 70 40 72 41 26 42 75 43 69 44 68 45 27 47
REMARK SMILES IDX 57 48 38 49 56 50 39 51 42 52 55 53 73 54 40 55 41 56 54 58
REMARK SMILES IDX 74 59 43 60 28 61 29 62 37 63 30 64 36 65 31 66 32 67 33 68
REMARK SMILES IDX 34 69 35 70 58 71 59 72 67 73 60 74 66 75 61 76 62 77 63 78
REMARK SMILES IDX 64 79 65 80 44 81 45 82 53 83 46 84 52 85 47 86 48 87 49 88
REMARK SMILES IDX 50 89 51 90
REMARK H PARENT 12 5 5 10 16 27 72 46 42 57
REMARK Flexibility Score: inf
ROOT
ATOM      1  C   UNL     1      -2.432  -3.064  -2.415  1.00  0.00     0.117 C 
ENDROOT
BRANCH   1   2
ATOM      2  N   UNL     1      -1.424  -2.056  -2.108  1.00  0.00    -0.356 N 
ATOM      3  C   UNL     1      -0.082  -2.182  -1.922  1.00  0.00     0.220 C 
ATOM      4  O   UNL     1       0.633  -1.185  -2.033  1.00  0.00    -0.275 OA
ATOM      5  H   UNL     1      -1.770  -1.138  -2.022  1.00  0.00     0.163 HD
BRANCH   3   6
ATOM      6  C   UNL     1       0.536  -3.521  -1.594  1.00  0.00     0.110 C 
BRANCH   6   7
ATOM      7  C   UNL     1       0.703  -3.872  -0.118  1.00  0.00     0.110 C 
BRANCH   7   8
ATOM      8  C   UNL     1      -0.468  -3.616   0.808  1.00  0.00     0.224 C 
ATOM      9  N   UNL     1      -0.835  -2.376   1.242  1.00  0.00    -0.326 N 
ATOM     10  H   UNL     1      -1.675  -2.365   1.754  1.00  0.00     0.169 HD
ATOM     11  O   UNL     1      -1.167  -4.574   1.161  1.00  0.00    -0.275 OA
BRANCH   9  12
ATOM     12  C   UNL     1      -0.242  -1.113   1.096  1.00  0.00     0.041 A 
ATOM     13  C   UNL     1       3.138   0.362   0.285  1.00  0.00     0.046 C 
ATOM     14  C   UNL     1       1.671   0.346   0.601  1.00  0.00    -0.032 A 
ATOM     15  C   UNL     1       1.129  -0.908   0.958  1.00  0.00     0.030 A 
ATOM     16  C   UNL     1       0.784   1.422   0.444  1.00  0.00     0.057 A 
ATOM     17  C   UNL     1      -0.585   1.248   0.715  1.00  0.00     0.021 A 
ATOM     18  C   UNL     1      -1.091  -0.009   1.050  1.00  0.00     0.027 A 
BRANCH  16  19
ATOM     19  S   UNL     1       1.226   3.049  -0.130  1.00  0.00     0.124 S 
ATOM     20  O   UNL     1       0.745   3.200  -1.468  1.00  0.00    -0.237 OA
ATOM     21  O   UNL     1       0.865   3.981   0.935  1.00  0.00    -0.237 OA
ATOM     22  O   UNL     1       2.832   3.157  -0.191  1.00  0.00    -0.744 OA
ENDBRANCH  16  19
ENDBRANCH   9  12
ENDBRANCH   7   8
ENDBRANCH   6   7
ENDBRANCH   3   6
ENDBRANCH   1   2
BRANCH   1  23
ATOM     23  C   UNL     1      -3.457  -3.302  -1.315  1.00  0.00     0.042 C 
BRANCH  23  24
ATOM     24  C   UNL     1      -4.224  -2.067  -0.875  1.00  0.00     0.118 C 
BRANCH  24  25
ATOM     25  N   UNL     1      -5.602  -1.980  -1.347  1.00  0.00    -0.352 N 
ATOM     26  C   UNL     1      -6.624  -1.600  -0.479  1.00  0.00     0.251 C 
ATOM     27  H   UNL     1      -5.811  -2.192  -2.286  1.00  0.00     0.163 HD
ATOM     28  O   UNL     1      -7.542  -2.322  -0.120  1.00  0.00    -0.269 OA
BRANCH  26  29
ATOM     29  C   UNL     1      -6.499  -0.213   0.017  1.00  0.00     0.039 A 
ATOM     30  C   UNL     1      -7.269   0.811  -0.537  1.00  0.00     0.014 A 
ATOM     31  C   UNL     1      -5.418   0.070   0.848  1.00  0.00     0.014 A 
ATOM     32  C   UNL     1      -6.836   2.130  -0.405  1.00  0.00     0.010 A 
ATOM     33  C   UNL     1      -4.924   1.346   0.871  1.00  0.00     0.010 A 
ATOM     34  C   UNL     1      -5.614   2.369   0.216  1.00  0.00    -0.014 A 
BRANCH  34  35
ATOM     35  C   UNL     1      -4.957   3.654   0.344  1.00  0.00     0.031 A 
ATOM     36  C   UNL     1      -5.082   4.365   1.635  1.00  0.00     0.074 A 
ATOM     37  C   UNL     1      -4.067   4.049  -0.592  1.00  0.00     0.049 A 
ATOM     38  N   UNL     1      -4.729   5.587   1.819  1.00  0.00    -0.248 NA
ATOM     39  C   UNL     1      -5.662   3.755   2.833  1.00  0.00     0.031 C 
ATOM     40  C   UNL     1      -2.989   5.023  -0.431  1.00  0.00     0.029 A 
ATOM     41  N   UNL     1      -3.971   3.731  -1.936  1.00  0.00    -0.354 N 
ATOM     42  C   UNL     1      -4.726   5.817   3.176  1.00  0.00     0.074 A 
ATOM     43  C   UNL     1      -5.420   4.693   3.754  1.00  0.00     0.031 C 
ATOM     44  C   UNL     1      -2.580   5.421  -1.649  1.00  0.00     0.029 A 
ATOM     45  C   UNL     1      -3.517   4.870  -2.610  1.00  0.00     0.049 A 
ATOM     46  H   UNL     1      -4.183   2.860  -2.343  1.00  0.00     0.167 HD
ATOM     47  C   UNL     1      -4.012   6.872   3.655  1.00  0.00     0.031 A 
ATOM     48  C   UNL     1      -4.315   5.631  -3.430  1.00  0.00     0.031 A 
ATOM     49  C   UNL     1      -3.428   7.651   2.564  1.00  0.00     0.049 A 
ATOM     50  C   UNL     1      -4.507   7.071  -2.955  1.00  0.00     0.074 A 
ATOM     51  C   UNL     1      -2.161   7.740   2.014  1.00  0.00     0.029 A 
ATOM     52  N   UNL     1      -4.282   8.264   1.668  1.00  0.00    -0.354 N 
ATOM     53  N   UNL     1      -4.092   7.528  -1.806  1.00  0.00    -0.248 NA
ATOM     54  C   UNL     1      -5.260   8.085  -3.698  1.00  0.00     0.031 C 
ATOM     55  C   UNL     1      -2.271   8.431   0.772  1.00  0.00     0.029 A 
ATOM     56  C   UNL     1      -3.597   8.779   0.589  1.00  0.00     0.049 A 
ATOM     57  H   UNL     1      -5.258   8.325   1.785  1.00  0.00     0.167 HD
ATOM     58  C   UNL     1      -4.552   8.803  -1.610  1.00  0.00     0.074 A 
ATOM     59  C   UNL     1      -5.271   9.115  -2.830  1.00  0.00     0.031 C 
ATOM     60  C   UNL     1      -4.350   9.478  -0.439  1.00  0.00     0.031 A 
BRANCH  47  61
ATOM     61  C   UNL     1      -3.650   7.111   5.101  1.00  0.00    -0.014 A 
ATOM     62  C   UNL     1      -2.619   8.029   5.392  1.00  0.00     0.010 A 
ATOM     63  C   UNL     1      -4.229   6.460   6.205  1.00  0.00     0.010 A 
ATOM     64  C   UNL     1      -2.138   8.227   6.691  1.00  0.00     0.020 A 
ATOM     65  C   UNL     1      -3.750   6.637   7.513  1.00  0.00     0.020 A 
ATOM     66  C   UNL     1      -2.693   7.510   7.745  1.00  0.00     0.054 A 
BRANCH  66  67
ATOM     67  S   UNL     1      -2.015   7.733   9.408  1.00  0.00     0.124 S 
ATOM     68  O   UNL     1      -0.631   7.294   9.241  1.00  0.00    -0.237 OA
ATOM     69  O   UNL     1      -2.200   9.163   9.636  1.00  0.00    -0.237 OA
ATOM     70  O   UNL     1      -2.841   6.861  10.240  1.00  0.00    -0.744 OA
ENDBRANCH  66  67
ENDBRANCH  47  61
BRANCH  48  71
ATOM     71  C   UNL     1      -5.365   4.831  -4.133  1.00  0.00    -0.014 A 
ATOM     72  C   UNL     1      -4.929   3.907  -5.107  1.00  0.00     0.010 A 
ATOM     73  C   UNL     1      -6.609   4.629  -3.511  1.00  0.00     0.010 A 
ATOM     74  C   UNL     1      -5.594   2.688  -5.267  1.00  0.00     0.020 A 
ATOM     75  C   UNL     1      -7.287   3.414  -3.687  1.00  0.00     0.020 A 
ATOM     76  C   UNL     1      -6.718   2.418  -4.486  1.00  0.00     0.054 A 
BRANCH  76  77
ATOM     77  S   UNL     1      -7.294   0.694  -4.374  1.00  0.00     0.124 S 
ATOM     78  O   UNL     1      -7.449   0.320  -5.775  1.00  0.00    -0.237 OA
ATOM     79  O   UNL     1      -6.189   0.038  -3.666  1.00  0.00    -0.237 OA
ATOM     80  O   UNL     1      -8.534   0.800  -3.613  1.00  0.00    -0.744 OA
ENDBRANCH  76  77
ENDBRANCH  48  71
BRANCH  60  81
ATOM     81  C   UNL     1      -4.892  10.850  -0.123  1.00  0.00    -0.014 A 
ATOM     82  C   UNL     1      -4.930  11.893  -1.058  1.00  0.00     0.010 A 
ATOM     83  C   UNL     1      -5.282  11.164   1.202  1.00  0.00     0.010 A 
ATOM     84  C   UNL     1      -5.401  13.167  -0.701  1.00  0.00     0.020 A 
ATOM     85  C   UNL     1      -5.732  12.431   1.575  1.00  0.00     0.020 A 
ATOM     86  C   UNL     1      -5.808  13.424   0.612  1.00  0.00     0.054 A 
BRANCH  86  87
ATOM     87  S   UNL     1      -6.397  15.075   1.056  1.00  0.00     0.124 S 
ATOM     88  O   UNL     1      -5.361  15.942   0.500  1.00  0.00    -0.237 OA
ATOM     89  O   UNL     1      -7.690  15.127   0.377  1.00  0.00    -0.237 OA
ATOM     90  O   UNL     1      -6.462  15.046   2.515  1.00  0.00    -0.744 OA
ENDBRANCH  86  87
ENDBRANCH  60  81
ENDBRANCH  34  35
ENDBRANCH  26  29
ENDBRANCH  24  25
ENDBRANCH  23  24
ENDBRANCH   1  23
TORSDOF 17
