REMARK SMILES O=C(NCCCNC(=O)[C@H]1CC[C@@H](C(F)F)[NH2+]1)c1ccc(-c2c3nc(c(-c4ccc(S(=O)(=O)[O-])cc4)c4ccc([nH]4)c(-c4ccc(S(=O)(=O)[O-])cc4)c4nc(c(-c5ccc(S(=O)(=O)[O-])cc5)c5ccc2[nH]5)C=C4)C=C3)cc1
REMARK SMILES IDX 4 1 3 2 1 3 2 4 18 6 19 7 77 8 20 9 76 10 21 11 22 12 23 13
REMARK SMILES IDX 70 14 24 15 75 16 69 17 71 18 25 19 74 20 68 21 67 22 26 24
REMARK SMILES IDX 56 25 37 26 55 27 38 28 41 29 54 30 72 31 39 32 40 33 53 35
REMARK SMILES IDX 73 36 42 37 27 38 28 39 36 40 29 41 35 42 30 43 31 44 32 45
REMARK SMILES IDX 33 46 34 47 57 48 58 49 66 50 59 51 65 52 60 53 61 54 62 55
REMARK SMILES IDX 63 56 64 57 43 58 44 59 52 60 45 61 51 62 46 63 47 64 48 65
REMARK SMILES IDX 49 66 50 67 5 68 6 69 7 70 8 71 9 73 10 74 11 75 17 76 12 77
REMARK SMILES IDX 13 78 14 81 15 82 16 83
REMARK H PARENT 3 5 71 23 41 34 7 72 17 79 17 80
REMARK Flexibility Score: inf
ROOT
ATOM      1  C   UNL     1      10.247  -3.192   3.179  1.00  0.00     0.118 C 
ENDROOT
BRANCH   1   2
ATOM      2  N   UNL     1      10.490  -4.594   2.862  1.00  0.00    -0.352 N 
ATOM      3  O   UNL     1      11.132  -6.377   1.655  1.00  0.00    -0.269 OA
ATOM      4  C   UNL     1      11.227  -5.164   1.856  1.00  0.00     0.251 C 
ATOM      5  H   UNL     1      10.055  -5.236   3.468  1.00  0.00     0.163 HD
BRANCH   4   6
ATOM      6  C   UNL     1      12.115  -4.346   1.004  1.00  0.00     0.039 A 
ATOM      7  C   UNL     1      12.935  -3.356   1.554  1.00  0.00     0.014 A 
ATOM      8  C   UNL     1      12.169  -4.611  -0.367  1.00  0.00     0.014 A 
ATOM      9  C   UNL     1      13.703  -2.545   0.722  1.00  0.00     0.010 A 
ATOM     10  C   UNL     1      13.001  -3.849  -1.192  1.00  0.00     0.010 A 
ATOM     11  C   UNL     1      13.754  -2.792  -0.658  1.00  0.00    -0.014 A 
BRANCH  11  12
ATOM     12  C   UNL     1      14.641  -1.984  -1.532  1.00  0.00     0.031 A 
ATOM     13  C   UNL     1      14.069  -1.120  -2.619  1.00  0.00     0.074 A 
ATOM     14  C   UNL     1      15.976  -2.066  -1.366  1.00  0.00     0.049 A 
ATOM     15  N   UNL     1      14.694  -0.414  -3.526  1.00  0.00    -0.248 NA
ATOM     16  C   UNL     1      12.602  -1.047  -2.706  1.00  0.00     0.031 C 
ATOM     17  C   UNL     1      16.650  -2.872  -0.346  1.00  0.00     0.029 A 
ATOM     18  N   UNL     1      17.003  -1.478  -2.060  1.00  0.00    -0.354 N 
ATOM     19  C   UNL     1      13.702   0.164  -4.309  1.00  0.00     0.074 A 
ATOM     20  C   UNL     1      12.433  -0.292  -3.783  1.00  0.00     0.031 C 
ATOM     21  C   UNL     1      17.976  -2.726  -0.477  1.00  0.00     0.029 A 
ATOM     22  C   UNL     1      18.247  -1.871  -1.628  1.00  0.00     0.049 A 
ATOM     23  H   UNL     1      16.863  -0.838  -2.795  1.00  0.00     0.167 HD
ATOM     24  C   UNL     1      13.838   0.996  -5.371  1.00  0.00     0.031 A 
ATOM     25  C   UNL     1      19.473  -1.610  -2.121  1.00  0.00     0.031 A 
ATOM     26  C   UNL     1      15.108   1.427  -5.897  1.00  0.00     0.049 A 
ATOM     27  C   UNL     1      19.605  -0.723  -3.324  1.00  0.00     0.074 A 
ATOM     28  C   UNL     1      15.354   2.299  -6.944  1.00  0.00     0.029 A 
ATOM     29  N   UNL     1      16.345   1.006  -5.429  1.00  0.00    -0.354 N 
ATOM     30  N   UNL     1      18.658  -0.146  -4.024  1.00  0.00    -0.248 NA
ATOM     31  C   UNL     1      20.965  -0.445  -3.802  1.00  0.00     0.031 C 
ATOM     32  C   UNL     1      16.736   2.353  -7.150  1.00  0.00     0.029 A 
ATOM     33  C   UNL     1      17.357   1.574  -6.186  1.00  0.00     0.049 A 
ATOM     34  H   UNL     1      16.483   0.394  -4.670  1.00  0.00     0.167 HD
ATOM     35  C   UNL     1      19.307   0.586  -5.010  1.00  0.00     0.074 A 
ATOM     36  C   UNL     1      20.729   0.381  -4.814  1.00  0.00     0.031 C 
ATOM     37  C   UNL     1      18.770   1.364  -5.981  1.00  0.00     0.031 A 
BRANCH  24  38
ATOM     38  C   UNL     1      12.578   1.446  -6.066  1.00  0.00    -0.014 A 
ATOM     39  C   UNL     1      11.661   2.312  -5.442  1.00  0.00     0.010 A 
ATOM     40  C   UNL     1      12.307   0.995  -7.372  1.00  0.00     0.010 A 
ATOM     41  C   UNL     1      10.466   2.658  -6.080  1.00  0.00     0.020 A 
ATOM     42  C   UNL     1      11.129   1.364  -8.027  1.00  0.00     0.020 A 
ATOM     43  C   UNL     1      10.202   2.170  -7.364  1.00  0.00     0.054 A 
BRANCH  43  44
ATOM     44  S   UNL     1       8.627   2.602  -8.152  1.00  0.00     0.124 S 
ATOM     45  O   UNL     1       7.681   1.781  -7.399  1.00  0.00    -0.237 OA
ATOM     46  O   UNL     1       8.533   4.040  -7.918  1.00  0.00    -0.237 OA
ATOM     47  O   UNL     1       8.816   2.211  -9.547  1.00  0.00    -0.744 OA
ENDBRANCH  43  44
ENDBRANCH  24  38
BRANCH  25  48
ATOM     48  C   UNL     1      20.656  -2.233  -1.469  1.00  0.00    -0.014 A 
ATOM     49  C   UNL     1      21.526  -1.468  -0.676  1.00  0.00     0.010 A 
ATOM     50  C   UNL     1      20.859  -3.624  -1.564  1.00  0.00     0.010 A 
ATOM     51  C   UNL     1      22.571  -2.083   0.021  1.00  0.00     0.020 A 
ATOM     52  C   UNL     1      21.884  -4.246  -0.848  1.00  0.00     0.020 A 
ATOM     53  C   UNL     1      22.735  -3.470  -0.060  1.00  0.00     0.054 A 
BRANCH  53  54
ATOM     54  S   UNL     1      24.031  -4.256   0.938  1.00  0.00     0.124 S 
ATOM     55  O   UNL     1      25.244  -3.847   0.237  1.00  0.00    -0.237 OA
ATOM     56  O   UNL     1      23.825  -3.652   2.252  1.00  0.00    -0.237 OA
ATOM     57  O   UNL     1      23.709  -5.679   0.858  1.00  0.00    -0.744 OA
ENDBRANCH  53  54
ENDBRANCH  25  48
BRANCH  37  58
ATOM     58  C   UNL     1      19.714   2.098  -6.896  1.00  0.00    -0.014 A 
ATOM     59  C   UNL     1      20.413   1.431  -7.917  1.00  0.00     0.010 A 
ATOM     60  C   UNL     1      19.813   3.499  -6.797  1.00  0.00     0.010 A 
ATOM     61  C   UNL     1      21.194   2.154  -8.823  1.00  0.00     0.020 A 
ATOM     62  C   UNL     1      20.572   4.226  -7.716  1.00  0.00     0.020 A 
ATOM     63  C   UNL     1      21.260   3.548  -8.723  1.00  0.00     0.054 A 
BRANCH  63  64
ATOM     64  S   UNL     1      22.199   4.470  -9.972  1.00  0.00     0.124 S 
ATOM     65  O   UNL     1      23.578   4.155  -9.611  1.00  0.00    -0.237 OA
ATOM     66  O   UNL     1      21.727   3.884 -11.224  1.00  0.00    -0.237 OA
ATOM     67  O   UNL     1      21.800   5.859  -9.752  1.00  0.00    -0.744 OA
ENDBRANCH  63  64
ENDBRANCH  37  58
ENDBRANCH  11  12
ENDBRANCH   4   6
ENDBRANCH   1   2
BRANCH   1  68
ATOM     68  C   UNL     1       8.802  -2.772   2.929  1.00  0.00     0.042 C 
BRANCH  68  69
ATOM     69  C   UNL     1       7.775  -3.526   3.762  1.00  0.00     0.118 C 
BRANCH  69  70
ATOM     70  N   UNL     1       7.971  -3.361   5.189  1.00  0.00    -0.351 N 
ATOM     71  C   UNL     1       7.141  -2.817   6.128  1.00  0.00     0.278 C 
ATOM     72  H   UNL     1       8.832  -3.692   5.534  1.00  0.00     0.163 HD
ATOM     73  O   UNL     1       7.468  -2.929   7.311  1.00  0.00    -0.268 OA
BRANCH  71  74
ATOM     74  C   UNL     1       5.845  -2.105   5.684  1.00  0.00     0.273 C 
ATOM     75  C   UNL     1       4.813  -2.026   6.795  1.00  0.00     0.082 C 
ATOM     76  N   UNL     1       6.128  -0.690   5.331  1.00  0.00    -0.329 N 
ATOM     77  C   UNL     1       5.223  -0.802   7.586  1.00  0.00     0.078 C 
ATOM     78  C   UNL     1       5.855   0.128   6.551  1.00  0.00     0.251 C 
ATOM     79  H   UNL     1       5.521  -0.392   4.567  1.00  0.00     0.347 HD
ATOM     80  H   UNL     1       7.095  -0.578   5.027  1.00  0.00     0.347 HD
BRANCH  78  81
ATOM     81  C   UNL     1       7.062   0.895   7.123  1.00  0.00     0.399 C 
ATOM     82  F   UNL     1       6.671   1.594   8.223  1.00  0.00    -0.204 F 
ATOM     83  F   UNL     1       8.041   0.053   7.527  1.00  0.00    -0.204 F 
ENDBRANCH  78  81
ENDBRANCH  71  74
ENDBRANCH  69  70
ENDBRANCH  68  69
ENDBRANCH   1  68
TORSDOF 14
