REMARK SMILES Cc1cccc(-c2ncc([C@@H]3[NH2+][C@H](C(=O)NCCCNC(=O)c4ccc(-c5c6nc(c(-c7ccc(S(=O)(=O)[O-])cc7)c7ccc([nH]7)c(-c7ccc(S(=O)(=O)[O-])cc7)c7nc(c(-c8ccc(S(=O)(=O)[O-])cc8)c8ccc5[nH]8)C=C7)C=C6)cc4)C(C)(C)S3)s2)c1
REMARK SMILES IDX 18 1 17 2 16 3 14 4 15 5 13 7 11 8 12 9 86 10 83 13 84 14
REMARK SMILES IDX 85 15 10 16 7 17 8 18 87 19 9 20 6 21 1 22 2 23 3 24 88 25
REMARK SMILES IDX 4 26 5 27 19 28 20 29 21 30 22 32 23 33 24 34 82 35 25 36
REMARK SMILES IDX 81 37 26 38 27 39 28 40 75 41 29 42 80 43 74 44 76 45 30 46
REMARK SMILES IDX 79 47 73 48 72 49 31 51 61 52 42 53 60 54 43 55 46 56 59 57
REMARK SMILES IDX 77 58 44 59 45 60 58 62 78 63 47 64 32 65 33 66 41 67 34 68
REMARK SMILES IDX 40 69 35 70 36 71 37 72 38 73 39 74 62 75 63 76 71 77 64 78
REMARK SMILES IDX 70 79 65 80 66 81 67 82 68 83 69 84 48 85 49 86 57 87 50 88
REMARK SMILES IDX 56 89 51 90 52 91 53 92 54 93 55 94
REMARK H PARENT 16 6 12 11 12 12 20 31 76 50 46 61
REMARK Flexibility Score: inf
ROOT
ATOM      1  C   UNL     1      -8.498   8.857   0.993  1.00  0.00     0.042 C 
ENDROOT
BRANCH   1   2
ATOM      2  C   UNL     1      -7.346   9.587   1.675  1.00  0.00     0.118 C 
BRANCH   2   3
ATOM      3  N   UNL     1      -6.609   8.687   2.534  1.00  0.00    -0.351 N 
ATOM      4  C   UNL     1      -5.470   7.972   2.416  1.00  0.00     0.279 C 
ATOM      5  O   UNL     1      -5.128   7.451   3.491  1.00  0.00    -0.268 OA
ATOM      6  H   UNL     1      -7.038   8.567   3.412  1.00  0.00     0.163 HD
BRANCH   4   7
ATOM      7  C   UNL     1      -4.508   7.906   1.167  1.00  0.00     0.289 C 
ATOM      8  C   UNL     1      -3.839   5.571   1.090  1.00  0.00     0.286 C 
ATOM      9  N   UNL     1      -3.422   6.912   1.528  1.00  0.00    -0.319 N 
ATOM     10  S   UNL     1      -4.743   5.765  -0.460  1.00  0.00    -0.080 SA
ATOM     11  H   UNL     1      -2.553   7.170   1.062  1.00  0.00     0.348 HD
ATOM     12  H   UNL     1      -3.274   6.915   2.538  1.00  0.00     0.348 HD
ATOM     13  C   UNL     1      -4.837   7.583  -0.324  1.00  0.00     0.077 C 
ATOM     14  C   UNL     1      -3.725   8.146  -1.247  1.00  0.00     0.030 C 
ATOM     15  C   UNL     1      -6.157   8.007  -0.935  1.00  0.00     0.030 C 
BRANCH   8  16
ATOM     16  C   UNL     1      -4.609   4.761   2.090  1.00  0.00     0.093 A 
ATOM     17  C   UNL     1      -5.323   3.092   3.744  1.00  0.00     0.123 A 
ATOM     18  N   UNL     1      -6.356   3.797   3.330  1.00  0.00    -0.244 NA
ATOM     19  S   UNL     1      -3.823   3.537   3.014  1.00  0.00    -0.112 S 
ATOM     20  C   UNL     1      -5.952   4.754   2.422  1.00  0.00     0.134 A 
BRANCH  17  21
ATOM     21  C   UNL     1      -5.428   1.962   4.688  1.00  0.00     0.011 A 
ATOM     22  C   UNL     1      -8.191  -0.384   5.930  1.00  0.00     0.044 C 
ATOM     23  C   UNL     1      -6.846   0.260   5.745  1.00  0.00    -0.050 A 
ATOM     24  C   UNL     1      -5.738  -0.220   6.447  1.00  0.00     0.003 A 
ATOM     25  C   UNL     1      -6.682   1.350   4.877  1.00  0.00     0.014 A 
ATOM     26  C   UNL     1      -4.490   0.381   6.288  1.00  0.00     0.001 A 
ATOM     27  C   UNL     1      -4.337   1.464   5.417  1.00  0.00     0.011 A 
ENDBRANCH  17  21
ENDBRANCH   8  16
ENDBRANCH   4   7
ENDBRANCH   2   3
ENDBRANCH   1   2
BRANCH   1  28
ATOM     28  C   UNL     1      -9.869   9.098   1.613  1.00  0.00     0.118 C 
BRANCH  28  29
ATOM     29  N   UNL     1     -10.761   9.682   0.610  1.00  0.00    -0.352 N 
ATOM     30  C   UNL     1     -12.043   9.310   0.232  1.00  0.00     0.251 C 
ATOM     31  H   UNL     1     -10.394  10.459   0.129  1.00  0.00     0.163 HD
ATOM     32  O   UNL     1     -12.602   9.721  -0.746  1.00  0.00    -0.269 OA
BRANCH  30  33
ATOM     33  C   UNL     1     -12.730   8.426   1.192  1.00  0.00     0.039 A 
ATOM     34  C   UNL     1     -13.395   9.080   2.236  1.00  0.00     0.014 A 
ATOM     35  C   UNL     1     -12.318   7.100   1.282  1.00  0.00     0.014 A 
ATOM     36  C   UNL     1     -13.457   8.467   3.477  1.00  0.00     0.010 A 
ATOM     37  C   UNL     1     -12.337   6.515   2.535  1.00  0.00     0.010 A 
ATOM     38  C   UNL     1     -12.825   7.237   3.640  1.00  0.00    -0.014 A 
BRANCH  38  39
ATOM     39  C   UNL     1     -12.543   6.670   4.952  1.00  0.00     0.031 A 
ATOM     40  C   UNL     1     -13.351   5.514   5.409  1.00  0.00     0.074 A 
ATOM     41  C   UNL     1     -11.545   7.159   5.729  1.00  0.00     0.049 A 
ATOM     42  N   UNL     1     -13.412   5.109   6.632  1.00  0.00    -0.248 NA
ATOM     43  C   UNL     1     -14.249   4.769   4.521  1.00  0.00     0.031 C 
ATOM     44  C   UNL     1     -10.969   6.503   6.905  1.00  0.00     0.029 A 
ATOM     45  N   UNL     1     -10.910   8.404   5.742  1.00  0.00    -0.354 N 
ATOM     46  C   UNL     1     -14.054   3.895   6.630  1.00  0.00     0.074 A 
ATOM     47  C   UNL     1     -14.685   3.807   5.338  1.00  0.00     0.031 C 
ATOM     48  C   UNL     1     -10.369   7.429   7.667  1.00  0.00     0.029 A 
ATOM     49  C   UNL     1     -10.695   8.719   7.092  1.00  0.00     0.049 A 
ATOM     50  H   UNL     1     -10.663   8.950   4.961  1.00  0.00     0.167 HD
ATOM     51  C   UNL     1     -13.838   3.033   7.660  1.00  0.00     0.031 A 
ATOM     52  C   UNL     1     -11.301   9.732   7.785  1.00  0.00     0.031 A 
ATOM     53  C   UNL     1     -13.223   3.711   8.802  1.00  0.00     0.049 A 
ATOM     54  C   UNL     1     -12.054   9.258   9.023  1.00  0.00     0.074 A 
ATOM     55  C   UNL     1     -11.956   3.702   9.359  1.00  0.00     0.029 A 
ATOM     56  N   UNL     1     -13.896   4.787   9.376  1.00  0.00    -0.354 N 
ATOM     57  N   UNL     1     -12.369   8.011   9.254  1.00  0.00    -0.248 NA
ATOM     58  C   UNL     1     -12.537  10.144  10.081  1.00  0.00     0.031 C 
ATOM     59  C   UNL     1     -11.842   4.849  10.198  1.00  0.00     0.029 A 
ATOM     60  C   UNL     1     -13.053   5.521  10.188  1.00  0.00     0.049 A 
ATOM     61  H   UNL     1     -14.845   4.996   9.224  1.00  0.00     0.167 HD
ATOM     62  C   UNL     1     -13.073   7.907  10.427  1.00  0.00     0.074 A 
ATOM     63  C   UNL     1     -13.132   9.273  10.918  1.00  0.00     0.031 C 
ATOM     64  C   UNL     1     -13.557   6.708  10.878  1.00  0.00     0.031 A 
BRANCH  51  65
ATOM     65  C   UNL     1     -13.977   1.528   7.531  1.00  0.00    -0.014 A 
ATOM     66  C   UNL     1     -13.609   0.690   8.604  1.00  0.00     0.010 A 
ATOM     67  C   UNL     1     -14.331   0.868   6.334  1.00  0.00     0.010 A 
ATOM     68  C   UNL     1     -13.574  -0.712   8.476  1.00  0.00     0.020 A 
ATOM     69  C   UNL     1     -14.330  -0.525   6.200  1.00  0.00     0.020 A 
ATOM     70  C   UNL     1     -13.930  -1.311   7.268  1.00  0.00     0.054 A 
BRANCH  70  71
ATOM     71  S   UNL     1     -13.832  -3.110   7.080  1.00  0.00     0.124 S 
ATOM     72  O   UNL     1     -12.395  -3.353   7.169  1.00  0.00    -0.237 OA
ATOM     73  O   UNL     1     -14.628  -3.593   8.205  1.00  0.00    -0.237 OA
ATOM     74  O   UNL     1     -14.418  -3.354   5.762  1.00  0.00    -0.744 OA
ENDBRANCH  70  71
ENDBRANCH  51  65
BRANCH  52  75
ATOM     75  C   UNL     1     -11.645  10.928   6.972  1.00  0.00    -0.014 A 
ATOM     76  C   UNL     1     -10.576  11.734   6.529  1.00  0.00     0.010 A 
ATOM     77  C   UNL     1     -12.879  11.009   6.304  1.00  0.00     0.010 A 
ATOM     78  C   UNL     1     -10.673  12.446   5.331  1.00  0.00     0.020 A 
ATOM     79  C   UNL     1     -12.980  11.730   5.104  1.00  0.00     0.020 A 
ATOM     80  C   UNL     1     -11.854  12.382   4.592  1.00  0.00     0.054 A 
BRANCH  80  81
ATOM     81  S   UNL     1     -11.809  12.969   2.869  1.00  0.00     0.124 S 
ATOM     82  O   UNL     1     -11.602  14.403   3.033  1.00  0.00    -0.237 OA
ATOM     83  O   UNL     1     -10.669  12.232   2.321  1.00  0.00    -0.237 OA
ATOM     84  O   UNL     1     -13.111  12.573   2.343  1.00  0.00    -0.744 OA
ENDBRANCH  80  81
ENDBRANCH  52  75
BRANCH  64  85
ATOM     85  C   UNL     1     -14.516   6.496  12.037  1.00  0.00    -0.014 A 
ATOM     86  C   UNL     1     -15.292   7.502  12.635  1.00  0.00     0.010 A 
ATOM     87  C   UNL     1     -14.746   5.173  12.495  1.00  0.00     0.010 A 
ATOM     88  C   UNL     1     -16.200   7.215  13.668  1.00  0.00     0.020 A 
ATOM     89  C   UNL     1     -15.682   4.868  13.489  1.00  0.00     0.020 A 
ATOM     90  C   UNL     1     -16.389   5.900  14.090  1.00  0.00     0.054 A 
BRANCH  90  91
ATOM     91  S   UNL     1     -17.614   5.538  15.374  1.00  0.00     0.124 S 
ATOM     92  O   UNL     1     -16.851   5.778  16.596  1.00  0.00    -0.237 OA
ATOM     93  O   UNL     1     -18.672   6.507  15.097  1.00  0.00    -0.237 OA
ATOM     94  O   UNL     1     -17.974   4.145  15.122  1.00  0.00    -0.744 OA
ENDBRANCH  90  91
ENDBRANCH  64  85
ENDBRANCH  38  39
ENDBRANCH  30  33
ENDBRANCH  28  29
ENDBRANCH   1  28
TORSDOF 15
