REMARK SMILES CC1(C)C(n2c(SCC(=O)NCCCNC(=O)c3ccc(-c4c5nc(c(-c6ccc(S(=O)(=O)[O-])cc6)c6ccc([nH]6)c(-c6ccc(S(=O)(=O)[O-])cc6)c6nc(c(-c7ccc(S(=O)(=O)[O-])cc7)c7ccc4[nH]7)C=C6)C=C5)cc3)nc3cnccc32)C1(C)C
REMARK SMILES IDX 13 1 12 2 11 3 9 4 10 5 8 7 7 8 6 9 5 10 84 11 78 12 79 13
REMARK SMILES IDX 83 14 80 15 82 16 81 17 4 18 1 19 2 20 3 21 85 22 86 23
REMARK SMILES IDX 87 24 14 25 15 26 16 27 17 29 18 30 19 31 77 32 20 33 76 34
REMARK SMILES IDX 21 35 22 36 23 37 70 38 24 39 75 40 69 41 71 42 25 43 74 44
REMARK SMILES IDX 68 45 67 46 26 48 56 49 37 50 55 51 38 52 41 53 54 54 72 55
REMARK SMILES IDX 39 56 40 57 53 59 73 60 42 61 27 62 28 63 36 64 29 65 35 66
REMARK SMILES IDX 30 67 31 68 32 69 33 70 34 71 57 72 58 73 66 74 59 75 65 76
REMARK SMILES IDX 60 77 61 78 62 79 63 80 64 81 43 82 44 83 52 84 45 85 51 86
REMARK SMILES IDX 46 87 47 88 48 89 49 90 50 91
REMARK H PARENT 11 6 15 28 71 47 41 58
REMARK Flexibility Score: inf
ROOT
ATOM      1  C   UNL     1       4.456   5.489  -4.508  1.00  0.00     0.042 C 
ENDROOT
BRANCH   1   2
ATOM      2  C   UNL     1       4.937   4.100  -4.923  1.00  0.00     0.117 C 
BRANCH   2   3
ATOM      3  N   UNL     1       4.804   3.164  -3.829  1.00  0.00    -0.355 N 
ATOM      4  C   UNL     1       3.753   2.373  -3.500  1.00  0.00     0.230 C 
ATOM      5  O   UNL     1       3.714   1.970  -2.337  1.00  0.00    -0.274 OA
ATOM      6  H   UNL     1       5.588   3.091  -3.238  1.00  0.00     0.163 HD
BRANCH   4   7
ATOM      7  C   UNL     1       2.767   1.931  -4.554  1.00  0.00     0.178 C 
BRANCH   7   8
ATOM      8  S   UNL     1       1.408   3.022  -4.869  1.00  0.00    -0.078 SA
BRANCH   8   9
ATOM      9  C   UNL     1       0.312   3.175  -3.544  1.00  0.00     0.169 A 
ATOM     10  N   UNL     1       0.079   2.415  -2.409  1.00  0.00    -0.315 N 
ATOM     11  C   UNL     1      -0.795   3.150  -1.612  1.00  0.00     0.072 A 
ATOM     12  N   UNL     1      -0.542   4.179  -3.610  1.00  0.00    -0.221 NA
ATOM     13  C   UNL     1      -1.206   4.203  -2.422  1.00  0.00     0.108 A 
ATOM     14  C   UNL     1      -1.254   3.040  -0.296  1.00  0.00     0.049 A 
ATOM     15  C   UNL     1      -2.143   5.123  -1.940  1.00  0.00     0.141 A 
ATOM     16  C   UNL     1      -2.173   4.004   0.100  1.00  0.00     0.113 A 
ATOM     17  N   UNL     1      -2.629   5.011  -0.676  1.00  0.00    -0.262 NA
BRANCH  10  18
ATOM     18  C   UNL     1       0.825   1.295  -1.864  1.00  0.00     0.102 C 
ATOM     19  C   UNL     1       0.847  -0.190   0.251  1.00  0.00     0.014 C 
ATOM     20  C   UNL     1       0.217   0.128  -1.092  1.00  0.00    -0.007 C 
ATOM     21  C   UNL     1      -1.262  -0.192  -1.116  1.00  0.00     0.014 C 
ATOM     22  C   UNL     1       1.014  -0.123  -2.397  1.00  0.00    -0.007 C 
ATOM     23  C   UNL     1       2.367  -0.801  -2.246  1.00  0.00     0.014 C 
ATOM     24  C   UNL     1       0.275  -0.571  -3.647  1.00  0.00     0.014 C 
ENDBRANCH  10  18
ENDBRANCH   8   9
ENDBRANCH   7   8
ENDBRANCH   4   7
ENDBRANCH   2   3
ENDBRANCH   1   2
BRANCH   1  25
ATOM     25  C   UNL     1       4.971   5.966  -3.142  1.00  0.00     0.118 C 
BRANCH  25  26
ATOM     26  N   UNL     1       6.393   5.781  -2.906  1.00  0.00    -0.352 N 
ATOM     27  C   UNL     1       7.533   6.415  -3.315  1.00  0.00     0.251 C 
ATOM     28  H   UNL     1       6.579   5.018  -2.312  1.00  0.00     0.163 HD
ATOM     29  O   UNL     1       8.589   5.977  -2.852  1.00  0.00    -0.269 OA
BRANCH  27  30
ATOM     30  C   UNL     1       7.582   7.541  -4.286  1.00  0.00     0.039 A 
ATOM     31  C   UNL     1       6.472   8.215  -4.789  1.00  0.00     0.014 A 
ATOM     32  C   UNL     1       8.857   7.929  -4.734  1.00  0.00     0.014 A 
ATOM     33  C   UNL     1       6.616   9.161  -5.798  1.00  0.00     0.010 A 
ATOM     34  C   UNL     1       9.011   8.915  -5.708  1.00  0.00     0.010 A 
ATOM     35  C   UNL     1       7.883   9.496  -6.282  1.00  0.00    -0.014 A 
BRANCH  35  36
ATOM     36  C   UNL     1       7.942  10.461  -7.379  1.00  0.00     0.031 A 
ATOM     37  C   UNL     1       7.272  11.781  -7.165  1.00  0.00     0.074 A 
ATOM     38  C   UNL     1       8.586  10.239  -8.541  1.00  0.00     0.049 A 
ATOM     39  N   UNL     1       6.282  12.299  -7.820  1.00  0.00    -0.248 NA
ATOM     40  C   UNL     1       7.742  12.606  -6.044  1.00  0.00     0.031 C 
ATOM     41  C   UNL     1       9.538   9.180  -8.885  1.00  0.00     0.029 A 
ATOM     42  N   UNL     1       8.563  11.013  -9.662  1.00  0.00    -0.354 N 
ATOM     43  C   UNL     1       6.057  13.562  -7.271  1.00  0.00     0.074 A 
ATOM     44  C   UNL     1       6.950  13.675  -6.143  1.00  0.00     0.031 C 
ATOM     45  C   UNL     1      10.169   9.508 -10.036  1.00  0.00     0.029 A 
ATOM     46  C   UNL     1       9.539  10.694 -10.588  1.00  0.00     0.049 A 
ATOM     47  H   UNL     1       7.909  11.735  -9.801  1.00  0.00     0.167 HD
ATOM     48  C   UNL     1       5.208  14.480  -7.816  1.00  0.00     0.031 A 
ATOM     49  C   UNL     1       9.844  11.395 -11.704  1.00  0.00     0.031 A 
ATOM     50  C   UNL     1       4.330  13.901  -8.792  1.00  0.00     0.049 A 
ATOM     51  C   UNL     1       8.659  12.209 -12.061  1.00  0.00     0.074 A 
ATOM     52  C   UNL     1       3.278  13.011  -8.743  1.00  0.00     0.029 A 
ATOM     53  N   UNL     1       4.678  14.007 -10.116  1.00  0.00    -0.354 N 
ATOM     54  N   UNL     1       7.521  11.707 -12.455  1.00  0.00    -0.248 NA
ATOM     55  C   UNL     1       8.614  13.601 -11.643  1.00  0.00     0.031 C 
ATOM     56  C   UNL     1       3.354  12.282  -9.963  1.00  0.00     0.029 A 
ATOM     57  C   UNL     1       4.434  12.786 -10.694  1.00  0.00     0.049 A 
ATOM     58  H   UNL     1       5.035  14.806 -10.565  1.00  0.00     0.167 HD
ATOM     59  C   UNL     1       6.557  12.579 -11.972  1.00  0.00     0.074 A 
ATOM     60  C   UNL     1       7.293  13.779 -11.591  1.00  0.00     0.031 C 
ATOM     61  C   UNL     1       5.291  12.156 -11.682  1.00  0.00     0.031 A 
BRANCH  48  62
ATOM     62  C   UNL     1       5.274  15.968  -7.593  1.00  0.00    -0.014 A 
ATOM     63  C   UNL     1       6.451  16.619  -7.173  1.00  0.00     0.010 A 
ATOM     64  C   UNL     1       4.207  16.789  -8.018  1.00  0.00     0.010 A 
ATOM     65  C   UNL     1       6.554  18.014  -7.146  1.00  0.00     0.020 A 
ATOM     66  C   UNL     1       4.314  18.188  -8.033  1.00  0.00     0.020 A 
ATOM     67  C   UNL     1       5.489  18.792  -7.591  1.00  0.00     0.054 A 
BRANCH  67  68
ATOM     68  S   UNL     1       5.712  20.588  -7.670  1.00  0.00     0.124 S 
ATOM     69  O   UNL     1       5.729  20.954  -6.256  1.00  0.00    -0.237 OA
ATOM     70  O   UNL     1       6.988  20.716  -8.369  1.00  0.00    -0.237 OA
ATOM     71  O   UNL     1       4.545  21.048  -8.420  1.00  0.00    -0.744 OA
ENDBRANCH  67  68
ENDBRANCH  48  62
BRANCH  49  72
ATOM     72  C   UNL     1      11.210  11.735 -12.165  1.00  0.00    -0.014 A 
ATOM     73  C   UNL     1      12.254  11.855 -11.223  1.00  0.00     0.010 A 
ATOM     74  C   UNL     1      11.422  12.243 -13.459  1.00  0.00     0.010 A 
ATOM     75  C   UNL     1      13.438  12.528 -11.535  1.00  0.00     0.020 A 
ATOM     76  C   UNL     1      12.608  12.921 -13.778  1.00  0.00     0.020 A 
ATOM     77  C   UNL     1      13.591  13.091 -12.801  1.00  0.00     0.054 A 
BRANCH  77  78
ATOM     78  S   UNL     1      15.051  14.126 -13.105  1.00  0.00     0.124 S 
ATOM     79  O   UNL     1      14.802  15.265 -12.226  1.00  0.00    -0.237 OA
ATOM     80  O   UNL     1      16.148  13.249 -12.699  1.00  0.00    -0.237 OA
ATOM     81  O   UNL     1      14.982  14.411 -14.535  1.00  0.00    -0.744 OA
ENDBRANCH  77  78
ENDBRANCH  49  72
BRANCH  61  82
ATOM     82  C   UNL     1       4.849  10.783 -12.150  1.00  0.00    -0.014 A 
ATOM     83  C   UNL     1       3.631  10.683 -12.849  1.00  0.00     0.010 A 
ATOM     84  C   UNL     1       5.471   9.595 -11.716  1.00  0.00     0.010 A 
ATOM     85  C   UNL     1       3.023   9.442 -13.061  1.00  0.00     0.020 A 
ATOM     86  C   UNL     1       4.878   8.345 -11.947  1.00  0.00     0.020 A 
ATOM     87  C   UNL     1       3.639   8.281 -12.589  1.00  0.00     0.054 A 
BRANCH  87  88
ATOM     88  S   UNL     1       2.770   6.700 -12.787  1.00  0.00     0.124 S 
ATOM     89  O   UNL     1       1.686   6.821 -11.814  1.00  0.00    -0.237 OA
ATOM     90  O   UNL     1       2.356   6.730 -14.188  1.00  0.00    -0.237 OA
ATOM     91  O   UNL     1       3.782   5.696 -12.464  1.00  0.00    -0.744 OA
ENDBRANCH  87  88
ENDBRANCH  61  82
ENDBRANCH  35  36
ENDBRANCH  27  30
ENDBRANCH  25  26
ENDBRANCH   1  25
TORSDOF 16
