REMARK SMILES C[C@H]1[NH2+]CC[C@@H]1C(=O)N[C@@H](CC(=O)NCCCNC(=O)c1ccc(-c2c3nc(c(-c4ccc(S(=O)(=O)[O-])cc4)c4ccc([nH]4)c(-c4ccc(S(=O)(=O)[O-])cc4)c4nc(c(-c5ccc(S(=O)(=O)[O-])cc5)c5ccc2[nH]5)C=C4)C=C3)cc1)c1cccs1
REMARK SMILES IDX 16 1 15 2 14 3 12 4 13 5 11 7 10 8 9 9 7 10 8 11 6 13 1 14
REMARK SMILES IDX 2 15 3 16 4 17 5 20 81 21 82 22 85 23 83 24 84 25 17 26
REMARK SMILES IDX 18 27 19 28 20 30 21 31 22 32 80 33 23 34 79 35 24 36 25 37
REMARK SMILES IDX 26 38 73 39 27 40 78 41 72 42 74 43 28 44 77 45 71 46 70 47
REMARK SMILES IDX 29 49 59 50 40 51 58 52 41 53 44 54 57 55 75 56 42 57 43 58
REMARK SMILES IDX 56 60 76 61 45 62 30 63 31 64 39 65 32 66 38 67 33 68 34 69
REMARK SMILES IDX 35 70 36 71 37 72 60 73 61 74 69 75 62 76 68 77 63 78 64 79
REMARK SMILES IDX 65 80 66 81 67 82 46 83 47 84 55 85 48 86 54 87 49 88 50 89
REMARK SMILES IDX 51 90 52 91 53 92
REMARK H PARENT 14 6 9 12 3 18 3 19 18 29 74 48 44 59
REMARK Flexibility Score: inf
ROOT
ATOM      1  C   UNL     1      -1.780   2.475  -4.865  1.00  0.00     0.042 C 
ENDROOT
BRANCH   1   2
ATOM      2  C   UNL     1      -1.790   3.782  -4.072  1.00  0.00     0.117 C 
BRANCH   2   3
ATOM      3  N   UNL     1      -3.126   4.170  -3.639  1.00  0.00    -0.356 N 
ATOM      4  C   UNL     1      -3.658   4.338  -2.398  1.00  0.00     0.222 C 
ATOM      5  O   UNL     1      -4.798   4.804  -2.321  1.00  0.00    -0.275 OA
ATOM      6  H   UNL     1      -3.756   4.342  -4.376  1.00  0.00     0.163 HD
BRANCH   4   7
ATOM      7  C   UNL     1      -2.881   4.005  -1.142  1.00  0.00     0.130 C 
BRANCH   7   8
ATOM      8  C   UNL     1      -2.887   2.538  -0.694  1.00  0.00     0.131 C 
BRANCH   8   9
ATOM      9  N   UNL     1      -2.021   1.722  -1.518  1.00  0.00    -0.348 N 
ATOM     10  C   UNL     1      -0.802   1.163  -1.362  1.00  0.00     0.229 C 
ATOM     11  O   UNL     1      -0.189   0.942  -2.409  1.00  0.00    -0.275 OA
ATOM     12  H   UNL     1      -2.413   1.530  -2.401  1.00  0.00     0.164 HD
BRANCH  10  13
ATOM     13  C   UNL     1      -0.193   0.908   0.013  1.00  0.00     0.142 C 
ATOM     14  C   UNL     1       2.061   0.064   0.879  1.00  0.00     0.076 C 
ATOM     15  C   UNL     1       0.916  -0.161  -0.109  1.00  0.00     0.192 C 
ATOM     16  N   UNL     1       0.265  -1.456   0.168  1.00  0.00    -0.343 N 
ATOM     17  C   UNL     1      -1.090  -1.213   0.643  1.00  0.00     0.261 C 
ATOM     18  H   UNL     1       0.793  -1.958   0.881  1.00  0.00     0.346 HD
ATOM     19  H   UNL     1       0.236  -2.016  -0.684  1.00  0.00     0.346 HD
ATOM     20  C   UNL     1      -1.130   0.252   1.020  1.00  0.00     0.081 C 
ENDBRANCH  10  13
ENDBRANCH   8   9
BRANCH   8  21
ATOM     21  C   UNL     1      -4.251   1.879  -0.672  1.00  0.00     0.027 A 
ATOM     22  C   UNL     1      -5.063   1.636   0.421  1.00  0.00     0.017 A 
ATOM     23  S   UNL     1      -4.963   1.240  -2.110  1.00  0.00    -0.147 S 
ATOM     24  C   UNL     1      -6.246   0.914   0.081  1.00  0.00     0.012 A 
ATOM     25  C   UNL     1      -6.314   0.636  -1.264  1.00  0.00     0.065 A 
ENDBRANCH   8  21
ENDBRANCH   7   8
ENDBRANCH   4   7
ENDBRANCH   2   3
ENDBRANCH   1   2
BRANCH   1  26
ATOM     26  C   UNL     1      -2.546   2.515  -6.180  1.00  0.00     0.118 C 
BRANCH  26  27
ATOM     27  N   UNL     1      -1.786   3.141  -7.245  1.00  0.00    -0.352 N 
ATOM     28  C   UNL     1      -1.183   2.578  -8.346  1.00  0.00     0.251 C 
ATOM     29  H   UNL     1      -1.687   4.118  -7.170  1.00  0.00     0.163 HD
ATOM     30  O   UNL     1      -0.403   3.257  -9.008  1.00  0.00    -0.269 OA
BRANCH  28  31
ATOM     31  C   UNL     1      -1.449   1.170  -8.737  1.00  0.00     0.039 A 
ATOM     32  C   UNL     1      -0.391   0.400  -9.233  1.00  0.00     0.014 A 
ATOM     33  C   UNL     1      -2.732   0.618  -8.683  1.00  0.00     0.014 A 
ATOM     34  C   UNL     1      -0.611  -0.924  -9.630  1.00  0.00     0.010 A 
ATOM     35  C   UNL     1      -2.932  -0.727  -8.997  1.00  0.00     0.010 A 
ATOM     36  C   UNL     1      -1.880  -1.508  -9.496  1.00  0.00    -0.014 A 
BRANCH  36  37
ATOM     37  C   UNL     1      -2.133  -2.916  -9.904  1.00  0.00     0.031 A 
ATOM     38  C   UNL     1      -3.104  -3.221 -11.016  1.00  0.00     0.074 A 
ATOM     39  C   UNL     1      -1.543  -3.928  -9.238  1.00  0.00     0.049 A 
ATOM     40  N   UNL     1      -3.501  -4.383 -11.473  1.00  0.00    -0.248 NA
ATOM     41  C   UNL     1      -3.736  -2.071 -11.682  1.00  0.00     0.031 C 
ATOM     42  C   UNL     1      -0.625  -3.777  -8.107  1.00  0.00     0.029 A 
ATOM     43  N   UNL     1      -1.637  -5.288  -9.409  1.00  0.00    -0.354 N 
ATOM     44  C   UNL     1      -4.451  -4.103 -12.449  1.00  0.00     0.074 A 
ATOM     45  C   UNL     1      -4.599  -2.665 -12.492  1.00  0.00     0.031 C 
ATOM     46  C   UNL     1      -0.228  -4.993  -7.698  1.00  0.00     0.029 A 
ATOM     47  C   UNL     1      -0.885  -6.011  -8.514  1.00  0.00     0.049 A 
ATOM     48  H   UNL     1      -2.192  -5.705 -10.107  1.00  0.00     0.167 HD
ATOM     49  C   UNL     1      -5.129  -4.962 -13.249  1.00  0.00     0.031 A 
ATOM     50  C   UNL     1      -0.741  -7.341  -8.359  1.00  0.00     0.031 A 
ATOM     51  C   UNL     1      -4.958  -6.389 -13.230  1.00  0.00     0.049 A 
ATOM     52  C   UNL     1      -1.467  -8.276  -9.286  1.00  0.00     0.074 A 
ATOM     53  C   UNL     1      -5.534  -7.336 -14.060  1.00  0.00     0.029 A 
ATOM     54  N   UNL     1      -4.151  -7.078 -12.338  1.00  0.00    -0.354 N 
ATOM     55  N   UNL     1      -2.301  -7.987 -10.257  1.00  0.00    -0.248 NA
ATOM     56  C   UNL     1      -1.222  -9.713  -9.107  1.00  0.00     0.031 C 
ATOM     57  C   UNL     1      -5.107  -8.601 -13.641  1.00  0.00     0.029 A 
ATOM     58  C   UNL     1      -4.230  -8.439 -12.581  1.00  0.00     0.049 A 
ATOM     59  H   UNL     1      -3.603  -6.660 -11.634  1.00  0.00     0.167 HD
ATOM     60  C   UNL     1      -2.667  -9.207 -10.816  1.00  0.00     0.074 A 
ATOM     61  C   UNL     1      -1.952 -10.234 -10.085  1.00  0.00     0.031 C 
ATOM     62  C   UNL     1      -3.518  -9.451 -11.842  1.00  0.00     0.031 A 
BRANCH  49  63
ATOM     63  C   UNL     1      -6.132  -4.370 -14.205  1.00  0.00    -0.014 A 
ATOM     64  C   UNL     1      -5.721  -3.621 -15.323  1.00  0.00     0.010 A 
ATOM     65  C   UNL     1      -7.506  -4.577 -13.989  1.00  0.00     0.010 A 
ATOM     66  C   UNL     1      -6.667  -3.042 -16.174  1.00  0.00     0.020 A 
ATOM     67  C   UNL     1      -8.455  -4.023 -14.854  1.00  0.00     0.020 A 
ATOM     68  C   UNL     1      -8.029  -3.239 -15.928  1.00  0.00     0.054 A 
BRANCH  68  69
ATOM     69  S   UNL     1      -9.238  -2.473 -17.043  1.00  0.00     0.124 S 
ATOM     70  O   UNL     1      -9.210  -1.080 -16.603  1.00  0.00    -0.237 OA
ATOM     71  O   UNL     1      -8.665  -2.725 -18.363  1.00  0.00    -0.237 OA
ATOM     72  O   UNL     1     -10.476  -3.193 -16.757  1.00  0.00    -0.744 OA
ENDBRANCH  68  69
ENDBRANCH  49  63
BRANCH  50  73
ATOM     73  C   UNL     1       0.151  -7.861  -7.288  1.00  0.00    -0.014 A 
ATOM     74  C   UNL     1       1.413  -8.392  -7.606  1.00  0.00     0.010 A 
ATOM     75  C   UNL     1      -0.237  -7.781  -5.938  1.00  0.00     0.010 A 
ATOM     76  C   UNL     1       2.271  -8.835  -6.595  1.00  0.00     0.020 A 
ATOM     77  C   UNL     1       0.626  -8.203  -4.922  1.00  0.00     0.020 A 
ATOM     78  C   UNL     1       1.873  -8.733  -5.258  1.00  0.00     0.054 A 
BRANCH  78  79
ATOM     79  S   UNL     1       3.034  -9.241  -3.958  1.00  0.00     0.124 S 
ATOM     80  O   UNL     1       2.951 -10.696  -4.028  1.00  0.00    -0.237 OA
ATOM     81  O   UNL     1       4.294  -8.657  -4.411  1.00  0.00    -0.237 OA
ATOM     82  O   UNL     1       2.478  -8.639  -2.748  1.00  0.00    -0.744 OA
ENDBRANCH  78  79
ENDBRANCH  50  73
BRANCH  62  83
ATOM     83  C   UNL     1      -3.713 -10.885 -12.254  1.00  0.00    -0.014 A 
ATOM     84  C   UNL     1      -4.484 -11.765 -11.474  1.00  0.00     0.010 A 
ATOM     85  C   UNL     1      -3.167 -11.341 -13.468  1.00  0.00     0.010 A 
ATOM     86  C   UNL     1      -4.683 -13.085 -11.889  1.00  0.00     0.020 A 
ATOM     87  C   UNL     1      -3.382 -12.653 -13.896  1.00  0.00     0.020 A 
ATOM     88  C   UNL     1      -4.129 -13.521 -13.097  1.00  0.00     0.054 A 
BRANCH  88  89
ATOM     89  S   UNL     1      -4.439 -15.225 -13.639  1.00  0.00     0.124 S 
ATOM     90  O   UNL     1      -3.528 -15.985 -12.787  1.00  0.00    -0.237 OA
ATOM     91  O   UNL     1      -5.861 -15.401 -13.352  1.00  0.00    -0.237 OA
ATOM     92  O   UNL     1      -4.095 -15.204 -15.058  1.00  0.00    -0.744 OA
ENDBRANCH  88  89
ENDBRANCH  62  83
ENDBRANCH  36  37
ENDBRANCH  28  31
ENDBRANCH  26  27
ENDBRANCH   1  26
TORSDOF 17
