REMARK SMILES COC(=O)c1cccc(NC(=O)[C@@H]2[C@@H]3CC[C@@H](C3)[C@@H]2C(=O)NCCCNC(=O)c2ccc(-c3c4nc(c(-c5ccc(S(=O)(=O)[O-])cc5)c5ccc([nH]5)c(-c5ccc(S(=O)(=O)[O-])cc5)c5nc(c(-c6ccc(S(=O)(=O)[O-])cc6)c6ccc3[nH]6)C=C5)C=C4)cc2)c1
REMARK SMILES IDX 23 1 22 2 20 3 21 4 19 6 13 7 14 8 15 9 18 10 17 11 16 12
REMARK SMILES IDX 11 13 10 14 12 16 9 17 5 18 6 19 89 20 7 21 8 22 3 23 4 24
REMARK SMILES IDX 2 25 1 26 24 27 25 28 26 29 27 30 28 32 29 33 30 34 88 35
REMARK SMILES IDX 31 36 87 37 32 38 33 39 34 40 81 41 35 42 86 43 80 44 82 45
REMARK SMILES IDX 36 46 85 47 79 48 78 49 37 51 67 52 48 53 66 54 49 55 52 56
REMARK SMILES IDX 65 57 83 58 50 59 51 60 64 62 84 63 53 64 38 65 39 66 47 67
REMARK SMILES IDX 40 68 46 69 41 70 42 71 43 72 44 73 45 74 68 75 69 76 77 77
REMARK SMILES IDX 70 78 76 79 71 80 72 81 73 82 74 83 75 84 54 85 55 86 63 87
REMARK SMILES IDX 56 88 62 89 57 90 58 91 59 92 60 93 61 94
REMARK H PARENT 22 5 10 15 26 31 82 50 52 61
REMARK Flexibility Score: inf
ROOT
ATOM      1  C   UNL     1       1.061  -5.527   8.231  1.00  0.00     0.117 C 
ENDROOT
BRANCH   1   2
ATOM      2  N   UNL     1      -0.027  -4.597   8.456  1.00  0.00    -0.356 N 
ATOM      3  C   UNL     1      -1.118  -4.251   7.738  1.00  0.00     0.224 C 
ATOM      4  O   UNL     1      -1.798  -3.339   8.225  1.00  0.00    -0.275 OA
ATOM      5  H   UNL     1       0.043  -4.116   9.312  1.00  0.00     0.163 HD
BRANCH   3   6
ATOM      6  C   UNL     1      -1.474  -4.798   6.353  1.00  0.00     0.094 C 
ATOM      7  C   UNL     1      -2.993  -5.098   6.137  1.00  0.00     0.094 C 
ATOM      8  C   UNL     1      -2.990  -6.497   5.451  1.00  0.00     0.002 C 
ATOM      9  C   UNL     1      -2.545  -7.649   6.355  1.00  0.00     0.005 C 
ATOM     10  C   UNL     1      -1.743  -6.357   4.572  1.00  0.00     0.009 C 
ATOM     11  C   UNL     1      -0.829  -6.068   5.767  1.00  0.00     0.002 C 
ATOM     12  C   UNL     1      -1.095  -7.292   6.665  1.00  0.00     0.005 C 
BRANCH   7  13
ATOM     13  C   UNL     1      -3.873  -4.940   7.370  1.00  0.00     0.228 C 
ATOM     14  N   UNL     1      -4.682  -3.852   7.553  1.00  0.00    -0.326 N 
ATOM     15  H   UNL     1      -5.197  -3.897   8.391  1.00  0.00     0.169 HD
ATOM     16  O   UNL     1      -3.900  -5.807   8.250  1.00  0.00    -0.274 OA
BRANCH  14  17
ATOM     17  C   UNL     1      -4.945  -2.683   6.813  1.00  0.00     0.042 A 
ATOM     18  C   UNL     1      -6.541  -0.904   6.354  1.00  0.00     0.062 A 
ATOM     19  C   UNL     1      -5.799  -0.510   5.239  1.00  0.00     0.016 A 
ATOM     20  C   UNL     1      -6.116  -1.985   7.141  1.00  0.00     0.041 A 
ATOM     21  C   UNL     1      -4.586  -1.131   4.973  1.00  0.00     0.003 A 
ATOM     22  C   UNL     1      -4.149  -2.184   5.782  1.00  0.00     0.026 A 
BRANCH  18  23
ATOM     23  C   UNL     1      -7.785  -0.160   6.649  1.00  0.00     0.337 C 
ATOM     24  O   UNL     1      -8.493   0.337   5.792  1.00  0.00    -0.246 OA
BRANCH  23  25
ATOM     25  O   UNL     1      -7.938  -0.045   7.992  1.00  0.00    -0.465 OA
ATOM     26  C   UNL     1      -9.012   0.818   8.369  1.00  0.00     0.282 C 
ENDBRANCH  23  25
ENDBRANCH  18  23
ENDBRANCH  14  17
ENDBRANCH   7  13
ENDBRANCH   3   6
ENDBRANCH   1   2
BRANCH   1  27
ATOM     27  C   UNL     1       2.420  -4.893   8.449  1.00  0.00     0.042 C 
BRANCH  27  28
ATOM     28  C   UNL     1       2.708  -4.581   9.907  1.00  0.00     0.118 C 
BRANCH  28  29
ATOM     29  N   UNL     1       2.765  -5.783  10.732  1.00  0.00    -0.352 N 
ATOM     30  C   UNL     1       3.842  -6.410  11.311  1.00  0.00     0.251 C 
ATOM     31  H   UNL     1       1.895  -6.212  10.901  1.00  0.00     0.163 HD
ATOM     32  O   UNL     1       3.716  -7.542  11.767  1.00  0.00    -0.269 OA
BRANCH  30  33
ATOM     33  C   UNL     1       5.151  -5.727  11.363  1.00  0.00     0.039 A 
ATOM     34  C   UNL     1       6.317  -6.456  11.120  1.00  0.00     0.014 A 
ATOM     35  C   UNL     1       5.226  -4.362  11.649  1.00  0.00     0.014 A 
ATOM     36  C   UNL     1       7.547  -5.795  11.084  1.00  0.00     0.010 A 
ATOM     37  C   UNL     1       6.429  -3.689  11.494  1.00  0.00     0.010 A 
ATOM     38  C   UNL     1       7.607  -4.399  11.223  1.00  0.00    -0.014 A 
BRANCH  38  39
ATOM     39  C   UNL     1       8.886  -3.656  11.101  1.00  0.00     0.031 A 
ATOM     40  C   UNL     1       9.387  -2.829  12.256  1.00  0.00     0.074 A 
ATOM     41  C   UNL     1       9.549  -3.659   9.926  1.00  0.00     0.049 A 
ATOM     42  N   UNL     1      10.436  -2.050  12.316  1.00  0.00    -0.248 NA
ATOM     43  C   UNL     1       8.590  -2.851  13.495  1.00  0.00     0.031 C 
ATOM     44  C   UNL     1       9.130  -4.374   8.716  1.00  0.00     0.029 A 
ATOM     45  N   UNL     1      10.710  -3.031   9.551  1.00  0.00    -0.354 N 
ATOM     46  C   UNL     1      10.406  -1.470  13.579  1.00  0.00     0.074 A 
ATOM     47  C   UNL     1       9.212  -1.948  14.238  1.00  0.00     0.031 C 
ATOM     48  C   UNL     1      10.034  -4.167   7.746  1.00  0.00     0.029 A 
ATOM     49  C   UNL     1      11.069  -3.266   8.244  1.00  0.00     0.049 A 
ATOM     50  H   UNL     1      11.237  -2.465  10.160  1.00  0.00     0.167 HD
ATOM     51  C   UNL     1      11.302  -0.630  14.146  1.00  0.00     0.031 A 
ATOM     52  C   UNL     1      12.105  -2.799   7.521  1.00  0.00     0.031 A 
ATOM     53  C   UNL     1      12.504  -0.184  13.495  1.00  0.00     0.049 A 
ATOM     54  C   UNL     1      13.094  -1.876   8.181  1.00  0.00     0.074 A 
ATOM     55  C   UNL     1      13.522   0.596  14.015  1.00  0.00     0.029 A 
ATOM     56  N   UNL     1      12.847  -0.470  12.182  1.00  0.00    -0.354 N 
ATOM     57  N   UNL     1      13.098  -1.418   9.411  1.00  0.00    -0.248 NA
ATOM     58  C   UNL     1      14.224  -1.417   7.363  1.00  0.00     0.031 C 
ATOM     59  C   UNL     1      14.446   0.838  12.995  1.00  0.00     0.029 A 
ATOM     60  C   UNL     1      14.043   0.148  11.863  1.00  0.00     0.049 A 
ATOM     61  H   UNL     1      12.318  -1.030  11.569  1.00  0.00     0.167 HD
ATOM     62  C   UNL     1      14.246  -0.640   9.521  1.00  0.00     0.074 A 
ATOM     63  C   UNL     1      14.919  -0.707   8.240  1.00  0.00     0.031 C 
ATOM     64  C   UNL     1      14.701   0.067  10.584  1.00  0.00     0.031 A 
BRANCH  51  65
ATOM     65  C   UNL     1      11.020  -0.127  15.538  1.00  0.00    -0.014 A 
ATOM     66  C   UNL     1      11.081  -0.982  16.654  1.00  0.00     0.010 A 
ATOM     67  C   UNL     1      10.761   1.242  15.740  1.00  0.00     0.010 A 
ATOM     68  C   UNL     1      10.863  -0.482  17.941  1.00  0.00     0.020 A 
ATOM     69  C   UNL     1      10.572   1.750  17.027  1.00  0.00     0.020 A 
ATOM     70  C   UNL     1      10.614   0.882  18.119  1.00  0.00     0.054 A 
BRANCH  70  71
ATOM     71  S   UNL     1      10.392   1.510  19.806  1.00  0.00     0.124 S 
ATOM     72  O   UNL     1       9.089   0.954  20.166  1.00  0.00    -0.237 OA
ATOM     73  O   UNL     1      11.535   0.938  20.512  1.00  0.00    -0.237 OA
ATOM     74  O   UNL     1      10.425   2.962  19.644  1.00  0.00    -0.744 OA
ENDBRANCH  70  71
ENDBRANCH  51  65
BRANCH  52  75
ATOM     75  C   UNL     1      12.258  -3.186   6.090  1.00  0.00    -0.014 A 
ATOM     76  C   UNL     1      13.329  -3.997   5.673  1.00  0.00     0.010 A 
ATOM     77  C   UNL     1      11.332  -2.735   5.131  1.00  0.00     0.010 A 
ATOM     78  C   UNL     1      13.490  -4.320   4.322  1.00  0.00     0.020 A 
ATOM     79  C   UNL     1      11.470  -3.084   3.785  1.00  0.00     0.020 A 
ATOM     80  C   UNL     1      12.559  -3.861   3.386  1.00  0.00     0.054 A 
BRANCH  80  81
ATOM     81  S   UNL     1      12.772  -4.313   1.642  1.00  0.00     0.124 S 
ATOM     82  O   UNL     1      13.916  -3.493   1.254  1.00  0.00    -0.237 OA
ATOM     83  O   UNL     1      13.019  -5.750   1.718  1.00  0.00    -0.237 OA
ATOM     84  O   UNL     1      11.497  -3.939   1.034  1.00  0.00    -0.744 OA
ENDBRANCH  80  81
ENDBRANCH  52  75
BRANCH  64  85
ATOM     85  C   UNL     1      16.009   0.795  10.427  1.00  0.00    -0.014 A 
ATOM     86  C   UNL     1      16.119   1.936   9.612  1.00  0.00     0.010 A 
ATOM     87  C   UNL     1      17.132   0.363  11.158  1.00  0.00     0.010 A 
ATOM     88  C   UNL     1      17.338   2.612   9.507  1.00  0.00     0.020 A 
ATOM     89  C   UNL     1      18.341   1.056  11.081  1.00  0.00     0.020 A 
ATOM     90  C   UNL     1      18.440   2.168  10.244  1.00  0.00     0.054 A 
BRANCH  90  91
ATOM     91  S   UNL     1      19.996   3.091  10.124  1.00  0.00     0.124 S 
ATOM     92  O   UNL     1      20.452   2.746   8.780  1.00  0.00    -0.237 OA
ATOM     93  O   UNL     1      19.562   4.474  10.305  1.00  0.00    -0.237 OA
ATOM     94  O   UNL     1      20.806   2.550  11.214  1.00  0.00    -0.744 OA
ENDBRANCH  90  91
ENDBRANCH  64  85
ENDBRANCH  38  39
ENDBRANCH  30  33
ENDBRANCH  28  29
ENDBRANCH  27  28
ENDBRANCH   1  27
TORSDOF 17
