REMARK SMILES O=C(NCCCNC(=O)c1cccc(NC(=S)N/N=C\c2c[nH]c3ccccc23)c1)c1ccc(-c2c3nc(c(-c4ccc(S(=O)(=O)[O-])cc4)c4ccc([nH]4)c(-c4ccc(S(=O)(=O)[O-])cc4)c4nc(c(-c5ccc(S(=O)(=O)[O-])cc5)c5ccc2[nH]5)C=C4)C=C3)cc1
REMARK SMILES IDX 6 1 5 2 4 3 3 4 1 5 2 6 31 8 32 9 90 10 33 11 89 12 34 13
REMARK SMILES IDX 35 14 36 15 83 16 37 17 88 18 82 19 84 20 38 21 87 22 81 23
REMARK SMILES IDX 80 24 39 26 69 27 50 28 68 29 51 30 54 31 67 32 85 33 52 34
REMARK SMILES IDX 53 35 66 37 86 38 55 39 40 40 41 41 49 42 42 43 48 44 43 45
REMARK SMILES IDX 44 46 45 47 46 48 47 49 70 50 71 51 79 52 72 53 78 54 73 55
REMARK SMILES IDX 74 56 75 57 76 58 77 59 56 60 57 61 65 62 58 63 64 64 59 65
REMARK SMILES IDX 60 66 61 67 62 68 63 69 7 70 8 71 9 73 10 74 11 75 30 76
REMARK SMILES IDX 12 77 14 78 13 79 15 80 16 82 17 83 18 84 19 86 20 87 21 88
REMARK SMILES IDX 22 89 29 90 23 91 24 92 28 93 25 95 27 96 26 97
REMARK H PARENT 3 7 84 25 54 36 7 72 15 81 18 85 23 94
REMARK Flexibility Score: inf
ROOT
ATOM      1  C   UNL     1       4.268  -2.624  -2.549  1.00  0.00     0.118 C 
ENDROOT
BRANCH   1   2
ATOM      2  C   UNL     1       4.935  -1.945  -1.367  1.00  0.00     0.042 C 
BRANCH   2   3
ATOM      3  C   UNL     1       4.574  -0.477  -1.234  1.00  0.00     0.118 C 
BRANCH   3   4
ATOM      4  N   UNL     1       3.141  -0.262  -1.046  1.00  0.00    -0.352 N 
ATOM      5  O   UNL     1       1.200   0.076   0.032  1.00  0.00    -0.269 OA
ATOM      6  C   UNL     1       2.425   0.154   0.051  1.00  0.00     0.251 C 
ATOM      7  H   UNL     1       2.594  -0.447  -1.844  1.00  0.00     0.163 HD
BRANCH   6   8
ATOM      8  C   UNL     1       3.119   0.666   1.252  1.00  0.00     0.039 A 
ATOM      9  C   UNL     1       4.254   1.465   1.131  1.00  0.00     0.014 A 
ATOM     10  C   UNL     1       2.620   0.357   2.522  1.00  0.00     0.014 A 
ATOM     11  C   UNL     1       5.003   1.776   2.256  1.00  0.00     0.010 A 
ATOM     12  C   UNL     1       3.308   0.783   3.663  1.00  0.00     0.010 A 
ATOM     13  C   UNL     1       4.532   1.457   3.540  1.00  0.00    -0.014 A 
BRANCH  13  14
ATOM     14  C   UNL     1       5.325   1.890   4.719  1.00  0.00     0.031 A 
ATOM     15  C   UNL     1       5.910   0.890   5.680  1.00  0.00     0.074 A 
ATOM     16  C   UNL     1       5.570   3.207   4.880  1.00  0.00     0.049 A 
ATOM     17  N   UNL     1       6.686   1.103   6.713  1.00  0.00    -0.248 NA
ATOM     18  C   UNL     1       5.577  -0.527   5.466  1.00  0.00     0.031 C 
ATOM     19  C   UNL     1       5.054   4.272   4.013  1.00  0.00     0.029 A 
ATOM     20  N   UNL     1       6.344   3.873   5.794  1.00  0.00    -0.354 N 
ATOM     21  C   UNL     1       6.907  -0.142   7.290  1.00  0.00     0.074 A 
ATOM     22  C   UNL     1       6.168  -1.106   6.502  1.00  0.00     0.031 C 
ATOM     23  C   UNL     1       5.591   5.442   4.385  1.00  0.00     0.029 A 
ATOM     24  C   UNL     1       6.425   5.226   5.560  1.00  0.00     0.049 A 
ATOM     25  H   UNL     1       6.798   3.427   6.545  1.00  0.00     0.167 HD
ATOM     26  C   UNL     1       7.657  -0.454   8.376  1.00  0.00     0.031 A 
ATOM     27  C   UNL     1       7.091   6.192   6.218  1.00  0.00     0.031 A 
ATOM     28  C   UNL     1       8.400   0.509   9.147  1.00  0.00     0.049 A 
ATOM     29  C   UNL     1       7.904   5.821   7.422  1.00  0.00     0.074 A 
ATOM     30  C   UNL     1       9.219   0.288  10.241  1.00  0.00     0.029 A 
ATOM     31  N   UNL     1       8.413   1.876   8.909  1.00  0.00    -0.354 N 
ATOM     32  N   UNL     1       8.119   4.633   7.934  1.00  0.00    -0.248 NA
ATOM     33  C   UNL     1       8.562   6.921   8.138  1.00  0.00     0.031 C 
ATOM     34  C   UNL     1       9.688   1.526  10.695  1.00  0.00     0.029 A 
ATOM     35  C   UNL     1       9.205   2.513   9.851  1.00  0.00     0.049 A 
ATOM     36  H   UNL     1       7.931   2.327   8.179  1.00  0.00     0.167 HD
ATOM     37  C   UNL     1       8.951   4.840   9.027  1.00  0.00     0.074 A 
ATOM     38  C   UNL     1       9.216   6.264   9.086  1.00  0.00     0.031 C 
ATOM     39  C   UNL     1       9.450   3.933   9.902  1.00  0.00     0.031 A 
BRANCH  26  40
ATOM     40  C   UNL     1       7.678  -1.894   8.820  1.00  0.00    -0.014 A 
ATOM     41  C   UNL     1       8.358  -2.881   8.085  1.00  0.00     0.010 A 
ATOM     42  C   UNL     1       7.031  -2.259  10.015  1.00  0.00     0.010 A 
ATOM     43  C   UNL     1       8.352  -4.213   8.512  1.00  0.00     0.020 A 
ATOM     44  C   UNL     1       7.044  -3.584  10.460  1.00  0.00     0.020 A 
ATOM     45  C   UNL     1       7.688  -4.557   9.694  1.00  0.00     0.054 A 
BRANCH  45  46
ATOM     46  S   UNL     1       7.698  -6.291  10.230  1.00  0.00     0.124 S 
ATOM     47  O   UNL     1       6.749  -6.897   9.299  1.00  0.00    -0.237 OA
ATOM     48  O   UNL     1       9.094  -6.678  10.043  1.00  0.00    -0.237 OA
ATOM     49  O   UNL     1       7.252  -6.227  11.620  1.00  0.00    -0.744 OA
ENDBRANCH  45  46
ENDBRANCH  26  40
BRANCH  27  50
ATOM     50  C   UNL     1       7.006   7.600   5.746  1.00  0.00    -0.014 A 
ATOM     51  C   UNL     1       8.121   8.226   5.163  1.00  0.00     0.010 A 
ATOM     52  C   UNL     1       5.794   8.309   5.843  1.00  0.00     0.010 A 
ATOM     53  C   UNL     1       8.028   9.540   4.694  1.00  0.00     0.020 A 
ATOM     54  C   UNL     1       5.690   9.611   5.349  1.00  0.00     0.020 A 
ATOM     55  C   UNL     1       6.812  10.223   4.787  1.00  0.00     0.054 A 
BRANCH  55  56
ATOM     56  S   UNL     1       6.696  11.904   4.117  1.00  0.00     0.124 S 
ATOM     57  O   UNL     1       7.390  12.685   5.136  1.00  0.00    -0.237 OA
ATOM     58  O   UNL     1       7.384  11.782   2.834  1.00  0.00    -0.237 OA
ATOM     59  O   UNL     1       5.256  12.134   4.021  1.00  0.00    -0.744 OA
ENDBRANCH  55  56
ENDBRANCH  27  50
BRANCH  39  60
ATOM     60  C   UNL     1      10.356   4.456  10.982  1.00  0.00    -0.014 A 
ATOM     61  C   UNL     1       9.849   5.201  12.061  1.00  0.00     0.010 A 
ATOM     62  C   UNL     1      11.734   4.179  10.924  1.00  0.00     0.010 A 
ATOM     63  C   UNL     1      10.711   5.695  13.043  1.00  0.00     0.020 A 
ATOM     64  C   UNL     1      12.595   4.648  11.918  1.00  0.00     0.020 A 
ATOM     65  C   UNL     1      12.080   5.419  12.963  1.00  0.00     0.054 A 
BRANCH  65  66
ATOM     66  S   UNL     1      13.178   6.050  14.261  1.00  0.00     0.124 S 
ATOM     67  O   UNL     1      13.287   7.462  13.906  1.00  0.00    -0.237 OA
ATOM     68  O   UNL     1      12.429   5.765  15.483  1.00  0.00    -0.237 OA
ATOM     69  O   UNL     1      14.399   5.267  14.090  1.00  0.00    -0.744 OA
ENDBRANCH  65  66
ENDBRANCH  39  60
ENDBRANCH  13  14
ENDBRANCH   6   8
ENDBRANCH   3   4
ENDBRANCH   2   3
ENDBRANCH   1   2
BRANCH   1  70
ATOM     70  N   UNL     1       4.700  -2.097  -3.838  1.00  0.00    -0.352 N 
ATOM     71  C   UNL     1       5.660  -2.499  -4.744  1.00  0.00     0.251 C 
ATOM     72  H   UNL     1       4.207  -1.293  -4.119  1.00  0.00     0.163 HD
ATOM     73  O   UNL     1       5.912  -1.785  -5.697  1.00  0.00    -0.269 OA
BRANCH  71  74
ATOM     74  C   UNL     1       6.410  -3.767  -4.563  1.00  0.00     0.041 A 
ATOM     75  C   UNL     1       7.759  -3.821  -4.934  1.00  0.00     0.014 A 
ATOM     76  C   UNL     1       5.806  -4.902  -4.040  1.00  0.00     0.040 A 
ATOM     77  C   UNL     1       8.496  -4.992  -4.729  1.00  0.00     0.003 A 
ATOM     78  C   UNL     1       6.569  -6.020  -3.724  1.00  0.00     0.041 A 
ATOM     79  C   UNL     1       7.904  -6.092  -4.109  1.00  0.00     0.026 A 
BRANCH  78  80
ATOM     80  N   UNL     1       6.011  -6.935  -2.827  1.00  0.00    -0.331 N 
ATOM     81  H   UNL     1       5.289  -6.587  -2.256  1.00  0.00     0.169 HD
BRANCH  80  82
ATOM     82  C   UNL     1       6.332  -8.238  -2.637  1.00  0.00     0.191 C 
ATOM     83  S   UNL     1       6.307  -8.862  -1.083  1.00  0.00    -0.039 S 
BRANCH  82  84
ATOM     84  N   UNL     1       6.512  -9.068  -3.710  1.00  0.00    -0.254 N 
ATOM     85  H   UNL     1       6.881  -9.961  -3.522  1.00  0.00     0.193 HD
BRANCH  84  86
ATOM     86  N   UNL     1       6.226  -8.777  -5.033  1.00  0.00    -0.181 NA
ATOM     87  C   UNL     1       4.985  -8.836  -5.449  1.00  0.00     0.143 C 
BRANCH  87  88
ATOM     88  C   UNL     1       3.862  -9.097  -4.573  1.00  0.00     0.020 A 
ATOM     89  C   UNL     1       3.414  -8.227  -3.598  1.00  0.00     0.093 A 
ATOM     90  C   UNL     1       3.090 -10.275  -4.393  1.00  0.00     0.008 A 
ATOM     91  N   UNL     1       3.037  -9.033  -2.555  1.00  0.00    -0.361 N 
ATOM     92  C   UNL     1       2.862 -10.313  -3.017  1.00  0.00     0.046 A 
ATOM     93  C   UNL     1       2.689 -11.380  -5.165  1.00  0.00     0.011 A 
ATOM     94  H   UNL     1       2.912  -8.739  -1.624  1.00  0.00     0.166 HD
ATOM     95  C   UNL     1       2.534 -11.483  -2.335  1.00  0.00     0.027 A 
ATOM     96  C   UNL     1       2.150 -12.495  -4.509  1.00  0.00     0.001 A 
ATOM     97  C   UNL     1       2.159 -12.575  -3.116  1.00  0.00     0.002 A 
ENDBRANCH  87  88
ENDBRANCH  84  86
ENDBRANCH  82  84
ENDBRANCH  80  82
ENDBRANCH  78  80
ENDBRANCH  71  74
ENDBRANCH   1  70
TORSDOF 18
