REMARK SMILES CC(=O)Nc1cccc(-c2cc(F)ccc2C(=O)NCCCNC(=O)c2ccc(-c3c4nc(c(-c5ccc(S(=O)(=O)[O-])cc5)c5ccc([nH]5)c(-c5ccc(S(=O)(=O)[O-])cc5)c5nc(c(-c6ccc(S(=O)(=O)[O-])cc6)c6ccc3[nH]6)C=C5)C=C4)cc2)c1
REMARK SMILES IDX 21 1 20 2 19 3 17 4 18 5 16 7 10 8 11 9 12 10 15 11 13 12
REMARK SMILES IDX 14 13 9 14 5 15 6 16 86 17 7 18 8 19 4 20 1 21 2 22 3 23
REMARK SMILES IDX 22 25 23 26 24 27 25 29 26 30 27 31 85 32 28 33 84 34 29 35
REMARK SMILES IDX 30 36 31 37 78 38 32 39 83 40 77 41 79 42 33 43 82 44 76 45
REMARK SMILES IDX 75 46 34 48 64 49 45 50 63 51 46 52 49 53 62 54 80 55 47 56
REMARK SMILES IDX 48 57 61 59 81 60 50 61 35 62 36 63 44 64 37 65 43 66 38 67
REMARK SMILES IDX 39 68 40 69 41 70 42 71 65 72 66 73 74 74 67 75 73 76 68 77
REMARK SMILES IDX 69 78 70 79 71 80 72 81 51 82 52 83 60 84 53 85 59 86 54 87
REMARK SMILES IDX 55 88 56 89 57 90 58 91
REMARK H PARENT 19 6 4 24 23 28 79 47 49 58
REMARK Flexibility Score: inf
ROOT
ATOM      1  C   UNL     1       3.579   3.803  -3.312  1.00  0.00     0.042 C 
ENDROOT
BRANCH   1   2
ATOM      2  C   UNL     1       3.817   2.795  -2.218  1.00  0.00     0.118 C 
BRANCH   2   3
ATOM      3  N   UNL     1       4.824   1.795  -2.379  1.00  0.00    -0.352 N 
ATOM      4  C   UNL     1       5.542   1.155  -1.394  1.00  0.00     0.251 C 
ATOM      5  O   UNL     1       6.098   0.109  -1.752  1.00  0.00    -0.269 OA
ATOM      6  H   UNL     1       5.029   1.532  -3.305  1.00  0.00     0.163 HD
BRANCH   4   7
ATOM      7  C   UNL     1       5.807   1.646   0.023  1.00  0.00     0.047 A 
ATOM      8  C   UNL     1       5.001   2.346   0.975  1.00  0.00    -0.003 A 
ATOM      9  C   UNL     1       5.562   2.623   2.251  1.00  0.00     0.048 A 
ATOM     10  C   UNL     1       6.849   2.234   2.595  1.00  0.00     0.123 A 
ATOM     11  C   UNL     1       7.121   1.271   0.429  1.00  0.00     0.017 A 
ATOM     12  F   UNL     1       7.324   2.517   3.814  1.00  0.00    -0.207 F 
ATOM     13  C   UNL     1       7.638   1.557   1.693  1.00  0.00     0.040 A 
BRANCH   8  14
ATOM     14  C   UNL     1       3.623   2.858   0.795  1.00  0.00    -0.015 A 
ATOM     15  C   UNL     1       1.327   2.541   0.020  1.00  0.00     0.041 A 
ATOM     16  C   UNL     1       1.142   3.930   0.021  1.00  0.00     0.026 A 
ATOM     17  C   UNL     1       2.550   2.012   0.468  1.00  0.00     0.034 A 
ATOM     18  C   UNL     1       2.155   4.783   0.456  1.00  0.00     0.003 A 
ATOM     19  C   UNL     1       3.386   4.251   0.838  1.00  0.00     0.009 A 
BRANCH  15  20
ATOM     20  N   UNL     1       0.353   1.780  -0.658  1.00  0.00    -0.326 N 
ATOM     21  C   UNL     1       0.748  -0.506   0.236  1.00  0.00     0.114 C 
ATOM     22  C   UNL     1       0.182   0.433  -0.789  1.00  0.00     0.221 C 
ATOM     23  O   UNL     1      -0.466  -0.011  -1.739  1.00  0.00    -0.275 OA
ATOM     24  H   UNL     1      -0.328   2.319  -1.122  1.00  0.00     0.169 HD
ENDBRANCH  15  20
ENDBRANCH   8  14
ENDBRANCH   4   7
ENDBRANCH   2   3
ENDBRANCH   1   2
BRANCH   1  25
ATOM     25  C   UNL     1       2.576   3.390  -4.377  1.00  0.00     0.118 C 
BRANCH  25  26
ATOM     26  N   UNL     1       1.267   2.982  -3.856  1.00  0.00    -0.352 N 
ATOM     27  C   UNL     1       0.049   3.620  -3.749  1.00  0.00     0.251 C 
ATOM     28  H   UNL     1       1.255   2.060  -3.511  1.00  0.00     0.163 HD
ATOM     29  O   UNL     1      -0.799   3.136  -3.004  1.00  0.00    -0.269 OA
BRANCH  27  30
ATOM     30  C   UNL     1      -0.235   4.898  -4.448  1.00  0.00     0.039 A 
ATOM     31  C   UNL     1      -1.201   5.768  -3.927  1.00  0.00     0.014 A 
ATOM     32  C   UNL     1       0.433   5.259  -5.611  1.00  0.00     0.014 A 
ATOM     33  C   UNL     1      -1.388   7.033  -4.497  1.00  0.00     0.010 A 
ATOM     34  C   UNL     1       0.377   6.566  -6.068  1.00  0.00     0.010 A 
ATOM     35  C   UNL     1      -0.544   7.471  -5.527  1.00  0.00    -0.014 A 
BRANCH  35  36
ATOM     36  C   UNL     1      -0.598   8.847  -6.087  1.00  0.00     0.031 A 
ATOM     37  C   UNL     1      -0.773   9.038  -7.575  1.00  0.00     0.074 A 
ATOM     38  C   UNL     1      -0.367   9.908  -5.286  1.00  0.00     0.049 A 
ATOM     39  N   UNL     1      -0.662  10.130  -8.285  1.00  0.00    -0.248 NA
ATOM     40  C   UNL     1      -1.061   7.834  -8.378  1.00  0.00     0.031 C 
ATOM     41  C   UNL     1      -0.128   9.851  -3.840  1.00  0.00     0.029 A 
ATOM     42  N   UNL     1      -0.276  11.246  -5.577  1.00  0.00    -0.354 N 
ATOM     43  C   UNL     1      -0.815   9.736  -9.610  1.00  0.00     0.074 A 
ATOM     44  C   UNL     1      -0.971   8.300  -9.614  1.00  0.00     0.031 C 
ATOM     45  C   UNL     1       0.044  11.096  -3.369  1.00  0.00     0.029 A 
ATOM     46  C   UNL     1      -0.010  12.036  -4.482  1.00  0.00     0.049 A 
ATOM     47  H   UNL     1      -0.392  11.608  -6.486  1.00  0.00     0.167 HD
ATOM     48  C   UNL     1      -0.850  10.504 -10.724  1.00  0.00     0.031 A 
ATOM     49  C   UNL     1       0.185  13.365  -4.388  1.00  0.00     0.031 A 
ATOM     50  C   UNL     1      -0.755  11.937 -10.705  1.00  0.00     0.049 A 
ATOM     51  C   UNL     1       0.117  14.198  -5.640  1.00  0.00     0.074 A 
ATOM     52  C   UNL     1      -0.872  12.819 -11.765  1.00  0.00     0.029 A 
ATOM     53  N   UNL     1      -0.532  12.699  -9.569  1.00  0.00    -0.354 N 
ATOM     54  N   UNL     1      -0.101  13.811  -6.875  1.00  0.00    -0.248 NA
ATOM     55  C   UNL     1       0.312  15.646  -5.486  1.00  0.00     0.031 C 
ATOM     56  C   UNL     1      -0.663  14.112 -11.278  1.00  0.00     0.029 A 
ATOM     57  C   UNL     1      -0.484  14.040  -9.905  1.00  0.00     0.049 A 
ATOM     58  H   UNL     1      -0.425  12.340  -8.659  1.00  0.00     0.167 HD
ATOM     59  C   UNL     1      -0.109  14.974  -7.638  1.00  0.00     0.074 A 
ATOM     60  C   UNL     1       0.112  16.076  -6.724  1.00  0.00     0.031 C 
ATOM     61  C   UNL     1      -0.282  15.120  -8.975  1.00  0.00     0.031 A 
BRANCH  48  62
ATOM     62  C   UNL     1      -1.012   9.818 -12.056  1.00  0.00    -0.014 A 
ATOM     63  C   UNL     1      -2.220   9.192 -12.413  1.00  0.00     0.010 A 
ATOM     64  C   UNL     1       0.035   9.869 -12.995  1.00  0.00     0.010 A 
ATOM     65  C   UNL     1      -2.369   8.610 -13.675  1.00  0.00     0.020 A 
ATOM     66  C   UNL     1      -0.122   9.316 -14.269  1.00  0.00     0.020 A 
ATOM     67  C   UNL     1      -1.322   8.682 -14.597  1.00  0.00     0.054 A 
BRANCH  67  68
ATOM     68  S   UNL     1      -1.573   7.980 -16.250  1.00  0.00     0.124 S 
ATOM     69  O   UNL     1      -1.577   6.546 -15.971  1.00  0.00    -0.237 OA
ATOM     70  O   UNL     1      -2.861   8.546 -16.644  1.00  0.00    -0.237 OA
ATOM     71  O   UNL     1      -0.424   8.463 -17.012  1.00  0.00    -0.744 OA
ENDBRANCH  67  68
ENDBRANCH  48  62
BRANCH  49  72
ATOM     72  C   UNL     1       0.454  14.001  -3.066  1.00  0.00    -0.014 A 
ATOM     73  C   UNL     1      -0.487  14.873  -2.490  1.00  0.00     0.010 A 
ATOM     74  C   UNL     1       1.662  13.758  -2.386  1.00  0.00     0.010 A 
ATOM     75  C   UNL     1      -0.209  15.524  -1.284  1.00  0.00     0.020 A 
ATOM     76  C   UNL     1       1.929  14.380  -1.162  1.00  0.00     0.020 A 
ATOM     77  C   UNL     1       1.000  15.275  -0.629  1.00  0.00     0.054 A 
BRANCH  77  78
ATOM     78  S   UNL     1       1.335  16.123   0.940  1.00  0.00     0.124 S 
ATOM     79  O   UNL     1       1.595  17.488   0.496  1.00  0.00    -0.237 OA
ATOM     80  O   UNL     1       0.091  15.921   1.678  1.00  0.00    -0.237 OA
ATOM     81  O   UNL     1       2.491  15.406   1.474  1.00  0.00    -0.744 OA
ENDBRANCH  77  78
ENDBRANCH  49  72
BRANCH  61  82
ATOM     82  C   UNL     1      -0.298  16.520  -9.524  1.00  0.00    -0.014 A 
ATOM     83  C   UNL     1       0.873  17.293  -9.596  1.00  0.00     0.010 A 
ATOM     84  C   UNL     1      -1.501  17.043 -10.035  1.00  0.00     0.010 A 
ATOM     85  C   UNL     1       0.835  18.579 -10.139  1.00  0.00     0.020 A 
ATOM     86  C   UNL     1      -1.536  18.315 -10.609  1.00  0.00     0.020 A 
ATOM     87  C   UNL     1      -0.370  19.081 -10.644  1.00  0.00     0.054 A 
BRANCH  87  88
ATOM     88  S   UNL     1      -0.381  20.734 -11.386  1.00  0.00     0.124 S 
ATOM     89  O   UNL     1      -0.248  21.594 -10.214  1.00  0.00    -0.237 OA
ATOM     90  O   UNL     1       0.780  20.694 -12.273  1.00  0.00    -0.237 OA
ATOM     91  O   UNL     1      -1.674  20.801 -12.065  1.00  0.00    -0.744 OA
ENDBRANCH  87  88
ENDBRANCH  61  82
ENDBRANCH  35  36
ENDBRANCH  27  30
ENDBRANCH  25  26
ENDBRANCH   1  25
TORSDOF 15
