REMARK SMILES COc1cc(Br)c(OC)c(C(=O)NCCC(=O)NCCCNC(=O)c2ccc(-c3c4nc(c(-c5ccc(S(=O)(=O)[O-])cc5)c5ccc([nH]5)c(-c5ccc(S(=O)(=O)[O-])cc5)c5nc(c(-c6ccc(S(=O)(=O)[O-])cc6)c6ccc3[nH]6)C=C5)C=C4)cc2)c1
REMARK SMILES IDX 19 1 18 2 16 3 17 4 15 6 14 7 13 8 11 9 12 10 10 12 3 13
REMARK SMILES IDX 4 14 85 15 5 16 6 17 7 18 2 19 1 20 8 21 9 22 20 23 21 24
REMARK SMILES IDX 22 25 23 26 24 28 25 29 26 30 84 31 27 32 83 33 28 34 29 35
REMARK SMILES IDX 30 36 77 37 31 38 82 39 76 40 78 41 32 42 81 43 75 44 74 45
REMARK SMILES IDX 33 47 63 48 44 49 62 50 45 51 48 52 61 53 79 54 46 55 47 56
REMARK SMILES IDX 60 58 80 59 49 60 34 61 35 62 43 63 36 64 42 65 37 66 38 67
REMARK SMILES IDX 39 68 40 69 41 70 64 71 65 72 73 73 66 74 72 75 67 76 68 77
REMARK SMILES IDX 69 78 70 79 71 80 50 81 51 82 59 83 52 84 58 85 53 86 54 87
REMARK SMILES IDX 55 88 56 89 57 90
REMARK H PARENT 18 5 13 11 22 27 78 46 48 57
REMARK Flexibility Score: inf
ROOT
ATOM      1  C   UNL     1      -3.489   6.284  -2.407  1.00  0.00     0.117 C 
ENDROOT
BRANCH   1   2
ATOM      2  N   UNL     1      -4.592   5.336  -2.415  1.00  0.00    -0.356 N 
ATOM      3  C   UNL     1      -4.587   3.992  -2.208  1.00  0.00     0.221 C 
ATOM      4  O   UNL     1      -5.654   3.381  -2.297  1.00  0.00    -0.275 OA
ATOM      5  H   UNL     1      -5.476   5.727  -2.598  1.00  0.00     0.163 HD
BRANCH   3   6
ATOM      6  C   UNL     1      -3.300   3.258  -1.897  1.00  0.00     0.121 C 
BRANCH   6   7
ATOM      7  C   UNL     1      -2.642   2.752  -3.172  1.00  0.00     0.126 C 
BRANCH   7   8
ATOM      8  N   UNL     1      -1.649   3.668  -3.722  1.00  0.00    -0.351 N 
ATOM      9  C   UNL     1      -0.359   4.068  -3.469  1.00  0.00     0.255 C 
ATOM     10  O   UNL     1      -0.009   5.063  -4.109  1.00  0.00    -0.269 OA
ATOM     11  H   UNL     1      -2.010   4.140  -4.508  1.00  0.00     0.163 HD
BRANCH   9  12
ATOM     12  C   UNL     1       0.629   3.361  -2.587  1.00  0.00     0.086 A 
ATOM     13  C   UNL     1       1.401   1.312  -1.532  1.00  0.00     0.121 A 
ATOM     14  C   UNL     1       2.645   1.873  -1.299  1.00  0.00     0.066 A 
ATOM     15  C   UNL     1       0.426   2.028  -2.218  1.00  0.00     0.064 A 
ATOM     16  C   UNL     1       2.880   3.211  -1.630  1.00  0.00     0.064 A 
ATOM     17  Br  UNL     1       4.596   3.847  -1.106  1.00  0.00    -0.047 Br
ATOM     18  C   UNL     1       1.869   3.982  -2.244  1.00  0.00     0.146 A 
BRANCH  13  19
ATOM     19  O   UNL     1       1.089   0.032  -1.165  1.00  0.00    -0.497 OA
ATOM     20  C   UNL     1       1.259  -0.168   0.240  1.00  0.00     0.278 C 
ENDBRANCH  13  19
BRANCH  18  21
ATOM     21  O   UNL     1       1.935   5.349  -2.370  1.00  0.00    -0.495 OA
ATOM     22  C   UNL     1       3.084   5.912  -2.998  1.00  0.00     0.278 C 
ENDBRANCH  18  21
ENDBRANCH   9  12
ENDBRANCH   7   8
ENDBRANCH   6   7
ENDBRANCH   3   6
ENDBRANCH   1   2
BRANCH   1  23
ATOM     23  C   UNL     1      -3.130   6.760  -3.810  1.00  0.00     0.042 C 
BRANCH  23  24
ATOM     24  C   UNL     1      -4.196   7.615  -4.480  1.00  0.00     0.118 C 
BRANCH  24  25
ATOM     25  N   UNL     1      -4.284   8.950  -3.914  1.00  0.00    -0.352 N 
ATOM     26  C   UNL     1      -3.925  10.166  -4.447  1.00  0.00     0.251 C 
ATOM     27  H   UNL     1      -4.660   8.991  -3.005  1.00  0.00     0.163 HD
ATOM     28  O   UNL     1      -3.901  11.152  -3.716  1.00  0.00    -0.269 OA
BRANCH  26  29
ATOM     29  C   UNL     1      -3.555  10.298  -5.878  1.00  0.00     0.039 A 
ATOM     30  C   UNL     1      -2.501  11.150  -6.223  1.00  0.00     0.014 A 
ATOM     31  C   UNL     1      -4.261   9.634  -6.883  1.00  0.00     0.014 A 
ATOM     32  C   UNL     1      -2.122  11.288  -7.563  1.00  0.00     0.010 A 
ATOM     33  C   UNL     1      -3.827   9.703  -8.207  1.00  0.00     0.010 A 
ATOM     34  C   UNL     1      -2.761  10.541  -8.565  1.00  0.00    -0.014 A 
BRANCH  34  35
ATOM     35  C   UNL     1      -2.348  10.640  -9.992  1.00  0.00     0.031 A 
ATOM     36  C   UNL     1      -3.320  11.145 -11.028  1.00  0.00     0.074 A 
ATOM     37  C   UNL     1      -1.123  10.223 -10.368  1.00  0.00     0.049 A 
ATOM     38  N   UNL     1      -3.172  11.234 -12.326  1.00  0.00    -0.248 NA
ATOM     39  C   UNL     1      -4.641  11.582 -10.547  1.00  0.00     0.031 C 
ATOM     40  C   UNL     1      -0.099   9.679  -9.473  1.00  0.00     0.029 A 
ATOM     41  N   UNL     1      -0.531  10.186 -11.607  1.00  0.00    -0.354 N 
ATOM     42  C   UNL     1      -4.383  11.711 -12.815  1.00  0.00     0.074 A 
ATOM     43  C   UNL     1      -5.271  11.848 -11.682  1.00  0.00     0.031 C 
ATOM     44  C   UNL     1       1.001   9.389 -10.187  1.00  0.00     0.029 A 
ATOM     45  C   UNL     1       0.750   9.685 -11.594  1.00  0.00     0.049 A 
ATOM     46  H   UNL     1      -0.982  10.489 -12.428  1.00  0.00     0.167 HD
ATOM     47  C   UNL     1      -4.722  12.027 -14.088  1.00  0.00     0.031 A 
ATOM     48  C   UNL     1       1.623   9.478 -12.599  1.00  0.00     0.031 A 
ATOM     49  C   UNL     1      -3.832  11.913 -15.213  1.00  0.00     0.049 A 
ATOM     50  C   UNL     1       1.224   9.835 -14.005  1.00  0.00     0.074 A 
ATOM     51  C   UNL     1      -4.063  12.262 -16.532  1.00  0.00     0.029 A 
ATOM     52  N   UNL     1      -2.539  11.415 -15.151  1.00  0.00    -0.354 N 
ATOM     53  N   UNL     1       0.092  10.338 -14.438  1.00  0.00    -0.248 NA
ATOM     54  C   UNL     1       2.224   9.606 -15.058  1.00  0.00     0.031 C 
ATOM     55  C   UNL     1      -2.926  11.932 -17.277  1.00  0.00     0.029 A 
ATOM     56  C   UNL     1      -1.967  11.429 -16.412  1.00  0.00     0.049 A 
ATOM     57  H   UNL     1      -2.094  11.099 -14.332  1.00  0.00     0.167 HD
ATOM     58  C   UNL     1       0.255  10.510 -15.808  1.00  0.00     0.074 A 
ATOM     59  C   UNL     1       1.597  10.071 -16.130  1.00  0.00     0.031 C 
ATOM     60  C   UNL     1      -0.629  10.991 -16.718  1.00  0.00     0.031 A 
BRANCH  47  61
ATOM     61  C   UNL     1      -6.122  12.528 -14.332  1.00  0.00    -0.014 A 
ATOM     62  C   UNL     1      -6.530  13.796 -13.880  1.00  0.00     0.010 A 
ATOM     63  C   UNL     1      -7.033  11.735 -15.054  1.00  0.00     0.010 A 
ATOM     64  C   UNL     1      -7.834  14.244 -14.105  1.00  0.00     0.020 A 
ATOM     65  C   UNL     1      -8.331  12.191 -15.307  1.00  0.00     0.020 A 
ATOM     66  C   UNL     1      -8.728  13.436 -14.814  1.00  0.00     0.054 A 
BRANCH  66  67
ATOM     67  S   UNL     1     -10.410  14.049 -15.107  1.00  0.00     0.124 S 
ATOM     68  O   UNL     1     -11.015  13.910 -13.784  1.00  0.00    -0.237 OA
ATOM     69  O   UNL     1     -10.180  15.421 -15.550  1.00  0.00    -0.237 OA
ATOM     70  O   UNL     1     -10.935  13.147 -16.129  1.00  0.00    -0.744 OA
ENDBRANCH  66  67
ENDBRANCH  47  61
BRANCH  48  71
ATOM     71  C   UNL     1       2.971   8.917 -12.309  1.00  0.00    -0.014 A 
ATOM     72  C   UNL     1       4.117   9.725 -12.412  1.00  0.00     0.010 A 
ATOM     73  C   UNL     1       3.116   7.573 -11.916  1.00  0.00     0.010 A 
ATOM     74  C   UNL     1       5.384   9.197 -12.145  1.00  0.00     0.020 A 
ATOM     75  C   UNL     1       4.379   7.049 -11.622  1.00  0.00     0.020 A 
ATOM     76  C   UNL     1       5.506   7.862 -11.750  1.00  0.00     0.054 A 
BRANCH  76  77
ATOM     77  S   UNL     1       7.155   7.212 -11.360  1.00  0.00     0.124 S 
ATOM     78  O   UNL     1       7.746   7.067 -12.686  1.00  0.00    -0.237 OA
ATOM     79  O   UNL     1       7.723   8.269 -10.526  1.00  0.00    -0.237 OA
ATOM     80  O   UNL     1       6.873   5.962 -10.659  1.00  0.00    -0.744 OA
ENDBRANCH  76  77
ENDBRANCH  48  71
BRANCH  60  81
ATOM     81  C   UNL     1      -0.165  11.102 -18.145  1.00  0.00    -0.014 A 
ATOM     82  C   UNL     1      -0.007   9.961 -18.951  1.00  0.00     0.010 A 
ATOM     83  C   UNL     1       0.057  12.374 -18.704  1.00  0.00     0.010 A 
ATOM     84  C   UNL     1       0.391  10.089 -20.285  1.00  0.00     0.020 A 
ATOM     85  C   UNL     1       0.430  12.507 -20.044  1.00  0.00     0.020 A 
ATOM     86  C   UNL     1       0.608  11.362 -20.823  1.00  0.00     0.054 A 
BRANCH  86  87
ATOM     87  S   UNL     1       1.076  11.504 -22.569  1.00  0.00     0.124 S 
ATOM     88  O   UNL     1       2.473  11.078 -22.545  1.00  0.00    -0.237 OA
ATOM     89  O   UNL     1       0.150  10.585 -23.227  1.00  0.00    -0.237 OA
ATOM     90  O   UNL     1       0.860  12.918 -22.872  1.00  0.00    -0.744 OA
ENDBRANCH  86  87
ENDBRANCH  60  81
ENDBRANCH  34  35
ENDBRANCH  26  29
ENDBRANCH  24  25
ENDBRANCH  23  24
ENDBRANCH   1  23
TORSDOF 18
