REMARK SMILES O=C(CSc1nc(-c2cccc(Br)c2)c[nH]1)NCCCNC(=O)c1ccc(-c2c3nc(c(-c4ccc(S(=O)(=O)[O-])cc4)c4ccc([nH]4)c(-c4ccc(S(=O)(=O)[O-])cc4)c4nc(c(-c5ccc(S(=O)(=O)[O-])cc5)c5ccc2[nH]5)C=C4)C=C3)cc1
REMARK SMILES IDX 19 1 18 2 17 3 1 4 2 5 3 7 4 8 5 9 6 10 16 11 7 12 15 13
REMARK SMILES IDX 8 15 9 16 14 17 10 18 12 19 11 20 13 21 20 22 21 23 22 24
REMARK SMILES IDX 23 26 24 27 25 28 83 29 26 30 82 31 27 32 28 33 29 34 76 35
REMARK SMILES IDX 30 36 81 37 75 38 77 39 31 40 80 41 74 42 73 43 32 45 62 46
REMARK SMILES IDX 43 47 61 48 44 49 47 50 60 51 78 52 45 53 46 54 59 56 79 57
REMARK SMILES IDX 48 58 33 59 34 60 42 61 35 62 41 63 36 64 37 65 38 66 39 67
REMARK SMILES IDX 40 68 63 69 64 70 72 71 65 72 71 73 66 74 67 75 68 76 69 77
REMARK SMILES IDX 70 78 49 79 50 80 58 81 51 82 57 83 52 84 53 85 54 86 55 87
REMARK SMILES IDX 56 88
REMARK H PARENT 17 6 16 14 21 25 77 44 47 55
REMARK Flexibility Score: inf
ROOT
ATOM      1  C   UNL     1       2.385   2.932   1.761  1.00  0.00     0.042 C 
ENDROOT
BRANCH   1   2
ATOM      2  C   UNL     1       2.104   2.418   0.351  1.00  0.00     0.117 C 
BRANCH   2   3
ATOM      3  N   UNL     1       2.769   1.161   0.069  1.00  0.00    -0.355 N 
ATOM      4  O   UNL     1       0.866  -0.128  -0.003  1.00  0.00    -0.274 OA
ATOM      5  C   UNL     1       2.084  -0.018  -0.129  1.00  0.00     0.230 C 
ATOM      6  H   UNL     1       3.752   1.149   0.015  1.00  0.00     0.163 HD
BRANCH   5   7
ATOM      7  C   UNL     1       2.952  -1.232  -0.412  1.00  0.00     0.178 C 
BRANCH   7   8
ATOM      8  S   UNL     1       4.140  -0.971  -1.759  1.00  0.00    -0.078 SA
BRANCH   8   9
ATOM      9  C   UNL     1       3.088  -0.514  -3.043  1.00  0.00     0.166 A 
ATOM     10  N   UNL     1       2.943   0.691  -3.531  1.00  0.00    -0.223 NA
ATOM     11  N   UNL     1       2.310  -1.430  -3.687  1.00  0.00    -0.339 N 
ATOM     12  C   UNL     1       1.975   0.562  -4.498  1.00  0.00     0.089 A 
ATOM     13  C   UNL     1       1.573  -0.752  -4.621  1.00  0.00     0.113 A 
ATOM     14  H   UNL     1       2.282  -2.399  -3.513  1.00  0.00     0.168 HD
BRANCH  12  15
ATOM     15  C   UNL     1       1.478   1.671  -5.280  1.00  0.00     0.003 A 
ATOM     16  C   UNL     1       2.381   2.514  -5.940  1.00  0.00     0.010 A 
ATOM     17  C   UNL     1       0.104   1.931  -5.362  1.00  0.00     0.026 A 
ATOM     18  C   UNL     1       1.917   3.599  -6.688  1.00  0.00     0.002 A 
ATOM     19  C   UNL     1      -0.350   3.025  -6.098  1.00  0.00     0.018 A 
ATOM     20  C   UNL     1       0.549   3.857  -6.766  1.00  0.00     0.016 A 
ATOM     21  Br  UNL     1      -2.203   3.392  -6.183  1.00  0.00    -0.051 Br
ENDBRANCH  12  15
ENDBRANCH   8   9
ENDBRANCH   7   8
ENDBRANCH   5   7
ENDBRANCH   2   3
ENDBRANCH   1   2
BRANCH   1  22
ATOM     22  C   UNL     1       3.852   3.238   2.058  1.00  0.00     0.118 C 
BRANCH  22  23
ATOM     23  N   UNL     1       4.407   4.283   1.212  1.00  0.00    -0.352 N 
ATOM     24  C   UNL     1       5.085   5.432   1.534  1.00  0.00     0.251 C 
ATOM     25  H   UNL     1       4.275   4.142   0.246  1.00  0.00     0.163 HD
ATOM     26  O   UNL     1       5.352   6.235   0.638  1.00  0.00    -0.269 OA
BRANCH  24  27
ATOM     27  C   UNL     1       5.480   5.741   2.929  1.00  0.00     0.039 A 
ATOM     28  C   UNL     1       5.384   7.066   3.369  1.00  0.00     0.014 A 
ATOM     29  C   UNL     1       5.989   4.766   3.791  1.00  0.00     0.014 A 
ATOM     30  C   UNL     1       5.738   7.400   4.680  1.00  0.00     0.010 A 
ATOM     31  C   UNL     1       6.278   5.088   5.120  1.00  0.00     0.010 A 
ATOM     32  C   UNL     1       6.158   6.408   5.580  1.00  0.00    -0.014 A 
BRANCH  32  33
ATOM     33  C   UNL     1       6.463   6.738   6.998  1.00  0.00     0.031 A 
ATOM     34  C   UNL     1       7.857   6.570   7.544  1.00  0.00     0.074 A 
ATOM     35  C   UNL     1       5.472   7.147   7.816  1.00  0.00     0.049 A 
ATOM     36  N   UNL     1       8.297   6.772   8.761  1.00  0.00    -0.248 NA
ATOM     37  C   UNL     1       8.887   6.092   6.607  1.00  0.00     0.031 C 
ATOM     38  C   UNL     1       4.070   7.318   7.428  1.00  0.00     0.029 A 
ATOM     39  N   UNL     1       5.490   7.491   9.146  1.00  0.00    -0.354 N 
ATOM     40  C   UNL     1       9.646   6.432   8.740  1.00  0.00     0.074 A 
ATOM     41  C   UNL     1       9.941   5.968   7.401  1.00  0.00     0.031 C 
ATOM     42  C   UNL     1       3.370   7.758   8.486  1.00  0.00     0.029 A 
ATOM     43  C   UNL     1       4.262   7.866   9.637  1.00  0.00     0.049 A 
ATOM     44  H   UNL     1       6.307   7.471   9.695  1.00  0.00     0.167 HD
ATOM     45  C   UNL     1      10.560   6.514   9.737  1.00  0.00     0.031 A 
ATOM     46  C   UNL     1       3.889   8.250  10.873  1.00  0.00     0.031 A 
ATOM     47  C   UNL     1      10.272   6.984  11.067  1.00  0.00     0.049 A 
ATOM     48  C   UNL     1       4.922   8.333  11.963  1.00  0.00     0.074 A 
ATOM     49  C   UNL     1      11.144   7.149  12.130  1.00  0.00     0.029 A 
ATOM     50  N   UNL     1       9.018   7.366  11.519  1.00  0.00    -0.354 N 
ATOM     51  N   UNL     1       6.203   8.060  11.906  1.00  0.00    -0.248 NA
ATOM     52  C   UNL     1       4.459   8.792  13.280  1.00  0.00     0.031 C 
ATOM     53  C   UNL     1      10.409   7.587  13.238  1.00  0.00     0.029 A 
ATOM     54  C   UNL     1       9.089   7.749  12.849  1.00  0.00     0.049 A 
ATOM     55  H   UNL     1       8.197   7.365  10.975  1.00  0.00     0.167 HD
ATOM     56  C   UNL     1       6.706   8.342  13.172  1.00  0.00     0.074 A 
ATOM     57  C   UNL     1       5.593   8.820  13.967  1.00  0.00     0.031 C 
ATOM     58  C   UNL     1       7.975   8.219  13.633  1.00  0.00     0.031 A 
BRANCH  45  59
ATOM     59  C   UNL     1      11.968   6.075   9.426  1.00  0.00    -0.014 A 
ATOM     60  C   UNL     1      12.794   6.832   8.575  1.00  0.00     0.010 A 
ATOM     61  C   UNL     1      12.487   4.911  10.023  1.00  0.00     0.010 A 
ATOM     62  C   UNL     1      14.095   6.409   8.290  1.00  0.00     0.020 A 
ATOM     63  C   UNL     1      13.798   4.500   9.763  1.00  0.00     0.020 A 
ATOM     64  C   UNL     1      14.587   5.242   8.883  1.00  0.00     0.054 A 
BRANCH  64  65
ATOM     65  S   UNL     1      16.285   4.724   8.507  1.00  0.00     0.124 S 
ATOM     66  O   UNL     1      16.149   4.217   7.144  1.00  0.00    -0.237 OA
ATOM     67  O   UNL     1      17.038   5.968   8.641  1.00  0.00    -0.237 OA
ATOM     68  O   UNL     1      16.572   3.713   9.521  1.00  0.00    -0.744 OA
ENDBRANCH  64  65
ENDBRANCH  45  59
BRANCH  46  69
ATOM     69  C   UNL     1       2.469   8.607  11.142  1.00  0.00    -0.014 A 
ATOM     70  C   UNL     1       2.101   9.945  11.368  1.00  0.00     0.010 A 
ATOM     71  C   UNL     1       1.476   7.611  11.165  1.00  0.00     0.010 A 
ATOM     72  C   UNL     1       0.769  10.279  11.630  1.00  0.00     0.020 A 
ATOM     73  C   UNL     1       0.139   7.944  11.399  1.00  0.00     0.020 A 
ATOM     74  C   UNL     1      -0.204   9.276  11.643  1.00  0.00     0.054 A 
BRANCH  74  75
ATOM     75  S   UNL     1      -1.935   9.738  11.934  1.00  0.00     0.124 S 
ATOM     76  O   UNL     1      -1.940  10.005  13.369  1.00  0.00    -0.237 OA
ATOM     77  O   UNL     1      -2.100  10.905  11.072  1.00  0.00    -0.237 OA
ATOM     78  O   UNL     1      -2.679   8.552  11.514  1.00  0.00    -0.744 OA
ENDBRANCH  74  75
ENDBRANCH  46  69
BRANCH  58  79
ATOM     79  C   UNL     1       8.239   8.644  15.054  1.00  0.00    -0.014 A 
ATOM     80  C   UNL     1       7.776   7.885  16.143  1.00  0.00     0.010 A 
ATOM     81  C   UNL     1       8.990   9.808  15.300  1.00  0.00     0.010 A 
ATOM     82  C   UNL     1       8.023   8.305  17.453  1.00  0.00     0.020 A 
ATOM     83  C   UNL     1       9.263  10.217  16.608  1.00  0.00     0.020 A 
ATOM     84  C   UNL     1       8.761   9.472  17.677  1.00  0.00     0.054 A 
BRANCH  84  85
ATOM     85  S   UNL     1       9.090   9.985  19.386  1.00  0.00     0.124 S 
ATOM     86  O   UNL     1       7.796  10.526  19.794  1.00  0.00    -0.237 OA
ATOM     87  O   UNL     1       9.478   8.733  20.030  1.00  0.00    -0.237 OA
ATOM     88  O   UNL     1      10.163  10.968  19.252  1.00  0.00    -0.744 OA
ENDBRANCH  84  85
ENDBRANCH  58  79
ENDBRANCH  32  33
ENDBRANCH  24  27
ENDBRANCH  22  23
ENDBRANCH   1  22
TORSDOF 16
