REMARK SMILES CC(C)Cc1s/c(=N/C(=O)CCC(=O)Nc2nccs2)[nH]c1C(=O)NCCCNC(=O)c1ccc(-c2c3nc(c(-c4ccc(S(=O)(=O)[O-])cc4)c4ccc([nH]4)c(-c4ccc(S(=O)(=O)[O-])cc4)c4nc(c(-c5ccc(S(=O)(=O)[O-])cc5)c5ccc2[nH]5)C=C4)C=C3)cc1
REMARK SMILES IDX 26 1 25 2 23 3 24 4 22 6 5 7 6 8 7 9 21 10 8 11 4 13 2 14
REMARK SMILES IDX 1 15 3 16 9 17 10 18 11 19 12 20 13 21 14 22 15 23 16 25
REMARK SMILES IDX 17 26 20 27 18 28 19 29 27 30 28 31 29 32 30 33 31 35 32 36
REMARK SMILES IDX 33 37 91 38 34 39 90 40 35 41 36 42 37 43 84 44 38 45 89 46
REMARK SMILES IDX 83 47 85 48 39 49 88 50 82 51 81 52 40 54 70 55 51 56 69 57
REMARK SMILES IDX 52 58 55 59 68 60 86 61 53 62 54 63 67 65 87 66 56 67 41 68
REMARK SMILES IDX 42 69 50 70 43 71 49 72 44 73 45 74 46 75 47 76 48 77 71 78
REMARK SMILES IDX 72 79 80 80 73 81 79 82 74 83 75 84 76 85 77 86 78 87 57 88
REMARK SMILES IDX 58 89 66 90 59 91 65 92 60 93 61 94 62 95 63 96 64 97
REMARK H PARENT 25 5 21 12 15 24 29 34 85 53 55 64
REMARK Flexibility Score: inf
ROOT
ATOM      1  C   UNL     1      -2.178  -2.854  -0.700  1.00  0.00     0.118 C 
ENDROOT
BRANCH   1   2
ATOM      2  N   UNL     1      -2.322  -2.780  -2.123  1.00  0.00    -0.351 N 
ATOM      3  C   UNL     1      -1.958  -1.781  -2.966  1.00  0.00     0.268 C 
ATOM      4  O   UNL     1      -2.230  -1.949  -4.163  1.00  0.00    -0.268 OA
ATOM      5  H   UNL     1      -2.744  -3.562  -2.549  1.00  0.00     0.163 HD
BRANCH   3   6
ATOM      6  C   UNL     1      -1.339  -0.449  -2.571  1.00  0.00     0.119 A 
ATOM      7  C   UNL     1      -0.646   0.059  -1.513  1.00  0.00     0.038 A 
ATOM      8  S   UNL     1      -0.225   1.780  -1.819  1.00  0.00    -0.101 S 
ATOM      9  C   UNL     1      -0.984   1.753  -3.408  1.00  0.00     0.190 A 
ATOM     10  N   UNL     1      -1.481   0.504  -3.594  1.00  0.00    -0.326 N 
ATOM     11  N   UNL     1      -0.986   2.845  -4.073  1.00  0.00    -0.185 NA
ATOM     12  H   UNL     1      -1.935   0.268  -4.435  1.00  0.00     0.169 HD
BRANCH   7  13
ATOM     13  C   UNL     1      -0.176  -0.437  -0.166  1.00  0.00     0.052 C 
BRANCH  13  14
ATOM     14  C   UNL     1       1.270  -0.970  -0.135  1.00  0.00    -0.012 C 
ATOM     15  C   UNL     1       2.258   0.146   0.217  1.00  0.00     0.008 C 
ATOM     16  C   UNL     1       1.403  -2.092   0.902  1.00  0.00     0.008 C 
ENDBRANCH  13  14
ENDBRANCH   7  13
BRANCH  11  17
ATOM     17  C   UNL     1      -1.661   2.888  -5.260  1.00  0.00     0.248 C 
ATOM     18  O   UNL     1      -1.946   1.915  -5.953  1.00  0.00    -0.273 OA
BRANCH  17  19
ATOM     19  C   UNL     1      -1.976   4.308  -5.691  1.00  0.00     0.112 C 
BRANCH  19  20
ATOM     20  C   UNL     1      -3.116   4.970  -4.926  1.00  0.00     0.110 C 
BRANCH  20  21
ATOM     21  C   UNL     1      -2.881   5.088  -3.430  1.00  0.00     0.226 C 
ATOM     22  O   UNL     1      -2.214   6.031  -2.991  1.00  0.00    -0.275 OA
ATOM     23  N   UNL     1      -3.395   4.192  -2.543  1.00  0.00    -0.302 N 
ATOM     24  H   UNL     1      -3.272   4.400  -1.588  1.00  0.00     0.172 HD
BRANCH  23  25
ATOM     25  C   UNL     1      -4.060   3.040  -2.836  1.00  0.00     0.189 A 
ATOM     26  N   UNL     1      -4.376   2.551  -4.006  1.00  0.00    -0.229 NA
ATOM     27  S   UNL     1      -4.447   2.074  -1.482  1.00  0.00    -0.105 S 
ATOM     28  C   UNL     1      -4.925   1.295  -3.848  1.00  0.00     0.125 A 
ATOM     29  C   UNL     1      -5.039   0.861  -2.545  1.00  0.00     0.088 A 
ENDBRANCH  23  25
ENDBRANCH  20  21
ENDBRANCH  19  20
ENDBRANCH  17  19
ENDBRANCH  11  17
ENDBRANCH   3   6
ENDBRANCH   1   2
BRANCH   1  30
ATOM     30  C   UNL     1      -3.091  -3.798   0.058  1.00  0.00     0.042 C 
BRANCH  30  31
ATOM     31  C   UNL     1      -2.979  -5.273  -0.283  1.00  0.00     0.118 C 
BRANCH  31  32
ATOM     32  N   UNL     1      -1.728  -5.899   0.121  1.00  0.00    -0.352 N 
ATOM     33  C   UNL     1      -1.400  -6.743   1.161  1.00  0.00     0.251 C 
ATOM     34  H   UNL     1      -0.968  -5.676  -0.462  1.00  0.00     0.163 HD
ATOM     35  O   UNL     1      -0.222  -7.076   1.288  1.00  0.00    -0.269 OA
BRANCH  33  36
ATOM     36  C   UNL     1      -2.400  -7.215   2.154  1.00  0.00     0.039 A 
ATOM     37  C   UNL     1      -1.998  -7.389   3.485  1.00  0.00     0.014 A 
ATOM     38  C   UNL     1      -3.714  -7.518   1.808  1.00  0.00     0.014 A 
ATOM     39  C   UNL     1      -2.930  -7.757   4.465  1.00  0.00     0.010 A 
ATOM     40  C   UNL     1      -4.666  -7.757   2.798  1.00  0.00     0.010 A 
ATOM     41  C   UNL     1      -4.289  -7.888   4.142  1.00  0.00    -0.014 A 
BRANCH  41  42
ATOM     42  C   UNL     1      -5.328  -8.172   5.173  1.00  0.00     0.031 A 
ATOM     43  C   UNL     1      -6.222  -9.383   5.037  1.00  0.00     0.074 A 
ATOM     44  C   UNL     1      -5.537  -7.297   6.180  1.00  0.00     0.049 A 
ATOM     45  N   UNL     1      -7.255  -9.731   5.762  1.00  0.00    -0.248 NA
ATOM     46  C   UNL     1      -5.947 -10.301   3.918  1.00  0.00     0.031 C 
ATOM     47  C   UNL     1      -4.790  -6.055   6.399  1.00  0.00     0.029 A 
ATOM     48  N   UNL     1      -6.453  -7.311   7.205  1.00  0.00    -0.354 N 
ATOM     49  C   UNL     1      -7.775 -10.873   5.161  1.00  0.00     0.074 A 
ATOM     50  C   UNL     1      -6.971 -11.138   3.990  1.00  0.00     0.031 C 
ATOM     51  C   UNL     1      -5.258  -5.444   7.500  1.00  0.00     0.029 A 
ATOM     52  C   UNL     1      -6.367  -6.221   8.042  1.00  0.00     0.049 A 
ATOM     53  H   UNL     1      -7.110  -8.033   7.328  1.00  0.00     0.167 HD
ATOM     54  C   UNL     1      -8.814 -11.645   5.558  1.00  0.00     0.031 A 
ATOM     55  C   UNL     1      -7.103  -5.877   9.118  1.00  0.00     0.031 A 
ATOM     56  C   UNL     1      -9.574 -11.421   6.758  1.00  0.00     0.049 A 
ATOM     57  C   UNL     1      -8.223  -6.780   9.562  1.00  0.00     0.074 A 
ATOM     58  C   UNL     1     -10.574 -12.211   7.300  1.00  0.00     0.029 A 
ATOM     59  N   UNL     1      -9.416 -10.337   7.605  1.00  0.00    -0.354 N 
ATOM     60  N   UNL     1      -8.635  -7.904   9.027  1.00  0.00    -0.248 NA
ATOM     61  C   UNL     1      -8.967  -6.374  10.763  1.00  0.00     0.031 C 
ATOM     62  C   UNL     1     -11.055 -11.578   8.449  1.00  0.00     0.029 A 
ATOM     63  C   UNL     1     -10.316 -10.424   8.652  1.00  0.00     0.049 A 
ATOM     64  H   UNL     1      -8.760  -9.613   7.481  1.00  0.00     0.167 HD
ATOM     65  C   UNL     1      -9.664  -8.356   9.847  1.00  0.00     0.074 A 
ATOM     66  C   UNL     1      -9.801  -7.393  10.920  1.00  0.00     0.031 C 
ATOM     67  C   UNL     1     -10.429  -9.467   9.722  1.00  0.00     0.031 A 
BRANCH  54  68
ATOM     68  C   UNL     1      -9.196 -12.820   4.695  1.00  0.00    -0.014 A 
ATOM     69  C   UNL     1      -8.385 -13.966   4.621  1.00  0.00     0.010 A 
ATOM     70  C   UNL     1     -10.429 -12.809   4.016  1.00  0.00     0.010 A 
ATOM     71  C   UNL     1      -8.788 -15.069   3.864  1.00  0.00     0.020 A 
ATOM     72  C   UNL     1     -10.848 -13.921   3.281  1.00  0.00     0.020 A 
ATOM     73  C   UNL     1     -10.019 -15.041   3.201  1.00  0.00     0.054 A 
BRANCH  73  74
ATOM     74  S   UNL     1     -10.542 -16.512   2.277  1.00  0.00     0.124 S 
ATOM     75  O   UNL     1      -9.666 -16.460   1.109  1.00  0.00    -0.237 OA
ATOM     76  O   UNL     1     -10.270 -17.595   3.218  1.00  0.00    -0.237 OA
ATOM     77  O   UNL     1     -11.957 -16.266   2.006  1.00  0.00    -0.744 OA
ENDBRANCH  73  74
ENDBRANCH  54  68
BRANCH  55  78
ATOM     78  C   UNL     1      -6.811  -4.619   9.862  1.00  0.00    -0.014 A 
ATOM     79  C   UNL     1      -6.289  -4.665  11.167  1.00  0.00     0.010 A 
ATOM     80  C   UNL     1      -7.087  -3.368   9.282  1.00  0.00     0.010 A 
ATOM     81  C   UNL     1      -6.089  -3.487  11.894  1.00  0.00     0.020 A 
ATOM     82  C   UNL     1      -6.859  -2.186   9.994  1.00  0.00     0.020 A 
ATOM     83  C   UNL     1      -6.382  -2.255  11.304  1.00  0.00     0.054 A 
BRANCH  83  84
ATOM     84  S   UNL     1      -6.108  -0.736  12.259  1.00  0.00     0.124 S 
ATOM     85  O   UNL     1      -7.242  -0.748  13.177  1.00  0.00    -0.237 OA
ATOM     86  O   UNL     1      -4.800  -0.974  12.864  1.00  0.00    -0.237 OA
ATOM     87  O   UNL     1      -6.133   0.313  11.242  1.00  0.00    -0.744 OA
ENDBRANCH  83  84
ENDBRANCH  55  78
BRANCH  67  88
ATOM     88  C   UNL     1     -11.448  -9.736  10.796  1.00  0.00    -0.014 A 
ATOM     89  C   UNL     1     -12.620  -8.966  10.901  1.00  0.00     0.010 A 
ATOM     90  C   UNL     1     -11.252 -10.813  11.680  1.00  0.00     0.010 A 
ATOM     91  C   UNL     1     -13.561  -9.247  11.895  1.00  0.00     0.020 A 
ATOM     92  C   UNL     1     -12.204 -11.115  12.656  1.00  0.00     0.020 A 
ATOM     93  C   UNL     1     -13.346 -10.320  12.767  1.00  0.00     0.054 A 
BRANCH  93  94
ATOM     94  S   UNL     1     -14.602 -10.690  14.022  1.00  0.00     0.124 S 
ATOM     95  O   UNL     1     -14.381  -9.624  14.995  1.00  0.00    -0.237 OA
ATOM     96  O   UNL     1     -15.848 -10.603  13.265  1.00  0.00    -0.237 OA
ATOM     97  O   UNL     1     -14.249 -12.033  14.478  1.00  0.00    -0.744 OA
ENDBRANCH  93  94
ENDBRANCH  67  88
ENDBRANCH  41  42
ENDBRANCH  33  36
ENDBRANCH  31  32
ENDBRANCH  30  31
ENDBRANCH   1  30
TORSDOF 20
