REMARK SMILES CC(=O)c1ccc(NC(=O)C[C@H](C(=O)NCCCNC(=O)c2ccc(-c3c4nc(c(-c5ccc(S(=O)(=O)[O-])cc5)c5ccc([nH]5)c(-c5ccc(S(=O)(=O)[O-])cc5)c5nc(c(-c6ccc(S(=O)(=O)[O-])cc6)c6ccc3[nH]6)C=C5)C=C4)cc2)[NH+](C)C)cc1
REMARK SMILES IDX 16 1 15 2 13 3 14 4 12 6 11 7 9 8 8 9 10 11 7 12 4 13 5 14
REMARK SMILES IDX 86 15 6 16 85 17 2 18 1 19 3 20 82 21 83 22 84 23 17 25
REMARK SMILES IDX 18 26 19 27 20 28 21 30 22 31 23 32 81 33 24 34 80 35 25 36
REMARK SMILES IDX 26 37 27 38 74 39 28 40 79 41 73 42 75 43 29 44 78 45 72 46
REMARK SMILES IDX 71 47 30 49 60 50 41 51 59 52 42 53 45 54 58 55 76 56 43 57
REMARK SMILES IDX 44 58 57 60 77 61 46 62 31 63 32 64 40 65 33 66 39 67 34 68
REMARK SMILES IDX 35 69 36 70 37 71 38 72 61 73 62 74 70 75 63 76 69 77 64 78
REMARK SMILES IDX 65 79 66 80 67 81 68 82 47 83 48 84 56 85 49 86 55 87 50 88
REMARK SMILES IDX 51 89 52 90 53 91 54 92
REMARK H PARENT 15 5 8 10 82 24 19 29 75 48 45 59
REMARK Flexibility Score: inf
ROOT
ATOM      1  C   UNL     1       1.493   4.920   3.209  1.00  0.00     0.118 C 
ENDROOT
BRANCH   1   2
ATOM      2  N   UNL     1       0.569   5.994   3.523  1.00  0.00    -0.351 N 
ATOM      3  C   UNL     1      -0.085   6.937   2.807  1.00  0.00     0.278 C 
ATOM      4  O   UNL     1      -0.553   7.859   3.494  1.00  0.00    -0.268 OA
ATOM      5  H   UNL     1       0.372   6.050   4.486  1.00  0.00     0.163 HD
BRANCH   3   6
ATOM      6  C   UNL     1      -0.405   6.892   1.282  1.00  0.00     0.283 C 
BRANCH   6   7
ATOM      7  C   UNL     1       0.453   6.043   0.344  1.00  0.00     0.175 C 
BRANCH   7   8
ATOM      8  C   UNL     1       1.792   6.721   0.079  1.00  0.00     0.230 C 
ATOM      9  N   UNL     1       1.908   7.663  -0.913  1.00  0.00    -0.326 N 
ATOM     10  H   UNL     1       2.711   8.231  -0.877  1.00  0.00     0.169 HD
ATOM     11  O   UNL     1       2.753   6.535   0.825  1.00  0.00    -0.274 OA
BRANCH   9  12
ATOM     12  C   UNL     1       1.026   7.915  -1.970  1.00  0.00     0.041 A 
ATOM     13  C   UNL     1      -1.048   8.464  -3.722  1.00  0.00     0.017 A 
ATOM     14  C   UNL     1      -0.678   7.141  -3.494  1.00  0.00     0.014 A 
ATOM     15  C   UNL     1      -0.308   9.520  -3.182  1.00  0.00     0.014 A 
ATOM     16  C   UNL     1       0.391   6.874  -2.649  1.00  0.00     0.027 A 
ATOM     17  C   UNL     1       0.749   9.240  -2.310  1.00  0.00     0.027 A 
BRANCH  13  18
ATOM     18  C   UNL     1      -2.293   8.700  -4.470  1.00  0.00     0.159 C 
ATOM     19  C   UNL     1      -2.189   9.424  -5.777  1.00  0.00     0.093 C 
ATOM     20  O   UNL     1      -3.345   8.244  -4.034  1.00  0.00    -0.295 OA
ENDBRANCH  13  18
ENDBRANCH   9  12
ENDBRANCH   7   8
ENDBRANCH   6   7
BRANCH   6  21
ATOM     21  N   UNL     1      -1.878   6.646   1.145  1.00  0.00    -0.329 N 
ATOM     22  C   UNL     1      -2.412   7.003  -0.167  1.00  0.00     0.333 C 
ATOM     23  C   UNL     1      -2.304   5.314   1.553  1.00  0.00     0.333 C 
ATOM     24  H   UNL     1      -2.293   7.293   1.816  1.00  0.00     0.348 HD
ENDBRANCH   6  21
ENDBRANCH   3   6
ENDBRANCH   1   2
BRANCH   1  25
ATOM     25  C   UNL     1       2.916   5.280   3.614  1.00  0.00     0.042 C 
BRANCH  25  26
ATOM     26  C   UNL     1       3.127   5.258   5.116  1.00  0.00     0.118 C 
BRANCH  26  27
ATOM     27  N   UNL     1       2.945   3.925   5.675  1.00  0.00    -0.352 N 
ATOM     28  C   UNL     1       3.864   3.050   6.197  1.00  0.00     0.251 C 
ATOM     29  H   UNL     1       2.016   3.601   5.678  1.00  0.00     0.163 HD
ATOM     30  O   UNL     1       3.549   1.875   6.360  1.00  0.00    -0.269 OA
BRANCH  28  31
ATOM     31  C   UNL     1       5.220   3.517   6.556  1.00  0.00     0.039 A 
ATOM     32  C   UNL     1       6.305   2.655   6.382  1.00  0.00     0.014 A 
ATOM     33  C   UNL     1       5.423   4.789   7.095  1.00  0.00     0.014 A 
ATOM     34  C   UNL     1       7.591   3.091   6.707  1.00  0.00     0.010 A 
ATOM     35  C   UNL     1       6.712   5.265   7.294  1.00  0.00     0.010 A 
ATOM     36  C   UNL     1       7.809   4.412   7.136  1.00  0.00    -0.014 A 
BRANCH  36  37
ATOM     37  C   UNL     1       9.171   4.897   7.472  1.00  0.00     0.031 A 
ATOM     38  C   UNL     1       9.474   5.388   8.866  1.00  0.00     0.074 A 
ATOM     39  C   UNL     1      10.123   4.920   6.518  1.00  0.00     0.049 A 
ATOM     40  N   UNL     1      10.596   5.860   9.347  1.00  0.00    -0.248 NA
ATOM     41  C   UNL     1       8.368   5.377   9.840  1.00  0.00     0.031 C 
ATOM     42  C   UNL     1       9.933   4.530   5.117  1.00  0.00     0.029 A 
ATOM     43  N   UNL     1      11.445   5.280   6.583  1.00  0.00    -0.354 N 
ATOM     44  C   UNL     1      10.327   6.201  10.668  1.00  0.00     0.074 A 
ATOM     45  C   UNL     1       8.920   5.962  10.892  1.00  0.00     0.031 C 
ATOM     46  C   UNL     1      11.106   4.625   4.470  1.00  0.00     0.029 A 
ATOM     47  C   UNL     1      12.119   5.120   5.395  1.00  0.00     0.049 A 
ATOM     48  H   UNL     1      11.871   5.620   7.403  1.00  0.00     0.167 HD
ATOM     49  C   UNL     1      11.181   6.633  11.626  1.00  0.00     0.031 A 
ATOM     50  C   UNL     1      13.411   5.343   5.088  1.00  0.00     0.031 A 
ATOM     51  C   UNL     1      12.584   6.854  11.406  1.00  0.00     0.049 A 
ATOM     52  C   UNL     1      14.339   5.822   6.173  1.00  0.00     0.074 A 
ATOM     53  C   UNL     1      13.545   7.266  12.312  1.00  0.00     0.029 A 
ATOM     54  N   UNL     1      13.231   6.663  10.194  1.00  0.00    -0.354 N 
ATOM     55  N   UNL     1      14.073   6.088   7.430  1.00  0.00    -0.248 NA
ATOM     56  C   UNL     1      15.747   6.008   5.801  1.00  0.00     0.031 C 
ATOM     57  C   UNL     1      14.767   7.363  11.638  1.00  0.00     0.029 A 
ATOM     58  C   UNL     1      14.577   6.954  10.328  1.00  0.00     0.049 A 
ATOM     59  H   UNL     1      12.796   6.366   9.363  1.00  0.00     0.167 HD
ATOM     60  C   UNL     1      15.289   6.441   8.006  1.00  0.00     0.074 A 
ATOM     61  C   UNL     1      16.291   6.327   6.966  1.00  0.00     0.031 C 
ATOM     62  C   UNL     1      15.556   6.830   9.278  1.00  0.00     0.031 A 
BRANCH  49  63
ATOM     63  C   UNL     1      10.621   6.863  13.007  1.00  0.00    -0.014 A 
ATOM     64  C   UNL     1      10.195   5.780  13.798  1.00  0.00     0.010 A 
ATOM     65  C   UNL     1      10.565   8.163  13.542  1.00  0.00     0.010 A 
ATOM     66  C   UNL     1       9.697   5.993  15.085  1.00  0.00     0.020 A 
ATOM     67  C   UNL     1      10.095   8.377  14.842  1.00  0.00     0.020 A 
ATOM     68  C   UNL     1       9.653   7.291  15.601  1.00  0.00     0.054 A 
BRANCH  68  69
ATOM     69  S   UNL     1       9.050   7.529  17.295  1.00  0.00     0.124 S 
ATOM     70  O   UNL     1       7.621   7.263  17.146  1.00  0.00    -0.237 OA
ATOM     71  O   UNL     1       9.800   6.525  18.044  1.00  0.00    -0.237 OA
ATOM     72  O   UNL     1       9.396   8.915  17.596  1.00  0.00    -0.744 OA
ENDBRANCH  68  69
ENDBRANCH  49  63
BRANCH  50  73
ATOM     73  C   UNL     1      13.913   5.105   3.705  1.00  0.00    -0.014 A 
ATOM     74  C   UNL     1      14.836   4.077   3.441  1.00  0.00     0.010 A 
ATOM     75  C   UNL     1      13.491   5.930   2.647  1.00  0.00     0.010 A 
ATOM     76  C   UNL     1      15.369   3.913   2.159  1.00  0.00     0.020 A 
ATOM     77  C   UNL     1      13.994   5.747   1.356  1.00  0.00     0.020 A 
ATOM     78  C   UNL     1      14.948   4.755   1.125  1.00  0.00     0.054 A 
BRANCH  78  79
ATOM     79  S   UNL     1      15.652   4.529  -0.532  1.00  0.00     0.124 S 
ATOM     80  O   UNL     1      16.995   5.077  -0.367  1.00  0.00    -0.237 OA
ATOM     81  O   UNL     1      15.575   3.082  -0.715  1.00  0.00    -0.237 OA
ATOM     82  O   UNL     1      14.760   5.306  -1.390  1.00  0.00    -0.744 OA
ENDBRANCH  78  79
ENDBRANCH  50  73
BRANCH  62  83
ATOM     83  C   UNL     1      16.996   7.108   9.619  1.00  0.00    -0.014 A 
ATOM     84  C   UNL     1      17.671   8.223   9.092  1.00  0.00     0.010 A 
ATOM     85  C   UNL     1      17.680   6.239  10.488  1.00  0.00     0.010 A 
ATOM     86  C   UNL     1      19.023   8.427   9.376  1.00  0.00     0.020 A 
ATOM     87  C   UNL     1      19.022   6.459  10.803  1.00  0.00     0.020 A 
ATOM     88  C   UNL     1      19.692   7.538  10.223  1.00  0.00     0.054 A 
BRANCH  88  89
ATOM     89  S   UNL     1      21.449   7.819  10.572  1.00  0.00     0.124 S 
ATOM     90  O   UNL     1      22.077   7.401   9.322  1.00  0.00    -0.237 OA
ATOM     91  O   UNL     1      21.495   9.252  10.851  1.00  0.00    -0.237 OA
ATOM     92  O   UNL     1      21.716   6.958  11.722  1.00  0.00    -0.744 OA
ENDBRANCH  88  89
ENDBRANCH  62  83
ENDBRANCH  36  37
ENDBRANCH  28  31
ENDBRANCH  26  27
ENDBRANCH  25  26
ENDBRANCH   1  25
TORSDOF 18
