REMARK SMILES Cc1nc(SCc2ccccc2)[nH]c(=O)c1CCC(=O)NCCCNC(=O)c1ccc(-c2c3nc(c(-c4ccc(S(=O)(=O)[O-])cc4)c4ccc([nH]4)c(-c4ccc(S(=O)(=O)[O-])cc4)c4nc(c(-c5ccc(S(=O)(=O)[O-])cc5)c5ccc2[nH]5)C=C4)C=C3)cc1
REMARK SMILES IDX 22 1 21 2 19 3 20 4 18 6 17 7 16 8 1 9 2 10 3 11 4 12 14 13
REMARK SMILES IDX 13 14 15 15 5 17 6 18 7 19 8 20 12 21 9 22 11 23 10 24 23 25
REMARK SMILES IDX 24 26 25 27 26 28 27 30 28 31 29 32 87 33 30 34 86 35 31 36
REMARK SMILES IDX 32 37 33 38 80 39 34 40 85 41 79 42 81 43 35 44 84 45 78 46
REMARK SMILES IDX 77 47 36 49 66 50 47 51 65 52 48 53 51 54 64 55 82 56 49 57
REMARK SMILES IDX 50 58 63 60 83 61 52 62 37 63 38 64 46 65 39 66 45 67 40 68
REMARK SMILES IDX 41 69 42 70 43 71 44 72 67 73 68 74 76 75 69 76 75 77 70 78
REMARK SMILES IDX 71 79 72 80 73 81 74 82 53 83 54 84 62 85 55 86 61 87 56 88
REMARK SMILES IDX 57 89 58 90 59 91 60 92
REMARK H PARENT 21 5 13 16 25 29 81 48 51 59
REMARK Flexibility Score: inf
ROOT
ATOM      1  C   UNL     1       2.533  -0.231  -1.501  1.00  0.00     0.117 C 
ENDROOT
BRANCH   1   2
ATOM      2  N   UNL     1       2.750  -1.666  -1.347  1.00  0.00    -0.356 N 
ATOM      3  C   UNL     1       1.883  -2.700  -1.166  1.00  0.00     0.220 C 
ATOM      4  O   UNL     1       2.352  -3.825  -0.975  1.00  0.00    -0.275 OA
ATOM      5  H   UNL     1       3.696  -1.936  -1.381  1.00  0.00     0.163 HD
BRANCH   3   6
ATOM      6  C   UNL     1       0.383  -2.505  -1.255  1.00  0.00     0.105 C 
BRANCH   6   7
ATOM      7  C   UNL     1      -0.322  -2.627   0.108  1.00  0.00     0.053 C 
BRANCH   7   8
ATOM      8  C   UNL     1      -0.759  -1.274   0.605  1.00  0.00     0.039 A 
ATOM      9  C   UNL     1      -3.198  -1.519   0.085  1.00  0.00     0.067 C 
ATOM     10  C   UNL     1      -1.995  -0.736   0.541  1.00  0.00     0.049 A 
ATOM     11  N   UNL     1      -2.238   0.613   0.700  1.00  0.00    -0.229 NA
ATOM     12  C   UNL     1      -1.218   1.379   0.884  1.00  0.00     0.168 A 
ATOM     13  C   UNL     1       0.300  -0.409   1.174  1.00  0.00     0.254 A 
ATOM     14  N   UNL     1       0.021   0.919   1.166  1.00  0.00    -0.301 N 
ATOM     15  O   UNL     1       1.370  -0.859   1.556  1.00  0.00    -0.269 OA
ATOM     16  H   UNL     1       0.738   1.563   1.371  1.00  0.00     0.172 HD
BRANCH  12  17
ATOM     17  S   UNL     1      -1.229   3.102   0.717  1.00  0.00    -0.083 SA
BRANCH  17  18
ATOM     18  C   UNL     1      -2.902   3.449   0.138  1.00  0.00     0.113 C 
BRANCH  18  19
ATOM     19  C   UNL     1      -3.229   3.244  -1.332  1.00  0.00    -0.038 A 
ATOM     20  C   UNL     1      -3.917   4.255  -2.025  1.00  0.00     0.004 A 
ATOM     21  C   UNL     1      -3.041   2.024  -1.999  1.00  0.00     0.004 A 
ATOM     22  C   UNL     1      -4.428   4.037  -3.310  1.00  0.00     0.000 A 
ATOM     23  C   UNL     1      -3.561   1.798  -3.276  1.00  0.00     0.000 A 
ATOM     24  C   UNL     1      -4.266   2.801  -3.928  1.00  0.00     0.000 A 
ENDBRANCH  18  19
ENDBRANCH  17  18
ENDBRANCH  12  17
ENDBRANCH   7   8
ENDBRANCH   6   7
ENDBRANCH   3   6
ENDBRANCH   1   2
BRANCH   1  25
ATOM     25  C   UNL     1       3.231   0.560  -0.381  1.00  0.00     0.042 C 
BRANCH  25  26
ATOM     26  C   UNL     1       4.293   1.534  -0.877  1.00  0.00     0.118 C 
BRANCH  26  27
ATOM     27  N   UNL     1       3.719   2.701  -1.522  1.00  0.00    -0.352 N 
ATOM     28  C   UNL     1       3.237   3.918  -1.113  1.00  0.00     0.251 C 
ATOM     29  H   UNL     1       3.661   2.591  -2.498  1.00  0.00     0.163 HD
ATOM     30  O   UNL     1       2.765   4.617  -2.016  1.00  0.00    -0.269 OA
BRANCH  28  31
ATOM     31  C   UNL     1       3.224   4.460   0.284  1.00  0.00     0.039 A 
ATOM     32  C   UNL     1       2.479   5.639   0.489  1.00  0.00     0.014 A 
ATOM     33  C   UNL     1       3.924   3.952   1.378  1.00  0.00     0.014 A 
ATOM     34  C   UNL     1       2.457   6.297   1.729  1.00  0.00     0.010 A 
ATOM     35  C   UNL     1       3.862   4.581   2.636  1.00  0.00     0.010 A 
ATOM     36  C   UNL     1       3.147   5.772   2.826  1.00  0.00    -0.014 A 
BRANCH  36  37
ATOM     37  C   UNL     1       3.143   6.459   4.153  1.00  0.00     0.031 A 
ATOM     38  C   UNL     1       4.430   6.968   4.763  1.00  0.00     0.074 A 
ATOM     39  C   UNL     1       1.992   6.595   4.844  1.00  0.00     0.049 A 
ATOM     40  N   UNL     1       4.633   7.512   5.938  1.00  0.00    -0.248 NA
ATOM     41  C   UNL     1       5.651   6.822   3.956  1.00  0.00     0.031 C 
ATOM     42  C   UNL     1       0.676   6.133   4.399  1.00  0.00     0.029 A 
ATOM     43  N   UNL     1       1.745   7.158   6.074  1.00  0.00    -0.354 N 
ATOM     44  C   UNL     1       6.004   7.738   6.026  1.00  0.00     0.074 A 
ATOM     45  C   UNL     1       6.586   7.240   4.797  1.00  0.00     0.031 C 
ATOM     46  C   UNL     1      -0.241   6.452   5.327  1.00  0.00     0.029 A 
ATOM     47  C   UNL     1       0.423   7.103   6.453  1.00  0.00     0.049 A 
ATOM     48  H   UNL     1       2.448   7.562   6.632  1.00  0.00     0.167 HD
ATOM     49  C   UNL     1       6.716   8.318   7.024  1.00  0.00     0.031 A 
ATOM     50  C   UNL     1      -0.191   7.520   7.579  1.00  0.00     0.031 A 
ATOM     51  C   UNL     1       6.139   8.850   8.232  1.00  0.00     0.049 A 
ATOM     52  C   UNL     1       0.614   8.179   8.665  1.00  0.00     0.074 A 
ATOM     53  C   UNL     1       6.773   9.512   9.270  1.00  0.00     0.029 A 
ATOM     54  N   UNL     1       4.794   8.790   8.562  1.00  0.00    -0.354 N 
ATOM     55  N   UNL     1       1.902   8.419   8.705  1.00  0.00    -0.248 NA
ATOM     56  C   UNL     1      -0.122   8.633   9.854  1.00  0.00     0.031 C 
ATOM     57  C   UNL     1       5.817   9.818  10.246  1.00  0.00     0.029 A 
ATOM     58  C   UNL     1       4.580   9.390   9.793  1.00  0.00     0.049 A 
ATOM     59  H   UNL     1       4.093   8.382   8.004  1.00  0.00     0.167 HD
ATOM     60  C   UNL     1       2.128   9.069   9.914  1.00  0.00     0.074 A 
ATOM     61  C   UNL     1       0.842   9.202  10.566  1.00  0.00     0.031 C 
ATOM     62  C   UNL     1       3.297   9.516  10.435  1.00  0.00     0.031 A 
BRANCH  49  63
ATOM     63  C   UNL     1       8.212   8.406   6.855  1.00  0.00    -0.014 A 
ATOM     64  C   UNL     1       8.789   9.279   5.915  1.00  0.00     0.010 A 
ATOM     65  C   UNL     1       9.056   7.633   7.675  1.00  0.00     0.010 A 
ATOM     66  C   UNL     1      10.177   9.339   5.761  1.00  0.00     0.020 A 
ATOM     67  C   UNL     1      10.447   7.711   7.544  1.00  0.00     0.020 A 
ATOM     68  C   UNL     1      10.997   8.548   6.572  1.00  0.00     0.054 A 
BRANCH  68  69
ATOM     69  S   UNL     1      12.796   8.650   6.354  1.00  0.00     0.124 S 
ATOM     70  O   UNL     1      12.990   7.900   5.115  1.00  0.00    -0.237 OA
ATOM     71  O   UNL     1      13.028  10.089   6.259  1.00  0.00    -0.237 OA
ATOM     72  O   UNL     1      13.327   8.014   7.557  1.00  0.00    -0.744 OA
ENDBRANCH  68  69
ENDBRANCH  49  63
BRANCH  50  73
ATOM     73  C   UNL     1      -1.662   7.340   7.729  1.00  0.00    -0.014 A 
ATOM     74  C   UNL     1      -2.525   8.447   7.657  1.00  0.00     0.010 A 
ATOM     75  C   UNL     1      -2.208   6.059   7.931  1.00  0.00     0.010 A 
ATOM     76  C   UNL     1      -3.906   8.280   7.794  1.00  0.00     0.020 A 
ATOM     77  C   UNL     1      -3.591   5.884   8.042  1.00  0.00     0.020 A 
ATOM     78  C   UNL     1      -4.430   6.998   7.982  1.00  0.00     0.054 A 
BRANCH  78  79
ATOM     79  S   UNL     1      -6.231   6.797   8.092  1.00  0.00     0.124 S 
ATOM     80  O   UNL     1      -6.509   7.284   9.440  1.00  0.00    -0.237 OA
ATOM     81  O   UNL     1      -6.711   7.641   7.001  1.00  0.00    -0.237 OA
ATOM     82  O   UNL     1      -6.426   5.363   7.890  1.00  0.00    -0.744 OA
ENDBRANCH  78  79
ENDBRANCH  50  73
BRANCH  62  83
ATOM     83  C   UNL     1       3.239  10.216  11.767  1.00  0.00    -0.014 A 
ATOM     84  C   UNL     1       3.018   9.500  12.957  1.00  0.00     0.010 A 
ATOM     85  C   UNL     1       3.454  11.605  11.833  1.00  0.00     0.010 A 
ATOM     86  C   UNL     1       2.978  10.166  14.185  1.00  0.00     0.020 A 
ATOM     87  C   UNL     1       3.439  12.270  13.061  1.00  0.00     0.020 A 
ATOM     88  C   UNL     1       3.187  11.548  14.229  1.00  0.00     0.054 A 
BRANCH  88  89
ATOM     89  S   UNL     1       3.167  12.385  15.839  1.00  0.00     0.124 S 
ATOM     90  O   UNL     1       1.739  12.432  16.140  1.00  0.00    -0.237 OA
ATOM     91  O   UNL     1       3.958  11.488  16.679  1.00  0.00    -0.237 OA
ATOM     92  O   UNL     1       3.790  13.678  15.563  1.00  0.00    -0.744 OA
ENDBRANCH  88  89
ENDBRANCH  62  83
ENDBRANCH  36  37
ENDBRANCH  28  31
ENDBRANCH  26  27
ENDBRANCH  25  26
ENDBRANCH   1  25
TORSDOF 18
