REMARK SMILES COc1cc(C(=O)NCCCNC(=O)c2ccc(-c3c4nc(c(-c5ccc(S(=O)(=O)[O-])cc5)c5ccc([nH]5)c(-c5ccc(S(=O)(=O)[O-])cc5)c5nc(c(-c6ccc(S(=O)(=O)[O-])cc6)c6ccc3[nH]6)C=C5)C=C4)cc2)c([N+](=O)[O-])cc1OCC[NH+](C)C
REMARK SMILES IDX 9 1 8 2 6 3 7 4 5 6 3 7 4 8 80 9 79 10 75 11 2 12 1 13 81 14
REMARK SMILES IDX 82 15 83 16 84 17 85 18 86 19 76 21 77 22 78 23 10 24 11 25
REMARK SMILES IDX 12 26 13 27 14 29 15 30 16 31 74 32 17 33 73 34 18 35 19 36
REMARK SMILES IDX 20 37 67 38 21 39 72 40 66 41 68 42 22 43 71 44 65 45 64 46
REMARK SMILES IDX 23 48 53 49 34 50 52 51 35 52 38 53 51 54 69 55 36 56 37 57
REMARK SMILES IDX 50 59 70 60 39 61 24 62 25 63 33 64 26 65 32 66 27 67 28 68
REMARK SMILES IDX 29 69 30 70 31 71 54 72 55 73 63 74 56 75 62 76 57 77 58 78
REMARK SMILES IDX 59 79 60 80 61 81 40 82 41 83 49 84 42 85 48 86 43 87 44 88
REMARK SMILES IDX 45 89 46 90 47 91
REMARK H PARENT 8 5 84 20 12 28 68 47 38 58
REMARK Flexibility Score: inf
ROOT
ATOM      1  C   UNL     1       1.378  -7.558   1.065  1.00  0.00     0.118 C 
ENDROOT
BRANCH   1   2
ATOM      2  N   UNL     1       0.049  -6.963   1.124  1.00  0.00    -0.352 N 
ATOM      3  C   UNL     1      -0.372  -5.665   0.954  1.00  0.00     0.258 C 
ATOM      4  O   UNL     1      -1.570  -5.403   1.033  1.00  0.00    -0.269 OA
ATOM      5  H   UNL     1      -0.674  -7.602   1.320  1.00  0.00     0.163 HD
BRANCH   3   6
ATOM      6  C   UNL     1       0.588  -4.553   0.757  1.00  0.00     0.121 A 
ATOM      7  C   UNL     1       1.294  -2.310   1.423  1.00  0.00     0.162 A 
ATOM      8  C   UNL     1       0.395  -3.384   1.522  1.00  0.00     0.071 A 
ATOM      9  C   UNL     1       2.414  -2.420   0.591  1.00  0.00     0.168 A 
ATOM     10  C   UNL     1       2.641  -3.593  -0.124  1.00  0.00     0.136 A 
ATOM     11  C   UNL     1       1.675  -4.600  -0.116  1.00  0.00     0.286 A 
BRANCH   7  12
ATOM     12  O   UNL     1       1.145  -1.241   2.265  1.00  0.00    -0.493 OA
ATOM     13  C   UNL     1       0.233  -0.262   1.769  1.00  0.00     0.278 C 
ENDBRANCH   7  12
BRANCH   9  14
ATOM     14  O   UNL     1       3.357  -1.456   0.389  1.00  0.00    -0.484 OA
BRANCH  14  15
ATOM     15  C   UNL     1       2.909  -0.281  -0.299  1.00  0.00     0.291 C 
BRANCH  15  16
ATOM     16  C   UNL     1       2.202  -0.424  -1.680  1.00  0.00     0.303 C 
BRANCH  16  17
ATOM     17  N   UNL     1       0.910  -1.142  -1.680  1.00  0.00    -0.337 N 
ATOM     18  C   UNL     1      -0.219  -0.287  -2.053  1.00  0.00     0.332 C 
ATOM     19  C   UNL     1       0.928  -2.296  -2.584  1.00  0.00     0.332 C 
ATOM     20  H   UNL     1       0.784  -1.455  -0.717  1.00  0.00     0.347 HD
ENDBRANCH  16  17
ENDBRANCH  15  16
ENDBRANCH  14  15
ENDBRANCH   9  14
BRANCH  11  21
ATOM     21  N   UNL     1       1.766  -5.597  -1.169  1.00  0.00     0.063 N 
ATOM     22  O   UNL     1       0.738  -5.854  -1.807  1.00  0.00    -0.258 OA
ATOM     23  O   UNL     1       2.882  -6.089  -1.385  1.00  0.00    -0.258 OA
ENDBRANCH  11  21
ENDBRANCH   3   6
ENDBRANCH   1   2
BRANCH   1  24
ATOM     24  C   UNL     1       1.728  -8.465   2.225  1.00  0.00     0.042 C 
BRANCH  24  25
ATOM     25  C   UNL     1       0.835  -9.681   2.379  1.00  0.00     0.118 C 
BRANCH  25  26
ATOM     26  N   UNL     1       0.905 -10.612   1.260  1.00  0.00    -0.352 N 
ATOM     27  C   UNL     1       1.471 -11.863   1.140  1.00  0.00     0.251 C 
ATOM     28  H   UNL     1       0.467 -10.288   0.440  1.00  0.00     0.163 HD
ATOM     29  O   UNL     1       1.492 -12.404   0.042  1.00  0.00    -0.269 OA
BRANCH  27  30
ATOM     30  C   UNL     1       2.091 -12.539   2.306  1.00  0.00     0.039 A 
ATOM     31  C   UNL     1       3.251 -13.294   2.113  1.00  0.00     0.014 A 
ATOM     32  C   UNL     1       1.543 -12.444   3.583  1.00  0.00     0.014 A 
ATOM     33  C   UNL     1       3.900 -13.867   3.211  1.00  0.00     0.010 A 
ATOM     34  C   UNL     1       2.264 -12.886   4.687  1.00  0.00     0.010 A 
ATOM     35  C   UNL     1       3.443 -13.621   4.517  1.00  0.00    -0.014 A 
BRANCH  35  36
ATOM     36  C   UNL     1       4.172 -14.136   5.707  1.00  0.00     0.031 A 
ATOM     37  C   UNL     1       3.477 -15.038   6.698  1.00  0.00     0.074 A 
ATOM     38  C   UNL     1       5.444 -13.746   5.930  1.00  0.00     0.049 A 
ATOM     39  N   UNL     1       3.944 -15.566   7.801  1.00  0.00    -0.248 NA
ATOM     40  C   UNL     1       2.063 -15.361   6.438  1.00  0.00     0.031 C 
ATOM     41  C   UNL     1       6.208 -12.819   5.090  1.00  0.00     0.029 A 
ATOM     42  N   UNL     1       6.323 -14.082   6.930  1.00  0.00    -0.354 N 
ATOM     43  C   UNL     1       2.881 -16.259   8.371  1.00  0.00     0.074 A 
ATOM     44  C   UNL     1       1.728 -16.027   7.532  1.00  0.00     0.031 C 
ATOM     45  C   UNL     1       7.453 -12.703   5.579  1.00  0.00     0.029 A 
ATOM     46  C   UNL     1       7.565 -13.507   6.790  1.00  0.00     0.049 A 
ATOM     47  H   UNL     1       6.087 -14.679   7.676  1.00  0.00     0.167 HD
ATOM     48  C   UNL     1       2.868 -17.043   9.475  1.00  0.00     0.031 A 
ATOM     49  C   UNL     1       8.673 -13.616   7.549  1.00  0.00     0.031 A 
ATOM     50  C   UNL     1       4.023 -17.290  10.296  1.00  0.00     0.049 A 
ATOM     51  C   UNL     1       8.643 -14.509   8.758  1.00  0.00     0.074 A 
ATOM     52  C   UNL     1       4.136 -18.123  11.395  1.00  0.00     0.029 A 
ATOM     53  N   UNL     1       5.266 -16.703  10.110  1.00  0.00    -0.354 N 
ATOM     54  N   UNL     1       7.648 -15.223   9.231  1.00  0.00    -0.248 NA
ATOM     55  C   UNL     1       9.890 -14.627   9.524  1.00  0.00     0.031 C 
ATOM     56  C   UNL     1       5.430 -17.995  11.909  1.00  0.00     0.029 A 
ATOM     57  C   UNL     1       6.144 -17.135  11.089  1.00  0.00     0.049 A 
ATOM     58  H   UNL     1       5.490 -16.073   9.387  1.00  0.00     0.167 HD
ATOM     59  C   UNL     1       8.157 -15.893  10.338  1.00  0.00     0.074 A 
ATOM     60  C   UNL     1       9.553 -15.519  10.445  1.00  0.00     0.031 C 
ATOM     61  C   UNL     1       7.527 -16.741  11.190  1.00  0.00     0.031 A 
BRANCH  48  62
ATOM     62  C   UNL     1       1.560 -17.691   9.856  1.00  0.00    -0.014 A 
ATOM     63  C   UNL     1       0.979 -18.692   9.055  1.00  0.00     0.010 A 
ATOM     64  C   UNL     1       0.916 -17.318  11.050  1.00  0.00     0.010 A 
ATOM     65  C   UNL     1      -0.241 -19.271   9.415  1.00  0.00     0.020 A 
ATOM     66  C   UNL     1      -0.287 -17.919  11.432  1.00  0.00     0.020 A 
ATOM     67  C   UNL     1      -0.867 -18.880  10.602  1.00  0.00     0.054 A 
BRANCH  67  68
ATOM     68  S   UNL     1      -2.436 -19.668  11.056  1.00  0.00     0.124 S 
ATOM     69  O   UNL     1      -3.358 -19.087  10.082  1.00  0.00    -0.237 OA
ATOM     70  O   UNL     1      -2.144 -21.088  10.875  1.00  0.00    -0.237 OA
ATOM     71  O   UNL     1      -2.647 -19.250  12.440  1.00  0.00    -0.744 OA
ENDBRANCH  67  68
ENDBRANCH  48  62
BRANCH  49  72
ATOM     72  C   UNL     1       9.911 -12.879   7.169  1.00  0.00    -0.014 A 
ATOM     73  C   UNL     1      11.043 -13.570   6.699  1.00  0.00     0.010 A 
ATOM     74  C   UNL     1       9.960 -11.475   7.259  1.00  0.00     0.010 A 
ATOM     75  C   UNL     1      12.204 -12.875   6.346  1.00  0.00     0.020 A 
ATOM     76  C   UNL     1      11.108 -10.774   6.877  1.00  0.00     0.020 A 
ATOM     77  C   UNL     1      12.227 -11.480   6.434  1.00  0.00     0.054 A 
BRANCH  77  78
ATOM     78  S   UNL     1      13.726 -10.596   5.919  1.00  0.00     0.124 S 
ATOM     79  O   UNL     1      14.652 -10.912   7.001  1.00  0.00    -0.237 OA
ATOM     80  O   UNL     1      14.026 -11.211   4.628  1.00  0.00    -0.237 OA
ATOM     81  O   UNL     1      13.294  -9.202   5.851  1.00  0.00    -0.744 OA
ENDBRANCH  77  78
ENDBRANCH  49  72
BRANCH  61  82
ATOM     82  C   UNL     1       8.354 -17.342  12.297  1.00  0.00    -0.014 A 
ATOM     83  C   UNL     1       8.834 -16.557  13.361  1.00  0.00     0.010 A 
ATOM     84  C   UNL     1       8.639 -18.720  12.279  1.00  0.00     0.010 A 
ATOM     85  C   UNL     1       9.630 -17.129  14.357  1.00  0.00     0.020 A 
ATOM     86  C   UNL     1       9.404 -19.302  13.292  1.00  0.00     0.020 A 
ATOM     87  C   UNL     1       9.915 -18.497  14.312  1.00  0.00     0.054 A 
BRANCH  87  88
ATOM     88  S   UNL     1      10.946 -19.217  15.618  1.00  0.00     0.124 S 
ATOM     89  O   UNL     1      12.271 -18.709  15.272  1.00  0.00    -0.237 OA
ATOM     90  O   UNL     1      10.357 -18.661  16.834  1.00  0.00    -0.237 OA
ATOM     91  O   UNL     1      10.767 -20.657  15.448  1.00  0.00    -0.744 OA
ENDBRANCH  87  88
ENDBRANCH  61  82
ENDBRANCH  35  36
ENDBRANCH  27  30
ENDBRANCH  25  26
ENDBRANCH  24  25
ENDBRANCH   1  24
TORSDOF 19
