REMARK SMILES Cc1cc(CNS(=O)(=O)c2ccc(C(=O)NCCCNC(=O)c3ccc(-c4c5nc(c(-c6ccc(S(=O)(=O)[O-])cc6)c6ccc([nH]6)c(-c6ccc(S(=O)(=O)[O-])cc6)c6nc(c(-c7ccc(S(=O)(=O)[O-])cc7)c7ccc4[nH]7)C=C6)C=C5)cc3)cc2F)no1
REMARK SMILES IDX 17 1 16 2 14 3 15 4 13 6 10 7 11 8 84 9 12 10 83 11 85 12
REMARK SMILES IDX 7 13 8 14 9 15 6 16 5 18 4 19 1 20 2 21 3 22 87 23 86 24
REMARK SMILES IDX 18 25 19 26 20 27 21 28 22 30 23 31 24 32 82 33 25 34 81 35
REMARK SMILES IDX 26 36 27 37 28 38 75 39 29 40 80 41 74 42 76 43 30 44 79 45
REMARK SMILES IDX 73 46 72 47 31 49 61 50 42 51 60 52 43 53 46 54 59 55 77 56
REMARK SMILES IDX 44 57 45 58 58 60 78 61 47 62 32 63 33 64 41 65 34 66 40 67
REMARK SMILES IDX 35 68 36 69 37 70 38 71 39 72 62 73 63 74 71 75 64 76 70 77
REMARK SMILES IDX 65 78 66 79 67 80 68 81 69 82 48 83 49 84 57 85 50 86 56 87
REMARK SMILES IDX 51 88 52 89 53 90 54 91 55 92
REMARK H PARENT 16 5 6 17 20 29 76 48 46 59
REMARK Flexibility Score: inf
ROOT
ATOM      1  C   UNL     1      -8.295   1.558  -3.260  1.00  0.00     0.118 C 
ENDROOT
BRANCH   1   2
ATOM      2  N   UNL     1      -8.362   0.253  -3.892  1.00  0.00    -0.352 N 
ATOM      3  C   UNL     1      -7.911  -0.988  -3.529  1.00  0.00     0.251 C 
ATOM      4  O   UNL     1      -8.196  -1.929  -4.271  1.00  0.00    -0.269 OA
ATOM      5  H   UNL     1      -8.828   0.262  -4.759  1.00  0.00     0.163 HD
BRANCH   3   6
ATOM      6  C   UNL     1      -7.133  -1.271  -2.289  1.00  0.00     0.042 A 
ATOM      7  C   UNL     1      -5.676  -2.027  -0.009  1.00  0.00     0.118 A 
ATOM      8  C   UNL     1      -6.425  -2.983  -0.692  1.00  0.00     0.026 A 
ATOM      9  C   UNL     1      -5.652  -0.715  -0.457  1.00  0.00     0.144 A 
ATOM     10  C   UNL     1      -7.156  -2.599  -1.820  1.00  0.00     0.015 A 
ATOM     11  C   UNL     1      -6.345  -0.341  -1.608  1.00  0.00     0.054 A 
ATOM     12  F   UNL     1      -4.935   0.219   0.182  1.00  0.00    -0.205 F 
BRANCH   7  13
ATOM     13  S   UNL     1      -4.710  -2.494   1.388  1.00  0.00     0.243 S 
ATOM     14  O   UNL     1      -4.410  -3.905   1.244  1.00  0.00    -0.207 OA
ATOM     15  O   UNL     1      -5.382  -1.980   2.557  1.00  0.00    -0.207 OA
BRANCH  13  16
ATOM     16  N   UNL     1      -3.263  -1.676   1.222  1.00  0.00    -0.205 NA
ATOM     17  H   UNL     1      -3.479  -0.679   1.207  1.00  0.00     0.141 HD
BRANCH  16  18
ATOM     18  C   UNL     1      -2.437  -1.961   0.044  1.00  0.00     0.158 C 
BRANCH  18  19
ATOM     19  C   UNL     1      -1.246  -1.062   0.071  1.00  0.00     0.099 A 
ATOM     20  C   UNL     1       2.199   0.192   0.032  1.00  0.00     0.091 C 
ATOM     21  C   UNL     1       0.781  -0.207   0.060  1.00  0.00     0.133 A 
ATOM     22  C   UNL     1       0.122  -1.411   0.021  1.00  0.00     0.073 A 
ATOM     23  O   UNL     1      -0.129   0.800   0.136  1.00  0.00    -0.361 OA
ATOM     24  N   UNL     1      -1.407   0.268   0.141  1.00  0.00    -0.083 NA
ENDBRANCH  18  19
ENDBRANCH  16  18
ENDBRANCH  13  16
ENDBRANCH   7  13
ENDBRANCH   3   6
ENDBRANCH   1   2
BRANCH   1  25
ATOM     25  C   UNL     1      -7.170   2.408  -3.852  1.00  0.00     0.042 C 
BRANCH  25  26
ATOM     26  C   UNL     1      -7.491   2.964  -5.239  1.00  0.00     0.118 C 
BRANCH  26  27
ATOM     27  N   UNL     1      -8.509   4.004  -5.184  1.00  0.00    -0.352 N 
ATOM     28  C   UNL     1      -8.467   5.301  -5.633  1.00  0.00     0.251 C 
ATOM     29  H   UNL     1      -9.356   3.737  -4.760  1.00  0.00     0.163 HD
ATOM     30  O   UNL     1      -9.351   6.082  -5.291  1.00  0.00    -0.269 OA
BRANCH  28  31
ATOM     31  C   UNL     1      -7.372   5.765  -6.514  1.00  0.00     0.039 A 
ATOM     32  C   UNL     1      -6.822   7.033  -6.294  1.00  0.00     0.014 A 
ATOM     33  C   UNL     1      -6.926   4.989  -7.587  1.00  0.00     0.014 A 
ATOM     34  C   UNL     1      -5.795   7.501  -7.118  1.00  0.00     0.010 A 
ATOM     35  C   UNL     1      -5.865   5.434  -8.375  1.00  0.00     0.010 A 
ATOM     36  C   UNL     1      -5.292   6.696  -8.152  1.00  0.00    -0.014 A 
BRANCH  36  37
ATOM     37  C   UNL     1      -4.173   7.154  -9.014  1.00  0.00     0.031 A 
ATOM     38  C   UNL     1      -4.404   7.412 -10.478  1.00  0.00     0.074 A 
ATOM     39  C   UNL     1      -2.934   7.267  -8.496  1.00  0.00     0.049 A 
ATOM     40  N   UNL     1      -3.535   7.716 -11.409  1.00  0.00    -0.248 NA
ATOM     41  C   UNL     1      -5.788   7.292 -10.963  1.00  0.00     0.031 C 
ATOM     42  C   UNL     1      -2.575   7.018  -7.098  1.00  0.00     0.029 A 
ATOM     43  N   UNL     1      -1.745   7.607  -9.089  1.00  0.00    -0.354 N 
ATOM     44  C   UNL     1      -4.261   7.797 -12.592  1.00  0.00     0.074 A 
ATOM     45  C   UNL     1      -5.635   7.481 -12.266  1.00  0.00     0.031 C 
ATOM     46  C   UNL     1      -1.257   7.224  -6.940  1.00  0.00     0.029 A 
ATOM     47  C   UNL     1      -0.673   7.584  -8.229  1.00  0.00     0.049 A 
ATOM     48  H   UNL     1      -1.666   7.846 -10.041  1.00  0.00     0.167 HD
ATOM     49  C   UNL     1      -3.825   8.117 -13.835  1.00  0.00     0.031 A 
ATOM     50  C   UNL     1       0.636   7.813  -8.452  1.00  0.00     0.031 A 
ATOM     51  C   UNL     1      -2.462   8.449 -14.154  1.00  0.00     0.049 A 
ATOM     52  C   UNL     1       1.095   8.172  -9.837  1.00  0.00     0.074 A 
ATOM     53  C   UNL     1      -1.933   8.834 -15.373  1.00  0.00     0.029 A 
ATOM     54  N   UNL     1      -1.414   8.440 -13.247  1.00  0.00    -0.354 N 
ATOM     55  N   UNL     1       0.385   8.285 -10.935  1.00  0.00    -0.248 NA
ATOM     56  C   UNL     1       2.528   8.443 -10.013  1.00  0.00     0.031 C 
ATOM     57  C   UNL     1      -0.556   9.024 -15.211  1.00  0.00     0.029 A 
ATOM     58  C   UNL     1      -0.237   8.799 -13.882  1.00  0.00     0.049 A 
ATOM     59  H   UNL     1      -1.494   8.211 -12.293  1.00  0.00     0.167 HD
ATOM     60  C   UNL     1       1.283   8.663 -11.927  1.00  0.00     0.074 A 
ATOM     61  C   UNL     1       2.584   8.769 -11.298  1.00  0.00     0.031 C 
ATOM     62  C   UNL     1       1.049   8.902 -13.240  1.00  0.00     0.031 A 
BRANCH  49  63
ATOM     63  C   UNL     1      -4.840   8.111 -14.947  1.00  0.00    -0.014 A 
ATOM     64  C   UNL     1      -5.819   9.117 -15.040  1.00  0.00     0.010 A 
ATOM     65  C   UNL     1      -4.797   7.104 -15.928  1.00  0.00     0.010 A 
ATOM     66  C   UNL     1      -6.765   9.090 -16.068  1.00  0.00     0.020 A 
ATOM     67  C   UNL     1      -5.726   7.087 -16.972  1.00  0.00     0.020 A 
ATOM     68  C   UNL     1      -6.718   8.070 -17.023  1.00  0.00     0.054 A 
BRANCH  68  69
ATOM     69  S   UNL     1      -7.952   8.061 -18.353  1.00  0.00     0.124 S 
ATOM     70  O   UNL     1      -9.134   7.556 -17.660  1.00  0.00    -0.237 OA
ATOM     71  O   UNL     1      -8.010   9.465 -18.750  1.00  0.00    -0.237 OA
ATOM     72  O   UNL     1      -7.380   7.158 -19.349  1.00  0.00    -0.744 OA
ENDBRANCH  68  69
ENDBRANCH  49  63
BRANCH  50  73
ATOM     73  C   UNL     1       1.604   7.718  -7.328  1.00  0.00    -0.014 A 
ATOM     74  C   UNL     1       2.161   8.881  -6.769  1.00  0.00     0.010 A 
ATOM     75  C   UNL     1       1.956   6.465  -6.795  1.00  0.00     0.010 A 
ATOM     76  C   UNL     1       3.063   8.793  -5.705  1.00  0.00     0.020 A 
ATOM     77  C   UNL     1       2.840   6.374  -5.716  1.00  0.00     0.020 A 
ATOM     78  C   UNL     1       3.396   7.539  -5.184  1.00  0.00     0.054 A 
BRANCH  78  79
ATOM     79  S   UNL     1       4.523   7.448  -3.764  1.00  0.00     0.124 S 
ATOM     80  O   UNL     1       5.821   7.669  -4.393  1.00  0.00    -0.237 OA
ATOM     81  O   UNL     1       4.042   8.529  -2.907  1.00  0.00    -0.237 OA
ATOM     82  O   UNL     1       4.300   6.102  -3.240  1.00  0.00    -0.744 OA
ENDBRANCH  78  79
ENDBRANCH  50  73
BRANCH  62  83
ATOM     83  C   UNL     1       2.217   9.334 -14.083  1.00  0.00    -0.014 A 
ATOM     84  C   UNL     1       3.190   8.411 -14.502  1.00  0.00     0.010 A 
ATOM     85  C   UNL     1       2.306  10.671 -14.511  1.00  0.00     0.010 A 
ATOM     86  C   UNL     1       4.247   8.823 -15.319  1.00  0.00     0.020 A 
ATOM     87  C   UNL     1       3.349  11.082 -15.345  1.00  0.00     0.020 A 
ATOM     88  C   UNL     1       4.320  10.156 -15.734  1.00  0.00     0.054 A 
BRANCH  88  89
ATOM     89  S   UNL     1       5.669  10.657 -16.838  1.00  0.00     0.124 S 
ATOM     90  O   UNL     1       6.797  10.751 -15.916  1.00  0.00    -0.237 OA
ATOM     91  O   UNL     1       5.730   9.554 -17.795  1.00  0.00    -0.237 OA
ATOM     92  O   UNL     1       5.208  11.928 -17.392  1.00  0.00    -0.744 OA
ENDBRANCH  88  89
ENDBRANCH  62  83
ENDBRANCH  36  37
ENDBRANCH  28  31
ENDBRANCH  26  27
ENDBRANCH  25  26
ENDBRANCH   1  25
TORSDOF 17
