REMARK SMILES CC[NH2+][C@]1(C(=O)NCCCNC(=O)c2ccc(-c3c4nc(c(-c5ccc(S(=O)(=O)[O-])cc5)c5ccc([nH]5)c(-c5ccc(S(=O)(=O)[O-])cc5)c5nc(c(-c6ccc(S(=O)(=O)[O-])cc6)c6ccc3[nH]6)C=C5)C=C4)cc2)CCC[C@H]1CCSc1n[nH]c(=O)n1C
REMARK SMILES IDX 8 1 7 2 5 3 6 4 4 6 74 7 77 8 75 9 76 10 3 11 2 14 1 15
REMARK SMILES IDX 78 16 79 17 80 18 81 19 82 20 86 21 83 22 84 23 87 24 85 26
REMARK SMILES IDX 9 27 10 28 11 29 12 30 13 32 14 33 15 34 73 35 16 36 72 37
REMARK SMILES IDX 17 38 18 39 19 40 66 41 20 42 71 43 65 44 67 45 21 46 70 47
REMARK SMILES IDX 64 48 63 49 22 51 52 52 33 53 51 54 34 55 37 56 50 57 68 58
REMARK SMILES IDX 35 59 36 60 49 62 69 63 38 64 23 65 24 66 32 67 25 68 31 69
REMARK SMILES IDX 26 70 27 71 28 72 29 73 30 74 53 75 54 76 62 77 55 78 61 79
REMARK SMILES IDX 56 80 57 81 58 82 59 83 60 84 39 85 40 86 48 87 41 88 47 89
REMARK SMILES IDX 42 90 43 91 44 92 45 93 46 94
REMARK H PARENT 7 5 3 12 3 13 83 25 11 31 67 50 37 61
REMARK Flexibility Score: inf
ROOT
ATOM      1  C   UNL     1      -1.045  -0.580   1.852  1.00  0.00     0.118 C 
ENDROOT
BRANCH   1   2
ATOM      2  N   UNL     1       0.275  -1.005   1.383  1.00  0.00    -0.351 N 
ATOM      3  C   UNL     1       0.830  -2.105   0.808  1.00  0.00     0.281 C 
ATOM      4  O   UNL     1       1.954  -1.876   0.333  1.00  0.00    -0.268 OA
ATOM      5  H   UNL     1       0.946  -0.299   1.522  1.00  0.00     0.163 HD
BRANCH   3   6
ATOM      6  C   UNL     1       0.222  -3.550   0.701  1.00  0.00     0.178 C 
ATOM      7  C   UNL     1       0.231  -3.959  -0.796  1.00  0.00     0.079 C 
ATOM      8  C   UNL     1       1.132  -4.691   1.299  1.00  0.00     0.061 C 
ATOM      9  C   UNL     1       0.243  -5.484  -0.854  1.00  0.00     0.008 C 
ATOM     10  C   UNL     1       0.712  -5.956   0.513  1.00  0.00     0.011 C 
BRANCH   6  11
ATOM     11  N   UNL     1      -1.071  -3.638   1.379  1.00  0.00    -0.334 N 
ATOM     12  H   UNL     1      -0.915  -4.221   2.201  1.00  0.00     0.347 HD
ATOM     13  H   UNL     1      -1.309  -2.652   1.484  1.00  0.00     0.347 HD
BRANCH  11  14
ATOM     14  C   UNL     1      -2.262  -4.151   0.752  1.00  0.00     0.257 C 
ATOM     15  C   UNL     1      -3.481  -3.904   1.630  1.00  0.00     0.071 C 
ENDBRANCH  11  14
ENDBRANCH   6  11
BRANCH   8  16
ATOM     16  C   UNL     1       2.675  -4.556   1.244  1.00  0.00     0.022 C 
BRANCH  16  17
ATOM     17  C   UNL     1       3.328  -3.710   2.347  1.00  0.00     0.079 C 
BRANCH  17  18
ATOM     18  S   UNL     1       3.485  -4.523   3.977  1.00  0.00    -0.086 SA
BRANCH  18  19
ATOM     19  C   UNL     1       1.851  -4.498   4.524  1.00  0.00     0.191 A 
ATOM     20  N   UNL     1       1.132  -5.576   4.643  1.00  0.00    -0.146 NA
ATOM     21  N   UNL     1       1.205  -3.343   4.802  1.00  0.00    -0.273 N 
ATOM     22  N   UNL     1      -0.106  -5.100   4.975  1.00  0.00    -0.226 N 
ATOM     23  C   UNL     1      -0.088  -3.717   5.048  1.00  0.00     0.343 A 
ATOM     24  C   UNL     1       1.690  -1.984   4.857  1.00  0.00     0.157 C 
ATOM     25  H   UNL     1      -0.898  -5.662   5.138  1.00  0.00     0.195 HD
ATOM     26  O   UNL     1      -1.061  -3.002   5.235  1.00  0.00    -0.246 OA
ENDBRANCH  18  19
ENDBRANCH  17  18
ENDBRANCH  16  17
ENDBRANCH   8  16
ENDBRANCH   3   6
ENDBRANCH   1   2
BRANCH   1  27
ATOM     27  C   UNL     1      -1.068  -0.190   3.335  1.00  0.00     0.042 C 
BRANCH  27  28
ATOM     28  C   UNL     1      -0.123   0.943   3.750  1.00  0.00     0.118 C 
BRANCH  28  29
ATOM     29  N   UNL     1      -0.740   2.254   3.652  1.00  0.00    -0.352 N 
ATOM     30  C   UNL     1      -1.108   3.143   4.636  1.00  0.00     0.251 C 
ATOM     31  H   UNL     1      -0.926   2.555   2.733  1.00  0.00     0.163 HD
ATOM     32  O   UNL     1      -1.843   4.080   4.326  1.00  0.00    -0.269 OA
BRANCH  30  33
ATOM     33  C   UNL     1      -0.649   3.014   6.046  1.00  0.00     0.039 A 
ATOM     34  C   UNL     1      -1.522   3.417   7.065  1.00  0.00     0.014 A 
ATOM     35  C   UNL     1       0.649   2.622   6.386  1.00  0.00     0.014 A 
ATOM     36  C   UNL     1      -1.103   3.418   8.401  1.00  0.00     0.010 A 
ATOM     37  C   UNL     1       1.041   2.548   7.730  1.00  0.00     0.010 A 
ATOM     38  C   UNL     1       0.182   2.975   8.754  1.00  0.00    -0.014 A 
BRANCH  38  39
ATOM     39  C   UNL     1       0.633   3.015  10.178  1.00  0.00     0.031 A 
ATOM     40  C   UNL     1       1.774   3.911  10.600  1.00  0.00     0.074 A 
ATOM     41  C   UNL     1       0.009   2.260  11.106  1.00  0.00     0.049 A 
ATOM     42  N   UNL     1       2.261   4.122  11.799  1.00  0.00    -0.248 NA
ATOM     43  C   UNL     1       2.471   4.654   9.538  1.00  0.00     0.031 C 
ATOM     44  C   UNL     1      -1.090   1.330  10.837  1.00  0.00     0.029 A 
ATOM     45  N   UNL     1       0.195   2.167  12.465  1.00  0.00    -0.354 N 
ATOM     46  C   UNL     1       3.317   5.013  11.633  1.00  0.00     0.074 A 
ATOM     47  C   UNL     1       3.442   5.253  10.213  1.00  0.00     0.031 C 
ATOM     48  C   UNL     1      -1.512   0.801  11.997  1.00  0.00     0.029 A 
ATOM     49  C   UNL     1      -0.692   1.318  13.088  1.00  0.00     0.049 A 
ATOM     50  H   UNL     1       0.897   2.661  12.947  1.00  0.00     0.167 HD
ATOM     51  C   UNL     1       4.098   5.601  12.573  1.00  0.00     0.031 A 
ATOM     52  C   UNL     1      -0.838   0.995  14.389  1.00  0.00     0.031 A 
ATOM     53  C   UNL     1       3.977   5.364  13.988  1.00  0.00     0.049 A 
ATOM     54  C   UNL     1       0.060   1.637  15.414  1.00  0.00     0.074 A 
ATOM     55  C   UNL     1       4.696   5.941  15.022  1.00  0.00     0.029 A 
ATOM     56  N   UNL     1       3.085   4.476  14.571  1.00  0.00    -0.354 N 
ATOM     57  N   UNL     1       1.011   2.523  15.239  1.00  0.00    -0.248 NA
ATOM     58  C   UNL     1      -0.147   1.245  16.816  1.00  0.00     0.031 C 
ATOM     59  C   UNL     1       4.281   5.356  16.223  1.00  0.00     0.029 A 
ATOM     60  C   UNL     1       3.252   4.470  15.946  1.00  0.00     0.049 A 
ATOM     61  H   UNL     1       2.429   3.931  14.079  1.00  0.00     0.167 HD
ATOM     62  C   UNL     1       1.491   2.821  16.510  1.00  0.00     0.074 A 
ATOM     63  C   UNL     1       0.718   2.029  17.445  1.00  0.00     0.031 C 
ATOM     64  C   UNL     1       2.479   3.678  16.870  1.00  0.00     0.031 A 
BRANCH  51  65
ATOM     65  C   UNL     1       5.165   6.557  12.095  1.00  0.00    -0.014 A 
ATOM     66  C   UNL     1       4.829   7.791  11.507  1.00  0.00     0.010 A 
ATOM     67  C   UNL     1       6.524   6.234  12.266  1.00  0.00     0.010 A 
ATOM     68  C   UNL     1       5.828   8.655  11.048  1.00  0.00     0.020 A 
ATOM     69  C   UNL     1       7.527   7.111  11.840  1.00  0.00     0.020 A 
ATOM     70  C   UNL     1       7.171   8.307  11.214  1.00  0.00     0.054 A 
BRANCH  70  71
ATOM     71  S   UNL     1       8.445   9.450  10.612  1.00  0.00     0.124 S 
ATOM     72  O   UNL     1       8.315   9.309   9.164  1.00  0.00    -0.237 OA
ATOM     73  O   UNL     1       8.009  10.732  11.159  1.00  0.00    -0.237 OA
ATOM     74  O   UNL     1       9.683   8.922  11.180  1.00  0.00    -0.744 OA
ENDBRANCH  70  71
ENDBRANCH  51  65
BRANCH  52  75
ATOM     75  C   UNL     1      -1.900   0.034  14.802  1.00  0.00    -0.014 A 
ATOM     76  C   UNL     1      -3.011   0.468  15.546  1.00  0.00     0.010 A 
ATOM     77  C   UNL     1      -1.811  -1.323  14.440  1.00  0.00     0.010 A 
ATOM     78  C   UNL     1      -4.005  -0.437  15.933  1.00  0.00     0.020 A 
ATOM     79  C   UNL     1      -2.818  -2.225  14.797  1.00  0.00     0.020 A 
ATOM     80  C   UNL     1      -3.905  -1.778  15.551  1.00  0.00     0.054 A 
BRANCH  80  81
ATOM     81  S   UNL     1      -5.234  -2.921  16.015  1.00  0.00     0.124 S 
ATOM     82  O   UNL     1      -5.032  -3.055  17.455  1.00  0.00    -0.237 OA
ATOM     83  O   UNL     1      -6.433  -2.192  15.609  1.00  0.00    -0.237 OA
ATOM     84  O   UNL     1      -4.946  -4.119  15.229  1.00  0.00    -0.744 OA
ENDBRANCH  80  81
ENDBRANCH  52  75
BRANCH  64  85
ATOM     85  C   UNL     1       2.758   3.844  18.342  1.00  0.00    -0.014 A 
ATOM     86  C   UNL     1       3.353   2.820  19.100  1.00  0.00     0.010 A 
ATOM     87  C   UNL     1       2.465   5.072  18.965  1.00  0.00     0.010 A 
ATOM     88  C   UNL     1       3.618   3.009  20.460  1.00  0.00     0.020 A 
ATOM     89  C   UNL     1       2.757   5.277  20.316  1.00  0.00     0.020 A 
ATOM     90  C   UNL     1       3.318   4.237  21.059  1.00  0.00     0.054 A 
BRANCH  90  91
ATOM     91  S   UNL     1       3.709   4.470  22.815  1.00  0.00     0.124 S 
ATOM     92  O   UNL     1       2.703   3.635  23.465  1.00  0.00    -0.237 OA
ATOM     93  O   UNL     1       5.084   3.983  22.904  1.00  0.00    -0.237 OA
ATOM     94  O   UNL     1       3.550   5.909  23.018  1.00  0.00    -0.744 OA
ENDBRANCH  90  91
ENDBRANCH  64  85
ENDBRANCH  38  39
ENDBRANCH  30  33
ENDBRANCH  28  29
ENDBRANCH  27  28
ENDBRANCH   1  27
TORSDOF 19
