REMARK SMILES CC(C)[NH2+][C@@H](C(=O)NCCCNC(=O)c1ccc(-c2c3nc(c(-c4ccc(S(=O)(=O)[O-])cc4)c4ccc([nH]4)c(-c4ccc(S(=O)(=O)[O-])cc4)c4nc(c(-c5ccc(S(=O)(=O)[O-])cc5)c5ccc2[nH]5)C=C4)C=C3)cc1)c1c[nH]c2ccc(Br)cc12
REMARK SMILES IDX 10 1 9 2 8 3 6 4 7 5 5 7 4 8 2 11 1 12 3 13 75 14 76 15
REMARK SMILES IDX 84 16 77 17 78 18 83 19 79 21 81 22 80 23 82 24 11 25 12 26
REMARK SMILES IDX 13 27 14 29 15 30 16 31 74 32 17 33 73 34 18 35 19 36 20 37
REMARK SMILES IDX 67 38 21 39 72 40 66 41 68 42 22 43 71 44 65 45 64 46 23 48
REMARK SMILES IDX 53 49 34 50 52 51 35 52 38 53 51 54 69 55 36 56 37 57 50 59
REMARK SMILES IDX 70 60 39 61 24 62 25 63 33 64 26 65 32 66 27 67 28 68 29 69
REMARK SMILES IDX 30 70 31 71 54 72 55 73 63 74 56 75 62 76 57 77 58 78 59 79
REMARK SMILES IDX 60 80 61 81 40 82 41 83 49 84 42 85 48 86 43 87 44 88 45 89
REMARK SMILES IDX 46 90 47 91
REMARK H PARENT 8 6 4 9 4 10 77 20 12 28 68 47 38 58
REMARK Flexibility Score: inf
ROOT
ATOM      1  C   UNL     1       2.582   2.335   2.457  1.00  0.00     0.042 C 
ENDROOT
BRANCH   1   2
ATOM      2  C   UNL     1       1.219   2.489   3.174  1.00  0.00     0.118 C 
BRANCH   2   3
ATOM      3  N   UNL     1       0.308   3.483   2.615  1.00  0.00    -0.351 N 
ATOM      4  C   UNL     1      -0.968   3.458   2.107  1.00  0.00     0.283 C 
ATOM      5  O   UNL     1      -1.471   4.580   1.956  1.00  0.00    -0.268 OA
ATOM      6  H   UNL     1       0.702   4.385   2.597  1.00  0.00     0.163 HD
BRANCH   4   7
ATOM      7  C   UNL     1      -1.777   2.165   1.858  1.00  0.00     0.306 C 
BRANCH   7   8
ATOM      8  N   UNL     1      -1.096   1.013   1.229  1.00  0.00    -0.330 N 
ATOM      9  H   UNL     1      -0.791   0.420   2.001  1.00  0.00     0.347 HD
ATOM     10  H   UNL     1      -1.814   0.704   0.574  1.00  0.00     0.347 HD
BRANCH   8  11
ATOM     11  C   UNL     1       0.043   1.116   0.345  1.00  0.00     0.176 C 
ATOM     12  C   UNL     1       0.191  -0.187  -0.448  1.00  0.00     0.075 C 
ATOM     13  C   UNL     1       0.168   2.304  -0.604  1.00  0.00     0.075 C 
ENDBRANCH   8  11
ENDBRANCH   7   8
BRANCH   7  14
ATOM     14  C   UNL     1      -3.125   2.279   1.109  1.00  0.00     0.044 A 
ATOM     15  C   UNL     1      -3.916   1.143   0.844  1.00  0.00     0.094 A 
ATOM     16  C   UNL     1      -3.509   3.098  -0.014  1.00  0.00     0.010 A 
ATOM     17  N   UNL     1      -3.491   0.939  -0.490  1.00  0.00    -0.361 N 
ATOM     18  C   UNL     1      -3.558   2.190  -1.083  1.00  0.00     0.046 A 
ATOM     19  C   UNL     1      -3.765   4.454  -0.292  1.00  0.00     0.026 A 
ATOM     20  H   UNL     1      -3.209   0.093  -0.906  1.00  0.00     0.166 HD
ATOM     21  C   UNL     1      -3.608   2.567  -2.424  1.00  0.00     0.028 A 
ATOM     22  C   UNL     1      -4.047   4.813  -1.621  1.00  0.00     0.018 A 
ATOM     23  C   UNL     1      -3.903   3.907  -2.674  1.00  0.00     0.018 A 
ATOM     24  Br  UNL     1      -4.708   6.549  -2.002  1.00  0.00    -0.051 Br
ENDBRANCH   7  14
ENDBRANCH   4   7
ENDBRANCH   2   3
ENDBRANCH   1   2
BRANCH   1  25
ATOM     25  C   UNL     1       3.219   3.596   1.872  1.00  0.00     0.118 C 
BRANCH  25  26
ATOM     26  N   UNL     1       4.313   4.061   2.704  1.00  0.00    -0.352 N 
ATOM     27  C   UNL     1       5.657   4.135   2.424  1.00  0.00     0.251 C 
ATOM     28  H   UNL     1       4.054   4.370   3.602  1.00  0.00     0.163 HD
ATOM     29  O   UNL     1       6.445   4.260   3.359  1.00  0.00    -0.269 OA
BRANCH  27  30
ATOM     30  C   UNL     1       6.175   4.070   1.032  1.00  0.00     0.039 A 
ATOM     31  C   UNL     1       7.397   3.425   0.804  1.00  0.00     0.014 A 
ATOM     32  C   UNL     1       5.539   4.722  -0.030  1.00  0.00     0.014 A 
ATOM     33  C   UNL     1       7.967   3.417  -0.475  1.00  0.00     0.010 A 
ATOM     34  C   UNL     1       6.084   4.669  -1.320  1.00  0.00     0.010 A 
ATOM     35  C   UNL     1       7.312   4.032  -1.555  1.00  0.00    -0.014 A 
BRANCH  35  36
ATOM     36  C   UNL     1       7.917   4.033  -2.917  1.00  0.00     0.031 A 
ATOM     37  C   UNL     1       8.380   5.322  -3.551  1.00  0.00     0.074 A 
ATOM     38  C   UNL     1       8.034   2.878  -3.604  1.00  0.00     0.049 A 
ATOM     39  N   UNL     1       8.905   5.518  -4.734  1.00  0.00    -0.248 NA
ATOM     40  C   UNL     1       8.219   6.550  -2.757  1.00  0.00     0.031 C 
ATOM     41  C   UNL     1       7.617   1.561  -3.120  1.00  0.00     0.029 A 
ATOM     42  N   UNL     1       8.537   2.626  -4.858  1.00  0.00    -0.354 N 
ATOM     43  C   UNL     1       9.127   6.888  -4.832  1.00  0.00     0.074 A 
ATOM     44  C   UNL     1       8.640   7.479  -3.604  1.00  0.00     0.031 C 
ATOM     45  C   UNL     1       7.904   0.639  -4.054  1.00  0.00     0.029 A 
ATOM     46  C   UNL     1       8.489   1.300  -5.218  1.00  0.00     0.049 A 
ATOM     47  H   UNL     1       8.900   3.330  -5.444  1.00  0.00     0.167 HD
ATOM     48  C   UNL     1       9.697   7.591  -5.842  1.00  0.00     0.031 A 
ATOM     49  C   UNL     1       8.864   0.680  -6.355  1.00  0.00     0.031 A 
ATOM     50  C   UNL     1      10.188   7.008  -7.064  1.00  0.00     0.049 A 
ATOM     51  C   UNL     1       9.465   1.486  -7.475  1.00  0.00     0.074 A 
ATOM     52  C   UNL     1      10.819   7.637  -8.124  1.00  0.00     0.029 A 
ATOM     53  N   UNL     1      10.105   5.663  -7.391  1.00  0.00    -0.354 N 
ATOM     54  N   UNL     1       9.708   2.774  -7.525  1.00  0.00    -0.248 NA
ATOM     55  C   UNL     1       9.853   0.751  -8.688  1.00  0.00     0.031 C 
ATOM     56  C   UNL     1      11.070   6.682  -9.115  1.00  0.00     0.029 A 
ATOM     57  C   UNL     1      10.650   5.447  -8.647  1.00  0.00     0.049 A 
ATOM     58  H   UNL     1       9.715   4.965  -6.817  1.00  0.00     0.167 HD
ATOM     59  C   UNL     1      10.303   2.998  -8.762  1.00  0.00     0.074 A 
ATOM     60  C   UNL     1      10.395   1.713  -9.423  1.00  0.00     0.031 C 
ATOM     61  C   UNL     1      10.737   4.165  -9.299  1.00  0.00     0.031 A 
BRANCH  48  62
ATOM     62  C   UNL     1       9.815   9.085  -5.675  1.00  0.00    -0.014 A 
ATOM     63  C   UNL     1      10.724   9.644  -4.758  1.00  0.00     0.010 A 
ATOM     64  C   UNL     1       9.047   9.944  -6.484  1.00  0.00     0.010 A 
ATOM     65  C   UNL     1      10.835  11.031  -4.625  1.00  0.00     0.020 A 
ATOM     66  C   UNL     1       9.175  11.332  -6.373  1.00  0.00     0.020 A 
ATOM     67  C   UNL     1      10.057  11.867  -5.432  1.00  0.00     0.054 A 
BRANCH  67  68
ATOM     68  S   UNL     1      10.240  13.663  -5.253  1.00  0.00     0.124 S 
ATOM     69  O   UNL     1       9.578  13.907  -3.975  1.00  0.00    -0.237 OA
ATOM     70  O   UNL     1      11.689  13.840  -5.255  1.00  0.00    -0.237 OA
ATOM     71  O   UNL     1       9.548  14.200  -6.425  1.00  0.00    -0.744 OA
ENDBRANCH  67  68
ENDBRANCH  48  62
BRANCH  49  72
ATOM     72  C   UNL     1       8.693  -0.793  -6.489  1.00  0.00    -0.014 A 
ATOM     73  C   UNL     1       9.812  -1.643  -6.493  1.00  0.00     0.010 A 
ATOM     74  C   UNL     1       7.408  -1.354  -6.603  1.00  0.00     0.010 A 
ATOM     75  C   UNL     1       9.652  -3.026  -6.624  1.00  0.00     0.020 A 
ATOM     76  C   UNL     1       7.241  -2.737  -6.706  1.00  0.00     0.020 A 
ATOM     77  C   UNL     1       8.366  -3.565  -6.726  1.00  0.00     0.054 A 
BRANCH  77  78
ATOM     78  S   UNL     1       8.177  -5.366  -6.837  1.00  0.00     0.124 S 
ATOM     79  O   UNL     1       8.607  -5.633  -8.205  1.00  0.00    -0.237 OA
ATOM     80  O   UNL     1       9.073  -5.842  -5.786  1.00  0.00    -0.237 OA
ATOM     81  O   UNL     1       6.755  -5.576  -6.573  1.00  0.00    -0.744 OA
ENDBRANCH  77  78
ENDBRANCH  49  72
BRANCH  61  82
ATOM     82  C   UNL     1      11.386   4.108 -10.658  1.00  0.00    -0.014 A 
ATOM     83  C   UNL     1      10.630   3.876 -11.820  1.00  0.00     0.010 A 
ATOM     84  C   UNL     1      12.769   4.345 -10.776  1.00  0.00     0.010 A 
ATOM     85  C   UNL     1      11.250   3.850 -13.073  1.00  0.00     0.020 A 
ATOM     86  C   UNL     1      13.387   4.347 -12.029  1.00  0.00     0.020 A 
ATOM     87  C   UNL     1      12.625   4.086 -13.169  1.00  0.00     0.054 A 
BRANCH  87  88
ATOM     88  S   UNL     1      13.399   4.090 -14.811  1.00  0.00     0.124 S 
ATOM     89  O   UNL     1      13.420   2.667 -15.140  1.00  0.00    -0.237 OA
ATOM     90  O   UNL     1      12.476   4.904 -15.598  1.00  0.00    -0.237 OA
ATOM     91  O   UNL     1      14.708   4.695 -14.576  1.00  0.00    -0.744 OA
ENDBRANCH  87  88
ENDBRANCH  61  82
ENDBRANCH  35  36
ENDBRANCH  27  30
ENDBRANCH  25  26
ENDBRANCH   1  25
TORSDOF 16
