REMARK SMILES O=C(NCCCNC(=O)[C@H]1CC=CC[C@@H]1C(=O)Nc1ccccc1C(=O)NCc1ccco1)c1ccc(-c2c3nc(c(-c4ccc(S(=O)(=O)[O-])cc4)c4ccc([nH]4)c(-c4ccc(S(=O)(=O)[O-])cc4)c4nc(c(-c5ccc(S(=O)(=O)[O-])cc5)c5ccc2[nH]5)C=C4)C=C3)cc1
REMARK SMILES IDX 6 1 5 2 4 3 3 4 1 5 2 6 34 8 35 9 93 10 36 11 92 12 37 13
REMARK SMILES IDX 38 14 39 15 86 16 40 17 91 18 85 19 87 20 41 21 90 22 84 23
REMARK SMILES IDX 83 24 42 26 72 27 53 28 71 29 54 30 57 31 70 32 88 33 55 34
REMARK SMILES IDX 56 35 69 37 89 38 58 39 43 40 44 41 52 42 45 43 51 44 46 45
REMARK SMILES IDX 47 46 48 47 49 48 50 49 73 50 74 51 82 52 75 53 81 54 76 55
REMARK SMILES IDX 77 56 78 57 79 58 80 59 59 60 60 61 68 62 61 63 67 64 62 65
REMARK SMILES IDX 63 66 64 67 65 68 66 69 7 70 8 71 9 73 10 74 11 75 15 76
REMARK SMILES IDX 12 77 14 78 13 79 16 80 17 81 18 82 19 84 20 85 24 86 21 87
REMARK SMILES IDX 23 88 22 89 25 90 26 91 27 92 28 94 29 95 30 96 33 97 31 98
REMARK SMILES IDX 32 99
REMARK H PARENT 3 7 87 25 57 36 7 72 18 83 27 93
REMARK Flexibility Score: inf
ROOT
ATOM      1  C   UNL     1       4.480  -1.521   3.474  1.00  0.00     0.117 C 
ENDROOT
BRANCH   1   2
ATOM      2  C   UNL     1       4.988  -0.507   2.458  1.00  0.00     0.042 C 
BRANCH   2   3
ATOM      3  C   UNL     1       4.631  -0.837   1.012  1.00  0.00     0.118 C 
BRANCH   3   4
ATOM      4  N   UNL     1       3.195  -0.894   0.786  1.00  0.00    -0.352 N 
ATOM      5  O   UNL     1       1.180  -0.185   0.081  1.00  0.00    -0.269 OA
ATOM      6  C   UNL     1       2.400  -0.104  -0.008  1.00  0.00     0.251 C 
ATOM      7  H   UNL     1       2.722  -1.605   1.276  1.00  0.00     0.163 HD
BRANCH   6   8
ATOM      8  C   UNL     1       3.017   0.855  -0.949  1.00  0.00     0.039 A 
ATOM      9  C   UNL     1       4.094   0.480  -1.757  1.00  0.00     0.014 A 
ATOM     10  C   UNL     1       2.487   2.144  -1.039  1.00  0.00     0.014 A 
ATOM     11  C   UNL     1       4.725   1.428  -2.557  1.00  0.00     0.010 A 
ATOM     12  C   UNL     1       3.071   3.071  -1.902  1.00  0.00     0.010 A 
ATOM     13  C   UNL     1       4.212   2.729  -2.648  1.00  0.00    -0.014 A 
BRANCH  13  14
ATOM     14  C   UNL     1       4.830   3.721  -3.562  1.00  0.00     0.031 A 
ATOM     15  C   UNL     1       5.451   4.977  -3.023  1.00  0.00     0.074 A 
ATOM     16  C   UNL     1       4.782   3.506  -4.891  1.00  0.00     0.049 A 
ATOM     17  N   UNL     1       5.941   6.000  -3.675  1.00  0.00    -0.248 NA
ATOM     18  C   UNL     1       5.522   5.106  -1.559  1.00  0.00     0.031 C 
ATOM     19  C   UNL     1       4.210   2.320  -5.533  1.00  0.00     0.029 A 
ATOM     20  N   UNL     1       5.204   4.282  -5.940  1.00  0.00    -0.354 N 
ATOM     21  C   UNL     1       6.350   6.908  -2.706  1.00  0.00     0.074 A 
ATOM     22  C   UNL     1       6.030   6.322  -1.421  1.00  0.00     0.031 C 
ATOM     23  C   UNL     1       4.319   2.446  -6.863  1.00  0.00     0.029 A 
ATOM     24  C   UNL     1       4.903   3.747  -7.170  1.00  0.00     0.049 A 
ATOM     25  H   UNL     1       5.676   5.138  -5.824  1.00  0.00     0.167 HD
ATOM     26  C   UNL     1       6.935   8.120  -2.874  1.00  0.00     0.031 A 
ATOM     27  C   UNL     1       5.037   4.258  -8.408  1.00  0.00     0.031 A 
ATOM     28  C   UNL     1       7.227   8.699  -4.160  1.00  0.00     0.049 A 
ATOM     29  C   UNL     1       5.637   5.624  -8.575  1.00  0.00     0.074 A 
ATOM     30  C   UNL     1       7.847   9.904  -4.439  1.00  0.00     0.029 A 
ATOM     31  N   UNL     1       6.903   8.124  -5.381  1.00  0.00    -0.354 N 
ATOM     32  N   UNL     1       6.055   6.454  -7.650  1.00  0.00    -0.248 NA
ATOM     33  C   UNL     1       5.793   6.120  -9.948  1.00  0.00     0.031 C 
ATOM     34  C   UNL     1       7.835  10.090  -5.825  1.00  0.00     0.029 A 
ATOM     35  C   UNL     1       7.281   8.964  -6.415  1.00  0.00     0.049 A 
ATOM     36  H   UNL     1       6.468   7.248  -5.495  1.00  0.00     0.167 HD
ATOM     37  C   UNL     1       6.553   7.559  -8.329  1.00  0.00     0.074 A 
ATOM     38  C   UNL     1       6.383   7.291  -9.743  1.00  0.00     0.031 C 
ATOM     39  C   UNL     1       7.112   8.685  -7.822  1.00  0.00     0.031 A 
BRANCH  26  40
ATOM     40  C   UNL     1       7.242   8.921  -1.633  1.00  0.00    -0.014 A 
ATOM     41  C   UNL     1       8.219   8.505  -0.709  1.00  0.00     0.010 A 
ATOM     42  C   UNL     1       6.538  10.114  -1.387  1.00  0.00     0.010 A 
ATOM     43  C   UNL     1       8.432   9.227   0.469  1.00  0.00     0.020 A 
ATOM     44  C   UNL     1       6.773  10.858  -0.228  1.00  0.00     0.020 A 
ATOM     45  C   UNL     1       7.698  10.393   0.708  1.00  0.00     0.054 A 
BRANCH  45  46
ATOM     46  S   UNL     1       7.967  11.287   2.263  1.00  0.00     0.124 S 
ATOM     47  O   UNL     1       7.336  10.396   3.233  1.00  0.00    -0.237 OA
ATOM     48  O   UNL     1       9.423  11.367   2.340  1.00  0.00    -0.237 OA
ATOM     49  O   UNL     1       7.285  12.562   2.054  1.00  0.00    -0.744 OA
ENDBRANCH  45  46
ENDBRANCH  26  40
BRANCH  27  50
ATOM     50  C   UNL     1       4.566   3.459  -9.571  1.00  0.00    -0.014 A 
ATOM     51  C   UNL     1       5.485   2.847 -10.439  1.00  0.00     0.010 A 
ATOM     52  C   UNL     1       3.189   3.230  -9.757  1.00  0.00     0.010 A 
ATOM     53  C   UNL     1       5.035   2.012 -11.466  1.00  0.00     0.020 A 
ATOM     54  C   UNL     1       2.738   2.374 -10.764  1.00  0.00     0.020 A 
ATOM     55  C   UNL     1       3.665   1.770 -11.614  1.00  0.00     0.054 A 
BRANCH  55  56
ATOM     56  S   UNL     1       3.117   0.602 -12.888  1.00  0.00     0.124 S 
ATOM     57  O   UNL     1       3.370   1.349 -14.116  1.00  0.00    -0.237 OA
ATOM     58  O   UNL     1       3.989  -0.547 -12.655  1.00  0.00    -0.237 OA
ATOM     59  O   UNL     1       1.708   0.380 -12.568  1.00  0.00    -0.744 OA
ENDBRANCH  55  56
ENDBRANCH  27  50
BRANCH  39  60
ATOM     60  C   UNL     1       7.641   9.708  -8.793  1.00  0.00    -0.014 A 
ATOM     61  C   UNL     1       6.780  10.543  -9.525  1.00  0.00     0.010 A 
ATOM     62  C   UNL     1       9.031   9.908  -8.883  1.00  0.00     0.010 A 
ATOM     63  C   UNL     1       7.302  11.561 -10.330  1.00  0.00     0.020 A 
ATOM     64  C   UNL     1       9.555  10.940  -9.664  1.00  0.00     0.020 A 
ATOM     65  C   UNL     1       8.686  11.760 -10.385  1.00  0.00     0.054 A 
BRANCH  65  66
ATOM     66  S   UNL     1       9.332  13.150 -11.355  1.00  0.00     0.124 S 
ATOM     67  O   UNL     1       9.099  12.700 -12.725  1.00  0.00    -0.237 OA
ATOM     68  O   UNL     1       8.499  14.264 -10.909  1.00  0.00    -0.237 OA
ATOM     69  O   UNL     1      10.736  13.230 -10.957  1.00  0.00    -0.744 OA
ENDBRANCH  65  66
ENDBRANCH  39  60
ENDBRANCH  13  14
ENDBRANCH   6   8
ENDBRANCH   3   4
ENDBRANCH   2   3
ENDBRANCH   1   2
BRANCH   1  70
ATOM     70  N   UNL     1       4.992  -2.851   3.203  1.00  0.00    -0.356 N 
ATOM     71  C   UNL     1       5.576  -3.753   4.035  1.00  0.00     0.224 C 
ATOM     72  H   UNL     1       4.903  -3.147   2.268  1.00  0.00     0.163 HD
ATOM     73  O   UNL     1       6.025  -4.776   3.519  1.00  0.00    -0.275 OA
BRANCH  71  74
ATOM     74  C   UNL     1       5.664  -3.465   5.529  1.00  0.00     0.095 C 
ATOM     75  C   UNL     1       4.261  -3.409   6.170  1.00  0.00     0.041 C 
ATOM     76  C   UNL     1       6.582  -4.504   6.212  1.00  0.00     0.095 C 
ATOM     77  C   UNL     1       3.763  -4.715   6.715  1.00  0.00    -0.030 C 
ATOM     78  C   UNL     1       5.926  -5.893   6.307  1.00  0.00     0.041 C 
ATOM     79  C   UNL     1       4.497  -5.835   6.755  1.00  0.00    -0.030 C 
BRANCH  76  80
ATOM     80  C   UNL     1       6.969  -4.044   7.612  1.00  0.00     0.228 C 
ATOM     81  O   UNL     1       6.378  -3.139   8.206  1.00  0.00    -0.274 OA
ATOM     82  N   UNL     1       7.962  -4.678   8.297  1.00  0.00    -0.325 N 
ATOM     83  H   UNL     1       7.968  -4.492   9.264  1.00  0.00     0.169 HD
BRANCH  82  84
ATOM     84  C   UNL     1       8.977  -5.550   7.872  1.00  0.00     0.054 A 
ATOM     85  C   UNL     1       9.160  -6.630   8.763  1.00  0.00     0.027 A 
ATOM     86  C   UNL     1       9.758  -5.474   6.701  1.00  0.00     0.063 A 
ATOM     87  C   UNL     1       9.963  -7.718   8.434  1.00  0.00     0.002 A 
ATOM     88  C   UNL     1      10.534  -6.615   6.378  1.00  0.00     0.016 A 
ATOM     89  C   UNL     1      10.619  -7.729   7.217  1.00  0.00     0.001 A 
BRANCH  86  90
ATOM     90  C   UNL     1      10.000  -4.324   5.748  1.00  0.00     0.253 C 
ATOM     91  O   UNL     1      10.331  -4.593   4.589  1.00  0.00    -0.269 OA
ATOM     92  N   UNL     1       9.987  -2.985   6.072  1.00  0.00    -0.345 N 
ATOM     93  H   UNL     1      10.447  -2.398   5.429  1.00  0.00     0.164 HD
BRANCH  92  94
ATOM     94  C   UNL     1       9.408  -2.312   7.201  1.00  0.00     0.191 C 
BRANCH  94  95
ATOM     95  C   UNL     1      10.068  -1.072   7.648  1.00  0.00     0.122 A 
ATOM     96  C   UNL     1      10.687   0.013   7.068  1.00  0.00     0.047 A 
ATOM     97  O   UNL     1       9.954  -0.868   8.996  1.00  0.00    -0.467 OA
ATOM     98  C   UNL     1      10.955   0.927   8.124  1.00  0.00     0.042 A 
ATOM     99  C   UNL     1      10.482   0.343   9.274  1.00  0.00     0.195 A 
ENDBRANCH  94  95
ENDBRANCH  92  94
ENDBRANCH  86  90
ENDBRANCH  82  84
ENDBRANCH  76  80
ENDBRANCH  71  74
ENDBRANCH   1  70
TORSDOF 18
