REMARK SMILES CC(C)c1cc2c(cc1Cl)C=C(C(=O)NCCCNC(=O)c1ccc(-c3c4nc(c(-c5ccc(S(=O)(=O)[O-])cc5)c5ccc([nH]5)c(-c5ccc(S(=O)(=O)[O-])cc5)c5nc(c(-c6ccc(S(=O)(=O)[O-])cc6)c6ccc3[nH]6)C=C5)C=C4)cc1)[C@@H](C(F)(F)F)O2
REMARK SMILES IDX 18 1 17 2 16 3 15 4 13 5 14 6 12 8 4 9 5 10 9 11 6 12 8 13
REMARK SMILES IDX 10 14 7 15 87 16 11 17 82 18 2 19 1 20 3 21 83 22 84 23
REMARK SMILES IDX 85 24 86 25 19 26 20 27 21 29 22 30 23 31 81 32 24 33 80 34
REMARK SMILES IDX 25 35 26 36 27 37 74 38 28 39 79 40 73 41 75 42 29 43 78 44
REMARK SMILES IDX 72 45 71 46 30 48 60 49 41 50 59 51 42 52 45 53 58 54 76 55
REMARK SMILES IDX 43 56 44 57 57 59 77 60 46 61 31 62 32 63 40 64 33 65 39 66
REMARK SMILES IDX 34 67 35 68 36 69 37 70 38 71 61 72 62 73 70 74 63 75 69 76
REMARK SMILES IDX 64 77 65 78 66 79 67 80 68 81 47 82 48 83 56 84 49 85 55 86
REMARK SMILES IDX 50 87 51 88 52 89 53 90 54 91
REMARK H PARENT 15 7 19 28 75 47 45 58
REMARK Flexibility Score: inf
ROOT
ATOM      1  C   UNL     1      -9.376  -4.182   2.422  1.00  0.00     0.118 C 
ENDROOT
BRANCH   1   2
ATOM      2  C   UNL     1      -7.897  -3.971   2.126  1.00  0.00     0.042 C 
BRANCH   2   3
ATOM      3  C   UNL     1      -7.663  -3.179   0.850  1.00  0.00     0.118 C 
BRANCH   3   4
ATOM      4  N   UNL     1      -7.893  -1.755   1.040  1.00  0.00    -0.352 N 
ATOM      5  C   UNL     1      -7.142  -0.638   1.176  1.00  0.00     0.251 C 
ATOM      6  O   UNL     1      -7.780   0.412   1.308  1.00  0.00    -0.270 OA
ATOM      7  H   UNL     1      -8.855  -1.548   1.080  1.00  0.00     0.163 HD
BRANCH   5   8
ATOM      8  C   UNL     1      -5.652  -0.597   1.167  1.00  0.00     0.067 C 
ATOM      9  C   UNL     1      -0.802   0.875   1.266  1.00  0.00    -0.023 A 
ATOM     10  C   UNL     1      -1.486  -0.356   1.403  1.00  0.00     0.052 A 
ATOM     11  C   UNL     1      -1.593   2.034   1.159  1.00  0.00     0.045 A 
ATOM     12  C   UNL     1      -2.876  -0.427   1.398  1.00  0.00     0.128 A 
ATOM     13  C   UNL     1      -2.998   1.957   1.208  1.00  0.00     0.032 A 
ATOM     14  Cl  UNL     1      -0.961   3.624   0.925  1.00  0.00    -0.084 Cl
ATOM     15  C   UNL     1      -3.643   0.727   1.316  1.00  0.00     0.019 A 
ATOM     16  O   UNL     1      -3.432  -1.671   1.491  1.00  0.00    -0.475 OA
ATOM     17  C   UNL     1      -5.096   0.616   1.354  1.00  0.00     0.025 C 
ATOM     18  C   UNL     1      -4.771  -1.792   0.931  1.00  0.00     0.314 C 
BRANCH   9  19
ATOM     19  C   UNL     1       0.720   0.761   1.214  1.00  0.00     0.014 C 
ATOM     20  C   UNL     1       1.160   0.194  -0.144  1.00  0.00     0.012 C 
ATOM     21  C   UNL     1       1.572   1.984   1.554  1.00  0.00     0.012 C 
ENDBRANCH   9  19
BRANCH  18  22
ATOM     22  C   UNL     1      -4.675  -2.166  -0.563  1.00  0.00     0.429 C 
ATOM     23  F   UNL     1      -4.200  -3.428  -0.709  1.00  0.00    -0.167 F 
ATOM     24  F   UNL     1      -5.877  -2.133  -1.186  1.00  0.00    -0.167 F 
ATOM     25  F   UNL     1      -3.857  -1.344  -1.260  1.00  0.00    -0.167 F 
ENDBRANCH  18  22
ENDBRANCH   5   8
ENDBRANCH   3   4
ENDBRANCH   2   3
ENDBRANCH   1   2
BRANCH   1  26
ATOM     26  N   UNL     1     -10.026  -5.028   1.423  1.00  0.00    -0.352 N 
ATOM     27  C   UNL     1     -10.618  -6.262   1.550  1.00  0.00     0.251 C 
ATOM     28  H   UNL     1     -10.043  -4.654   0.512  1.00  0.00     0.163 HD
ATOM     29  O   UNL     1     -10.919  -6.897   0.542  1.00  0.00    -0.269 OA
BRANCH  27  30
ATOM     30  C   UNL     1     -10.873  -6.828   2.891  1.00  0.00     0.039 A 
ATOM     31  C   UNL     1     -11.321  -6.008   3.925  1.00  0.00     0.014 A 
ATOM     32  C   UNL     1     -10.662  -8.191   3.120  1.00  0.00     0.014 A 
ATOM     33  C   UNL     1     -11.362  -6.500   5.221  1.00  0.00     0.010 A 
ATOM     34  C   UNL     1     -10.819  -8.711   4.409  1.00  0.00     0.010 A 
ATOM     35  C   UNL     1     -11.121  -7.859   5.481  1.00  0.00    -0.014 A 
BRANCH  35  36
ATOM     36  C   UNL     1     -11.214  -8.345   6.882  1.00  0.00     0.031 A 
ATOM     37  C   UNL     1     -10.010  -8.908   7.588  1.00  0.00     0.074 A 
ATOM     38  C   UNL     1     -12.377  -8.183   7.546  1.00  0.00     0.049 A 
ATOM     39  N   UNL     1      -9.902  -9.299   8.832  1.00  0.00    -0.248 NA
ATOM     40  C   UNL     1      -8.770  -9.055   6.808  1.00  0.00     0.031 C 
ATOM     41  C   UNL     1     -13.604  -7.631   6.964  1.00  0.00     0.029 A 
ATOM     42  N   UNL     1     -12.707  -8.407   8.859  1.00  0.00    -0.354 N 
ATOM     43  C   UNL     1      -8.597  -9.754   8.979  1.00  0.00     0.074 A 
ATOM     44  C   UNL     1      -7.955  -9.618   7.691  1.00  0.00     0.031 C 
ATOM     45  C   UNL     1     -14.515  -7.468   7.931  1.00  0.00     0.029 A 
ATOM     46  C   UNL     1     -13.974  -7.981   9.185  1.00  0.00     0.049 A 
ATOM     47  H   UNL     1     -12.097  -8.831   9.505  1.00  0.00     0.167 HD
ATOM     48  C   UNL     1      -7.989 -10.230  10.091  1.00  0.00     0.031 A 
ATOM     49  C   UNL     1     -14.636  -7.997  10.359  1.00  0.00     0.031 A 
ATOM     50  C   UNL     1      -8.633 -10.342  11.374  1.00  0.00     0.049 A 
ATOM     51  C   UNL     1     -13.948  -8.551  11.571  1.00  0.00     0.074 A 
ATOM     52  C   UNL     1      -8.098 -10.812  12.561  1.00  0.00     0.029 A 
ATOM     53  N   UNL     1      -9.942  -9.971  11.643  1.00  0.00    -0.354 N 
ATOM     54  N   UNL     1     -12.718  -8.993  11.681  1.00  0.00    -0.248 NA
ATOM     55  C   UNL     1     -14.730  -8.620  12.811  1.00  0.00     0.031 C 
ATOM     56  C   UNL     1      -9.099 -10.777  13.534  1.00  0.00     0.029 A 
ATOM     57  C   UNL     1     -10.238 -10.220  12.973  1.00  0.00     0.049 A 
ATOM     58  H   UNL     1     -10.567  -9.587  10.987  1.00  0.00     0.167 HD
ATOM     59  C   UNL     1     -12.577  -9.392  13.004  1.00  0.00     0.074 A 
ATOM     60  C   UNL     1     -13.838  -9.114  13.661  1.00  0.00     0.031 C 
ATOM     61  C   UNL     1     -11.501  -9.945  13.613  1.00  0.00     0.031 A 
BRANCH  48  62
ATOM     62  C   UNL     1      -6.552 -10.675   9.988  1.00  0.00    -0.014 A 
ATOM     63  C   UNL     1      -6.233 -12.038  10.129  1.00  0.00     0.010 A 
ATOM     64  C   UNL     1      -5.510  -9.738   9.869  1.00  0.00     0.010 A 
ATOM     65  C   UNL     1      -4.900 -12.455  10.181  1.00  0.00     0.020 A 
ATOM     66  C   UNL     1      -4.175 -10.154   9.895  1.00  0.00     0.020 A 
ATOM     67  C   UNL     1      -3.879 -11.508  10.073  1.00  0.00     0.054 A 
BRANCH  67  68
ATOM     68  S   UNL     1      -2.153 -12.063  10.163  1.00  0.00     0.124 S 
ATOM     69  O   UNL     1      -1.976 -12.291  11.593  1.00  0.00    -0.237 OA
ATOM     70  O   UNL     1      -2.159 -13.261   9.326  1.00  0.00    -0.237 OA
ATOM     71  O   UNL     1      -1.405 -10.935   9.611  1.00  0.00    -0.744 OA
ENDBRANCH  67  68
ENDBRANCH  48  62
BRANCH  49  72
ATOM     72  C   UNL     1     -16.018  -7.447  10.417  1.00  0.00    -0.014 A 
ATOM     73  C   UNL     1     -17.064  -8.080   9.718  1.00  0.00     0.010 A 
ATOM     74  C   UNL     1     -16.275  -6.232  11.075  1.00  0.00     0.010 A 
ATOM     75  C   UNL     1     -18.318  -7.475   9.615  1.00  0.00     0.020 A 
ATOM     76  C   UNL     1     -17.541  -5.639  11.002  1.00  0.00     0.020 A 
ATOM     77  C   UNL     1     -18.543  -6.248  10.243  1.00  0.00     0.054 A 
BRANCH  77  78
ATOM     78  S   UNL     1     -20.158  -5.448  10.040  1.00  0.00     0.124 S 
ATOM     79  O   UNL     1     -20.041  -4.876   8.701  1.00  0.00    -0.237 OA
ATOM     80  O   UNL     1     -21.089  -6.566  10.168  1.00  0.00    -0.237 OA
ATOM     81  O   UNL     1     -20.198  -4.480  11.133  1.00  0.00    -0.744 OA
ENDBRANCH  77  78
ENDBRANCH  49  72
BRANCH  61  82
ATOM     82  C   UNL     1     -11.620 -10.304  15.069  1.00  0.00    -0.014 A 
ATOM     83  C   UNL     1     -10.877  -9.590  16.026  1.00  0.00     0.010 A 
ATOM     84  C   UNL     1     -12.360 -11.430  15.471  1.00  0.00     0.010 A 
ATOM     85  C   UNL     1     -10.841 -10.016  17.355  1.00  0.00     0.020 A 
ATOM     86  C   UNL     1     -12.348 -11.842  16.806  1.00  0.00     0.020 A 
ATOM     87  C   UNL     1     -11.567 -11.148  17.734  1.00  0.00     0.054 A 
BRANCH  87  88
ATOM     88  S   UNL     1     -11.479 -11.709  19.456  1.00  0.00     0.124 S 
ATOM     89  O   UNL     1     -10.184 -12.380  19.494  1.00  0.00    -0.237 OA
ATOM     90  O   UNL     1     -11.563 -10.458  20.207  1.00  0.00    -0.237 OA
ATOM     91  O   UNL     1     -12.642 -12.584  19.590  1.00  0.00    -0.744 OA
ENDBRANCH  87  88
ENDBRANCH  61  82
ENDBRANCH  35  36
ENDBRANCH  27  30
ENDBRANCH   1  26
TORSDOF 15
