REMARK SMILES Cc1cscc1-c1noc(SCC(=O)NCCCNC(=O)c2ccc(-c3c4nc(c(-c5ccc(S(=O)(=O)[O-])cc5)c5ccc([nH]5)c(-c5ccc(S(=O)(=O)[O-])cc5)c5nc(c(-c6ccc(S(=O)(=O)[O-])cc6)c6ccc3[nH]6)C=C5)C=C4)cc2)n1
REMARK SMILES IDX 17 1 16 2 15 3 13 4 14 5 12 7 11 8 10 9 7 10 8 11 82 12 9 13
REMARK SMILES IDX 6 14 1 15 2 16 3 17 4 18 5 19 18 20 19 21 20 22 21 24 22 25
REMARK SMILES IDX 23 26 81 27 24 28 80 29 25 30 26 31 27 32 74 33 28 34 79 35
REMARK SMILES IDX 73 36 75 37 29 38 78 39 72 40 71 41 30 43 60 44 41 45 59 46
REMARK SMILES IDX 42 47 45 48 58 49 76 50 43 51 44 52 57 54 77 55 46 56 31 57
REMARK SMILES IDX 32 58 40 59 33 60 39 61 34 62 35 63 36 64 37 65 38 66 61 67
REMARK SMILES IDX 62 68 70 69 63 70 69 71 64 72 65 73 66 74 67 75 68 76 47 77
REMARK SMILES IDX 48 78 56 79 49 80 55 81 50 82 51 83 52 84 53 85 54 86
REMARK H PARENT 15 6 19 23 75 42 45 53
REMARK Flexibility Score: inf
ROOT
ATOM      1  C   UNL     1       6.970   3.942  -0.106  1.00  0.00     0.042 C 
ENDROOT
BRANCH   1   2
ATOM      2  C   UNL     1       6.926   3.819  -1.627  1.00  0.00     0.117 C 
BRANCH   2   3
ATOM      3  N   UNL     1       6.107   2.700  -2.057  1.00  0.00    -0.355 N 
ATOM      4  C   UNL     1       4.867   2.681  -2.625  1.00  0.00     0.230 C 
ATOM      5  O   UNL     1       4.407   1.581  -2.941  1.00  0.00    -0.274 OA
ATOM      6  H   UNL     1       6.511   1.813  -1.916  1.00  0.00     0.163 HD
BRANCH   4   7
ATOM      7  C   UNL     1       4.145   3.967  -2.978  1.00  0.00     0.179 C 
BRANCH   7   8
ATOM      8  S   UNL     1       3.731   5.009  -1.564  1.00  0.00    -0.055 SA
BRANCH   8   9
ATOM      9  C   UNL     1       2.612   4.031  -0.671  1.00  0.00     0.286 A 
ATOM     10  C   UNL     1       1.329   2.521  -0.011  1.00  0.00     0.204 A 
ATOM     11  N   UNL     1       1.109   3.501   0.872  1.00  0.00    -0.056 NA
ATOM     12  N   UNL     1       2.251   2.808  -0.984  1.00  0.00    -0.181 NA
ATOM     13  O   UNL     1       1.982   4.502   0.449  1.00  0.00    -0.327 OA
BRANCH  10  14
ATOM     14  C   UNL     1       0.584   1.262  -0.021  1.00  0.00     0.036 A 
ATOM     15  C   UNL     1       2.666  -0.307  -0.096  1.00  0.00     0.046 C 
ATOM     16  C   UNL     1       1.196  -0.037  -0.073  1.00  0.00    -0.029 A 
ATOM     17  C   UNL     1       0.229  -1.028  -0.065  1.00  0.00     0.069 A 
ATOM     18  S   UNL     1      -1.364  -0.411   0.005  1.00  0.00    -0.151 S 
ATOM     19  C   UNL     1      -0.792   1.197   0.045  1.00  0.00     0.077 A 
ENDBRANCH  10  14
ENDBRANCH   8   9
ENDBRANCH   7   8
ENDBRANCH   4   7
ENDBRANCH   2   3
ENDBRANCH   1   2
BRANCH   1  20
ATOM     20  C   UNL     1       7.622   2.755   0.599  1.00  0.00     0.118 C 
BRANCH  20  21
ATOM     21  N   UNL     1       9.034   2.613   0.273  1.00  0.00    -0.352 N 
ATOM     22  C   UNL     1      10.132   2.593   1.096  1.00  0.00     0.251 C 
ATOM     23  H   UNL     1       9.232   2.516  -0.687  1.00  0.00     0.163 HD
ATOM     24  O   UNL     1      11.257   2.644   0.596  1.00  0.00    -0.269 OA
BRANCH  22  25
ATOM     25  C   UNL     1       9.979   2.533   2.566  1.00  0.00     0.039 A 
ATOM     26  C   UNL     1      10.812   3.324   3.362  1.00  0.00     0.014 A 
ATOM     27  C   UNL     1       9.042   1.687   3.166  1.00  0.00     0.014 A 
ATOM     28  C   UNL     1      10.660   3.317   4.751  1.00  0.00     0.010 A 
ATOM     29  C   UNL     1       8.840   1.739   4.544  1.00  0.00     0.010 A 
ATOM     30  C   UNL     1       9.646   2.553   5.353  1.00  0.00    -0.014 A 
BRANCH  30  31
ATOM     31  C   UNL     1       9.408   2.607   6.820  1.00  0.00     0.031 A 
ATOM     32  C   UNL     1       9.577   1.374   7.667  1.00  0.00     0.074 A 
ATOM     33  C   UNL     1       8.976   3.755   7.381  1.00  0.00     0.049 A 
ATOM     34  N   UNL     1       9.359   1.219   8.948  1.00  0.00    -0.248 NA
ATOM     35  C   UNL     1      10.028   0.151   6.984  1.00  0.00     0.031 C 
ATOM     36  C   UNL     1       8.735   5.011   6.665  1.00  0.00     0.029 A 
ATOM     37  N   UNL     1       8.656   4.052   8.683  1.00  0.00    -0.354 N 
ATOM     38  C   UNL     1       9.629  -0.117   9.221  1.00  0.00     0.074 A 
ATOM     39  C   UNL     1       9.980  -0.740   7.963  1.00  0.00     0.031 C 
ATOM     40  C   UNL     1       8.331   5.946   7.539  1.00  0.00     0.029 A 
ATOM     41  C   UNL     1       8.238   5.349   8.868  1.00  0.00     0.049 A 
ATOM     42  H   UNL     1       8.720   3.398   9.416  1.00  0.00     0.167 HD
ATOM     43  C   UNL     1       9.602  -0.764  10.411  1.00  0.00     0.031 A 
ATOM     44  C   UNL     1       7.814   5.988   9.977  1.00  0.00     0.031 A 
ATOM     45  C   UNL     1       9.257  -0.140  11.662  1.00  0.00     0.049 A 
ATOM     46  C   UNL     1       7.778   5.244  11.284  1.00  0.00     0.074 A 
ATOM     47  C   UNL     1       9.257  -0.698  12.929  1.00  0.00     0.029 A 
ATOM     48  N   UNL     1       8.846   1.176  11.806  1.00  0.00    -0.354 N 
ATOM     49  N   UNL     1       8.104   3.997  11.531  1.00  0.00    -0.248 NA
ATOM     50  C   UNL     1       7.328   5.995  12.463  1.00  0.00     0.031 C 
ATOM     51  C   UNL     1       8.787   0.263  13.830  1.00  0.00     0.029 A 
ATOM     52  C   UNL     1       8.562   1.440  13.136  1.00  0.00     0.049 A 
ATOM     53  H   UNL     1       8.768   1.827  11.071  1.00  0.00     0.167 HD
ATOM     54  C   UNL     1       7.925   3.824  12.899  1.00  0.00     0.074 A 
ATOM     55  C   UNL     1       7.479   5.097  13.427  1.00  0.00     0.031 C 
ATOM     56  C   UNL     1       8.116   2.711  13.650  1.00  0.00     0.031 A 
BRANCH  43  57
ATOM     57  C   UNL     1       9.948  -2.232  10.418  1.00  0.00    -0.014 A 
ATOM     58  C   UNL     1      11.260  -2.673  10.164  1.00  0.00     0.010 A 
ATOM     59  C   UNL     1       8.959  -3.181  10.734  1.00  0.00     0.010 A 
ATOM     60  C   UNL     1      11.566  -4.036  10.184  1.00  0.00     0.020 A 
ATOM     61  C   UNL     1       9.268  -4.544  10.786  1.00  0.00     0.020 A 
ATOM     62  C   UNL     1      10.567  -4.964  10.494  1.00  0.00     0.054 A 
BRANCH  62  63
ATOM     63  S   UNL     1      11.000  -6.724  10.538  1.00  0.00     0.124 S 
ATOM     64  O   UNL     1      11.191  -7.023   9.121  1.00  0.00    -0.237 OA
ATOM     65  O   UNL     1      12.214  -6.735  11.351  1.00  0.00    -0.237 OA
ATOM     66  O   UNL     1       9.835  -7.354  11.155  1.00  0.00    -0.744 OA
ENDBRANCH  62  63
ENDBRANCH  43  57
BRANCH  44  67
ATOM     67  C   UNL     1       7.397   7.415   9.898  1.00  0.00    -0.014 A 
ATOM     68  C   UNL     1       8.174   8.423  10.494  1.00  0.00     0.010 A 
ATOM     69  C   UNL     1       6.222   7.776   9.211  1.00  0.00     0.010 A 
ATOM     70  C   UNL     1       7.777   9.762  10.422  1.00  0.00     0.020 A 
ATOM     71  C   UNL     1       5.838   9.116   9.110  1.00  0.00     0.020 A 
ATOM     72  C   UNL     1       6.613  10.100   9.726  1.00  0.00     0.054 A 
BRANCH  72  73
ATOM     73  S   UNL     1       6.147  11.849   9.599  1.00  0.00     0.124 S 
ATOM     74  O   UNL     1       5.695  12.142  10.956  1.00  0.00    -0.237 OA
ATOM     75  O   UNL     1       7.402  12.481   9.198  1.00  0.00    -0.237 OA
ATOM     76  O   UNL     1       5.103  11.851   8.576  1.00  0.00    -0.744 OA
ENDBRANCH  72  73
ENDBRANCH  44  67
BRANCH  56  77
ATOM     77  C   UNL     1       7.881   2.824  15.134  1.00  0.00    -0.014 A 
ATOM     78  C   UNL     1       6.585   2.960  15.663  1.00  0.00     0.010 A 
ATOM     79  C   UNL     1       8.974   2.736  16.016  1.00  0.00     0.010 A 
ATOM     80  C   UNL     1       6.390   3.038  17.045  1.00  0.00     0.020 A 
ATOM     81  C   UNL     1       8.780   2.782  17.399  1.00  0.00     0.020 A 
ATOM     82  C   UNL     1       7.490   2.947  17.904  1.00  0.00     0.054 A 
BRANCH  82  83
ATOM     83  S   UNL     1       7.205   3.006  19.695  1.00  0.00     0.124 S 
ATOM     84  O   UNL     1       6.868   4.412  19.903  1.00  0.00    -0.237 OA
ATOM     85  O   UNL     1       6.105   2.063  19.875  1.00  0.00    -0.237 OA
ATOM     86  O   UNL     1       8.482   2.582  20.264  1.00  0.00    -0.744 OA
ENDBRANCH  82  83
ENDBRANCH  56  77
ENDBRANCH  30  31
ENDBRANCH  22  25
ENDBRANCH  20  21
ENDBRANCH   1  20
TORSDOF 16
