REMARK SMILES O=C(NCCCNC(=O)c1cc2c(c(S(=O)(=O)Nc3cc(C(F)(F)F)ccc3-n3cccn3)c1)CCC2)c1ccc(-c2c3nc(c(-c4ccc(S(=O)(=O)[O-])cc4)c4ccc([nH]4)c(-c4ccc(S(=O)(=O)[O-])cc4)c4nc(c(-c5ccc(S(=O)(=O)[O-])cc5)c5ccc2[nH]5)C=C4)C=C3)cc1
REMARK SMILES IDX 5 1 4 2 3 3 1 4 2 5 38 7 39 8 97 9 40 10 96 11 41 12 42 13
REMARK SMILES IDX 43 14 90 15 44 16 95 17 89 18 91 19 45 20 94 21 88 22 87 23
REMARK SMILES IDX 46 25 76 26 57 27 75 28 58 29 61 30 74 31 92 32 59 33 60 34
REMARK SMILES IDX 73 36 93 37 62 38 47 39 48 40 56 41 49 42 55 43 50 44 51 45
REMARK SMILES IDX 52 46 53 47 54 48 77 49 78 50 86 51 79 52 85 53 80 54 81 55
REMARK SMILES IDX 82 56 83 57 84 58 63 59 64 60 72 61 65 62 71 63 66 64 67 65
REMARK SMILES IDX 68 66 69 67 70 68 6 69 7 70 8 71 9 73 10 74 11 75 34 76
REMARK SMILES IDX 12 77 14 78 13 79 37 80 35 81 36 82 15 83 16 84 17 85 18 86
REMARK SMILES IDX 19 88 20 89 28 90 21 91 27 92 26 93 29 94 30 95 33 96 31 97
REMARK SMILES IDX 32 98 22 99 23 100 24 101 25 102
REMARK H PARENT 3 6 91 24 61 35 7 72 18 87
REMARK Flexibility Score: inf
ROOT
ATOM      1  C   UNL     1       5.031   0.182  -1.963  1.00  0.00     0.042 C 
ENDROOT
BRANCH   1   2
ATOM      2  C   UNL     1       4.638   0.794  -0.624  1.00  0.00     0.118 C 
BRANCH   2   3
ATOM      3  N   UNL     1       3.216   1.004  -0.448  1.00  0.00    -0.352 N 
ATOM      4  O   UNL     1       1.135   0.859   0.253  1.00  0.00    -0.269 OA
ATOM      5  C   UNL     1       2.187   0.249   0.039  1.00  0.00     0.251 C 
ATOM      6  H   UNL     1       2.925   1.896  -0.746  1.00  0.00     0.163 HD
BRANCH   5   7
ATOM      7  C   UNL     1       2.216  -1.226   0.245  1.00  0.00     0.039 A 
ATOM      8  C   UNL     1       3.327  -2.058   0.093  1.00  0.00     0.014 A 
ATOM      9  C   UNL     1       0.974  -1.815   0.549  1.00  0.00     0.014 A 
ATOM     10  C   UNL     1       3.182  -3.445   0.131  1.00  0.00     0.010 A 
ATOM     11  C   UNL     1       0.826  -3.194   0.603  1.00  0.00     0.010 A 
ATOM     12  C   UNL     1       1.924  -4.009   0.346  1.00  0.00    -0.014 A 
BRANCH  12  13
ATOM     13  C   UNL     1       1.807  -5.463   0.448  1.00  0.00     0.031 A 
ATOM     14  C   UNL     1       2.467  -6.058   1.649  1.00  0.00     0.074 A 
ATOM     15  C   UNL     1       1.000  -6.181  -0.362  1.00  0.00     0.049 A 
ATOM     16  N   UNL     1       3.366  -6.987   1.703  1.00  0.00    -0.248 NA
ATOM     17  C   UNL     1       2.156  -5.459   2.960  1.00  0.00     0.031 C 
ATOM     18  C   UNL     1       0.075  -5.671  -1.381  1.00  0.00     0.029 A 
ATOM     19  N   UNL     1       0.728  -7.517  -0.351  1.00  0.00    -0.354 N 
ATOM     20  C   UNL     1       3.590  -7.230   3.059  1.00  0.00     0.074 A 
ATOM     21  C   UNL     1       2.937  -6.165   3.775  1.00  0.00     0.031 C 
ATOM     22  C   UNL     1      -0.819  -6.635  -1.695  1.00  0.00     0.029 A 
ATOM     23  C   UNL     1      -0.453  -7.861  -1.006  1.00  0.00     0.049 A 
ATOM     24  H   UNL     1       1.314  -8.180   0.081  1.00  0.00     0.167 HD
ATOM     25  C   UNL     1       4.101  -8.409   3.514  1.00  0.00     0.031 A 
ATOM     26  C   UNL     1      -1.127  -9.038  -0.921  1.00  0.00     0.031 A 
ATOM     27  C   UNL     1       4.757  -9.148   2.470  1.00  0.00     0.049 A 
ATOM     28  C   UNL     1      -0.181 -10.052  -0.396  1.00  0.00     0.074 A 
ATOM     29  C   UNL     1       5.835  -8.916   1.641  1.00  0.00     0.029 A 
ATOM     30  N   UNL     1       4.067 -10.194   1.907  1.00  0.00    -0.354 N 
ATOM     31  N   UNL     1       0.870 -10.459  -1.050  1.00  0.00    -0.248 NA
ATOM     32  C   UNL     1      -0.149 -10.275   1.040  1.00  0.00     0.031 C 
ATOM     33  C   UNL     1       5.461  -9.485   0.389  1.00  0.00     0.029 A 
ATOM     34  C   UNL     1       4.212 -10.087   0.549  1.00  0.00     0.049 A 
ATOM     35  H   UNL     1       3.563 -10.889   2.388  1.00  0.00     0.167 HD
ATOM     36  C   UNL     1       1.859 -10.587  -0.086  1.00  0.00     0.074 A 
ATOM     37  C   UNL     1       1.149 -10.547   1.192  1.00  0.00     0.031 C 
ATOM     38  C   UNL     1       3.180 -10.438  -0.402  1.00  0.00     0.031 A 
BRANCH  25  39
ATOM     39  C   UNL     1       3.637  -9.075   4.792  1.00  0.00    -0.014 A 
ATOM     40  C   UNL     1       4.198 -10.320   5.151  1.00  0.00     0.010 A 
ATOM     41  C   UNL     1       2.467  -8.685   5.477  1.00  0.00     0.010 A 
ATOM     42  C   UNL     1       3.557 -11.174   6.059  1.00  0.00     0.020 A 
ATOM     43  C   UNL     1       1.845  -9.508   6.417  1.00  0.00     0.020 A 
ATOM     44  C   UNL     1       2.369 -10.769   6.667  1.00  0.00     0.054 A 
BRANCH  44  45
ATOM     45  S   UNL     1       1.465 -11.935   7.714  1.00  0.00     0.124 S 
ATOM     46  O   UNL     1       1.066 -12.955   6.749  1.00  0.00    -0.237 OA
ATOM     47  O   UNL     1       2.485 -12.338   8.679  1.00  0.00    -0.237 OA
ATOM     48  O   UNL     1       0.377 -11.129   8.263  1.00  0.00    -0.744 OA
ENDBRANCH  44  45
ENDBRANCH  25  39
BRANCH  26  49
ATOM     49  C   UNL     1      -2.602  -9.245  -0.915  1.00  0.00    -0.014 A 
ATOM     50  C   UNL     1      -3.168 -10.525  -1.074  1.00  0.00     0.010 A 
ATOM     51  C   UNL     1      -3.450  -8.210  -0.470  1.00  0.00     0.010 A 
ATOM     52  C   UNL     1      -4.518 -10.768  -0.751  1.00  0.00     0.020 A 
ATOM     53  C   UNL     1      -4.794  -8.442  -0.153  1.00  0.00     0.020 A 
ATOM     54  C   UNL     1      -5.318  -9.726  -0.274  1.00  0.00     0.054 A 
BRANCH  54  55
ATOM     55  S   UNL     1      -7.008 -10.075   0.302  1.00  0.00     0.124 S 
ATOM     56  O   UNL     1      -7.710 -10.361  -0.946  1.00  0.00    -0.237 OA
ATOM     57  O   UNL     1      -6.814 -11.215   1.193  1.00  0.00    -0.237 OA
ATOM     58  O   UNL     1      -7.409  -8.835   0.966  1.00  0.00    -0.744 OA
ENDBRANCH  54  55
ENDBRANCH  26  49
BRANCH  38  59
ATOM     59  C   UNL     1       3.574 -10.392  -1.860  1.00  0.00    -0.014 A 
ATOM     60  C   UNL     1       3.143  -9.393  -2.756  1.00  0.00     0.010 A 
ATOM     61  C   UNL     1       4.554 -11.302  -2.292  1.00  0.00     0.010 A 
ATOM     62  C   UNL     1       3.667  -9.323  -4.056  1.00  0.00     0.020 A 
ATOM     63  C   UNL     1       5.093 -11.227  -3.578  1.00  0.00     0.020 A 
ATOM     64  C   UNL     1       4.642 -10.242  -4.457  1.00  0.00     0.054 A 
BRANCH  64  65
ATOM     65  S   UNL     1       5.359 -10.115  -6.120  1.00  0.00     0.124 S 
ATOM     66  O   UNL     1       4.242 -10.496  -6.979  1.00  0.00    -0.237 OA
ATOM     67  O   UNL     1       5.759  -8.711  -6.195  1.00  0.00    -0.237 OA
ATOM     68  O   UNL     1       6.471 -11.065  -6.093  1.00  0.00    -0.744 OA
ENDBRANCH  64  65
ENDBRANCH  38  59
ENDBRANCH  12  13
ENDBRANCH   5   7
ENDBRANCH   2   3
ENDBRANCH   1   2
BRANCH   1  69
ATOM     69  C   UNL     1       4.578   0.963  -3.192  1.00  0.00     0.118 C 
BRANCH  69  70
ATOM     70  N   UNL     1       5.171   2.296  -3.305  1.00  0.00    -0.352 N 
ATOM     71  C   UNL     1       5.870   2.878  -4.344  1.00  0.00     0.251 C 
ATOM     72  H   UNL     1       5.053   2.869  -2.514  1.00  0.00     0.163 HD
ATOM     73  O   UNL     1       6.378   3.986  -4.199  1.00  0.00    -0.269 OA
BRANCH  71  74
ATOM     74  C   UNL     1       6.030   2.159  -5.631  1.00  0.00     0.041 A 
ATOM     75  C   UNL     1       4.936   1.505  -6.184  1.00  0.00     0.018 A 
ATOM     76  C   UNL     1       7.295   2.083  -6.252  1.00  0.00     0.036 A 
ATOM     77  C   UNL     1       5.186   0.573  -7.165  1.00  0.00    -0.043 A 
ATOM     78  C   UNL     1       7.527   1.199  -7.334  1.00  0.00     0.092 A 
ATOM     79  C   UNL     1       6.482   0.354  -7.683  1.00  0.00    -0.024 A 
ATOM     80  C   UNL     1       4.192  -0.415  -7.698  1.00  0.00     0.036 C 
ATOM     81  C   UNL     1       6.435  -0.935  -8.442  1.00  0.00     0.037 C 
ATOM     82  C   UNL     1       4.970  -0.950  -8.894  1.00  0.00     0.010 C 
BRANCH  78  83
ATOM     83  S   UNL     1       9.184   1.113  -7.980  1.00  0.00     0.262 S 
ATOM     84  O   UNL     1       9.872   2.311  -7.522  1.00  0.00    -0.201 OA
ATOM     85  O   UNL     1       9.717  -0.183  -7.628  1.00  0.00    -0.201 OA
BRANCH  83  86
ATOM     86  N   UNL     1       9.331   1.220  -9.682  1.00  0.00    -0.277 N 
ATOM     87  H   UNL     1      10.155   1.615 -10.049  1.00  0.00     0.180 HD
BRANCH  86  88
ATOM     88  C   UNL     1       8.332   0.772 -10.608  1.00  0.00     0.075 A 
ATOM     89  C   UNL     1       8.493  -0.498 -11.195  1.00  0.00     0.042 A 
ATOM     90  C   UNL     1       7.169   1.506 -10.883  1.00  0.00     0.089 A 
ATOM     91  C   UNL     1       7.468  -1.077 -11.972  1.00  0.00     0.058 A 
ATOM     92  C   UNL     1       6.162   0.952 -11.690  1.00  0.00     0.031 A 
ATOM     93  C   UNL     1       6.311  -0.329 -12.230  1.00  0.00     0.015 A 
BRANCH  90  94
ATOM     94  N   UNL     1       6.944   2.779 -10.310  1.00  0.00    -0.239 N 
ATOM     95  C   UNL     1       7.869   3.753 -10.009  1.00  0.00     0.115 A 
ATOM     96  N   UNL     1       5.705   3.129  -9.882  1.00  0.00    -0.177 NA
ATOM     97  C   UNL     1       7.248   4.640  -9.165  1.00  0.00     0.042 A 
ATOM     98  C   UNL     1       5.927   4.176  -9.083  1.00  0.00     0.135 A 
ENDBRANCH  90  94
BRANCH  91  99
ATOM     99  C   UNL     1       7.583  -2.512 -12.439  1.00  0.00     0.416 C 
ATOM    100  F   UNL     1       8.473  -2.653 -13.458  1.00  0.00    -0.166 F 
ATOM    101  F   UNL     1       8.006  -3.343 -11.448  1.00  0.00    -0.166 F 
ATOM    102  F   UNL     1       6.407  -3.029 -12.890  1.00  0.00    -0.166 F 
ENDBRANCH  91  99
ENDBRANCH  86  88
ENDBRANCH  83  86
ENDBRANCH  78  83
ENDBRANCH  71  74
ENDBRANCH  69  70
ENDBRANCH   1  69
TORSDOF 18
