REMARK SMILES O=C(NCCCNC(=O)c1ccn(-c2cc(-c3ccncc3)nc(-c3ccccc3F)n2)n1)c1ccc(-c2c3nc(c(-c4ccc(S(=O)(=O)[O-])cc4)c4ccc([nH]4)c(-c4ccc(S(=O)(=O)[O-])cc4)c4nc(c(-c5ccc(S(=O)(=O)[O-])cc5)c5ccc2[nH]5)C=C4)C=C3)cc1
REMARK SMILES IDX 4 1 3 2 1 3 2 4 34 6 35 7 93 8 36 9 92 10 37 11 38 12 39 13
REMARK SMILES IDX 86 14 40 15 91 16 85 17 87 18 41 19 90 20 84 21 83 22 42 24
REMARK SMILES IDX 72 25 53 26 71 27 54 28 57 29 70 30 88 31 55 32 56 33 69 35
REMARK SMILES IDX 89 36 58 37 43 38 44 39 52 40 45 41 51 42 46 43 47 44 48 45
REMARK SMILES IDX 49 46 50 47 73 48 74 49 82 50 75 51 81 52 76 53 77 54 78 55
REMARK SMILES IDX 79 56 80 57 59 58 60 59 68 60 61 61 67 62 62 63 63 64 64 65
REMARK SMILES IDX 65 66 66 67 5 68 6 69 7 70 8 71 9 73 10 74 11 75 33 76 12 77
REMARK SMILES IDX 13 78 14 79 15 80 32 81 16 82 24 83 23 84 17 85 18 86 22 87
REMARK SMILES IDX 19 88 21 89 20 90 25 91 26 92 30 93 27 94 29 95 31 96 28 97
REMARK H PARENT 3 5 87 23 57 34 7 72
REMARK Flexibility Score: inf
ROOT
ATOM      1  C   UNL     1       4.617  -0.337  -1.195  1.00  0.00     0.118 C 
ENDROOT
BRANCH   1   2
ATOM      2  N   UNL     1       3.225   0.044  -1.322  1.00  0.00    -0.352 N 
ATOM      3  O   UNL     1       1.188   0.765  -0.891  1.00  0.00    -0.269 OA
ATOM      4  C   UNL     1       2.196   0.215  -0.439  1.00  0.00     0.251 C 
ATOM      5  H   UNL     1       2.961   0.219  -2.254  1.00  0.00     0.163 HD
BRANCH   4   6
ATOM      6  C   UNL     1       2.177  -0.291   0.960  1.00  0.00     0.039 A 
ATOM      7  C   UNL     1       3.258  -0.845   1.647  1.00  0.00     0.014 A 
ATOM      8  C   UNL     1       0.917  -0.271   1.587  1.00  0.00     0.014 A 
ATOM      9  C   UNL     1       3.063  -1.487   2.866  1.00  0.00     0.010 A 
ATOM     10  C   UNL     1       0.719  -0.893   2.810  1.00  0.00     0.010 A 
ATOM     11  C   UNL     1       1.784  -1.551   3.417  1.00  0.00    -0.014 A 
BRANCH  11  12
ATOM     12  C   UNL     1       1.603  -2.226   4.696  1.00  0.00     0.031 A 
ATOM     13  C   UNL     1       2.216  -1.530   5.863  1.00  0.00     0.074 A 
ATOM     14  C   UNL     1       0.794  -3.297   4.837  1.00  0.00     0.049 A 
ATOM     15  N   UNL     1       3.124  -1.965   6.674  1.00  0.00    -0.248 NA
ATOM     16  C   UNL     1       1.844  -0.122   6.083  1.00  0.00     0.031 C 
ATOM     17  C   UNL     1      -0.091  -3.892   3.830  1.00  0.00     0.029 A 
ATOM     18  N   UNL     1       0.491  -4.002   5.961  1.00  0.00    -0.354 N 
ATOM     19  C   UNL     1       3.299  -0.962   7.628  1.00  0.00     0.074 A 
ATOM     20  C   UNL     1       2.609   0.199   7.126  1.00  0.00     0.031 C 
ATOM     21  C   UNL     1      -0.999  -4.681   4.448  1.00  0.00     0.029 A 
ATOM     22  C   UNL     1      -0.675  -4.754   5.863  1.00  0.00     0.049 A 
ATOM     23  H   UNL     1       1.049  -3.982   6.772  1.00  0.00     0.167 HD
ATOM     24  C   UNL     1       3.804  -1.214   8.868  1.00  0.00     0.031 A 
ATOM     25  C   UNL     1      -1.368  -5.322   6.885  1.00  0.00     0.031 A 
ATOM     26  C   UNL     1       4.472  -2.485   8.933  1.00  0.00     0.049 A 
ATOM     27  C   UNL     1      -0.443  -5.422   8.040  1.00  0.00     0.074 A 
ATOM     28  C   UNL     1       5.566  -3.046   8.305  1.00  0.00     0.029 A 
ATOM     29  N   UNL     1       3.779  -3.534   9.489  1.00  0.00    -0.354 N 
ATOM     30  N   UNL     1       0.617  -6.181   8.045  1.00  0.00    -0.248 NA
ATOM     31  C   UNL     1      -0.432  -4.332   9.004  1.00  0.00     0.031 C 
ATOM     32  C   UNL     1       5.203  -4.408   8.090  1.00  0.00     0.029 A 
ATOM     33  C   UNL     1       3.942  -4.610   8.655  1.00  0.00     0.049 A 
ATOM     34  H   UNL     1       3.263  -3.516  10.327  1.00  0.00     0.167 HD
ATOM     35  C   UNL     1       1.592  -5.430   8.685  1.00  0.00     0.074 A 
ATOM     36  C   UNL     1       0.863  -4.339   9.332  1.00  0.00     0.031 C 
ATOM     37  C   UNL     1       2.918  -5.601   8.402  1.00  0.00     0.031 A 
BRANCH  24  38
ATOM     38  C   UNL     1       3.344  -0.492  10.113  1.00  0.00    -0.014 A 
ATOM     39  C   UNL     1       3.963  -0.789  11.345  1.00  0.00     0.010 A 
ATOM     40  C   UNL     1       2.139   0.240  10.164  1.00  0.00     0.010 A 
ATOM     41  C   UNL     1       3.360  -0.446  12.563  1.00  0.00     0.020 A 
ATOM     42  C   UNL     1       1.553   0.626  11.371  1.00  0.00     0.020 A 
ATOM     43  C   UNL     1       2.147   0.244  12.565  1.00  0.00     0.054 A 
BRANCH  43  44
ATOM     44  S   UNL     1       1.309   0.563  14.136  1.00  0.00     0.124 S 
ATOM     45  O   UNL     1       0.974  -0.788  14.576  1.00  0.00    -0.237 OA
ATOM     46  O   UNL     1       2.346   1.243  14.907  1.00  0.00    -0.237 OA
ATOM     47  O   UNL     1       0.173   1.398  13.755  1.00  0.00    -0.744 OA
ENDBRANCH  43  44
ENDBRANCH  24  38
BRANCH  25  48
ATOM     48  C   UNL     1      -2.845  -5.424   7.026  1.00  0.00    -0.014 A 
ATOM     49  C   UNL     1      -3.440  -6.251   7.998  1.00  0.00     0.010 A 
ATOM     50  C   UNL     1      -3.674  -4.484   6.377  1.00  0.00     0.010 A 
ATOM     51  C   UNL     1      -4.799  -6.107   8.340  1.00  0.00     0.020 A 
ATOM     52  C   UNL     1      -5.026  -4.339   6.707  1.00  0.00     0.020 A 
ATOM     53  C   UNL     1      -5.579  -5.138   7.704  1.00  0.00     0.054 A 
BRANCH  53  54
ATOM     54  S   UNL     1      -7.285  -4.841   8.262  1.00  0.00     0.124 S 
ATOM     55  O   UNL     1      -7.975  -6.045   7.809  1.00  0.00    -0.237 OA
ATOM     56  O   UNL     1      -7.129  -4.707   9.707  1.00  0.00    -0.237 OA
ATOM     57  O   UNL     1      -7.665  -3.611   7.567  1.00  0.00    -0.744 OA
ENDBRANCH  53  54
ENDBRANCH  25  48
BRANCH  37  58
ATOM     58  C   UNL     1       3.324  -6.782   7.549  1.00  0.00    -0.014 A 
ATOM     59  C   UNL     1       2.910  -6.955   6.213  1.00  0.00     0.010 A 
ATOM     60  C   UNL     1       4.292  -7.659   8.067  1.00  0.00     0.010 A 
ATOM     61  C   UNL     1       3.434  -7.992   5.426  1.00  0.00     0.020 A 
ATOM     62  C   UNL     1       4.830  -8.683   7.285  1.00  0.00     0.020 A 
ATOM     63  C   UNL     1       4.394  -8.850   5.970  1.00  0.00     0.054 A 
BRANCH  63  64
ATOM     64  S   UNL     1       5.112 -10.156   4.932  1.00  0.00     0.124 S 
ATOM     65  O   UNL     1       3.986 -11.066   4.742  1.00  0.00    -0.237 OA
ATOM     66  O   UNL     1       5.539  -9.426   3.740  1.00  0.00    -0.237 OA
ATOM     67  O   UNL     1       6.205 -10.686   5.746  1.00  0.00    -0.744 OA
ENDBRANCH  63  64
ENDBRANCH  37  58
ENDBRANCH  11  12
ENDBRANCH   4   6
ENDBRANCH   1   2
BRANCH   1  68
ATOM     68  C   UNL     1       4.880  -1.843  -1.238  1.00  0.00     0.042 C 
BRANCH  68  69
ATOM     69  C   UNL     1       4.337  -2.546  -2.481  1.00  0.00     0.118 C 
BRANCH  69  70
ATOM     70  N   UNL     1       4.889  -1.985  -3.700  1.00  0.00    -0.351 N 
ATOM     71  C   UNL     1       5.810  -2.526  -4.563  1.00  0.00     0.271 C 
ATOM     72  H   UNL     1       4.556  -1.091  -3.942  1.00  0.00     0.163 HD
ATOM     73  O   UNL     1       6.315  -1.795  -5.412  1.00  0.00    -0.267 OA
BRANCH  71  74
ATOM     74  C   UNL     1       6.099  -3.961  -4.482  1.00  0.00     0.150 A 
ATOM     75  C   UNL     1       5.171  -5.024  -4.630  1.00  0.00     0.056 A 
ATOM     76  N   UNL     1       7.351  -4.428  -4.324  1.00  0.00    -0.161 NA
ATOM     77  C   UNL     1       5.937  -6.159  -4.699  1.00  0.00     0.118 A 
ATOM     78  N   UNL     1       7.244  -5.764  -4.545  1.00  0.00    -0.222 N 
BRANCH  78  79
ATOM     79  C   UNL     1       8.386  -6.601  -4.657  1.00  0.00     0.158 A 
ATOM     80  C   UNL     1       9.533  -6.252  -3.978  1.00  0.00     0.078 A 
ATOM     81  N   UNL     1       8.288  -7.704  -5.431  1.00  0.00    -0.209 NA
ATOM     82  C   UNL     1      10.589  -7.132  -4.090  1.00  0.00     0.077 A 
ATOM     83  C   UNL     1       9.399  -8.449  -5.542  1.00  0.00     0.165 A 
ATOM     84  N   UNL     1      10.558  -8.206  -4.907  1.00  0.00    -0.228 NA
BRANCH  82  85
ATOM     85  C   UNL     1      11.801  -6.978  -3.281  1.00  0.00     0.003 A 
ATOM     86  C   UNL     1      11.737  -7.017  -1.881  1.00  0.00     0.030 A 
ATOM     87  C   UNL     1      13.053  -6.799  -3.875  1.00  0.00     0.030 A 
ATOM     88  C   UNL     1      12.903  -6.862  -1.150  1.00  0.00     0.111 A 
ATOM     89  C   UNL     1      14.162  -6.642  -3.058  1.00  0.00     0.111 A 
ATOM     90  N   UNL     1      14.115  -6.663  -1.710  1.00  0.00    -0.265 NA
ENDBRANCH  82  85
BRANCH  83  91
ATOM     91  C   UNL     1       9.364  -9.529  -6.519  1.00  0.00     0.055 A 
ATOM     92  C   UNL     1       9.156  -9.260  -7.885  1.00  0.00     0.015 A 
ATOM     93  C   UNL     1       9.514 -10.863  -6.133  1.00  0.00     0.134 A 
ATOM     94  C   UNL     1       9.106 -10.294  -8.826  1.00  0.00     0.001 A 
ATOM     95  C   UNL     1       9.454 -11.901  -7.063  1.00  0.00     0.040 A 
ATOM     96  F   UNL     1       9.690 -11.180  -4.841  1.00  0.00    -0.206 F 
ATOM     97  C   UNL     1       9.252 -11.616  -8.413  1.00  0.00     0.003 A 
ENDBRANCH  83  91
ENDBRANCH  78  79
ENDBRANCH  71  74
ENDBRANCH  69  70
ENDBRANCH  68  69
ENDBRANCH   1  68
TORSDOF 16
