REMARK SMILES CC1(CNS(=O)(=O)Cc2ccc(C(=O)NCCCNC(=O)c3ccc(-c4c5nc(c(-c6ccc(S(=O)(=O)[O-])cc6)c6ccc([nH]6)c(-c6ccc(S(=O)(=O)[O-])cc6)c6nc(c(-c7ccc(S(=O)(=O)[O-])cc7)c7ccc4[nH]7)C=C6)C=C5)cc3)cc2)COC1
REMARK SMILES IDX 16 1 15 2 13 3 14 4 12 6 9 7 10 8 83 9 11 10 82 11 8 12 5 13
REMARK SMILES IDX 6 14 7 15 4 16 3 18 2 19 1 20 84 21 86 22 85 23 17 24 18 25
REMARK SMILES IDX 19 26 20 27 21 29 22 30 23 31 81 32 24 33 80 34 25 35 26 36
REMARK SMILES IDX 27 37 74 38 28 39 79 40 73 41 75 42 29 43 78 44 72 45 71 46
REMARK SMILES IDX 30 48 60 49 41 50 59 51 42 52 45 53 58 54 76 55 43 56 44 57
REMARK SMILES IDX 57 59 77 60 46 61 31 62 32 63 40 64 33 65 39 66 34 67 35 68
REMARK SMILES IDX 36 69 37 70 38 71 61 72 62 73 70 74 63 75 69 76 64 77 65 78
REMARK SMILES IDX 66 79 67 80 68 81 47 82 48 83 56 84 49 85 55 86 50 87 51 88
REMARK SMILES IDX 52 89 53 90 54 91
REMARK H PARENT 15 5 4 17 19 28 75 47 45 58
REMARK Flexibility Score: inf
ROOT
ATOM      1  C   UNL     1       2.874   7.514  -2.400  1.00  0.00     0.118 C 
ENDROOT
BRANCH   1   2
ATOM      2  N   UNL     1       2.795   6.894  -1.091  1.00  0.00    -0.352 N 
ATOM      3  C   UNL     1       2.591   5.593  -0.714  1.00  0.00     0.251 C 
ATOM      4  O   UNL     1       2.655   5.318   0.484  1.00  0.00    -0.269 OA
ATOM      5  H   UNL     1       2.907   7.520  -0.339  1.00  0.00     0.163 HD
BRANCH   3   6
ATOM      6  C   UNL     1       2.355   4.500  -1.694  1.00  0.00     0.039 A 
ATOM      7  C   UNL     1       1.958   2.311  -3.427  1.00  0.00    -0.032 A 
ATOM      8  C   UNL     1       2.629   2.141  -2.210  1.00  0.00     0.005 A 
ATOM      9  C   UNL     1       1.491   3.584  -3.768  1.00  0.00     0.005 A 
ATOM     10  C   UNL     1       2.819   3.224  -1.349  1.00  0.00     0.014 A 
ATOM     11  C   UNL     1       1.662   4.660  -2.895  1.00  0.00     0.014 A 
BRANCH   7  12
ATOM     12  C   UNL     1       1.697   1.144  -4.338  1.00  0.00     0.189 C 
BRANCH  12  13
ATOM     13  S   UNL     1       0.010   0.541  -4.124  1.00  0.00     0.215 S 
ATOM     14  O   UNL     1      -0.115  -0.717  -4.835  1.00  0.00    -0.212 OA
ATOM     15  O   UNL     1      -0.929   1.613  -4.357  1.00  0.00    -0.212 OA
BRANCH  13  16
ATOM     16  N   UNL     1      -0.089   0.186  -2.478  1.00  0.00    -0.214 NA
ATOM     17  H   UNL     1       0.338   0.961  -1.971  1.00  0.00     0.141 HD
BRANCH  16  18
ATOM     18  C   UNL     1       0.553  -1.053  -2.011  1.00  0.00     0.110 C 
BRANCH  18  19
ATOM     19  C   UNL     1       0.480  -1.220  -0.492  1.00  0.00     0.028 C 
ATOM     20  C   UNL     1       1.029  -0.049   0.309  1.00  0.00     0.018 C 
ATOM     21  C   UNL     1       1.056  -2.582  -0.056  1.00  0.00     0.170 C 
ATOM     22  C   UNL     1      -0.851  -1.812   0.010  1.00  0.00     0.170 C 
ATOM     23  O   UNL     1      -0.276  -3.146   0.041  1.00  0.00    -0.380 OA
ENDBRANCH  18  19
ENDBRANCH  16  18
ENDBRANCH  13  16
ENDBRANCH  12  13
ENDBRANCH   7  12
ENDBRANCH   3   6
ENDBRANCH   1   2
BRANCH   1  24
ATOM     24  C   UNL     1       1.583   8.258  -2.736  1.00  0.00     0.042 C 
BRANCH  24  25
ATOM     25  C   UNL     1       1.435   9.571  -1.975  1.00  0.00     0.118 C 
BRANCH  25  26
ATOM     26  N   UNL     1       2.435  10.546  -2.386  1.00  0.00    -0.352 N 
ATOM     27  C   UNL     1       2.274  11.789  -2.942  1.00  0.00     0.251 C 
ATOM     28  H   UNL     1       3.370  10.271  -2.242  1.00  0.00     0.163 HD
ATOM     29  O   UNL     1       3.238  12.345  -3.459  1.00  0.00    -0.269 OA
BRANCH  27  30
ATOM     30  C   UNL     1       0.954  12.452  -2.922  1.00  0.00     0.039 A 
ATOM     31  C   UNL     1       0.550  13.186  -4.039  1.00  0.00     0.014 A 
ATOM     32  C   UNL     1       0.135  12.388  -1.791  1.00  0.00     0.014 A 
ATOM     33  C   UNL     1      -0.695  13.819  -4.039  1.00  0.00     0.010 A 
ATOM     34  C   UNL     1      -1.138  12.949  -1.823  1.00  0.00     0.010 A 
ATOM     35  C   UNL     1      -1.560  13.682  -2.941  1.00  0.00    -0.014 A 
BRANCH  35  36
ATOM     36  C   UNL     1      -2.910  14.297  -2.946  1.00  0.00     0.031 A 
ATOM     37  C   UNL     1      -3.266  15.356  -1.939  1.00  0.00     0.074 A 
ATOM     38  C   UNL     1      -3.838  13.848  -3.812  1.00  0.00     0.049 A 
ATOM     39  N   UNL     1      -4.406  15.973  -1.759  1.00  0.00    -0.248 NA
ATOM     40  C   UNL     1      -2.212  15.752  -0.991  1.00  0.00     0.031 C 
ATOM     41  C   UNL     1      -3.628  12.787  -4.800  1.00  0.00     0.029 A 
ATOM     42  N   UNL     1      -5.146  14.217  -3.994  1.00  0.00    -0.354 N 
ATOM     43  C   UNL     1      -4.213  16.812  -0.667  1.00  0.00     0.074 A 
ATOM     44  C   UNL     1      -2.866  16.583  -0.193  1.00  0.00     0.031 C 
ATOM     45  C   UNL     1      -4.760  12.605  -5.495  1.00  0.00     0.029 A 
ATOM     46  C   UNL     1      -5.788  13.503  -4.976  1.00  0.00     0.049 A 
ATOM     47  H   UNL     1      -5.584  14.927  -3.470  1.00  0.00     0.167 HD
ATOM     48  C   UNL     1      -5.074  17.703  -0.118  1.00  0.00     0.031 A 
ATOM     49  C   UNL     1      -7.063  13.552  -5.407  1.00  0.00     0.031 A 
ATOM     50  C   UNL     1      -6.417  17.917  -0.593  1.00  0.00     0.049 A 
ATOM     51  C   UNL     1      -8.005  14.546  -4.790  1.00  0.00     0.074 A 
ATOM     52  C   UNL     1      -7.350  18.839  -0.152  1.00  0.00     0.029 A 
ATOM     53  N   UNL     1      -7.024  17.188  -1.607  1.00  0.00    -0.354 N 
ATOM     54  N   UNL     1      -7.780  15.394  -3.814  1.00  0.00    -0.248 NA
ATOM     55  C   UNL     1      -9.364  14.602  -5.340  1.00  0.00     0.031 C 
ATOM     56  C   UNL     1      -8.541  18.623  -0.854  1.00  0.00     0.029 A 
ATOM     57  C   UNL     1      -8.329  17.615  -1.783  1.00  0.00     0.049 A 
ATOM     58  H   UNL     1      -6.589  16.472  -2.124  1.00  0.00     0.167 HD
ATOM     59  C   UNL     1      -8.966  16.100  -3.645  1.00  0.00     0.074 A 
ATOM     60  C   UNL     1      -9.897  15.589  -4.632  1.00  0.00     0.031 C 
ATOM     61  C   UNL     1      -9.253  17.085  -2.757  1.00  0.00     0.031 A 
BRANCH  48  62
ATOM     62  C   UNL     1      -4.589  18.485   1.077  1.00  0.00    -0.014 A 
ATOM     63  C   UNL     1      -3.541  19.419   0.968  1.00  0.00     0.010 A 
ATOM     64  C   UNL     1      -5.182  18.274   2.336  1.00  0.00     0.010 A 
ATOM     65  C   UNL     1      -3.046  20.067   2.103  1.00  0.00     0.020 A 
ATOM     66  C   UNL     1      -4.714  18.948   3.468  1.00  0.00     0.020 A 
ATOM     67  C   UNL     1      -3.629  19.818   3.349  1.00  0.00     0.054 A 
BRANCH  67  68
ATOM     68  S   UNL     1      -2.947  20.648   4.810  1.00  0.00     0.124 S 
ATOM     69  O   UNL     1      -1.687  19.935   4.999  1.00  0.00    -0.237 OA
ATOM     70  O   UNL     1      -2.823  22.033   4.364  1.00  0.00    -0.237 OA
ATOM     71  O   UNL     1      -3.954  20.417   5.843  1.00  0.00    -0.744 OA
ENDBRANCH  67  68
ENDBRANCH  48  62
BRANCH  49  72
ATOM     72  C   UNL     1      -7.497  12.631  -6.492  1.00  0.00    -0.014 A 
ATOM     73  C   UNL     1      -7.718  13.111  -7.794  1.00  0.00     0.010 A 
ATOM     74  C   UNL     1      -7.607  11.250  -6.244  1.00  0.00     0.010 A 
ATOM     75  C   UNL     1      -8.032  12.226  -8.830  1.00  0.00     0.020 A 
ATOM     76  C   UNL     1      -7.893  10.359  -7.282  1.00  0.00     0.020 A 
ATOM     77  C   UNL     1      -8.104  10.854  -8.570  1.00  0.00     0.054 A 
BRANCH  77  78
ATOM     78  S   UNL     1      -8.405   9.718  -9.952  1.00  0.00     0.124 S 
ATOM     79  O   UNL     1      -9.808   9.973 -10.258  1.00  0.00    -0.237 OA
ATOM     80  O   UNL     1      -7.444  10.179 -10.951  1.00  0.00    -0.237 OA
ATOM     81  O   UNL     1      -8.116   8.403  -9.384  1.00  0.00    -0.744 OA
ENDBRANCH  77  78
ENDBRANCH  49  72
BRANCH  61  82
ATOM     82  C   UNL     1     -10.630  17.695  -2.821  1.00  0.00    -0.014 A 
ATOM     83  C   UNL     1     -11.767  16.980  -2.405  1.00  0.00     0.010 A 
ATOM     84  C   UNL     1     -10.777  19.027  -3.250  1.00  0.00     0.010 A 
ATOM     85  C   UNL     1     -13.030  17.577  -2.446  1.00  0.00     0.020 A 
ATOM     86  C   UNL     1     -12.033  19.637  -3.263  1.00  0.00     0.020 A 
ATOM     87  C   UNL     1     -13.155  18.903  -2.873  1.00  0.00     0.054 A 
BRANCH  87  88
ATOM     88  S   UNL     1     -14.799  19.669  -2.874  1.00  0.00     0.124 S 
ATOM     89  O   UNL     1     -15.446  18.999  -3.999  1.00  0.00    -0.237 OA
ATOM     90  O   UNL     1     -15.315  19.319  -1.553  1.00  0.00    -0.237 OA
ATOM     91  O   UNL     1     -14.520  21.090  -3.072  1.00  0.00    -0.744 OA
ENDBRANCH  87  88
ENDBRANCH  61  82
ENDBRANCH  35  36
ENDBRANCH  27  30
ENDBRANCH  25  26
ENDBRANCH  24  25
ENDBRANCH   1  24
TORSDOF 18
