REMARK SMILES Cc1cc(C(=O)Nc2cccc(C(=O)NCC(=O)NCCCNC(=O)c3ccc(-c4c5nc(c(-c6ccc(S(=O)(=O)[O-])cc6)c6ccc([nH]6)c(-c6ccc(S(=O)(=O)[O-])cc6)c6nc(c(-c7ccc(S(=O)(=O)[O-])cc7)c7ccc4[nH]7)C=C6)C=C5)cc3)c2)no1
REMARK SMILES IDX 20 1 19 2 17 3 18 4 16 6 15 7 13 8 14 9 12 11 8 12 9 13
REMARK SMILES IDX 86 14 10 15 11 16 7 17 5 18 6 19 4 21 1 22 2 23 3 24 88 25
REMARK SMILES IDX 87 26 21 27 22 28 23 29 24 30 25 32 26 33 27 34 85 35 28 36
REMARK SMILES IDX 84 37 29 38 30 39 31 40 78 41 32 42 83 43 77 44 79 45 33 46
REMARK SMILES IDX 82 47 76 48 75 49 34 51 64 52 45 53 63 54 46 55 49 56 62 57
REMARK SMILES IDX 80 58 47 59 48 60 61 62 81 63 50 64 35 65 36 66 44 67 37 68
REMARK SMILES IDX 43 69 38 70 39 71 40 72 41 73 42 74 65 75 66 76 74 77 67 78
REMARK SMILES IDX 73 79 68 80 69 81 70 82 71 83 72 84 51 85 52 86 60 87 53 88
REMARK SMILES IDX 59 89 54 90 55 91 56 92 57 93 58 94
REMARK H PARENT 19 5 15 10 7 20 23 31 79 50 49 61
REMARK Flexibility Score: inf
ROOT
ATOM      1  C   UNL     1      -0.609  -3.894   4.146  1.00  0.00     0.117 C 
ENDROOT
BRANCH   1   2
ATOM      2  N   UNL     1      -0.679  -2.558   4.685  1.00  0.00    -0.355 N 
ATOM      3  C   UNL     1      -0.068  -1.409   4.292  1.00  0.00     0.239 C 
ATOM      4  O   UNL     1      -0.416  -0.374   4.871  1.00  0.00    -0.273 OA
ATOM      5  H   UNL     1      -1.268  -2.462   5.468  1.00  0.00     0.163 HD
BRANCH   3   6
ATOM      6  C   UNL     1       0.871  -1.326   3.076  1.00  0.00     0.216 C 
BRANCH   6   7
ATOM      7  N   UNL     1       1.811  -2.408   2.800  1.00  0.00    -0.343 N 
ATOM      8  C   UNL     1       1.935  -3.424   1.889  1.00  0.00     0.251 C 
ATOM      9  O   UNL     1       3.004  -4.038   1.917  1.00  0.00    -0.269 OA
ATOM     10  H   UNL     1       2.558  -2.408   3.442  1.00  0.00     0.164 HD
BRANCH   8  11
ATOM     11  C   UNL     1       0.899  -3.867   0.902  1.00  0.00     0.041 A 
ATOM     12  C   UNL     1      -1.238  -3.694  -0.268  1.00  0.00     0.042 A 
ATOM     13  C   UNL     1      -0.983  -4.877  -0.953  1.00  0.00     0.026 A 
ATOM     14  C   UNL     1      -0.341  -3.260   0.714  1.00  0.00     0.040 A 
ATOM     15  C   UNL     1       0.232  -5.532  -0.755  1.00  0.00     0.003 A 
ATOM     16  C   UNL     1       1.175  -5.013   0.140  1.00  0.00     0.014 A 
BRANCH  12  17
ATOM     17  N   UNL     1      -2.386  -2.950  -0.592  1.00  0.00    -0.321 N 
ATOM     18  C   UNL     1      -2.592  -1.575  -0.508  1.00  0.00     0.277 C 
ATOM     19  O   UNL     1      -3.748  -1.157  -0.582  1.00  0.00    -0.267 OA
ATOM     20  H   UNL     1      -3.150  -3.474  -0.924  1.00  0.00     0.170 HD
BRANCH  18  21
ATOM     21  C   UNL     1      -1.427  -0.676  -0.416  1.00  0.00     0.171 A 
ATOM     22  C   UNL     1       2.085   0.393  -0.301  1.00  0.00     0.091 C 
ATOM     23  C   UNL     1       0.635   0.134  -0.375  1.00  0.00     0.134 A 
ATOM     24  C   UNL     1      -0.128  -0.828  -0.987  1.00  0.00     0.082 A 
ATOM     25  O   UNL     1      -0.177   0.935   0.362  1.00  0.00    -0.361 OA
ATOM     26  N   UNL     1      -1.470   0.444   0.327  1.00  0.00    -0.074 NA
ENDBRANCH  18  21
ENDBRANCH  12  17
ENDBRANCH   8  11
ENDBRANCH   6   7
ENDBRANCH   3   6
ENDBRANCH   1   2
BRANCH   1  27
ATOM     27  C   UNL     1       0.353  -4.792   4.900  1.00  0.00     0.042 C 
BRANCH  27  28
ATOM     28  C   UNL     1      -0.181  -5.201   6.263  1.00  0.00     0.118 C 
BRANCH  28  29
ATOM     29  N   UNL     1      -1.415  -5.972   6.165  1.00  0.00    -0.352 N 
ATOM     30  C   UNL     1      -1.718  -7.225   6.638  1.00  0.00     0.251 C 
ATOM     31  H   UNL     1      -2.147  -5.523   5.684  1.00  0.00     0.163 HD
ATOM     32  O   UNL     1      -2.748  -7.775   6.267  1.00  0.00    -0.269 OA
BRANCH  30  33
ATOM     33  C   UNL     1      -0.798  -7.906   7.573  1.00  0.00     0.039 A 
ATOM     34  C   UNL     1      -0.600  -9.281   7.439  1.00  0.00     0.014 A 
ATOM     35  C   UNL     1      -0.142  -7.197   8.582  1.00  0.00     0.014 A 
ATOM     36  C   UNL     1       0.307  -9.930   8.278  1.00  0.00     0.010 A 
ATOM     37  C   UNL     1       0.836  -7.823   9.344  1.00  0.00     0.010 A 
ATOM     38  C   UNL     1       1.062  -9.199   9.210  1.00  0.00    -0.014 A 
BRANCH  38  39
ATOM     39  C   UNL     1       2.093  -9.861  10.046  1.00  0.00     0.031 A 
ATOM     40  C   UNL     1       1.967  -9.872  11.545  1.00  0.00     0.074 A 
ATOM     41  C   UNL     1       3.169 -10.413   9.450  1.00  0.00     0.049 A 
ATOM     42  N   UNL     1       2.767 -10.404  12.434  1.00  0.00    -0.248 NA
ATOM     43  C   UNL     1       0.808  -9.174  12.125  1.00  0.00     0.031 C 
ATOM     44  C   UNL     1       3.430 -10.416   8.008  1.00  0.00     0.029 A 
ATOM     45  N   UNL     1       4.240 -11.083   9.982  1.00  0.00    -0.354 N 
ATOM     46  C   UNL     1       2.214 -10.096  13.672  1.00  0.00     0.074 A 
ATOM     47  C   UNL     1       1.049  -9.277  13.423  1.00  0.00     0.031 C 
ATOM     48  C   UNL     1       4.560 -11.099   7.767  1.00  0.00     0.029 A 
ATOM     49  C   UNL     1       5.127 -11.542   9.036  1.00  0.00     0.049 A 
ATOM     50  H   UNL     1       4.363 -11.223  10.948  1.00  0.00     0.167 HD
ATOM     51  C   UNL     1       2.625 -10.480  14.904  1.00  0.00     0.031 A 
ATOM     52  C   UNL     1       6.268 -12.243   9.174  1.00  0.00     0.031 A 
ATOM     53  C   UNL     1       3.788 -11.294  15.144  1.00  0.00     0.049 A 
ATOM     54  C   UNL     1       6.711 -12.649  10.552  1.00  0.00     0.074 A 
ATOM     55  C   UNL     1       4.262 -11.784  16.348  1.00  0.00     0.029 A 
ATOM     56  N   UNL     1       4.665 -11.731  14.162  1.00  0.00    -0.354 N 
ATOM     57  N   UNL     1       6.133 -12.414  11.706  1.00  0.00    -0.248 NA
ATOM     58  C   UNL     1       7.953 -13.427  10.643  1.00  0.00     0.031 C 
ATOM     59  C   UNL     1       5.460 -12.463  16.101  1.00  0.00     0.029 A 
ATOM     60  C   UNL     1       5.695 -12.458  14.735  1.00  0.00     0.049 A 
ATOM     61  H   UNL     1       4.569 -11.550  13.199  1.00  0.00     0.167 HD
ATOM     62  C   UNL     1       6.930 -13.035  12.661  1.00  0.00     0.074 A 
ATOM     63  C   UNL     1       8.015 -13.676  11.944  1.00  0.00     0.031 C 
ATOM     64  C   UNL     1       6.779 -13.073  14.009  1.00  0.00     0.031 A 
BRANCH  51  65
ATOM     65  C   UNL     1       1.812 -10.011  16.085  1.00  0.00    -0.014 A 
ATOM     66  C   UNL     1       0.499 -10.471  16.296  1.00  0.00     0.010 A 
ATOM     67  C   UNL     1       2.375  -9.112  17.009  1.00  0.00     0.010 A 
ATOM     68  C   UNL     1      -0.253 -10.003  17.377  1.00  0.00     0.020 A 
ATOM     69  C   UNL     1       1.638  -8.666  18.111  1.00  0.00     0.020 A 
ATOM     70  C   UNL     1       0.321  -9.100  18.276  1.00  0.00     0.054 A 
BRANCH  70  71
ATOM     71  S   UNL     1      -0.675  -8.516  19.675  1.00  0.00     0.124 S 
ATOM     72  O   UNL     1      -1.638  -7.639  19.013  1.00  0.00    -0.237 OA
ATOM     73  O   UNL     1      -1.225  -9.757  20.215  1.00  0.00    -0.237 OA
ATOM     74  O   UNL     1       0.294  -7.840  20.534  1.00  0.00    -0.744 OA
ENDBRANCH  70  71
ENDBRANCH  51  65
BRANCH  52  75
ATOM     75  C   UNL     1       7.050 -12.629   7.967  1.00  0.00    -0.014 A 
ATOM     76  C   UNL     1       7.114 -13.972   7.556  1.00  0.00     0.010 A 
ATOM     77  C   UNL     1       7.712 -11.649   7.204  1.00  0.00     0.010 A 
ATOM     78  C   UNL     1       7.834 -14.330   6.413  1.00  0.00     0.020 A 
ATOM     79  C   UNL     1       8.407 -11.999   6.043  1.00  0.00     0.020 A 
ATOM     80  C   UNL     1       8.471 -13.340   5.660  1.00  0.00     0.054 A 
BRANCH  80  81
ATOM     81  S   UNL     1       9.344 -13.822   4.144  1.00  0.00     0.124 S 
ATOM     82  O   UNL     1      10.513 -14.518   4.674  1.00  0.00    -0.237 OA
ATOM     83  O   UNL     1       8.359 -14.662   3.468  1.00  0.00    -0.237 OA
ATOM     84  O   UNL     1       9.619 -12.547   3.487  1.00  0.00    -0.744 OA
ENDBRANCH  80  81
ENDBRANCH  52  75
BRANCH  64  85
ATOM     85  C   UNL     1       7.804 -13.852  14.793  1.00  0.00    -0.014 A 
ATOM     86  C   UNL     1       9.131 -13.402  14.911  1.00  0.00     0.010 A 
ATOM     87  C   UNL     1       7.424 -15.042  15.441  1.00  0.00     0.010 A 
ATOM     88  C   UNL     1      10.072 -14.155  15.619  1.00  0.00     0.020 A 
ATOM     89  C   UNL     1       8.353 -15.779  16.179  1.00  0.00     0.020 A 
ATOM     90  C   UNL     1       9.677 -15.341  16.246  1.00  0.00     0.054 A 
BRANCH  90  91
ATOM     91  S   UNL     1      10.913 -16.291  17.171  1.00  0.00     0.124 S 
ATOM     92  O   UNL     1      11.724 -16.860  16.098  1.00  0.00    -0.237 OA
ATOM     93  O   UNL     1      11.569 -15.264  17.978  1.00  0.00    -0.237 OA
ATOM     94  O   UNL     1      10.116 -17.254  17.927  1.00  0.00    -0.744 OA
ENDBRANCH  90  91
ENDBRANCH  64  85
ENDBRANCH  38  39
ENDBRANCH  30  33
ENDBRANCH  28  29
ENDBRANCH  27  28
ENDBRANCH   1  27
TORSDOF 17
