REMARK SMILES CC(C)(C)c1cc2c(cc1Cl)C=C(C(=O)NCCCNC(=O)c1ccc(-c3c4nc(c(-c5ccc(S(=O)(=O)[O-])cc5)c5ccc([nH]5)c(-c5ccc(S(=O)(=O)[O-])cc5)c5nc(c(-c6ccc(S(=O)(=O)[O-])cc6)c6ccc3[nH]6)C=C5)C=C4)cc1)[C@@H](C(F)(F)F)O2
REMARK SMILES IDX 19 1 18 2 17 3 16 4 14 5 15 6 13 8 5 9 6 10 10 11 7 12 9 13
REMARK SMILES IDX 11 14 8 15 88 16 12 17 83 18 2 19 1 20 3 21 4 22 84 23 85 24
REMARK SMILES IDX 86 25 87 26 20 27 21 28 22 30 23 31 24 32 82 33 25 34 81 35
REMARK SMILES IDX 26 36 27 37 28 38 75 39 29 40 80 41 74 42 76 43 30 44 79 45
REMARK SMILES IDX 73 46 72 47 31 49 61 50 42 51 60 52 43 53 46 54 59 55 77 56
REMARK SMILES IDX 44 57 45 58 58 60 78 61 47 62 32 63 33 64 41 65 34 66 40 67
REMARK SMILES IDX 35 68 36 69 37 70 38 71 39 72 62 73 63 74 71 75 64 76 70 77
REMARK SMILES IDX 65 78 66 79 67 80 68 81 69 82 48 83 49 84 57 85 50 86 56 87
REMARK SMILES IDX 51 88 52 89 53 90 54 91 55 92
REMARK H PARENT 16 7 20 29 76 48 46 59
REMARK Flexibility Score: inf
ROOT
ATOM      1  C   UNL     1       1.058   8.660   8.781  1.00  0.00     0.118 C 
ENDROOT
BRANCH   1   2
ATOM      2  C   UNL     1       0.992   8.116   7.359  1.00  0.00     0.042 C 
BRANCH   2   3
ATOM      3  C   UNL     1       2.311   7.507   6.907  1.00  0.00     0.118 C 
BRANCH   3   4
ATOM      4  N   UNL     1       2.537   6.195   7.496  1.00  0.00    -0.352 N 
ATOM      5  C   UNL     1       2.474   4.903   7.099  1.00  0.00     0.251 C 
ATOM      6  O   UNL     1       2.766   4.074   7.967  1.00  0.00    -0.270 OA
ATOM      7  H   UNL     1       2.811   6.267   8.438  1.00  0.00     0.163 HD
BRANCH   5   8
ATOM      8  C   UNL     1       2.095   4.438   5.734  1.00  0.00     0.067 C 
ATOM      9  C   UNL     1       0.936   1.615   1.658  1.00  0.00    -0.020 A 
ATOM     10  C   UNL     1       0.778   2.970   2.047  1.00  0.00     0.053 A 
ATOM     11  C   UNL     1       1.465   0.753   2.645  1.00  0.00     0.045 A 
ATOM     12  C   UNL     1       1.170   3.445   3.297  1.00  0.00     0.128 A 
ATOM     13  C   UNL     1       1.837   1.239   3.918  1.00  0.00     0.032 A 
ATOM     14  Cl  UNL     1       1.689  -0.951   2.466  1.00  0.00    -0.084 Cl
ATOM     15  C   UNL     1       1.697   2.585   4.245  1.00  0.00     0.019 A 
ATOM     16  O   UNL     1       0.968   4.773   3.541  1.00  0.00    -0.475 OA
ATOM     17  C   UNL     1       2.042   3.103   5.563  1.00  0.00     0.025 C 
ATOM     18  C   UNL     1       1.811   5.353   4.575  1.00  0.00     0.314 C 
BRANCH   9  19
ATOM     19  C   UNL     1       0.462   1.248   0.229  1.00  0.00    -0.012 C 
ATOM     20  C   UNL     1       0.869  -0.132  -0.325  1.00  0.00     0.016 C 
ATOM     21  C   UNL     1       1.018   2.270  -0.804  1.00  0.00     0.016 C 
ATOM     22  C   UNL     1      -1.082   1.311   0.207  1.00  0.00     0.016 C 
ENDBRANCH   9  19
BRANCH  18  23
ATOM     23  C   UNL     1       3.100   5.904   3.934  1.00  0.00     0.429 C 
ATOM     24  F   UNL     1       2.822   6.974   3.149  1.00  0.00    -0.167 F 
ATOM     25  F   UNL     1       4.000   6.327   4.855  1.00  0.00    -0.167 F 
ATOM     26  F   UNL     1       3.735   4.992   3.164  1.00  0.00    -0.167 F 
ENDBRANCH  18  23
ENDBRANCH   5   8
ENDBRANCH   3   4
ENDBRANCH   2   3
ENDBRANCH   1   2
BRANCH   1  27
ATOM     27  N   UNL     1       1.951   9.812   8.889  1.00  0.00    -0.352 N 
ATOM     28  C   UNL     1       1.671  11.142   9.097  1.00  0.00     0.251 C 
ATOM     29  H   UNL     1       2.909   9.601   8.799  1.00  0.00     0.163 HD
ATOM     30  O   UNL     1       2.550  11.981   8.918  1.00  0.00    -0.269 OA
BRANCH  28  31
ATOM     31  C   UNL     1       0.317  11.559   9.515  1.00  0.00     0.039 A 
ATOM     32  C   UNL     1      -0.387  10.815  10.461  1.00  0.00     0.014 A 
ATOM     33  C   UNL     1      -0.256  12.708   8.962  1.00  0.00     0.014 A 
ATOM     34  C   UNL     1      -1.723  11.100  10.704  1.00  0.00     0.010 A 
ATOM     35  C   UNL     1      -1.569  13.058   9.294  1.00  0.00     0.010 A 
ATOM     36  C   UNL     1      -2.331  12.227  10.129  1.00  0.00    -0.014 A 
BRANCH  36  37
ATOM     37  C   UNL     1      -3.759  12.507  10.431  1.00  0.00     0.031 A 
ATOM     38  C   UNL     1      -4.796  12.480   9.340  1.00  0.00     0.074 A 
ATOM     39  C   UNL     1      -4.128  12.700  11.713  1.00  0.00     0.049 A 
ATOM     40  N   UNL     1      -6.089  12.654   9.438  1.00  0.00    -0.248 NA
ATOM     41  C   UNL     1      -4.331  12.227   7.966  1.00  0.00     0.031 C 
ATOM     42  C   UNL     1      -3.211  12.719  12.856  1.00  0.00     0.029 A 
ATOM     43  N   UNL     1      -5.366  12.865  12.281  1.00  0.00    -0.354 N 
ATOM     44  C   UNL     1      -6.588  12.552   8.144  1.00  0.00     0.074 A 
ATOM     45  C   UNL     1      -5.457  12.327   7.272  1.00  0.00     0.031 C 
ATOM     46  C   UNL     1      -3.921  12.797  13.989  1.00  0.00     0.029 A 
ATOM     47  C   UNL     1      -5.336  12.920  13.655  1.00  0.00     0.049 A 
ATOM     48  H   UNL     1      -6.195  12.938  11.756  1.00  0.00     0.167 HD
ATOM     49  C   UNL     1      -7.873  12.629   7.726  1.00  0.00     0.031 A 
ATOM     50  C   UNL     1      -6.330  13.060  14.554  1.00  0.00     0.031 A 
ATOM     51  C   UNL     1      -8.994  12.832   8.606  1.00  0.00     0.049 A 
ATOM     52  C   UNL     1      -7.742  13.182  14.063  1.00  0.00     0.074 A 
ATOM     53  C   UNL     1     -10.335  12.922   8.275  1.00  0.00     0.029 A 
ATOM     54  N   UNL     1      -8.912  12.966   9.984  1.00  0.00    -0.354 N 
ATOM     55  N   UNL     1      -8.188  13.108  12.832  1.00  0.00    -0.248 NA
ATOM     56  C   UNL     1      -8.783  13.420  15.071  1.00  0.00     0.031 C 
ATOM     57  C   UNL     1     -11.057  13.163   9.446  1.00  0.00     0.029 A 
ATOM     58  C   UNL     1     -10.175  13.160  10.515  1.00  0.00     0.049 A 
ATOM     59  H   UNL     1      -8.078  12.928  10.507  1.00  0.00     0.167 HD
ATOM     60  C   UNL     1      -9.562  13.291  12.916  1.00  0.00     0.074 A 
ATOM     61  C   UNL     1      -9.878  13.454  14.320  1.00  0.00     0.031 C 
ATOM     62  C   UNL     1     -10.474  13.330  11.915  1.00  0.00     0.031 A 
BRANCH  49  63
ATOM     63  C   UNL     1      -8.156  12.498   6.253  1.00  0.00    -0.014 A 
ATOM     64  C   UNL     1      -8.618  13.614   5.530  1.00  0.00     0.010 A 
ATOM     65  C   UNL     1      -8.078  11.250   5.608  1.00  0.00     0.010 A 
ATOM     66  C   UNL     1      -9.022  13.482   4.199  1.00  0.00     0.020 A 
ATOM     67  C   UNL     1      -8.458  11.119   4.268  1.00  0.00     0.020 A 
ATOM     68  C   UNL     1      -8.949  12.232   3.579  1.00  0.00     0.054 A 
BRANCH  68  69
ATOM     69  S   UNL     1      -9.493  12.072   1.855  1.00  0.00     0.124 S 
ATOM     70  O   UNL     1     -10.946  12.058   1.991  1.00  0.00    -0.237 OA
ATOM     71  O   UNL     1      -8.928  13.265   1.229  1.00  0.00    -0.237 OA
ATOM     72  O   UNL     1      -8.892  10.811   1.425  1.00  0.00    -0.744 OA
ENDBRANCH  68  69
ENDBRANCH  49  63
BRANCH  50  73
ATOM     73  C   UNL     1      -5.995  13.081  16.005  1.00  0.00    -0.014 A 
ATOM     74  C   UNL     1      -5.249  14.146  16.545  1.00  0.00     0.010 A 
ATOM     75  C   UNL     1      -6.322  11.989  16.827  1.00  0.00     0.010 A 
ATOM     76  C   UNL     1      -4.777  14.087  17.858  1.00  0.00     0.020 A 
ATOM     77  C   UNL     1      -5.877  11.942  18.152  1.00  0.00     0.020 A 
ATOM     78  C   UNL     1      -5.078  12.976  18.647  1.00  0.00     0.054 A 
BRANCH  78  79
ATOM     79  S   UNL     1      -4.399  12.887  20.327  1.00  0.00     0.124 S 
ATOM     80  O   UNL     1      -3.024  12.465  20.070  1.00  0.00    -0.237 OA
ATOM     81  O   UNL     1      -4.556  14.257  20.810  1.00  0.00    -0.237 OA
ATOM     82  O   UNL     1      -5.246  11.897  20.985  1.00  0.00    -0.744 OA
ENDBRANCH  78  79
ENDBRANCH  50  73
BRANCH  62  83
ATOM     83  C   UNL     1     -11.913  13.569  12.281  1.00  0.00    -0.014 A 
ATOM     84  C   UNL     1     -12.854  12.534  12.129  1.00  0.00     0.010 A 
ATOM     85  C   UNL     1     -12.355  14.854  12.642  1.00  0.00     0.010 A 
ATOM     86  C   UNL     1     -14.217  12.787  12.295  1.00  0.00     0.020 A 
ATOM     87  C   UNL     1     -13.716  15.105  12.834  1.00  0.00     0.020 A 
ATOM     88  C   UNL     1     -14.640  14.076  12.633  1.00  0.00     0.054 A 
BRANCH  88  89
ATOM     89  S   UNL     1     -16.416  14.398  12.804  1.00  0.00     0.124 S 
ATOM     90  O   UNL     1     -16.846  14.496  11.412  1.00  0.00    -0.237 OA
ATOM     91  O   UNL     1     -16.889  13.220  13.528  1.00  0.00    -0.237 OA
ATOM     92  O   UNL     1     -16.466  15.645  13.563  1.00  0.00    -0.744 OA
ENDBRANCH  88  89
ENDBRANCH  62  83
ENDBRANCH  36  37
ENDBRANCH  28  31
ENDBRANCH   1  27
TORSDOF 15
