REMARK SMILES Cc1cccc2sc(NC(=O)/C=C/C(=O)NCCCNC(=O)c3ccc(-c4c5nc(c(-c6ccc(S(=O)(=O)[O-])cc6)c6ccc([nH]6)c(-c6ccc(S(=O)(=O)[O-])cc6)c6nc(c(-c7ccc(S(=O)(=O)[O-])cc7)c7ccc4[nH]7)C=C6)C=C5)cc3)nc12
REMARK SMILES IDX 18 1 17 2 16 3 14 4 15 5 13 7 12 8 10 9 9 10 11 12 8 13 1 14
REMARK SMILES IDX 2 15 3 16 84 17 4 18 6 19 83 20 5 21 7 22 19 23 20 24 21 25
REMARK SMILES IDX 22 27 23 28 24 29 82 30 25 31 81 32 26 33 27 34 28 35 75 36
REMARK SMILES IDX 29 37 80 38 74 39 76 40 30 41 79 42 73 43 72 44 31 46 61 47
REMARK SMILES IDX 42 48 60 49 43 50 46 51 59 52 77 53 44 54 45 55 58 57 78 58
REMARK SMILES IDX 47 59 32 60 33 61 41 62 34 63 40 64 35 65 36 66 37 67 38 68
REMARK SMILES IDX 39 69 62 70 63 71 71 72 64 73 70 74 65 75 66 76 67 77 68 78
REMARK SMILES IDX 69 79 48 80 49 81 57 82 50 83 56 84 51 85 52 86 53 87 54 88
REMARK SMILES IDX 55 89
REMARK H PARENT 16 6 9 11 20 26 76 45 46 56
REMARK Flexibility Score: inf
ROOT
ATOM      1  C   UNL     1      -7.581   1.673   0.996  1.00  0.00     0.042 C 
ENDROOT
BRANCH   1   2
ATOM      2  C   UNL     1      -6.898   1.513  -0.357  1.00  0.00     0.118 C 
BRANCH   2   3
ATOM      3  N   UNL     1      -5.652   2.256  -0.422  1.00  0.00    -0.352 N 
ATOM      4  C   UNL     1      -4.399   1.820  -0.693  1.00  0.00     0.244 C 
ATOM      5  O   UNL     1      -3.486   2.623  -0.865  1.00  0.00    -0.270 OA
ATOM      6  H   UNL     1      -5.731   3.221  -0.243  1.00  0.00     0.163 HD
BRANCH   4   7
ATOM      7  C   UNL     1      -4.131   0.379  -0.815  1.00  0.00     0.077 C 
ATOM      8  C   UNL     1      -4.336  -0.439   0.228  1.00  0.00     0.077 C 
BRANCH   8   9
ATOM      9  C   UNL     1      -3.827  -1.819   0.164  1.00  0.00     0.250 C 
ATOM     10  N   UNL     1      -2.495  -2.092   0.239  1.00  0.00    -0.298 N 
ATOM     11  H   UNL     1      -2.279  -3.045   0.123  1.00  0.00     0.172 HD
ATOM     12  O   UNL     1      -4.639  -2.731   0.011  1.00  0.00    -0.270 OA
BRANCH  10  13
ATOM     13  C   UNL     1      -1.395  -1.298   0.445  1.00  0.00     0.190 A 
ATOM     14  C   UNL     1       2.805  -2.075  -0.209  1.00  0.00     0.047 C 
ATOM     15  C   UNL     1       2.111  -0.764   0.015  1.00  0.00    -0.024 A 
ATOM     16  C   UNL     1       2.834   0.444  -0.064  1.00  0.00     0.006 A 
ATOM     17  C   UNL     1       0.723  -0.691   0.281  1.00  0.00     0.087 A 
ATOM     18  C   UNL     1       2.223   1.675   0.161  1.00  0.00     0.002 A 
ATOM     19  C   UNL     1       0.154   0.549   0.571  1.00  0.00     0.057 A 
ATOM     20  N   UNL     1      -0.179  -1.752   0.252  1.00  0.00    -0.220 NA
ATOM     21  C   UNL     1       0.876   1.747   0.511  1.00  0.00     0.021 A 
ATOM     22  S   UNL     1      -1.483   0.304   1.004  1.00  0.00    -0.097 S 
ENDBRANCH  10  13
ENDBRANCH   8   9
ENDBRANCH   4   7
ENDBRANCH   2   3
ENDBRANCH   1   2
BRANCH   1  23
ATOM     23  C   UNL     1      -7.959   3.115   1.327  1.00  0.00     0.118 C 
BRANCH  23  24
ATOM     24  N   UNL     1      -8.851   3.693   0.329  1.00  0.00    -0.352 N 
ATOM     25  C   UNL     1     -10.173   4.035   0.432  1.00  0.00     0.251 C 
ATOM     26  H   UNL     1      -8.442   3.863  -0.550  1.00  0.00     0.163 HD
ATOM     27  O   UNL     1     -10.828   4.247  -0.591  1.00  0.00    -0.269 OA
BRANCH  25  28
ATOM     28  C   UNL     1     -10.810   4.151   1.758  1.00  0.00     0.039 A 
ATOM     29  C   UNL     1     -12.099   3.647   1.945  1.00  0.00     0.014 A 
ATOM     30  C   UNL     1     -10.146   4.792   2.808  1.00  0.00     0.014 A 
ATOM     31  C   UNL     1     -12.701   3.740   3.201  1.00  0.00     0.010 A 
ATOM     32  C   UNL     1     -10.714   4.814   4.076  1.00  0.00     0.010 A 
ATOM     33  C   UNL     1     -12.003   4.300   4.283  1.00  0.00    -0.014 A 
BRANCH  33  34
ATOM     34  C   UNL     1     -12.605   4.377   5.637  1.00  0.00     0.031 A 
ATOM     35  C   UNL     1     -12.867   5.718   6.269  1.00  0.00     0.074 A 
ATOM     36  C   UNL     1     -12.848   3.242   6.322  1.00  0.00     0.049 A 
ATOM     37  N   UNL     1     -13.315   5.991   7.467  1.00  0.00    -0.248 NA
ATOM     38  C   UNL     1     -12.559   6.907   5.458  1.00  0.00     0.031 C 
ATOM     39  C   UNL     1     -12.591   1.885   5.834  1.00  0.00     0.029 A 
ATOM     40  N   UNL     1     -13.357   3.050   7.582  1.00  0.00    -0.354 N 
ATOM     41  C   UNL     1     -13.321   7.378   7.561  1.00  0.00     0.074 A 
ATOM     42  C   UNL     1     -12.784   7.889   6.319  1.00  0.00     0.031 C 
ATOM     43  C   UNL     1     -12.966   1.002   6.772  1.00  0.00     0.029 A 
ATOM     44  C   UNL     1     -13.453   1.727   7.941  1.00  0.00     0.049 A 
ATOM     45  H   UNL     1     -13.627   3.790   8.172  1.00  0.00     0.167 HD
ATOM     46  C   UNL     1     -13.755   8.158   8.580  1.00  0.00     0.031 A 
ATOM     47  C   UNL     1     -13.879   1.160   9.086  1.00  0.00     0.031 A 
ATOM     48  C   UNL     1     -14.303   7.643   9.806  1.00  0.00     0.049 A 
ATOM     49  C   UNL     1     -14.366   2.045  10.200  1.00  0.00     0.074 A 
ATOM     50  C   UNL     1     -14.820   8.346  10.880  1.00  0.00     0.029 A 
ATOM     51  N   UNL     1     -14.408   6.296  10.121  1.00  0.00    -0.354 N 
ATOM     52  N   UNL     1     -14.419   3.355  10.248  1.00  0.00    -0.248 NA
ATOM     53  C   UNL     1     -14.865   1.375  11.409  1.00  0.00     0.031 C 
ATOM     54  C   UNL     1     -15.197   7.424  11.863  1.00  0.00     0.029 A 
ATOM     55  C   UNL     1     -14.966   6.146  11.379  1.00  0.00     0.049 A 
ATOM     56  H   UNL     1     -14.126   5.556   9.536  1.00  0.00     0.167 HD
ATOM     57  C   UNL     1     -14.979   3.666  11.481  1.00  0.00     0.074 A 
ATOM     58  C   UNL     1     -15.262   2.407  12.141  1.00  0.00     0.031 C 
ATOM     59  C   UNL     1     -15.237   4.884  12.019  1.00  0.00     0.031 A 
BRANCH  46  60
ATOM     60  C   UNL     1     -13.651   9.651   8.406  1.00  0.00    -0.014 A 
ATOM     61  C   UNL     1     -14.466  10.332   7.483  1.00  0.00     0.010 A 
ATOM     62  C   UNL     1     -12.749  10.388   9.194  1.00  0.00     0.010 A 
ATOM     63  C   UNL     1     -14.347  11.715   7.317  1.00  0.00     0.020 A 
ATOM     64  C   UNL     1     -12.648  11.776   9.053  1.00  0.00     0.020 A 
ATOM     65  C   UNL     1     -13.434  12.427   8.101  1.00  0.00     0.054 A 
BRANCH  65  66
ATOM     66  S   UNL     1     -13.313  14.223   7.876  1.00  0.00     0.124 S 
ATOM     67  O   UNL     1     -12.610  14.319   6.599  1.00  0.00    -0.237 OA
ATOM     68  O   UNL     1     -14.712  14.640   7.854  1.00  0.00    -0.237 OA
ATOM     69  O   UNL     1     -12.551  14.668   9.041  1.00  0.00    -0.744 OA
ENDBRANCH  65  66
ENDBRANCH  46  60
BRANCH  47  70
ATOM     70  C   UNL     1     -13.884  -0.322   9.222  1.00  0.00    -0.014 A 
ATOM     71  C   UNL     1     -15.095  -1.035   9.214  1.00  0.00     0.010 A 
ATOM     72  C   UNL     1     -12.673  -1.031   9.329  1.00  0.00     0.010 A 
ATOM     73  C   UNL     1     -15.098  -2.428   9.326  1.00  0.00     0.020 A 
ATOM     74  C   UNL     1     -12.671  -2.426   9.413  1.00  0.00     0.020 A 
ATOM     75  C   UNL     1     -13.885  -3.116   9.421  1.00  0.00     0.054 A 
BRANCH  75  76
ATOM     76  S   UNL     1     -13.910  -4.928   9.504  1.00  0.00     0.124 S 
ATOM     77  O   UNL     1     -14.367  -5.163  10.870  1.00  0.00    -0.237 OA
ATOM     78  O   UNL     1     -14.858  -5.279   8.449  1.00  0.00    -0.237 OA
ATOM     79  O   UNL     1     -12.523  -5.301   9.233  1.00  0.00    -0.744 OA
ENDBRANCH  75  76
ENDBRANCH  47  70
BRANCH  59  80
ATOM     80  C   UNL     1     -15.885   4.915  13.377  1.00  0.00    -0.014 A 
ATOM     81  C   UNL     1     -15.164   4.581  14.536  1.00  0.00     0.010 A 
ATOM     82  C   UNL     1     -17.222   5.338  13.497  1.00  0.00     0.010 A 
ATOM     83  C   UNL     1     -15.778   4.639  15.790  1.00  0.00     0.020 A 
ATOM     84  C   UNL     1     -17.831   5.424  14.751  1.00  0.00     0.020 A 
ATOM     85  C   UNL     1     -17.108   5.060  15.889  1.00  0.00     0.054 A 
BRANCH  85  86
ATOM     86  S   UNL     1     -17.870   5.168  17.531  1.00  0.00     0.124 S 
ATOM     87  O   UNL     1     -18.098   3.762  17.853  1.00  0.00    -0.237 OA
ATOM     88  O   UNL     1     -16.837   5.835  18.321  1.00  0.00    -0.237 OA
ATOM     89  O   UNL     1     -19.077   5.959  17.301  1.00  0.00    -0.744 OA
ENDBRANCH  85  86
ENDBRANCH  59  80
ENDBRANCH  33  34
ENDBRANCH  25  28
ENDBRANCH  23  24
ENDBRANCH   1  23
TORSDOF 15
