REMARK SMILES O=C(NCCCNC(=O)[C@@H]1[C@H](C(=O)Nc2ccc(Cn3cncn3)cc2)[C@@H]2C=C[C@H]1CC2)c1ccc(-c2c3nc(c(-c4ccc(S(=O)(=O)[O-])cc4)c4ccc([nH]4)c(-c4ccc(S(=O)(=O)[O-])cc4)c4nc(c(-c5ccc(S(=O)(=O)[O-])cc5)c5ccc2[nH]5)C=C4)C=C3)cc1
REMARK SMILES IDX 5 1 4 2 3 3 1 4 2 5 33 7 34 8 92 9 35 10 91 11 36 12 37 13
REMARK SMILES IDX 38 14 85 15 39 16 90 17 84 18 86 19 40 20 89 21 83 22 82 23
REMARK SMILES IDX 41 25 71 26 52 27 70 28 53 29 56 30 69 31 87 32 54 33 55 34
REMARK SMILES IDX 68 36 88 37 57 38 42 39 43 40 51 41 44 42 50 43 45 44 46 45
REMARK SMILES IDX 47 46 48 47 49 48 72 49 73 50 81 51 74 52 80 53 75 54 76 55
REMARK SMILES IDX 77 56 78 57 79 58 58 59 59 60 67 61 60 62 66 63 61 64 62 65
REMARK SMILES IDX 63 66 64 67 65 68 6 69 7 70 8 71 9 73 10 74 11 75 30 76
REMARK SMILES IDX 27 77 29 78 31 79 28 80 32 81 12 82 13 83 14 84 15 86 16 87
REMARK SMILES IDX 26 88 17 89 25 90 18 91 19 92 20 93 21 94 24 95 22 96 23 97
REMARK H PARENT 3 6 86 24 56 35 7 72 14 85
REMARK Flexibility Score: inf
ROOT
ATOM      1  C   UNL     1       6.218   0.219   1.293  1.00  0.00     0.042 C 
ENDROOT
BRANCH   1   2
ATOM      2  C   UNL     1       5.273  -0.678   0.474  1.00  0.00     0.118 C 
BRANCH   2   3
ATOM      3  N   UNL     1       3.908  -0.177   0.411  1.00  0.00    -0.352 N 
ATOM      4  O   UNL     1       2.665  -1.422  -1.026  1.00  0.00    -0.269 OA
ATOM      5  C   UNL     1       3.170  -0.339  -0.745  1.00  0.00     0.251 C 
ATOM      6  H   UNL     1       3.512   0.277   1.190  1.00  0.00     0.163 HD
BRANCH   5   7
ATOM      7  C   UNL     1       2.890   0.894  -1.528  1.00  0.00     0.039 A 
ATOM      8  C   UNL     1       3.645   2.061  -1.373  1.00  0.00     0.014 A 
ATOM      9  C   UNL     1       1.773   0.898  -2.373  1.00  0.00     0.014 A 
ATOM     10  C   UNL     1       3.249   3.236  -2.017  1.00  0.00     0.010 A 
ATOM     11  C   UNL     1       1.341   2.086  -2.962  1.00  0.00     0.010 A 
ATOM     12  C   UNL     1       2.076   3.261  -2.785  1.00  0.00    -0.014 A 
BRANCH  12  13
ATOM     13  C   UNL     1       1.841   4.406  -3.670  1.00  0.00     0.031 A 
ATOM     14  C   UNL     1       2.511   4.241  -4.986  1.00  0.00     0.074 A 
ATOM     15  C   UNL     1       1.056   5.488  -3.497  1.00  0.00     0.049 A 
ATOM     16  N   UNL     1       3.649   4.734  -5.347  1.00  0.00    -0.248 NA
ATOM     17  C   UNL     1       1.927   3.292  -5.945  1.00  0.00     0.031 C 
ATOM     18  C   UNL     1       0.050   5.747  -2.470  1.00  0.00     0.029 A 
ATOM     19  N   UNL     1       0.957   6.587  -4.311  1.00  0.00    -0.354 N 
ATOM     20  C   UNL     1       3.836   4.312  -6.657  1.00  0.00     0.074 A 
ATOM     21  C   UNL     1       2.870   3.266  -6.885  1.00  0.00     0.031 C 
ATOM     22  C   UNL     1      -0.690   6.826  -2.835  1.00  0.00     0.029 A 
ATOM     23  C   UNL     1      -0.126   7.415  -4.043  1.00  0.00     0.049 A 
ATOM     24  H   UNL     1       1.603   6.775  -5.029  1.00  0.00     0.167 HD
ATOM     25  C   UNL     1       4.596   5.012  -7.544  1.00  0.00     0.031 A 
ATOM     26  C   UNL     1      -0.539   8.475  -4.788  1.00  0.00     0.031 A 
ATOM     27  C   UNL     1       5.353   6.057  -6.903  1.00  0.00     0.049 A 
ATOM     28  C   UNL     1       0.611   8.925  -5.610  1.00  0.00     0.074 A 
ATOM     29  C   UNL     1       6.285   6.112  -5.886  1.00  0.00     0.029 A 
ATOM     30  N   UNL     1       4.893   7.343  -7.065  1.00  0.00    -0.354 N 
ATOM     31  N   UNL     1       1.668   9.505  -5.119  1.00  0.00    -0.248 NA
ATOM     32  C   UNL     1       0.758   8.404  -6.960  1.00  0.00     0.031 C 
ATOM     33  C   UNL     1       5.997   7.318  -5.183  1.00  0.00     0.029 A 
ATOM     34  C   UNL     1       4.944   7.956  -5.840  1.00  0.00     0.049 A 
ATOM     35  H   UNL     1       4.583   7.750  -7.907  1.00  0.00     0.167 HD
ATOM     36  C   UNL     1       2.718   9.045  -5.897  1.00  0.00     0.074 A 
ATOM     37  C   UNL     1       2.086   8.465  -7.078  1.00  0.00     0.031 C 
ATOM     38  C   UNL     1       3.979   8.934  -5.383  1.00  0.00     0.031 A 
BRANCH  25  39
ATOM     39  C   UNL     1       4.352   5.010  -9.032  1.00  0.00    -0.014 A 
ATOM     40  C   UNL     1       5.274   5.661  -9.875  1.00  0.00     0.010 A 
ATOM     41  C   UNL     1       3.125   4.620  -9.608  1.00  0.00     0.010 A 
ATOM     42  C   UNL     1       4.959   5.953 -11.208  1.00  0.00     0.020 A 
ATOM     43  C   UNL     1       2.821   4.857 -10.948  1.00  0.00     0.020 A 
ATOM     44  C   UNL     1       3.728   5.555 -11.731  1.00  0.00     0.054 A 
BRANCH  44  45
ATOM     45  S   UNL     1       3.292   6.013 -13.425  1.00  0.00     0.124 S 
ATOM     46  O   UNL     1       3.150   7.461 -13.315  1.00  0.00    -0.237 OA
ATOM     47  O   UNL     1       4.450   5.543 -14.180  1.00  0.00    -0.237 OA
ATOM     48  O   UNL     1       2.054   5.276 -13.670  1.00  0.00    -0.744 OA
ENDBRANCH  44  45
ENDBRANCH  25  39
BRANCH  26  49
ATOM     49  C   UNL     1      -1.906   9.005  -5.032  1.00  0.00    -0.014 A 
ATOM     50  C   UNL     1      -2.097  10.260  -5.649  1.00  0.00     0.010 A 
ATOM     51  C   UNL     1      -3.016   8.143  -4.952  1.00  0.00     0.010 A 
ATOM     52  C   UNL     1      -3.327  10.604  -6.235  1.00  0.00     0.020 A 
ATOM     53  C   UNL     1      -4.249   8.483  -5.528  1.00  0.00     0.020 A 
ATOM     54  C   UNL     1      -4.390   9.700  -6.193  1.00  0.00     0.054 A 
BRANCH  54  55
ATOM     55  S   UNL     1      -5.908  10.059  -7.130  1.00  0.00     0.124 S 
ATOM     56  O   UNL     1      -6.512  11.132  -6.346  1.00  0.00    -0.237 OA
ATOM     57  O   UNL     1      -5.391  10.446  -8.439  1.00  0.00    -0.237 OA
ATOM     58  O   UNL     1      -6.634   8.790  -7.106  1.00  0.00    -0.744 OA
ENDBRANCH  54  55
ENDBRANCH  26  49
BRANCH  38  59
ATOM     59  C   UNL     1       4.317   9.687  -4.118  1.00  0.00    -0.014 A 
ATOM     60  C   UNL     1       3.603   9.577  -2.910  1.00  0.00     0.010 A 
ATOM     61  C   UNL     1       5.487  10.470  -4.132  1.00  0.00     0.010 A 
ATOM     62  C   UNL     1       4.023  10.266  -1.762  1.00  0.00     0.020 A 
ATOM     63  C   UNL     1       5.925  11.139  -2.987  1.00  0.00     0.020 A 
ATOM     64  C   UNL     1       5.183  11.045  -1.811  1.00  0.00     0.054 A 
BRANCH  64  65
ATOM     65  S   UNL     1       5.737  11.907  -0.314  1.00  0.00     0.124 S 
ATOM     66  O   UNL     1       4.710  12.927  -0.136  1.00  0.00    -0.237 OA
ATOM     67  O   UNL     1       5.750  10.842   0.685  1.00  0.00    -0.237 OA
ATOM     68  O   UNL     1       7.061  12.418  -0.678  1.00  0.00    -0.744 OA
ENDBRANCH  64  65
ENDBRANCH  38  59
ENDBRANCH  12  13
ENDBRANCH   5   7
ENDBRANCH   2   3
ENDBRANCH   1   2
BRANCH   1  69
ATOM     69  C   UNL     1       5.751   0.446   2.730  1.00  0.00     0.117 C 
BRANCH  69  70
ATOM     70  N   UNL     1       6.566  -0.133   3.782  1.00  0.00    -0.356 N 
ATOM     71  C   UNL     1       6.509   0.082   5.128  1.00  0.00     0.224 C 
ATOM     72  H   UNL     1       7.255  -0.769   3.483  1.00  0.00     0.163 HD
ATOM     73  O   UNL     1       6.751  -0.910   5.830  1.00  0.00    -0.275 OA
BRANCH  71  74
ATOM     74  C   UNL     1       6.310   1.440   5.829  1.00  0.00     0.098 C 
ATOM     75  C   UNL     1       5.310   1.490   7.038  1.00  0.00     0.098 C 
ATOM     76  C   UNL     1       6.366   2.837   5.130  1.00  0.00     0.025 C 
ATOM     77  C   UNL     1       4.845   2.964   7.263  1.00  0.00     0.025 C 
ATOM     78  C   UNL     1       4.990   3.435   4.912  1.00  0.00    -0.027 C 
ATOM     79  C   UNL     1       6.985   3.831   6.161  1.00  0.00     0.009 C 
ATOM     80  C   UNL     1       4.211   3.503   6.006  1.00  0.00    -0.027 C 
ATOM     81  C   UNL     1       6.114   3.850   7.455  1.00  0.00     0.009 C 
BRANCH  75  82
ATOM     82  C   UNL     1       4.227   0.416   7.348  1.00  0.00     0.228 C 
ATOM     83  O   UNL     1       4.425  -0.338   8.317  1.00  0.00    -0.274 OA
ATOM     84  N   UNL     1       2.980   0.304   6.796  1.00  0.00    -0.326 N 
ATOM     85  H   UNL     1       2.356  -0.221   7.348  1.00  0.00     0.169 HD
BRANCH  84  86
ATOM     86  C   UNL     1       2.404   0.778   5.614  1.00  0.00     0.041 A 
ATOM     87  C   UNL     1       1.028   0.924   5.471  1.00  0.00     0.026 A 
ATOM     88  C   UNL     1       3.183   1.075   4.527  1.00  0.00     0.026 A 
ATOM     89  C   UNL     1       0.501   1.550   4.324  1.00  0.00     0.008 A 
ATOM     90  C   UNL     1       2.687   1.688   3.382  1.00  0.00     0.008 A 
ATOM     91  C   UNL     1       1.341   1.994   3.291  1.00  0.00    -0.026 A 
BRANCH  91  92
ATOM     92  C   UNL     1       0.892   2.848   2.133  1.00  0.00     0.181 C 
BRANCH  92  93
ATOM     93  N   UNL     1      -0.087   2.181   1.311  1.00  0.00    -0.249 N 
ATOM     94  C   UNL     1      -1.436   2.188   1.452  1.00  0.00     0.220 A 
ATOM     95  N   UNL     1       0.277   1.496   0.221  1.00  0.00    -0.160 NA
ATOM     96  N   UNL     1      -1.986   1.526   0.461  1.00  0.00    -0.224 NA
ATOM     97  C   UNL     1      -0.908   1.143  -0.281  1.00  0.00     0.246 A 
ENDBRANCH  92  93
ENDBRANCH  91  92
ENDBRANCH  84  86
ENDBRANCH  75  82
ENDBRANCH  71  74
ENDBRANCH  69  70
ENDBRANCH   1  69
TORSDOF 17
