REMARK SMILES O=C(NCCCNC(=O)c1ccccc1NC(=O)c1ccc(N2C(=O)[C@H]3CC=CC[C@H]3C2=O)cc1)c1ccc(-c2c3nc(c(-c4ccc(S(=O)(=O)[O-])cc4)c4ccc([nH]4)c(-c4ccc(S(=O)(=O)[O-])cc4)c4nc(c(-c5ccc(S(=O)(=O)[O-])cc5)c5ccc2[nH]5)C=C4)C=C3)cc1
REMARK SMILES IDX 5 1 4 2 3 3 1 4 2 5 36 7 37 8 95 9 38 10 94 11 39 12 40 13
REMARK SMILES IDX 41 14 88 15 42 16 93 17 87 18 89 19 43 20 92 21 86 22 85 23
REMARK SMILES IDX 44 25 74 26 55 27 73 28 56 29 59 30 72 31 90 32 57 33 58 34
REMARK SMILES IDX 71 36 91 37 60 38 45 39 46 40 54 41 47 42 53 43 48 44 49 45
REMARK SMILES IDX 50 46 51 47 52 48 75 49 76 50 84 51 77 52 83 53 78 54 79 55
REMARK SMILES IDX 80 56 81 57 82 58 61 59 62 60 70 61 63 62 69 63 64 64 65 65
REMARK SMILES IDX 66 66 67 67 68 68 6 69 7 70 8 71 9 73 10 74 11 75 15 76
REMARK SMILES IDX 12 77 14 78 13 79 16 80 17 81 18 83 19 84 20 85 35 86 21 87
REMARK SMILES IDX 34 88 22 89 23 90 24 91 32 92 25 93 26 94 31 95 33 96 27 97
REMARK SMILES IDX 30 98 28 99 29 100
REMARK H PARENT 3 6 89 24 59 35 7 72 16 82
REMARK Flexibility Score: inf
ROOT
ATOM      1  C   UNL     1       5.155   2.303   0.205  1.00  0.00     0.042 C 
ENDROOT
BRANCH   1   2
ATOM      2  C   UNL     1       4.685   0.958   0.732  1.00  0.00     0.118 C 
BRANCH   2   3
ATOM      3  N   UNL     1       3.240   0.790   0.650  1.00  0.00    -0.352 N 
ATOM      4  O   UNL     1       1.284   0.024  -0.167  1.00  0.00    -0.269 OA
ATOM      5  C   UNL     1       2.505  -0.096  -0.100  1.00  0.00     0.251 C 
ATOM      6  H   UNL     1       2.714   1.401   1.215  1.00  0.00     0.163 HD
BRANCH   5   7
ATOM      7  C   UNL     1       3.189  -1.177  -0.838  1.00  0.00     0.039 A 
ATOM      8  C   UNL     1       4.218  -1.902  -0.235  1.00  0.00     0.014 A 
ATOM      9  C   UNL     1       2.788  -1.479  -2.143  1.00  0.00     0.014 A 
ATOM     10  C   UNL     1       4.948  -2.816  -0.980  1.00  0.00     0.010 A 
ATOM     11  C   UNL     1       3.452  -2.480  -2.856  1.00  0.00     0.010 A 
ATOM     12  C   UNL     1       4.547  -3.144  -2.285  1.00  0.00    -0.014 A 
BRANCH  12  13
ATOM     13  C   UNL     1       5.208  -4.283  -2.966  1.00  0.00     0.031 A 
ATOM     14  C   UNL     1       6.002  -4.095  -4.226  1.00  0.00     0.074 A 
ATOM     15  C   UNL     1       5.083  -5.504  -2.406  1.00  0.00     0.049 A 
ATOM     16  N   UNL     1       6.638  -4.997  -4.930  1.00  0.00    -0.248 NA
ATOM     17  C   UNL     1       6.094  -2.733  -4.776  1.00  0.00     0.031 C 
ATOM     18  C   UNL     1       4.316  -5.799  -1.189  1.00  0.00     0.029 A 
ATOM     19  N   UNL     1       5.603  -6.719  -2.767  1.00  0.00    -0.354 N 
ATOM     20  C   UNL     1       7.181  -4.322  -6.016  1.00  0.00     0.074 A 
ATOM     21  C   UNL     1       6.797  -2.933  -5.884  1.00  0.00     0.031 C 
ATOM     22  C   UNL     1       4.450  -7.096  -0.884  1.00  0.00     0.029 A 
ATOM     23  C   UNL     1       5.245  -7.741  -1.920  1.00  0.00     0.049 A 
ATOM     24  H   UNL     1       6.176  -6.848  -3.557  1.00  0.00     0.167 HD
ATOM     25  C   UNL     1       7.929  -4.824  -7.028  1.00  0.00     0.031 A 
ATOM     26  C   UNL     1       5.495  -9.061  -1.984  1.00  0.00     0.031 A 
ATOM     27  C   UNL     1       8.314  -6.208  -7.136  1.00  0.00     0.049 A 
ATOM     28  C   UNL     1       6.302  -9.585  -3.133  1.00  0.00     0.074 A 
ATOM     29  C   UNL     1       9.128  -6.800  -8.088  1.00  0.00     0.029 A 
ATOM     30  N   UNL     1       7.905  -7.217  -6.278  1.00  0.00    -0.354 N 
ATOM     31  N   UNL     1       6.863  -8.917  -4.113  1.00  0.00    -0.248 NA
ATOM     32  C   UNL     1       6.500 -11.038  -3.194  1.00  0.00     0.031 C 
ATOM     33  C   UNL     1       9.161  -8.175  -7.840  1.00  0.00     0.029 A 
ATOM     34  C   UNL     1       8.412  -8.434  -6.703  1.00  0.00     0.049 A 
ATOM     35  H   UNL     1       7.338  -7.088  -5.483  1.00  0.00     0.167 HD
ATOM     36  C   UNL     1       7.481  -9.871  -4.909  1.00  0.00     0.074 A 
ATOM     37  C   UNL     1       7.255 -11.156  -4.277  1.00  0.00     0.031 C 
ATOM     38  C   UNL     1       8.165  -9.701  -6.067  1.00  0.00     0.031 A 
BRANCH  25  39
ATOM     39  C   UNL     1       8.370  -3.892  -8.124  1.00  0.00    -0.014 A 
ATOM     40  C   UNL     1       9.422  -2.981  -7.929  1.00  0.00     0.010 A 
ATOM     41  C   UNL     1       7.798  -4.014  -9.405  1.00  0.00     0.010 A 
ATOM     42  C   UNL     1       9.890  -2.204  -8.994  1.00  0.00     0.020 A 
ATOM     43  C   UNL     1       8.276  -3.253 -10.476  1.00  0.00     0.020 A 
ATOM     44  C   UNL     1       9.317  -2.348 -10.262  1.00  0.00     0.054 A 
BRANCH  44  45
ATOM     45  S   UNL     1       9.995  -1.380 -11.640  1.00  0.00     0.124 S 
ATOM     46  O   UNL     1       9.516  -0.036 -11.328  1.00  0.00    -0.237 OA
ATOM     47  O   UNL     1      11.434  -1.582 -11.495  1.00  0.00    -0.237 OA
ATOM     48  O   UNL     1       9.398  -1.994 -12.824  1.00  0.00    -0.744 OA
ENDBRANCH  44  45
ENDBRANCH  25  39
BRANCH  26  49
ATOM     49  C   UNL     1       4.916  -9.976  -0.965  1.00  0.00    -0.014 A 
ATOM     50  C   UNL     1       5.740 -10.650  -0.048  1.00  0.00     0.010 A 
ATOM     51  C   UNL     1       3.523 -10.173  -0.909  1.00  0.00     0.010 A 
ATOM     52  C   UNL     1       5.182 -11.528   0.886  1.00  0.00     0.020 A 
ATOM     53  C   UNL     1       2.960 -11.023   0.043  1.00  0.00     0.020 A 
ATOM     54  C   UNL     1       3.796 -11.712   0.923  1.00  0.00     0.054 A 
BRANCH  54  55
ATOM     55  S   UNL     1       3.089 -12.838   2.155  1.00  0.00     0.124 S 
ATOM     56  O   UNL     1       3.372 -14.143   1.567  1.00  0.00    -0.237 OA
ATOM     57  O   UNL     1       3.847 -12.509   3.360  1.00  0.00    -0.237 OA
ATOM     58  O   UNL     1       1.679 -12.458   2.193  1.00  0.00    -0.744 OA
ENDBRANCH  54  55
ENDBRANCH  26  49
BRANCH  38  59
ATOM     59  C   UNL     1       8.714 -10.938  -6.720  1.00  0.00    -0.014 A 
ATOM     60  C   UNL     1       7.861 -11.839  -7.381  1.00  0.00     0.010 A 
ATOM     61  C   UNL     1      10.098 -11.181  -6.706  1.00  0.00     0.010 A 
ATOM     62  C   UNL     1       8.383 -12.980  -7.995  1.00  0.00     0.020 A 
ATOM     63  C   UNL     1      10.626 -12.306  -7.342  1.00  0.00     0.020 A 
ATOM     64  C   UNL     1       9.762 -13.206  -7.972  1.00  0.00     0.054 A 
BRANCH  64  65
ATOM     65  S   UNL     1      10.420 -14.670  -8.815  1.00  0.00     0.124 S 
ATOM     66  O   UNL     1      10.050 -15.742  -7.896  1.00  0.00    -0.237 OA
ATOM     67  O   UNL     1       9.703 -14.657 -10.088  1.00  0.00    -0.237 OA
ATOM     68  O   UNL     1      11.853 -14.398  -8.912  1.00  0.00    -0.744 OA
ENDBRANCH  64  65
ENDBRANCH  38  59
ENDBRANCH  12  13
ENDBRANCH   5   7
ENDBRANCH   2   3
ENDBRANCH   1   2
BRANCH   1  69
ATOM     69  C   UNL     1       4.649   3.482   1.012  1.00  0.00     0.118 C 
BRANCH  69  70
ATOM     70  N   UNL     1       5.085   3.433   2.401  1.00  0.00    -0.352 N 
ATOM     71  C   UNL     1       5.860   4.319   3.101  1.00  0.00     0.253 C 
ATOM     72  H   UNL     1       4.778   2.648   2.911  1.00  0.00     0.163 HD
ATOM     73  O   UNL     1       6.279   4.025   4.216  1.00  0.00    -0.269 OA
BRANCH  71  74
ATOM     74  C   UNL     1       6.180   5.643   2.529  1.00  0.00     0.063 A 
ATOM     75  C   UNL     1       7.542   5.978   2.474  1.00  0.00     0.016 A 
ATOM     76  C   UNL     1       5.186   6.541   2.085  1.00  0.00     0.054 A 
ATOM     77  C   UNL     1       7.934   7.211   1.965  1.00  0.00     0.001 A 
ATOM     78  C   UNL     1       5.605   7.797   1.637  1.00  0.00     0.027 A 
ATOM     79  C   UNL     1       6.965   8.123   1.558  1.00  0.00     0.002 A 
BRANCH  76  80
ATOM     80  N   UNL     1       3.827   6.142   2.126  1.00  0.00    -0.321 N 
ATOM     81  C   UNL     1       2.708   6.543   1.434  1.00  0.00     0.255 C 
ATOM     82  H   UNL     1       3.647   5.433   2.784  1.00  0.00     0.170 HD
ATOM     83  O   UNL     1       1.613   6.045   1.685  1.00  0.00    -0.269 OA
BRANCH  81  84
ATOM     84  C   UNL     1       2.791   7.547   0.365  1.00  0.00     0.040 A 
ATOM     85  C   UNL     1       2.122   8.749   0.566  1.00  0.00     0.016 A 
ATOM     86  C   UNL     1       3.575   7.352  -0.773  1.00  0.00     0.016 A 
ATOM     87  C   UNL     1       2.364   9.818  -0.295  1.00  0.00     0.027 A 
ATOM     88  C   UNL     1       3.800   8.427  -1.641  1.00  0.00     0.027 A 
ATOM     89  C   UNL     1       3.254   9.696  -1.375  1.00  0.00     0.052 A 
BRANCH  89  90
ATOM     90  N   UNL     1       3.672  10.843  -2.109  1.00  0.00    -0.250 N 
ATOM     91  C   UNL     1       3.687  12.117  -1.588  1.00  0.00     0.238 C 
ATOM     92  C   UNL     1       4.182  10.808  -3.383  1.00  0.00     0.238 C 
ATOM     93  O   UNL     1       3.305  12.498  -0.487  1.00  0.00    -0.274 OA
ATOM     94  C   UNL     1       4.307  13.065  -2.586  1.00  0.00     0.096 C 
ATOM     95  C   UNL     1       4.715  12.170  -3.754  1.00  0.00     0.096 C 
ATOM     96  O   UNL     1       4.200   9.866  -4.165  1.00  0.00    -0.274 OA
ATOM     97  C   UNL     1       5.438  13.855  -1.919  1.00  0.00     0.041 C 
ATOM     98  C   UNL     1       6.216  12.063  -4.044  1.00  0.00     0.041 C 
ATOM     99  C   UNL     1       6.720  13.083  -1.849  1.00  0.00    -0.030 C 
ATOM    100  C   UNL     1       7.077  12.248  -2.832  1.00  0.00    -0.030 C 
ENDBRANCH  89  90
ENDBRANCH  81  84
ENDBRANCH  76  80
ENDBRANCH  71  74
ENDBRANCH  69  70
ENDBRANCH   1  69
TORSDOF 16
