REMARK SMILES CCOC(=O)C1=NN(c2ccc(Br)cc2F)[C@](C)(C(=O)NCCCNC(=O)c2ccc(-c3c4nc(c(-c5ccc(S(=O)(=O)[O-])cc5)c5ccc([nH]5)c(-c5ccc(S(=O)(=O)[O-])cc5)c5nc(c(-c6ccc(S(=O)(=O)[O-])cc6)c6ccc3[nH]6)C=C5)C=C4)cc2)C1
REMARK SMILES IDX 23 1 22 2 21 3 19 4 20 5 17 7 6 8 7 9 88 10 8 11 18 12 4 13
REMARK SMILES IDX 5 14 3 15 2 16 1 17 9 18 10 19 15 20 11 21 14 22 16 23 12 24
REMARK SMILES IDX 13 25 24 26 25 27 26 28 27 30 28 31 29 32 87 33 30 34 86 35
REMARK SMILES IDX 31 36 32 37 33 38 80 39 34 40 85 41 79 42 81 43 35 44 84 45
REMARK SMILES IDX 78 46 77 47 36 49 66 50 47 51 65 52 48 53 51 54 64 55 82 56
REMARK SMILES IDX 49 57 50 58 63 60 83 61 52 62 37 63 38 64 46 65 39 66 45 67
REMARK SMILES IDX 40 68 41 69 42 70 43 71 44 72 67 73 68 74 76 75 69 76 75 77
REMARK SMILES IDX 70 78 71 79 72 80 73 81 74 82 53 83 54 84 62 85 55 86 61 87
REMARK SMILES IDX 56 88 57 89 58 90 59 91 60 92
REMARK H PARENT 21 6 25 29 81 48 51 59
REMARK Flexibility Score: inf
ROOT
ATOM      1  C   UNL     1       4.706  -8.264   5.871  1.00  0.00     0.042 C 
ENDROOT
BRANCH   1   2
ATOM      2  C   UNL     1       3.904  -7.221   5.118  1.00  0.00     0.117 C 
BRANCH   2   3
ATOM      3  N   UNL     1       4.288  -5.848   5.368  1.00  0.00    -0.354 N 
ATOM      4  C   UNL     1       4.089  -4.730   4.607  1.00  0.00     0.248 C 
ATOM      5  O   UNL     1       4.293  -3.659   5.197  1.00  0.00    -0.272 OA
ATOM      6  H   UNL     1       4.766  -5.696   6.215  1.00  0.00     0.163 HD
BRANCH   4   7
ATOM      7  C   UNL     1       3.766  -4.764   3.087  1.00  0.00     0.145 C 
ATOM      8  C   UNL     1       2.606  -3.436   1.582  1.00  0.00     0.149 C 
ATOM      9  N   UNL     1       1.855  -4.483   1.704  1.00  0.00    -0.169 NA
ATOM     10  C   UNL     1       3.727  -3.303   2.552  1.00  0.00     0.106 C 
ATOM     11  N   UNL     1       2.385  -5.200   2.739  1.00  0.00    -0.246 N 
ATOM     12  C   UNL     1       4.851  -5.508   2.295  1.00  0.00     0.048 C 
BRANCH   8  13
ATOM     13  C   UNL     1       2.378  -2.382   0.539  1.00  0.00     0.354 C 
ATOM     14  O   UNL     1       3.291  -1.938  -0.135  1.00  0.00    -0.245 OA
BRANCH  13  15
ATOM     15  O   UNL     1       1.075  -2.051   0.508  1.00  0.00    -0.461 OA
BRANCH  15  16
ATOM     16  C   UNL     1       0.684  -1.150  -0.532  1.00  0.00     0.230 C 
ATOM     17  C   UNL     1       0.943   0.285  -0.119  1.00  0.00     0.049 C 
ENDBRANCH  15  16
ENDBRANCH  13  15
ENDBRANCH   8  13
BRANCH  11  18
ATOM     18  C   UNL     1       1.771  -6.409   3.010  1.00  0.00     0.096 A 
ATOM     19  C   UNL     1       2.047  -7.556   2.252  1.00  0.00     0.032 A 
ATOM     20  C   UNL     1       0.843  -6.526   4.059  1.00  0.00     0.149 A 
ATOM     21  C   UNL     1       1.490  -8.793   2.596  1.00  0.00     0.018 A 
ATOM     22  C   UNL     1       0.276  -7.751   4.408  1.00  0.00     0.057 A 
ATOM     23  F   UNL     1       0.551  -5.454   4.814  1.00  0.00    -0.205 F 
ATOM     24  C   UNL     1       0.622  -8.886   3.683  1.00  0.00     0.021 A 
ATOM     25  Br  UNL     1      -0.062 -10.571   4.197  1.00  0.00    -0.051 Br
ENDBRANCH  11  18
ENDBRANCH   4   7
ENDBRANCH   2   3
ENDBRANCH   1   2
BRANCH   1  26
ATOM     26  C   UNL     1       4.444  -8.248   7.371  1.00  0.00     0.118 C 
BRANCH  26  27
ATOM     27  N   UNL     1       3.058  -8.554   7.727  1.00  0.00    -0.352 N 
ATOM     28  C   UNL     1       2.420  -9.734   8.035  1.00  0.00     0.251 C 
ATOM     29  H   UNL     1       2.470  -7.765   7.750  1.00  0.00     0.163 HD
ATOM     30  O   UNL     1       1.195  -9.742   8.135  1.00  0.00    -0.269 OA
BRANCH  28  31
ATOM     31  C   UNL     1       3.180 -10.992   8.207  1.00  0.00     0.039 A 
ATOM     32  C   UNL     1       2.646 -12.197   7.736  1.00  0.00     0.014 A 
ATOM     33  C   UNL     1       4.418 -10.996   8.842  1.00  0.00     0.014 A 
ATOM     34  C   UNL     1       3.408 -13.371   7.797  1.00  0.00     0.010 A 
ATOM     35  C   UNL     1       5.222 -12.126   8.782  1.00  0.00     0.010 A 
ATOM     36  C   UNL     1       4.731 -13.331   8.258  1.00  0.00    -0.014 A 
BRANCH  36  37
ATOM     37  C   UNL     1       5.651 -14.503   8.233  1.00  0.00     0.031 A 
ATOM     38  C   UNL     1       6.362 -14.903   9.501  1.00  0.00     0.074 A 
ATOM     39  C   UNL     1       5.975 -15.097   7.067  1.00  0.00     0.049 A 
ATOM     40  N   UNL     1       7.433 -15.638   9.655  1.00  0.00    -0.248 NA
ATOM     41  C   UNL     1       5.834 -14.342  10.757  1.00  0.00     0.031 C 
ATOM     42  C   UNL     1       5.389 -14.796   5.758  1.00  0.00     0.029 A 
ATOM     43  N   UNL     1       6.911 -16.065   6.792  1.00  0.00    -0.354 N 
ATOM     44  C   UNL     1       7.751 -15.560  11.007  1.00  0.00     0.074 A 
ATOM     45  C   UNL     1       6.776 -14.687  11.622  1.00  0.00     0.031 C 
ATOM     46  C   UNL     1       5.964 -15.574   4.826  1.00  0.00     0.029 A 
ATOM     47  C   UNL     1       7.002 -16.382   5.456  1.00  0.00     0.049 A 
ATOM     48  H   UNL     1       7.464 -16.491   7.486  1.00  0.00     0.167 HD
ATOM     49  C   UNL     1       8.758 -16.168  11.677  1.00  0.00     0.031 A 
ATOM     50  C   UNL     1       7.843 -17.209   4.805  1.00  0.00     0.031 A 
ATOM     51  C   UNL     1       9.672 -17.099  11.075  1.00  0.00     0.049 A 
ATOM     52  C   UNL     1       8.907 -17.935   5.581  1.00  0.00     0.074 A 
ATOM     53  C   UNL     1      10.682 -17.827  11.678  1.00  0.00     0.029 A 
ATOM     54  N   UNL     1       9.662 -17.458   9.736  1.00  0.00    -0.354 N 
ATOM     55  N   UNL     1       9.194 -17.850   6.858  1.00  0.00    -0.248 NA
ATOM     56  C   UNL     1       9.760 -18.868   4.831  1.00  0.00     0.031 C 
ATOM     57  C   UNL     1      11.293 -18.617  10.699  1.00  0.00     0.029 A 
ATOM     58  C   UNL     1      10.639 -18.405   9.495  1.00  0.00     0.049 A 
ATOM     59  H   UNL     1       9.049 -17.092   9.057  1.00  0.00     0.167 HD
ATOM     60  C   UNL     1      10.238 -18.743   7.071  1.00  0.00     0.074 A 
ATOM     61  C   UNL     1      10.533 -19.358   5.793  1.00  0.00     0.031 C 
ATOM     62  C   UNL     1      10.892 -19.028   8.222  1.00  0.00     0.031 A 
BRANCH  49  63
ATOM     63  C   UNL     1       8.919 -15.843  13.138  1.00  0.00    -0.014 A 
ATOM     64  C   UNL     1       7.985 -16.290  14.090  1.00  0.00     0.010 A 
ATOM     65  C   UNL     1      10.029 -15.094  13.568  1.00  0.00     0.010 A 
ATOM     66  C   UNL     1       8.127 -15.943  15.436  1.00  0.00     0.020 A 
ATOM     67  C   UNL     1      10.191 -14.771  14.918  1.00  0.00     0.020 A 
ATOM     68  C   UNL     1       9.224 -15.178  15.840  1.00  0.00     0.054 A 
BRANCH  68  69
ATOM     69  S   UNL     1       9.388 -14.743  17.594  1.00  0.00     0.124 S 
ATOM     70  O   UNL     1       8.429 -13.648  17.720  1.00  0.00    -0.237 OA
ATOM     71  O   UNL     1       9.017 -15.983  18.271  1.00  0.00    -0.237 OA
ATOM     72  O   UNL     1      10.791 -14.361  17.725  1.00  0.00    -0.744 OA
ENDBRANCH  68  69
ENDBRANCH  49  63
BRANCH  50  73
ATOM     73  C   UNL     1       7.703 -17.407   3.337  1.00  0.00    -0.014 A 
ATOM     74  C   UNL     1       7.156 -18.603   2.839  1.00  0.00     0.010 A 
ATOM     75  C   UNL     1       8.091 -16.403   2.433  1.00  0.00     0.010 A 
ATOM     76  C   UNL     1       7.016 -18.799   1.463  1.00  0.00     0.020 A 
ATOM     77  C   UNL     1       7.931 -16.586   1.056  1.00  0.00     0.020 A 
ATOM     78  C   UNL     1       7.404 -17.789   0.579  1.00  0.00     0.054 A 
BRANCH  78  79
ATOM     79  S   UNL     1       7.164 -18.041  -1.202  1.00  0.00     0.124 S 
ATOM     80  O   UNL     1       8.274 -18.929  -1.534  1.00  0.00    -0.237 OA
ATOM     81  O   UNL     1       5.833 -18.642  -1.261  1.00  0.00    -0.237 OA
ATOM     82  O   UNL     1       7.253 -16.690  -1.751  1.00  0.00    -0.744 OA
ENDBRANCH  78  79
ENDBRANCH  50  73
BRANCH  62  83
ATOM     83  C   UNL     1      11.949 -20.094   8.181  1.00  0.00    -0.014 A 
ATOM     84  C   UNL     1      13.235 -19.824   7.684  1.00  0.00     0.010 A 
ATOM     85  C   UNL     1      11.679 -21.349   8.756  1.00  0.00     0.010 A 
ATOM     86  C   UNL     1      14.236 -20.795   7.763  1.00  0.00     0.020 A 
ATOM     87  C   UNL     1      12.683 -22.315   8.853  1.00  0.00     0.020 A 
ATOM     88  C   UNL     1      13.955 -22.032   8.353  1.00  0.00     0.054 A 
BRANCH  88  89
ATOM     89  S   UNL     1      15.297 -23.240   8.533  1.00  0.00     0.124 S 
ATOM     90  O   UNL     1      15.418 -23.765   7.176  1.00  0.00    -0.237 OA
ATOM     91  O   UNL     1      16.413 -22.416   8.991  1.00  0.00    -0.237 OA
ATOM     92  O   UNL     1      14.781 -24.183   9.523  1.00  0.00    -0.744 OA
ENDBRANCH  88  89
ENDBRANCH  62  83
ENDBRANCH  36  37
ENDBRANCH  28  31
ENDBRANCH  26  27
ENDBRANCH   1  26
TORSDOF 17
