REMARK SMILES CC(=O)O[C@@H]1[C@H](O)C(C)=C(CC[C@@H](C)CC(=O)NCCCNC(=O)c2ccc(-c3c4nc(c(-c5ccc(S(=O)(=O)[O-])cc5)c5ccc([nH]5)c(-c5ccc(S(=O)(=O)[O-])cc5)c5nc(c(-c6ccc(S(=O)(=O)[O-])cc6)c6ccc3[nH]6)C=C5)C=C4)cc2)[C@@]2(C)CCCC(C)(C)[C@H]12
REMARK SMILES IDX 16 1 17 2 18 3 15 5 13 6 14 7 12 8 11 9 10 10 5 11 6 12
REMARK SMILES IDX 93 13 8 14 85 15 90 16 9 17 87 18 86 19 89 20 91 21 92 22
REMARK SMILES IDX 88 23 4 24 2 25 1 26 3 27 7 28 19 30 20 31 21 32 22 33 23 34
REMARK SMILES IDX 24 36 25 37 26 38 84 39 27 40 83 41 28 42 29 43 30 44 77 45
REMARK SMILES IDX 31 46 82 47 76 48 78 49 32 50 81 51 75 52 74 53 33 55 63 56
REMARK SMILES IDX 44 57 62 58 45 59 48 60 61 61 79 62 46 63 47 64 60 66 80 67
REMARK SMILES IDX 49 68 34 69 35 70 43 71 36 72 42 73 37 74 38 75 39 76 40 77
REMARK SMILES IDX 41 78 64 79 65 80 73 81 66 82 72 83 67 84 68 85 69 86 70 87
REMARK SMILES IDX 71 88 50 89 51 90 59 91 52 92 58 93 53 94 54 95 55 96 56 97
REMARK SMILES IDX 57 98
REMARK H PARENT 18 4 7 29 22 35 78 54 48 65
REMARK Flexibility Score: inf
ROOT
ATOM      1  C   UNL     1       2.766   7.567   2.627  1.00  0.00     0.220 C 
ATOM      2  O   UNL     1       3.158   8.593   2.061  1.00  0.00    -0.275 OA
ATOM      3  N   UNL     1       3.694   6.592   2.860  1.00  0.00    -0.356 N 
ATOM      4  H   UNL     1       4.596   6.819   2.537  1.00  0.00     0.163 HD
ENDROOT
BRANCH   1   5
ATOM      5  C   UNL     1       1.299   7.428   3.026  1.00  0.00     0.103 C 
BRANCH   5   6
ATOM      6  C   UNL     1       0.350   6.987   1.880  1.00  0.00    -0.005 C 
ATOM      7  C   UNL     1      -1.102   7.338   2.217  1.00  0.00     0.008 C 
BRANCH   6   8
ATOM      8  C   UNL     1       0.475   5.478   1.654  1.00  0.00     0.008 C 
BRANCH   8   9
ATOM      9  C   UNL     1      -0.133   4.861   0.390  1.00  0.00     0.032 C 
BRANCH   9  10
ATOM     10  C   UNL     1       0.161   5.242  -1.080  1.00  0.00    -0.062 C 
ATOM     11  C   UNL     1       1.616   3.072  -2.086  1.00  0.00     0.213 C 
ATOM     12  C   UNL     1       0.064   3.003  -1.911  1.00  0.00     0.181 C 
ATOM     13  C   UNL     1       2.350   4.524  -2.005  1.00  0.00     0.049 C 
ATOM     14  C   UNL     1      -0.430   4.427  -2.029  1.00  0.00    -0.042 C 
ATOM     15  C   UNL     1       1.537   5.828  -1.551  1.00  0.00    -0.004 C 
ATOM     16  C   UNL     1       3.758   4.855  -2.679  1.00  0.00    -0.028 C 
ATOM     17  C   UNL     1      -0.619   4.732  -3.514  1.00  0.00     0.042 C 
ATOM     18  C   UNL     1       2.531   6.572  -0.567  1.00  0.00     0.011 C 
ATOM     19  C   UNL     1       1.110   6.991  -2.506  1.00  0.00     0.016 C 
ATOM     20  C   UNL     1       4.644   5.239  -1.475  1.00  0.00     0.007 C 
ATOM     21  C   UNL     1       3.785   6.045  -3.659  1.00  0.00     0.011 C 
ATOM     22  C   UNL     1       4.466   3.730  -3.444  1.00  0.00     0.011 C 
ATOM     23  C   UNL     1       4.074   6.426  -0.699  1.00  0.00     0.001 C 
BRANCH  11  24
ATOM     24  O   UNL     1       2.039   2.260  -3.184  1.00  0.00    -0.459 OA
BRANCH  24  25
ATOM     25  C   UNL     1       2.800   1.155  -3.001  1.00  0.00     0.303 C 
ATOM     26  C   UNL     1       3.511   0.979  -1.688  1.00  0.00     0.139 C 
ATOM     27  O   UNL     1       2.923   0.332  -3.909  1.00  0.00    -0.253 OA
ENDBRANCH  24  25
ENDBRANCH  11  24
BRANCH  12  28
ATOM     28  O   UNL     1      -0.598   2.115  -2.800  1.00  0.00    -0.385 OA
ATOM     29  H   UNL     1      -0.453   2.406  -3.714  1.00  0.00     0.211 HD
ENDBRANCH  12  28
ENDBRANCH   9  10
ENDBRANCH   8   9
ENDBRANCH   6   8
ENDBRANCH   5   6
ENDBRANCH   1   5
BRANCH   3  30
ATOM     30  C   UNL     1       3.612   5.280   3.493  1.00  0.00     0.117 C 
BRANCH  30  31
ATOM     31  C   UNL     1       3.904   4.101   2.542  1.00  0.00     0.042 C 
BRANCH  31  32
ATOM     32  C   UNL     1       5.349   3.943   2.043  1.00  0.00     0.118 C 
BRANCH  32  33
ATOM     33  N   UNL     1       6.131   3.026   2.849  1.00  0.00    -0.352 N 
ATOM     34  C   UNL     1       6.631   1.768   2.595  1.00  0.00     0.251 C 
ATOM     35  H   UNL     1       6.346   3.366   3.748  1.00  0.00     0.163 HD
ATOM     36  O   UNL     1       7.076   1.142   3.559  1.00  0.00    -0.269 OA
BRANCH  34  37
ATOM     37  C   UNL     1       6.659   1.113   1.249  1.00  0.00     0.039 A 
ATOM     38  C   UNL     1       6.513  -0.281   1.211  1.00  0.00     0.014 A 
ATOM     39  C   UNL     1       6.970   1.767   0.054  1.00  0.00     0.014 A 
ATOM     40  C   UNL     1       6.666  -1.003   0.013  1.00  0.00     0.010 A 
ATOM     41  C   UNL     1       7.060   1.043  -1.161  1.00  0.00     0.010 A 
ATOM     42  C   UNL     1       6.919  -0.360  -1.210  1.00  0.00    -0.014 A 
BRANCH  42  43
ATOM     43  C   UNL     1       6.992  -1.163  -2.493  1.00  0.00     0.031 A 
ATOM     44  C   UNL     1       8.200  -1.105  -3.413  1.00  0.00     0.074 A 
ATOM     45  C   UNL     1       5.969  -1.969  -2.871  1.00  0.00     0.049 A 
ATOM     46  N   UNL     1       8.447  -1.806  -4.497  1.00  0.00    -0.248 NA
ATOM     47  C   UNL     1       9.258  -0.139  -3.087  1.00  0.00     0.031 C 
ATOM     48  C   UNL     1       4.704  -2.138  -2.152  1.00  0.00     0.029 A 
ATOM     49  N   UNL     1       5.819  -2.795  -3.967  1.00  0.00    -0.354 N 
ATOM     50  C   UNL     1       9.683  -1.375  -4.971  1.00  0.00     0.074 A 
ATOM     51  C   UNL     1      10.098  -0.295  -4.101  1.00  0.00     0.031 C 
ATOM     52  C   UNL     1       3.908  -2.981  -2.826  1.00  0.00     0.029 A 
ATOM     53  C   UNL     1       4.604  -3.445  -4.020  1.00  0.00     0.049 A 
ATOM     54  H   UNL     1       6.519  -2.911  -4.650  1.00  0.00     0.167 HD
ATOM     55  C   UNL     1      10.433  -1.847  -6.001  1.00  0.00     0.031 A 
ATOM     56  C   UNL     1       4.091  -4.333  -4.897  1.00  0.00     0.031 A 
ATOM     57  C   UNL     1      10.050  -2.924  -6.882  1.00  0.00     0.049 A 
ATOM     58  C   UNL     1       4.934  -4.841  -6.035  1.00  0.00     0.074 A 
ATOM     59  C   UNL     1      10.795  -3.515  -7.891  1.00  0.00     0.029 A 
ATOM     60  N   UNL     1       8.820  -3.562  -6.876  1.00  0.00    -0.354 N 
ATOM     61  N   UNL     1       6.156  -4.510  -6.369  1.00  0.00    -0.248 NA
ATOM     62  C   UNL     1       4.340  -5.886  -6.883  1.00  0.00     0.031 C 
ATOM     63  C   UNL     1       9.997  -4.470  -8.532  1.00  0.00     0.029 A 
ATOM     64  C   UNL     1       8.778  -4.522  -7.879  1.00  0.00     0.049 A 
ATOM     65  H   UNL     1       8.085  -3.364  -6.253  1.00  0.00     0.167 HD
ATOM     66  C   UNL     1       6.492  -5.337  -7.437  1.00  0.00     0.074 A 
ATOM     67  C   UNL     1       5.353  -6.195  -7.680  1.00  0.00     0.031 C 
ATOM     68  C   UNL     1       7.651  -5.381  -8.142  1.00  0.00     0.031 A 
BRANCH  55  69
ATOM     69  C   UNL     1      11.785  -1.210  -6.224  1.00  0.00    -0.014 A 
ATOM     70  C   UNL     1      12.827  -1.384  -5.293  1.00  0.00     0.010 A 
ATOM     71  C   UNL     1      12.040  -0.480  -7.400  1.00  0.00     0.010 A 
ATOM     72  C   UNL     1      14.075  -0.793  -5.504  1.00  0.00     0.020 A 
ATOM     73  C   UNL     1      13.299   0.085  -7.632  1.00  0.00     0.020 A 
ATOM     74  C   UNL     1      14.302  -0.058  -6.671  1.00  0.00     0.054 A 
BRANCH  74  75
ATOM     75  S   UNL     1      15.936   0.690  -6.919  1.00  0.00     0.124 S 
ATOM     76  O   UNL     1      15.922   1.773  -5.939  1.00  0.00    -0.237 OA
ATOM     77  O   UNL     1      16.843  -0.415  -6.619  1.00  0.00    -0.237 OA
ATOM     78  O   UNL     1      15.917   1.114  -8.316  1.00  0.00    -0.744 OA
ENDBRANCH  74  75
ENDBRANCH  55  69
BRANCH  56  79
ATOM     79  C   UNL     1       2.713  -4.872  -4.695  1.00  0.00    -0.014 A 
ATOM     80  C   UNL     1       2.520  -6.201  -4.275  1.00  0.00     0.010 A 
ATOM     81  C   UNL     1       1.588  -4.062  -4.935  1.00  0.00     0.010 A 
ATOM     82  C   UNL     1       1.230  -6.719  -4.126  1.00  0.00     0.020 A 
ATOM     83  C   UNL     1       0.295  -4.569  -4.759  1.00  0.00     0.020 A 
ATOM     84  C   UNL     1       0.125  -5.899  -4.367  1.00  0.00     0.054 A 
BRANCH  84  85
ATOM     85  S   UNL     1      -1.538  -6.583  -4.117  1.00  0.00     0.124 S 
ATOM     86  O   UNL     1      -1.669  -7.494  -5.249  1.00  0.00    -0.237 OA
ATOM     87  O   UNL     1      -1.423  -7.216  -2.805  1.00  0.00    -0.237 OA
ATOM     88  O   UNL     1      -2.403  -5.405  -4.156  1.00  0.00    -0.744 OA
ENDBRANCH  84  85
ENDBRANCH  56  79
BRANCH  68  89
ATOM     89  C   UNL     1       7.770  -6.429  -9.222  1.00  0.00    -0.014 A 
ATOM     90  C   UNL     1       6.987  -6.381 -10.390  1.00  0.00     0.010 A 
ATOM     91  C   UNL     1       8.689  -7.484  -9.065  1.00  0.00     0.010 A 
ATOM     92  C   UNL     1       7.074  -7.399 -11.347  1.00  0.00     0.020 A 
ATOM     93  C   UNL     1       8.805  -8.485 -10.035  1.00  0.00     0.020 A 
ATOM     94  C   UNL     1       7.978  -8.449 -11.159  1.00  0.00     0.054 A 
BRANCH  94  95
ATOM     95  S   UNL     1       8.070  -9.761 -12.409  1.00  0.00     0.124 S 
ATOM     96  O   UNL     1       6.837 -10.504 -12.164  1.00  0.00    -0.237 OA
ATOM     97  O   UNL     1       8.112  -9.009 -13.661  1.00  0.00    -0.237 OA
ATOM     98  O   UNL     1       9.302 -10.472 -12.076  1.00  0.00    -0.744 OA
ENDBRANCH  94  95
ENDBRANCH  68  89
ENDBRANCH  42  43
ENDBRANCH  34  37
ENDBRANCH  32  33
ENDBRANCH  31  32
ENDBRANCH  30  31
ENDBRANCH   3  30
TORSDOF 20
