REMARK SMILES CC1(C)CC[NH+](CC[C@H]2CCC[C@]2([NH3+])C(=O)NCCCNC(=O)c2ccc(-c3c4nc(c(-c5ccc(S(=O)(=O)[O-])cc5)c5ccc([nH]5)c(-c5ccc(S(=O)(=O)[O-])cc5)c5nc(c(-c6ccc(S(=O)(=O)[O-])cc6)c6ccc3[nH]6)C=C5)C=C4)cc2)CC1
REMARK SMILES IDX 19 1 18 2 17 3 15 4 16 5 13 7 9 8 10 9 11 10 12 11 8 12 7 13
REMARK SMILES IDX 6 14 1 15 2 16 3 17 4 18 85 19 5 20 84 21 14 23 20 27 21 28
REMARK SMILES IDX 22 29 23 31 24 32 25 33 83 34 26 35 82 36 27 37 28 38 29 39
REMARK SMILES IDX 76 40 30 41 81 42 75 43 77 44 31 45 80 46 74 47 73 48 32 50
REMARK SMILES IDX 62 51 43 52 61 53 44 54 47 55 60 56 78 57 45 58 46 59 59 61
REMARK SMILES IDX 79 62 48 63 33 64 34 65 42 66 35 67 41 68 36 69 37 70 38 71
REMARK SMILES IDX 39 72 40 73 63 74 64 75 72 76 65 77 71 78 66 79 67 80 68 81
REMARK SMILES IDX 69 82 70 83 49 84 50 85 58 86 51 87 57 88 52 89 53 90 54 91
REMARK SMILES IDX 55 92 56 93
REMARK H PARENT 17 6 6 22 14 24 14 25 14 26 21 30 77 49 47 60
REMARK Flexibility Score: inf
ROOT
ATOM      1  C   UNL     1      -4.094   5.368  -1.607  1.00  0.00     0.042 C 
ENDROOT
BRANCH   1   2
ATOM      2  C   UNL     1      -3.956   5.394  -0.074  1.00  0.00     0.118 C 
BRANCH   2   3
ATOM      3  N   UNL     1      -4.306   4.163   0.624  1.00  0.00    -0.351 N 
ATOM      4  C   UNL     1      -3.823   3.658   1.811  1.00  0.00     0.281 C 
ATOM      5  O   UNL     1      -4.664   3.087   2.519  1.00  0.00    -0.268 OA
ATOM      6  H   UNL     1      -4.989   3.609   0.180  1.00  0.00     0.163 HD
BRANCH   4   7
ATOM      7  C   UNL     1      -2.284   3.652   2.223  1.00  0.00     0.177 C 
ATOM      8  C   UNL     1      -1.552   2.515   1.444  1.00  0.00     0.066 C 
ATOM      9  C   UNL     1      -1.809   1.239   2.261  1.00  0.00     0.011 C 
ATOM     10  C   UNL     1      -2.184   1.676   3.668  1.00  0.00     0.008 C 
ATOM     11  C   UNL     1      -2.093   3.197   3.684  1.00  0.00     0.079 C 
BRANCH   8  12
ATOM     12  C   UNL     1      -0.041   2.747   1.123  1.00  0.00     0.072 C 
BRANCH  12  13
ATOM     13  C   UNL     1       0.743   1.686   0.282  1.00  0.00     0.262 C 
BRANCH  13  14
ATOM     14  N   UNL     1       0.400   1.301  -1.090  1.00  0.00    -0.335 N 
ATOM     15  C   UNL     1      -0.904   4.975  -2.593  1.00  0.00     0.011 C 
ATOM     16  C   UNL     1      -0.756   3.443  -2.841  1.00  0.00    -0.025 C 
ATOM     17  C   UNL     1      -1.462   3.083  -4.160  1.00  0.00     0.011 C 
ATOM     18  C   UNL     1      -1.498   2.677  -1.741  1.00  0.00     0.068 C 
ATOM     19  C   UNL     1       0.762   3.114  -2.842  1.00  0.00     0.068 C 
ATOM     20  C   UNL     1      -0.993   1.265  -1.468  1.00  0.00     0.262 C 
ATOM     21  C   UNL     1       1.212   1.793  -2.200  1.00  0.00     0.262 C 
ATOM     22  H   UNL     1       0.694   0.335  -0.946  1.00  0.00     0.348 HD
ENDBRANCH  13  14
ENDBRANCH  12  13
ENDBRANCH   8  12
BRANCH   7  23
ATOM     23  N   UNL     1      -1.729   5.010   2.086  1.00  0.00    -0.345 N 
ATOM     24  H   UNL     1      -0.744   5.003   2.350  1.00  0.00     0.345 HD
ATOM     25  H   UNL     1      -2.240   5.650   2.694  1.00  0.00     0.345 HD
ATOM     26  H   UNL     1      -1.819   5.318   1.117  1.00  0.00     0.345 HD
ENDBRANCH   7  23
ENDBRANCH   4   7
ENDBRANCH   2   3
ENDBRANCH   1   2
BRANCH   1  27
ATOM     27  C   UNL     1      -5.490   5.229  -2.218  1.00  0.00     0.118 C 
BRANCH  27  28
ATOM     28  N   UNL     1      -5.744   6.302  -3.180  1.00  0.00    -0.352 N 
ATOM     29  C   UNL     1      -5.510   6.449  -4.527  1.00  0.00     0.251 C 
ATOM     30  H   UNL     1      -6.175   7.088  -2.775  1.00  0.00     0.163 HD
ATOM     31  O   UNL     1      -5.473   7.605  -4.957  1.00  0.00    -0.269 OA
BRANCH  29  32
ATOM     32  C   UNL     1      -5.345   5.328  -5.497  1.00  0.00     0.039 A 
ATOM     33  C   UNL     1      -4.680   5.599  -6.708  1.00  0.00     0.014 A 
ATOM     34  C   UNL     1      -5.972   4.090  -5.355  1.00  0.00     0.014 A 
ATOM     35  C   UNL     1      -4.653   4.661  -7.753  1.00  0.00     0.010 A 
ATOM     36  C   UNL     1      -5.899   3.130  -6.380  1.00  0.00     0.010 A 
ATOM     37  C   UNL     1      -5.265   3.409  -7.603  1.00  0.00    -0.014 A 
BRANCH  37  38
ATOM     38  C   UNL     1      -5.302   2.412  -8.718  1.00  0.00     0.031 A 
ATOM     39  C   UNL     1      -6.621   2.002  -9.335  1.00  0.00     0.074 A 
ATOM     40  C   UNL     1      -4.168   1.832  -9.163  1.00  0.00     0.049 A 
ATOM     41  N   UNL     1      -6.871   1.067 -10.219  1.00  0.00    -0.248 NA
ATOM     42  C   UNL     1      -7.817   2.731  -8.884  1.00  0.00     0.031 C 
ATOM     43  C   UNL     1      -2.819   2.130  -8.681  1.00  0.00     0.029 A 
ATOM     44  N   UNL     1      -3.971   0.855 -10.112  1.00  0.00    -0.354 N 
ATOM     45  C   UNL     1      -8.251   1.073 -10.405  1.00  0.00     0.074 A 
ATOM     46  C   UNL     1      -8.786   2.087  -9.520  1.00  0.00     0.031 C 
ATOM     47  C   UNL     1      -1.937   1.358  -9.338  1.00  0.00     0.029 A 
ATOM     48  C   UNL     1      -2.656   0.475 -10.253  1.00  0.00     0.049 A 
ATOM     49  H   UNL     1      -4.704   0.464 -10.642  1.00  0.00     0.167 HD
ATOM     50  C   UNL     1      -9.007   0.313 -11.237  1.00  0.00     0.031 A 
ATOM     51  C   UNL     1      -2.088  -0.487 -11.010  1.00  0.00     0.031 A 
ATOM     52  C   UNL     1      -8.480  -0.684 -12.134  1.00  0.00     0.049 A 
ATOM     53  C   UNL     1      -2.948  -1.341 -11.904  1.00  0.00     0.074 A 
ATOM     54  C   UNL     1      -9.168  -1.472 -13.042  1.00  0.00     0.029 A 
ATOM     55  N   UNL     1      -7.142  -1.028 -12.244  1.00  0.00    -0.354 N 
ATOM     56  N   UNL     1      -4.247  -1.303 -12.079  1.00  0.00    -0.248 NA
ATOM     57  C   UNL     1      -2.263  -2.363 -12.711  1.00  0.00     0.031 C 
ATOM     58  C   UNL     1      -8.253  -2.328 -13.664  1.00  0.00     0.029 A 
ATOM     59  C   UNL     1      -6.987  -2.030 -13.188  1.00  0.00     0.049 A 
ATOM     60  H   UNL     1      -6.410  -0.621 -11.726  1.00  0.00     0.167 HD
ATOM     61  C   UNL     1      -4.529  -2.270 -13.040  1.00  0.00     0.074 A 
ATOM     62  C   UNL     1      -3.267  -2.873 -13.413  1.00  0.00     0.031 C 
ATOM     63  C   UNL     1      -5.727  -2.619 -13.567  1.00  0.00     0.031 A 
BRANCH  50  64
ATOM     64  C   UNL     1     -10.503   0.512 -11.206  1.00  0.00    -0.014 A 
ATOM     65  C   UNL     1     -11.096   1.680 -11.717  1.00  0.00     0.010 A 
ATOM     66  C   UNL     1     -11.332  -0.509 -10.704  1.00  0.00     0.010 A 
ATOM     67  C   UNL     1     -12.484   1.843 -11.684  1.00  0.00     0.020 A 
ATOM     68  C   UNL     1     -12.723  -0.363 -10.696  1.00  0.00     0.020 A 
ATOM     69  C   UNL     1     -13.289   0.823 -11.168  1.00  0.00     0.054 A 
BRANCH  69  70
ATOM     70  S   UNL     1     -15.088   1.057 -11.146  1.00  0.00     0.124 S 
ATOM     71  O   UNL     1     -15.251   2.032 -10.070  1.00  0.00    -0.237 OA
ATOM     72  O   UNL     1     -15.363   1.558 -12.492  1.00  0.00    -0.237 OA
ATOM     73  O   UNL     1     -15.610  -0.276 -10.862  1.00  0.00    -0.744 OA
ENDBRANCH  69  70
ENDBRANCH  50  64
BRANCH  51  74
ATOM     74  C   UNL     1      -0.614  -0.700 -10.953  1.00  0.00    -0.014 A 
ATOM     75  C   UNL     1       0.201  -0.356 -12.046  1.00  0.00     0.010 A 
ATOM     76  C   UNL     1      -0.015  -1.240  -9.799  1.00  0.00     0.010 A 
ATOM     77  C   UNL     1       1.583  -0.560 -11.993  1.00  0.00     0.020 A 
ATOM     78  C   UNL     1       1.370  -1.418  -9.731  1.00  0.00     0.020 A 
ATOM     79  C   UNL     1       2.160  -1.086 -10.833  1.00  0.00     0.054 A 
BRANCH  79  80
ATOM     80  S   UNL     1       3.962  -1.284 -10.764  1.00  0.00     0.124 S 
ATOM     81  O   UNL     1       4.175  -2.438 -11.631  1.00  0.00    -0.237 OA
ATOM     82  O   UNL     1       4.440  -0.004 -11.284  1.00  0.00    -0.237 OA
ATOM     83  O   UNL     1       4.227  -1.508  -9.345  1.00  0.00    -0.744 OA
ENDBRANCH  79  80
ENDBRANCH  51  74
BRANCH  63  84
ATOM     84  C   UNL     1      -5.743  -3.667 -14.650  1.00  0.00    -0.014 A 
ATOM     85  C   UNL     1      -5.528  -5.026 -14.362  1.00  0.00     0.010 A 
ATOM     86  C   UNL     1      -6.055  -3.289 -15.970  1.00  0.00     0.010 A 
ATOM     87  C   UNL     1      -5.605  -5.985 -15.377  1.00  0.00     0.020 A 
ATOM     88  C   UNL     1      -6.158  -4.248 -16.982  1.00  0.00     0.020 A 
ATOM     89  C   UNL     1      -5.923  -5.590 -16.680  1.00  0.00     0.054 A 
BRANCH  89  90
ATOM     90  S   UNL     1      -6.080  -6.861 -17.967  1.00  0.00     0.124 S 
ATOM     91  O   UNL     1      -4.687  -7.230 -18.202  1.00  0.00    -0.237 OA
ATOM     92  O   UNL     1      -6.898  -7.879 -17.313  1.00  0.00    -0.237 OA
ATOM     93  O   UNL     1      -6.733  -6.159 -19.070  1.00  0.00    -0.744 OA
ENDBRANCH  89  90
ENDBRANCH  63  84
ENDBRANCH  37  38
ENDBRANCH  29  32
ENDBRANCH  27  28
ENDBRANCH   1  27
TORSDOF 17
