REMARK SMILES CCC(=O)Nc1cc(NC(=O)/C=C/C(=O)NCCCNC(=O)c2ccc(-c3c4nc(c(-c5ccc(S(=O)(=O)[O-])cc5)c5ccc([nH]5)c(-c5ccc(S(=O)(=O)[O-])cc5)c5nc(c(-c6ccc(S(=O)(=O)[O-])cc6)c6ccc3[nH]6)C=C5)C=C4)cc2)ccc1C
REMARK SMILES IDX 17 1 16 2 14 3 15 4 13 6 12 7 10 8 9 9 11 11 8 12 6 13 7 14
REMARK SMILES IDX 85 15 84 16 86 17 83 18 5 19 3 20 4 21 2 23 1 24 18 25 19 26
REMARK SMILES IDX 20 27 21 28 22 30 23 31 24 32 82 33 25 34 81 35 26 36 27 37
REMARK SMILES IDX 28 38 75 39 29 40 80 41 74 42 76 43 30 44 79 45 73 46 72 47
REMARK SMILES IDX 31 49 61 50 42 51 60 52 43 53 46 54 59 55 77 56 44 57 45 58
REMARK SMILES IDX 58 60 78 61 47 62 32 63 33 64 41 65 34 66 40 67 35 68 36 69
REMARK SMILES IDX 37 70 38 71 39 72 62 73 63 74 71 75 64 76 70 77 65 78 66 79
REMARK SMILES IDX 67 80 68 81 69 82 48 83 49 84 57 85 50 86 56 87 51 88 52 89
REMARK SMILES IDX 53 90 54 91 55 92
REMARK H PARENT 16 5 9 10 5 22 20 29 76 48 46 59
REMARK Flexibility Score: inf
ROOT
ATOM      1  C   UNL     1       5.281  -2.470   6.986  1.00  0.00     0.118 C 
ENDROOT
BRANCH   1   2
ATOM      2  N   UNL     1       4.373  -1.538   6.326  1.00  0.00    -0.352 N 
ATOM      3  C   UNL     1       4.494  -0.904   5.132  1.00  0.00     0.244 C 
ATOM      4  O   UNL     1       3.629  -0.131   4.722  1.00  0.00    -0.270 OA
ATOM      5  H   UNL     1       3.547  -1.338   6.823  1.00  0.00     0.163 HD
BRANCH   3   6
ATOM      6  C   UNL     1       5.681  -1.138   4.284  1.00  0.00     0.077 C 
ATOM      7  C   UNL     1       5.916  -2.364   3.797  1.00  0.00     0.077 C 
BRANCH   7   8
ATOM      8  C   UNL     1       6.842  -2.550   2.670  1.00  0.00     0.248 C 
ATOM      9  N   UNL     1       6.481  -2.156   1.409  1.00  0.00    -0.322 N 
ATOM     10  H   UNL     1       7.151  -2.367   0.719  1.00  0.00     0.170 HD
ATOM     11  O   UNL     1       7.939  -3.070   2.864  1.00  0.00    -0.270 OA
BRANCH   9  12
ATOM     12  C   UNL     1       5.333  -1.506   0.911  1.00  0.00     0.043 A 
ATOM     13  C   UNL     1       3.145  -0.472   1.198  1.00  0.00     0.046 A 
ATOM     14  C   UNL     1       4.130  -1.377   1.603  1.00  0.00     0.052 A 
ATOM     15  C   UNL     1       3.342   0.292   0.042  1.00  0.00    -0.027 A 
ATOM     16  C   UNL     1       4.466   0.019  -0.757  1.00  0.00     0.008 A 
ATOM     17  C   UNL     1       2.541   1.520  -0.290  1.00  0.00     0.046 C 
ATOM     18  C   UNL     1       5.452  -0.872  -0.326  1.00  0.00     0.026 A 
BRANCH  13  19
ATOM     19  N   UNL     1       2.125  -0.208   2.123  1.00  0.00    -0.326 N 
ATOM     20  C   UNL     1       0.771  -0.313   1.968  1.00  0.00     0.224 C 
ATOM     21  O   UNL     1       0.013   0.241   2.765  1.00  0.00    -0.275 OA
ATOM     22  H   UNL     1       2.427   0.097   3.009  1.00  0.00     0.169 HD
BRANCH  20  23
ATOM     23  C   UNL     1       0.214  -1.236   0.900  1.00  0.00     0.097 C 
ATOM     24  C   UNL     1       0.053  -0.624  -0.473  1.00  0.00     0.014 C 
ENDBRANCH  20  23
ENDBRANCH  13  19
ENDBRANCH   9  12
ENDBRANCH   7   8
ENDBRANCH   3   6
ENDBRANCH   1   2
BRANCH   1  25
ATOM     25  C   UNL     1       6.572  -1.808   7.452  1.00  0.00     0.042 C 
BRANCH  25  26
ATOM     26  C   UNL     1       6.373  -1.054   8.757  1.00  0.00     0.118 C 
BRANCH  26  27
ATOM     27  N   UNL     1       7.127  -1.633   9.861  1.00  0.00    -0.352 N 
ATOM     28  C   UNL     1       7.296  -1.097  11.119  1.00  0.00     0.251 C 
ATOM     29  H   UNL     1       7.563  -2.499   9.689  1.00  0.00     0.163 HD
ATOM     30  O   UNL     1       8.152  -1.488  11.905  1.00  0.00    -0.269 OA
BRANCH  28  31
ATOM     31  C   UNL     1       6.279  -0.121  11.545  1.00  0.00     0.039 A 
ATOM     32  C   UNL     1       5.296  -0.585  12.428  1.00  0.00     0.014 A 
ATOM     33  C   UNL     1       6.125   1.073  10.845  1.00  0.00     0.014 A 
ATOM     34  C   UNL     1       4.077   0.078  12.498  1.00  0.00     0.010 A 
ATOM     35  C   UNL     1       4.883   1.678  10.851  1.00  0.00     0.010 A 
ATOM     36  C   UNL     1       3.849   1.158  11.644  1.00  0.00    -0.014 A 
BRANCH  36  37
ATOM     37  C   UNL     1       2.538   1.772  11.474  1.00  0.00     0.031 A 
ATOM     38  C   UNL     1       2.247   3.063  12.136  1.00  0.00     0.074 A 
ATOM     39  C   UNL     1       1.605   1.194  10.687  1.00  0.00     0.049 A 
ATOM     40  N   UNL     1       1.067   3.469  12.471  1.00  0.00    -0.248 NA
ATOM     41  C   UNL     1       3.308   3.983  12.535  1.00  0.00     0.031 C 
ATOM     42  C   UNL     1       0.373   1.810  10.201  1.00  0.00     0.029 A 
ATOM     43  N   UNL     1       1.469  -0.153  10.345  1.00  0.00    -0.354 N 
ATOM     44  C   UNL     1       1.179   4.793  12.837  1.00  0.00     0.074 A 
ATOM     45  C   UNL     1       2.599   5.036  12.948  1.00  0.00     0.031 C 
ATOM     46  C   UNL     1      -0.504   0.838   9.908  1.00  0.00     0.029 A 
ATOM     47  C   UNL     1       0.090  -0.420  10.332  1.00  0.00     0.049 A 
ATOM     48  H   UNL     1       2.195  -0.790  10.152  1.00  0.00     0.167 HD
ATOM     49  C   UNL     1       0.075   5.593  12.856  1.00  0.00     0.031 A 
ATOM     50  C   UNL     1      -0.522  -1.353  11.117  1.00  0.00     0.031 A 
ATOM     51  C   UNL     1      -1.145   4.847  12.560  1.00  0.00     0.049 A 
ATOM     52  C   UNL     1      -1.615  -0.768  11.984  1.00  0.00     0.074 A 
ATOM     53  C   UNL     1      -1.888   4.692  11.401  1.00  0.00     0.029 A 
ATOM     54  N   UNL     1      -1.597   3.881  13.452  1.00  0.00    -0.354 N 
ATOM     55  N   UNL     1      -1.744   0.505  12.230  1.00  0.00    -0.248 NA
ATOM     56  C   UNL     1      -2.609  -1.576  12.688  1.00  0.00     0.031 C 
ATOM     57  C   UNL     1      -2.737   3.570  11.573  1.00  0.00     0.029 A 
ATOM     58  C   UNL     1      -2.529   3.062  12.843  1.00  0.00     0.049 A 
ATOM     59  H   UNL     1      -1.296   3.794  14.386  1.00  0.00     0.167 HD
ATOM     60  C   UNL     1      -2.780   0.701  13.104  1.00  0.00     0.074 A 
ATOM     61  C   UNL     1      -3.301  -0.632  13.351  1.00  0.00     0.031 C 
ATOM     62  C   UNL     1      -3.117   1.941  13.563  1.00  0.00     0.031 A 
BRANCH  49  63
ATOM     63  C   UNL     1       0.165   7.106  12.810  1.00  0.00    -0.014 A 
ATOM     64  C   UNL     1      -0.833   7.842  12.138  1.00  0.00     0.010 A 
ATOM     65  C   UNL     1       1.234   7.853  13.338  1.00  0.00     0.010 A 
ATOM     66  C   UNL     1      -0.709   9.219  11.896  1.00  0.00     0.020 A 
ATOM     67  C   UNL     1       1.395   9.222  13.068  1.00  0.00     0.020 A 
ATOM     68  C   UNL     1       0.427   9.895  12.332  1.00  0.00     0.054 A 
BRANCH  68  69
ATOM     69  S   UNL     1       0.627  11.647  11.915  1.00  0.00     0.124 S 
ATOM     70  O   UNL     1       0.477  11.647  10.462  1.00  0.00    -0.237 OA
ATOM     71  O   UNL     1      -0.461  12.272  12.661  1.00  0.00    -0.237 OA
ATOM     72  O   UNL     1       1.971  11.966  12.393  1.00  0.00    -0.744 OA
ENDBRANCH  68  69
ENDBRANCH  49  63
BRANCH  50  73
ATOM     73  C   UNL     1       0.345  -2.494  11.516  1.00  0.00    -0.014 A 
ATOM     74  C   UNL     1       0.712  -3.418  10.516  1.00  0.00     0.010 A 
ATOM     75  C   UNL     1       1.108  -2.423  12.694  1.00  0.00     0.010 A 
ATOM     76  C   UNL     1       1.909  -4.132  10.615  1.00  0.00     0.020 A 
ATOM     77  C   UNL     1       2.309  -3.140  12.795  1.00  0.00     0.020 A 
ATOM     78  C   UNL     1       2.730  -3.936  11.726  1.00  0.00     0.054 A 
BRANCH  78  79
ATOM     79  S   UNL     1       4.429  -4.581  11.653  1.00  0.00     0.124 S 
ATOM     80  O   UNL     1       4.211  -6.019  11.538  1.00  0.00    -0.237 OA
ATOM     81  O   UNL     1       4.955  -3.928  10.453  1.00  0.00    -0.237 OA
ATOM     82  O   UNL     1       5.014  -4.129  12.911  1.00  0.00    -0.744 OA
ENDBRANCH  78  79
ENDBRANCH  50  73
BRANCH  62  83
ATOM     83  C   UNL     1      -4.101   2.225  14.669  1.00  0.00    -0.014 A 
ATOM     84  C   UNL     1      -4.397   1.323  15.703  1.00  0.00     0.010 A 
ATOM     85  C   UNL     1      -4.675   3.516  14.758  1.00  0.00     0.010 A 
ATOM     86  C   UNL     1      -5.281   1.664  16.737  1.00  0.00     0.020 A 
ATOM     87  C   UNL     1      -5.523   3.881  15.808  1.00  0.00     0.020 A 
ATOM     88  C   UNL     1      -5.844   2.939  16.779  1.00  0.00     0.054 A 
BRANCH  88  89
ATOM     89  S   UNL     1      -6.942   3.393  18.146  1.00  0.00     0.124 S 
ATOM     90  O   UNL     1      -8.248   2.990  17.629  1.00  0.00    -0.237 OA
ATOM     91  O   UNL     1      -6.436   2.590  19.257  1.00  0.00    -0.237 OA
ATOM     92  O   UNL     1      -6.737   4.832  18.284  1.00  0.00    -0.744 OA
ENDBRANCH  88  89
ENDBRANCH  62  83
ENDBRANCH  36  37
ENDBRANCH  28  31
ENDBRANCH  26  27
ENDBRANCH  25  26
ENDBRANCH   1  25
TORSDOF 17
