REMARK SMILES O=C(NCCCNC(=O)[C@@H]1CN(c2nc(-c3ccccc3)no2)CC[NH2+]1)c1ccc(-c2c3nc(c(-c4ccc(S(=O)(=O)[O-])cc4)c4ccc([nH]4)c(-c4ccc(S(=O)(=O)[O-])cc4)c4nc(c(-c5ccc(S(=O)(=O)[O-])cc5)c5ccc2[nH]5)C=C4)C=C3)cc1
REMARK SMILES IDX 4 1 3 2 1 3 2 4 27 6 28 7 86 8 29 9 85 10 30 11 31 12 32 13
REMARK SMILES IDX 79 14 33 15 84 16 78 17 80 18 34 19 83 20 77 21 76 22 35 24
REMARK SMILES IDX 65 25 46 26 64 27 47 28 50 29 63 30 81 31 48 32 49 33 62 35
REMARK SMILES IDX 82 36 51 37 36 38 37 39 45 40 38 41 44 42 39 43 40 44 41 45
REMARK SMILES IDX 42 46 43 47 66 48 67 49 75 50 68 51 74 52 69 53 70 54 71 55
REMARK SMILES IDX 72 56 73 57 52 58 53 59 61 60 54 61 60 62 55 63 56 64 57 65
REMARK SMILES IDX 58 66 59 67 5 68 6 69 7 70 8 71 9 73 10 74 11 75 26 76 12 77
REMARK SMILES IDX 25 78 24 81 13 82 14 83 23 84 15 85 22 86 16 87 17 88 21 89
REMARK SMILES IDX 18 90 20 91 19 92
REMARK H PARENT 3 5 80 23 50 34 7 72 26 79 26 80
REMARK Flexibility Score: inf
ROOT
ATOM      1  C   UNL     1       4.422   1.240  -0.613  1.00  0.00     0.118 C 
ENDROOT
BRANCH   1   2
ATOM      2  N   UNL     1       3.024   1.049  -0.233  1.00  0.00    -0.352 N 
ATOM      3  O   UNL     1       1.159  -0.103   0.266  1.00  0.00    -0.269 OA
ATOM      4  C   UNL     1       2.384  -0.057   0.274  1.00  0.00     0.251 C 
ATOM      5  H   UNL     1       2.449   1.837  -0.361  1.00  0.00     0.163 HD
BRANCH   4   6
ATOM      6  C   UNL     1       3.170  -1.179   0.830  1.00  0.00     0.039 A 
ATOM      7  C   UNL     1       4.320  -0.925   1.575  1.00  0.00     0.014 A 
ATOM      8  C   UNL     1       2.732  -2.496   0.650  1.00  0.00     0.014 A 
ATOM      9  C   UNL     1       5.119  -1.977   1.994  1.00  0.00     0.010 A 
ATOM     10  C   UNL     1       3.477  -3.556   1.180  1.00  0.00     0.010 A 
ATOM     11  C   UNL     1       4.689  -3.305   1.838  1.00  0.00    -0.014 A 
BRANCH  11  12
ATOM     12  C   UNL     1       5.498  -4.377   2.472  1.00  0.00     0.031 A 
ATOM     13  C   UNL     1       6.181  -5.438   1.657  1.00  0.00     0.074 A 
ATOM     14  C   UNL     1       5.676  -4.320   3.809  1.00  0.00     0.049 A 
ATOM     15  N   UNL     1       6.996  -6.378   2.061  1.00  0.00    -0.248 NA
ATOM     16  C   UNL     1       5.916  -5.457   0.210  1.00  0.00     0.031 C 
ATOM     17  C   UNL     1       5.044  -3.340   4.701  1.00  0.00     0.029 A 
ATOM     18  N   UNL     1       6.470  -5.059   4.646  1.00  0.00    -0.354 N 
ATOM     19  C   UNL     1       7.334  -7.107   0.927  1.00  0.00     0.074 A 
ATOM     20  C   UNL     1       6.613  -6.517  -0.181  1.00  0.00     0.031 C 
ATOM     21  C   UNL     1       5.537  -3.485   5.938  1.00  0.00     0.029 A 
ATOM     22  C   UNL     1       6.456  -4.615   5.947  1.00  0.00     0.049 A 
ATOM     23  H   UNL     1       6.998  -5.833   4.344  1.00  0.00     0.167 HD
ATOM     24  C   UNL     1       8.172  -8.166   0.823  1.00  0.00     0.031 A 
ATOM     25  C   UNL     1       7.099  -5.071   7.037  1.00  0.00     0.031 A 
ATOM     26  C   UNL     1       8.883  -8.746   1.934  1.00  0.00     0.049 A 
ATOM     27  C   UNL     1       8.012  -6.252   6.889  1.00  0.00     0.074 A 
ATOM     28  C   UNL     1       9.758  -9.819   1.931  1.00  0.00     0.029 A 
ATOM     29  N   UNL     1       8.807  -8.299   3.245  1.00  0.00    -0.354 N 
ATOM     30  N   UNL     1       8.322  -6.918   5.803  1.00  0.00    -0.248 NA
ATOM     31  C   UNL     1       8.658  -6.744   8.111  1.00  0.00     0.031 C 
ATOM     32  C   UNL     1      10.175 -10.049   3.247  1.00  0.00     0.029 A 
ATOM     33  C   UNL     1       9.605  -9.085   4.062  1.00  0.00     0.049 A 
ATOM     34  H   UNL     1       8.266  -7.535   3.551  1.00  0.00     0.167 HD
ATOM     35  C   UNL     1       9.201  -7.913   6.212  1.00  0.00     0.074 A 
ATOM     36  C   UNL     1       9.404  -7.731   7.636  1.00  0.00     0.031 C 
ATOM     37  C   UNL     1       9.778  -8.897   5.479  1.00  0.00     0.031 A 
BRANCH  24  38
ATOM     38  C   UNL     1       8.362  -8.783  -0.539  1.00  0.00    -0.014 A 
ATOM     39  C   UNL     1       9.119  -8.135  -1.530  1.00  0.00     0.010 A 
ATOM     40  C   UNL     1       7.841 -10.064  -0.805  1.00  0.00     0.010 A 
ATOM     41  C   UNL     1       9.336  -8.747  -2.769  1.00  0.00     0.020 A 
ATOM     42  C   UNL     1       8.075 -10.689  -2.034  1.00  0.00     0.020 A 
ATOM     43  C   UNL     1       8.814 -10.021  -3.012  1.00  0.00     0.054 A 
BRANCH  43  44
ATOM     44  S   UNL     1       9.154 -10.810  -4.611  1.00  0.00     0.124 S 
ATOM     45  O   UNL     1       8.307 -10.035  -5.515  1.00  0.00    -0.237 OA
ATOM     46  O   UNL     1      10.592 -10.607  -4.769  1.00  0.00    -0.237 OA
ATOM     47  O   UNL     1       8.742 -12.197  -4.409  1.00  0.00    -0.744 OA
ENDBRANCH  43  44
ENDBRANCH  24  38
BRANCH  25  48
ATOM     48  C   UNL     1       6.863  -4.435   8.361  1.00  0.00    -0.014 A 
ATOM     49  C   UNL     1       7.884  -3.730   9.021  1.00  0.00     0.010 A 
ATOM     50  C   UNL     1       5.596  -4.531   8.967  1.00  0.00     0.010 A 
ATOM     51  C   UNL     1       7.649  -3.158  10.276  1.00  0.00     0.020 A 
ATOM     52  C   UNL     1       5.348  -3.931  10.203  1.00  0.00     0.020 A 
ATOM     53  C   UNL     1       6.383  -3.264  10.858  1.00  0.00     0.054 A 
BRANCH  53  54
ATOM     54  S   UNL     1       6.085  -2.491  12.472  1.00  0.00     0.124 S 
ATOM     55  O   UNL     1       6.724  -3.437  13.381  1.00  0.00    -0.237 OA
ATOM     56  O   UNL     1       6.750  -1.198  12.333  1.00  0.00    -0.237 OA
ATOM     57  O   UNL     1       4.628  -2.427  12.554  1.00  0.00    -0.744 OA
ENDBRANCH  53  54
ENDBRANCH  25  48
BRANCH  37  58
ATOM     58  C   UNL     1      10.688  -9.839   6.217  1.00  0.00    -0.014 A 
ATOM     59  C   UNL     1      10.171 -10.789   7.116  1.00  0.00     0.010 A 
ATOM     60  C   UNL     1      12.077  -9.775   6.006  1.00  0.00     0.010 A 
ATOM     61  C   UNL     1      11.032 -11.624   7.832  1.00  0.00     0.020 A 
ATOM     62  C   UNL     1      12.939 -10.628   6.699  1.00  0.00     0.020 A 
ATOM     63  C   UNL     1      12.411 -11.532   7.624  1.00  0.00     0.054 A 
BRANCH  63  64
ATOM     64  S   UNL     1      13.510 -12.630   8.559  1.00  0.00     0.124 S 
ATOM     65  O   UNL     1      13.505 -12.009   9.881  1.00  0.00    -0.237 OA
ATOM     66  O   UNL     1      12.830 -13.920   8.468  1.00  0.00    -0.237 OA
ATOM     67  O   UNL     1      14.777 -12.548   7.837  1.00  0.00    -0.744 OA
ENDBRANCH  63  64
ENDBRANCH  37  58
ENDBRANCH  11  12
ENDBRANCH   4   6
ENDBRANCH   1   2
BRANCH   1  68
ATOM     68  C   UNL     1       4.592   1.321  -2.127  1.00  0.00     0.042 C 
BRANCH  68  69
ATOM     69  C   UNL     1       3.980   2.595  -2.698  1.00  0.00     0.118 C 
BRANCH  69  70
ATOM     70  N   UNL     1       4.822   3.750  -2.433  1.00  0.00    -0.351 N 
ATOM     71  C   UNL     1       5.858   4.340  -3.085  1.00  0.00     0.280 C 
ATOM     72  H   UNL     1       4.588   4.208  -1.594  1.00  0.00     0.163 HD
ATOM     73  O   UNL     1       6.433   5.234  -2.447  1.00  0.00    -0.268 OA
BRANCH  71  74
ATOM     74  C   UNL     1       6.251   4.104  -4.557  1.00  0.00     0.292 C 
ATOM     75  C   UNL     1       5.627   5.273  -5.363  1.00  0.00     0.197 C 
ATOM     76  N   UNL     1       5.931   2.744  -5.082  1.00  0.00    -0.333 N 
ATOM     77  N   UNL     1       5.693   5.068  -6.812  1.00  0.00    -0.312 N 
ATOM     78  C   UNL     1       6.262   2.700  -6.523  1.00  0.00     0.283 C 
ATOM     79  H   UNL     1       4.939   2.551  -4.951  1.00  0.00     0.347 HD
ATOM     80  H   UNL     1       6.475   2.042  -4.580  1.00  0.00     0.347 HD
ATOM     81  C   UNL     1       5.422   3.726  -7.317  1.00  0.00     0.183 C 
BRANCH  77  82
ATOM     82  C   UNL     1       6.352   5.934  -7.604  1.00  0.00     0.324 A 
ATOM     83  N   UNL     1       7.432   6.638  -7.372  1.00  0.00    -0.171 NA
ATOM     84  O   UNL     1       5.864   6.109  -8.871  1.00  0.00    -0.315 OA
ATOM     85  C   UNL     1       7.652   7.249  -8.585  1.00  0.00     0.204 A 
ATOM     86  N   UNL     1       6.712   7.009  -9.511  1.00  0.00    -0.055 NA
BRANCH  85  87
ATOM     87  C   UNL     1       8.858   7.993  -8.886  1.00  0.00     0.023 A 
ATOM     88  C   UNL     1       8.788   9.318  -9.330  1.00  0.00     0.012 A 
ATOM     89  C   UNL     1      10.103   7.354  -8.810  1.00  0.00     0.012 A 
ATOM     90  C   UNL     1       9.952   9.995  -9.700  1.00  0.00     0.001 A 
ATOM     91  C   UNL     1      11.262   8.027  -9.196  1.00  0.00     0.001 A 
ATOM     92  C   UNL     1      11.186   9.347  -9.642  1.00  0.00     0.000 A 
ENDBRANCH  85  87
ENDBRANCH  77  82
ENDBRANCH  71  74
ENDBRANCH  69  70
ENDBRANCH  68  69
ENDBRANCH   1  68
TORSDOF 15
