REMARK SMILES Nc1ncc(C(=O)NCCCNC(=O)c2ccc(-c3c4nc(c(-c5ccc(S(=O)(=O)[O-])cc5)c5ccc([nH]5)c(-c5ccc(S(=O)(=O)[O-])cc5)c5nc(c(-c6ccc(S(=O)(=O)[O-])cc6)c6ccc3[nH]6)C=C5)C=C4)cc2)c(-c2ccccc2)n1
REMARK SMILES IDX 11 1 10 2 9 3 8 4 6 5 7 6 5 8 2 9 3 10 82 11 4 12 75 13 1 14
REMARK SMILES IDX 76 17 77 18 81 19 78 20 80 21 79 22 12 23 13 24 14 26 15 27
REMARK SMILES IDX 16 28 74 29 17 30 73 31 18 32 19 33 20 34 67 35 21 36 72 37
REMARK SMILES IDX 66 38 68 39 22 40 71 41 65 42 64 43 23 45 53 46 34 47 52 48
REMARK SMILES IDX 35 49 38 50 51 51 69 52 36 53 37 54 50 56 70 57 39 58 24 59
REMARK SMILES IDX 25 60 33 61 26 62 32 63 27 64 28 65 29 66 30 67 31 68 54 69
REMARK SMILES IDX 55 70 63 71 56 72 62 73 57 74 58 75 59 76 60 77 61 78 40 79
REMARK SMILES IDX 41 80 49 81 42 82 48 83 43 84 44 85 45 86 46 87 47 88
REMARK H PARENT 8 7 1 15 1 16 12 25 68 44 38 55
REMARK Flexibility Score: inf
ROOT
ATOM      1  C   UNL     1       6.181  -3.025  -1.281  1.00  0.00     0.118 C 
ENDROOT
BRANCH   1   2
ATOM      2  C   UNL     1       4.816  -2.740  -1.898  1.00  0.00     0.042 C 
BRANCH   2   3
ATOM      3  C   UNL     1       3.768  -2.246  -0.915  1.00  0.00     0.118 C 
BRANCH   3   4
ATOM      4  N   UNL     1       4.004  -0.955  -0.307  1.00  0.00    -0.352 N 
ATOM      5  C   UNL     1       3.125  -0.082   0.288  1.00  0.00     0.255 C 
ATOM      6  O   UNL     1       3.614   0.915   0.827  1.00  0.00    -0.269 OA
ATOM      7  H   UNL     1       4.941  -0.654  -0.323  1.00  0.00     0.163 HD
BRANCH   5   8
ATOM      8  C   UNL     1       1.645  -0.184   0.256  1.00  0.00     0.084 A 
ATOM      9  C   UNL     1      -1.081   0.076   0.171  1.00  0.00     0.220 A 
ATOM     10  N   UNL     1      -0.358   1.182   0.033  1.00  0.00    -0.221 NA
ATOM     11  N   UNL     1      -0.564  -1.137   0.359  1.00  0.00    -0.212 NA
ATOM     12  C   UNL     1       0.985   1.024   0.087  1.00  0.00     0.131 A 
ATOM     13  C   UNL     1       0.793  -1.267   0.415  1.00  0.00     0.089 A 
BRANCH   9  14
ATOM     14  N   UNL     1      -2.437   0.178   0.093  1.00  0.00    -0.368 N 
ATOM     15  H   UNL     1      -2.857   1.058  -0.045  1.00  0.00     0.159 HD
ATOM     16  H   UNL     1      -2.998  -0.627   0.176  1.00  0.00     0.159 HD
ENDBRANCH   9  14
BRANCH  13  17
ATOM     17  C   UNL     1       1.182  -2.669   0.614  1.00  0.00     0.001 A 
ATOM     18  C   UNL     1       1.902  -3.105   1.736  1.00  0.00     0.010 A 
ATOM     19  C   UNL     1       0.857  -3.617  -0.381  1.00  0.00     0.010 A 
ATOM     20  C   UNL     1       2.367  -4.425   1.808  1.00  0.00     0.001 A 
ATOM     21  C   UNL     1       1.336  -4.925  -0.317  1.00  0.00     0.001 A 
ATOM     22  C   UNL     1       2.107  -5.323   0.771  1.00  0.00     0.000 A 
ENDBRANCH  13  17
ENDBRANCH   5   8
ENDBRANCH   3   4
ENDBRANCH   2   3
ENDBRANCH   1   2
BRANCH   1  23
ATOM     23  N   UNL     1       6.189  -4.077  -0.267  1.00  0.00    -0.352 N 
ATOM     24  C   UNL     1       6.362  -5.441  -0.302  1.00  0.00     0.251 C 
ATOM     25  H   UNL     1       6.038  -3.733   0.643  1.00  0.00     0.163 HD
ATOM     26  O   UNL     1       6.226  -6.068   0.750  1.00  0.00    -0.269 OA
BRANCH  24  27
ATOM     27  C   UNL     1       6.646  -6.187  -1.554  1.00  0.00     0.039 A 
ATOM     28  C   UNL     1       6.144  -7.489  -1.690  1.00  0.00     0.014 A 
ATOM     29  C   UNL     1       7.412  -5.658  -2.586  1.00  0.00     0.014 A 
ATOM     30  C   UNL     1       6.314  -8.196  -2.889  1.00  0.00     0.010 A 
ATOM     31  C   UNL     1       7.476  -6.306  -3.818  1.00  0.00     0.010 A 
ATOM     32  C   UNL     1       6.920  -7.580  -3.993  1.00  0.00    -0.014 A 
BRANCH  32  33
ATOM     33  C   UNL     1       6.979  -8.216  -5.340  1.00  0.00     0.031 A 
ATOM     34  C   UNL     1       8.304  -8.379  -6.044  1.00  0.00     0.074 A 
ATOM     35  C   UNL     1       5.837  -8.524  -5.988  1.00  0.00     0.049 A 
ATOM     36  N   UNL     1       8.545  -8.704  -7.289  1.00  0.00    -0.248 NA
ATOM     37  C   UNL     1       9.515  -8.096  -5.255  1.00  0.00     0.031 C 
ATOM     38  C   UNL     1       4.482  -8.378  -5.447  1.00  0.00     0.029 A 
ATOM     39  N   UNL     1       5.630  -9.006  -7.258  1.00  0.00    -0.354 N 
ATOM     40  C   UNL     1       9.924  -8.614  -7.444  1.00  0.00     0.074 A 
ATOM     41  C   UNL     1      10.462  -8.163  -6.180  1.00  0.00     0.031 C 
ATOM     42  C   UNL     1       3.592  -8.784  -6.365  1.00  0.00     0.029 A 
ATOM     43  C   UNL     1       4.301  -9.163  -7.581  1.00  0.00     0.049 A 
ATOM     44  H   UNL     1       6.363  -9.220  -7.879  1.00  0.00     0.167 HD
ATOM     45  C   UNL     1      10.679  -8.898  -8.534  1.00  0.00     0.031 A 
ATOM     46  C   UNL     1       3.712  -9.546  -8.731  1.00  0.00     0.031 A 
ATOM     47  C   UNL     1      10.147  -9.392  -9.775  1.00  0.00     0.049 A 
ATOM     48  C   UNL     1       4.570  -9.873  -9.921  1.00  0.00     0.074 A 
ATOM     49  C   UNL     1      10.835  -9.785 -10.910  1.00  0.00     0.029 A 
ATOM     50  N   UNL     1       8.799  -9.573 -10.042  1.00  0.00    -0.354 N 
ATOM     51  N   UNL     1       5.876  -9.826 -10.032  1.00  0.00    -0.248 NA
ATOM     52  C   UNL     1       3.875 -10.306 -11.142  1.00  0.00     0.031 C 
ATOM     53  C   UNL     1       9.900 -10.163 -11.879  1.00  0.00     0.029 A 
ATOM     54  C   UNL     1       8.633 -10.054 -11.330  1.00  0.00     0.049 A 
ATOM     55  H   UNL     1       8.068  -9.386  -9.410  1.00  0.00     0.167 HD
ATOM     56  C   UNL     1       6.160 -10.245 -11.326  1.00  0.00     0.074 A 
ATOM     57  C   UNL     1       4.893 -10.555 -11.955  1.00  0.00     0.031 C 
ATOM     58  C   UNL     1       7.364 -10.360 -11.940  1.00  0.00     0.031 A 
BRANCH  45  59
ATOM     59  C   UNL     1      12.167  -8.682  -8.428  1.00  0.00    -0.014 A 
ATOM     60  C   UNL     1      12.966  -9.505  -7.613  1.00  0.00     0.010 A 
ATOM     61  C   UNL     1      12.782  -7.663  -9.179  1.00  0.00     0.010 A 
ATOM     62  C   UNL     1      14.341  -9.280  -7.510  1.00  0.00     0.020 A 
ATOM     63  C   UNL     1      14.163  -7.454  -9.103  1.00  0.00     0.020 A 
ATOM     64  C   UNL     1      14.930  -8.252  -8.252  1.00  0.00     0.054 A 
BRANCH  64  65
ATOM     65  S   UNL     1      16.720  -7.992  -8.109  1.00  0.00     0.124 S 
ATOM     66  O   UNL     1      16.827  -7.372  -6.790  1.00  0.00    -0.237 OA
ATOM     67  O   UNL     1      17.250  -9.349  -8.208  1.00  0.00    -0.237 OA
ATOM     68  O   UNL     1      17.035  -7.119  -9.236  1.00  0.00    -0.744 OA
ENDBRANCH  64  65
ENDBRANCH  45  59
BRANCH  46  69
ATOM     69  C   UNL     1       2.229  -9.647  -8.809  1.00  0.00    -0.014 A 
ATOM     70  C   UNL     1       1.608 -10.908  -8.868  1.00  0.00     0.010 A 
ATOM     71  C   UNL     1       1.428  -8.491  -8.805  1.00  0.00     0.010 A 
ATOM     72  C   UNL     1       0.216 -11.010  -8.936  1.00  0.00     0.020 A 
ATOM     73  C   UNL     1       0.034  -8.589  -8.847  1.00  0.00     0.020 A 
ATOM     74  C   UNL     1      -0.563  -9.849  -8.922  1.00  0.00     0.054 A 
BRANCH  74  75
ATOM     75  S   UNL     1      -2.370 -10.009  -8.954  1.00  0.00     0.124 S 
ATOM     76  O   UNL     1      -2.619 -10.374 -10.344  1.00  0.00    -0.237 OA
ATOM     77  O   UNL     1      -2.612 -11.060  -7.969  1.00  0.00    -0.237 OA
ATOM     78  O   UNL     1      -2.836  -8.680  -8.561  1.00  0.00    -0.744 OA
ENDBRANCH  74  75
ENDBRANCH  46  69
BRANCH  58  79
ATOM     79  C   UNL     1       7.375 -10.869 -13.355  1.00  0.00    -0.014 A 
ATOM     80  C   UNL     1       6.962 -10.053 -14.423  1.00  0.00     0.010 A 
ATOM     81  C   UNL     1       7.872 -12.157 -13.625  1.00  0.00     0.010 A 
ATOM     82  C   UNL     1       7.026 -10.525 -15.736  1.00  0.00     0.020 A 
ATOM     83  C   UNL     1       7.962 -12.623 -14.939  1.00  0.00     0.020 A 
ATOM     84  C   UNL     1       7.529 -11.807 -15.986  1.00  0.00     0.054 A 
BRANCH  84  85
ATOM     85  S   UNL     1       7.659 -12.373 -17.704  1.00  0.00     0.124 S 
ATOM     86  O   UNL     1       6.265 -12.649 -18.040  1.00  0.00    -0.237 OA
ATOM     87  O   UNL     1       8.251 -11.219 -18.378  1.00  0.00    -0.237 OA
ATOM     88  O   UNL     1       8.525 -13.547 -17.617  1.00  0.00    -0.744 OA
ENDBRANCH  84  85
ENDBRANCH  58  79
ENDBRANCH  32  33
ENDBRANCH  24  27
ENDBRANCH   1  23
TORSDOF 15
