REMARK SMILES CN1C(=O)C[C@@H](C(=O)NCCCNC(=O)c2ccc(-c3c4nc(c(-c5ccc(S(=O)(=O)[O-])cc5)c5ccc([nH]5)c(-c5ccc(S(=O)(=O)[O-])cc5)c5nc(c(-c6ccc(S(=O)(=O)[O-])cc6)c6ccc3[nH]6)C=C5)C=C4)cc2)C12CCN(C(=O)c1ccccc1-n1cccn1)CC2
REMARK SMILES IDX 11 1 10 2 9 3 7 4 8 5 6 7 1 8 2 9 3 10 76 11 4 12 5 13 77 14
REMARK SMILES IDX 94 15 78 16 93 17 79 18 80 19 81 20 82 21 83 22 87 23 84 24
REMARK SMILES IDX 86 25 85 26 88 27 89 28 92 29 90 30 91 31 12 32 13 33 14 34
REMARK SMILES IDX 15 36 16 37 17 38 75 39 18 40 74 41 19 42 20 43 21 44 68 45
REMARK SMILES IDX 22 46 73 47 67 48 69 49 23 50 72 51 66 52 65 53 24 55 54 56
REMARK SMILES IDX 35 57 53 58 36 59 39 60 52 61 70 62 37 63 38 64 51 66 71 67
REMARK SMILES IDX 40 68 25 69 26 70 34 71 27 72 33 73 28 74 29 75 30 76 31 77
REMARK SMILES IDX 32 78 55 79 56 80 64 81 57 82 63 83 58 84 59 85 60 86 61 87
REMARK SMILES IDX 62 88 41 89 42 90 50 91 43 92 49 93 44 94 45 95 46 96 47 97
REMARK SMILES IDX 48 98
REMARK H PARENT 9 6 13 35 69 54 39 65
REMARK Flexibility Score: inf
ROOT
ATOM      1  C   UNL     1      -2.772  -0.915   0.939  1.00  0.00     0.042 C 
ENDROOT
BRANCH   1   2
ATOM      2  C   UNL     1      -2.656   0.246   1.931  1.00  0.00     0.117 C 
BRANCH   2   3
ATOM      3  N   UNL     1      -2.431  -0.153   3.316  1.00  0.00    -0.356 N 
ATOM      4  C   UNL     1      -1.392  -0.037   4.181  1.00  0.00     0.226 C 
ATOM      5  O   UNL     1      -1.604  -0.431   5.336  1.00  0.00    -0.275 OA
ATOM      6  H   UNL     1      -3.208  -0.610   3.712  1.00  0.00     0.163 HD
BRANCH   4   7
ATOM      7  C   UNL     1       0.007   0.486   3.841  1.00  0.00     0.113 C 
ATOM      8  C   UNL     1       0.951   0.106   0.243  1.00  0.00     0.147 C 
ATOM      9  N   UNL     1       0.627   0.525   1.595  1.00  0.00    -0.339 N 
ATOM     10  C   UNL     1       0.283   1.837   1.892  1.00  0.00     0.223 C 
ATOM     11  C   UNL     1       0.822  -0.308   2.796  1.00  0.00     0.058 C 
ATOM     12  O   UNL     1       0.190   2.769   1.107  1.00  0.00    -0.275 OA
ATOM     13  C   UNL     1      -0.006   1.935   3.362  1.00  0.00     0.116 C 
ATOM     14  C   UNL     1       0.346  -1.767   2.654  1.00  0.00     0.051 C 
ATOM     15  C   UNL     1       2.351  -0.319   3.122  1.00  0.00     0.051 C 
ATOM     16  C   UNL     1       0.751  -2.649   3.828  1.00  0.00     0.122 C 
ATOM     17  C   UNL     1       2.769  -1.328   4.196  1.00  0.00     0.122 C 
ATOM     18  N   UNL     1       2.200  -2.647   3.934  1.00  0.00    -0.338 N 
ATOM     19  C   UNL     1       3.034  -3.762   3.826  1.00  0.00     0.256 C 
ATOM     20  O   UNL     1       4.255  -3.701   3.957  1.00  0.00    -0.269 OA
BRANCH  19  21
ATOM     21  C   UNL     1       2.450  -5.111   3.609  1.00  0.00     0.065 A 
ATOM     22  C   UNL     1       2.594  -6.011   4.680  1.00  0.00     0.016 A 
ATOM     23  C   UNL     1       1.730  -5.513   2.472  1.00  0.00     0.077 A 
ATOM     24  C   UNL     1       2.003  -7.276   4.634  1.00  0.00     0.001 A 
ATOM     25  C   UNL     1       1.088  -6.765   2.462  1.00  0.00     0.029 A 
ATOM     26  C   UNL     1       1.239  -7.647   3.532  1.00  0.00     0.002 A 
BRANCH  23  27
ATOM     27  N   UNL     1       1.633  -4.727   1.300  1.00  0.00    -0.240 N 
ATOM     28  C   UNL     1       2.572  -3.885   0.749  1.00  0.00     0.115 A 
ATOM     29  N   UNL     1       0.496  -4.757   0.555  1.00  0.00    -0.177 NA
ATOM     30  C   UNL     1       2.020  -3.366  -0.400  1.00  0.00     0.042 A 
ATOM     31  C   UNL     1       0.735  -3.926  -0.460  1.00  0.00     0.135 A 
ENDBRANCH  23  27
ENDBRANCH  19  21
ENDBRANCH   4   7
ENDBRANCH   2   3
ENDBRANCH   1   2
BRANCH   1  32
ATOM     32  C   UNL     1      -3.964  -1.830   1.192  1.00  0.00     0.118 C 
BRANCH  32  33
ATOM     33  N   UNL     1      -5.220  -1.159   0.890  1.00  0.00    -0.352 N 
ATOM     34  C   UNL     1      -6.068  -1.318  -0.180  1.00  0.00     0.251 C 
ATOM     35  H   UNL     1      -5.506  -0.490   1.553  1.00  0.00     0.163 HD
ATOM     36  O   UNL     1      -6.901  -0.447  -0.417  1.00  0.00    -0.269 OA
BRANCH  34  37
ATOM     37  C   UNL     1      -5.982  -2.517  -1.044  1.00  0.00     0.039 A 
ATOM     38  C   UNL     1      -6.181  -2.378  -2.421  1.00  0.00     0.014 A 
ATOM     39  C   UNL     1      -5.761  -3.784  -0.499  1.00  0.00     0.014 A 
ATOM     40  C   UNL     1      -6.102  -3.499  -3.253  1.00  0.00     0.010 A 
ATOM     41  C   UNL     1      -5.598  -4.885  -1.337  1.00  0.00     0.010 A 
ATOM     42  C   UNL     1      -5.775  -4.758  -2.722  1.00  0.00    -0.014 A 
BRANCH  42  43
ATOM     43  C   UNL     1      -5.613  -5.951  -3.594  1.00  0.00     0.031 A 
ATOM     44  C   UNL     1      -6.516  -7.144  -3.423  1.00  0.00     0.074 A 
ATOM     45  C   UNL     1      -4.606  -5.990  -4.488  1.00  0.00     0.049 A 
ATOM     46  N   UNL     1      -6.476  -8.302  -4.032  1.00  0.00    -0.248 NA
ATOM     47  C   UNL     1      -7.588  -7.031  -2.421  1.00  0.00     0.031 C 
ATOM     48  C   UNL     1      -3.640  -4.913  -4.724  1.00  0.00     0.029 A 
ATOM     49  N   UNL     1      -4.217  -6.978  -5.359  1.00  0.00    -0.354 N 
ATOM     50  C   UNL     1      -7.498  -9.061  -3.471  1.00  0.00     0.074 A 
ATOM     51  C   UNL     1      -8.110  -8.249  -2.442  1.00  0.00     0.031 C 
ATOM     52  C   UNL     1      -2.787  -5.291  -5.688  1.00  0.00     0.029 A 
ATOM     53  C   UNL     1      -3.108  -6.652  -6.104  1.00  0.00     0.049 A 
ATOM     54  H   UNL     1      -4.687  -7.839  -5.441  1.00  0.00     0.167 HD
ATOM     55  C   UNL     1      -7.901 -10.314  -3.794  1.00  0.00     0.031 A 
ATOM     56  C   UNL     1      -2.414  -7.371  -7.008  1.00  0.00     0.031 A 
ATOM     57  C   UNL     1      -7.291 -11.114  -4.824  1.00  0.00     0.049 A 
ATOM     58  C   UNL     1      -2.864  -8.769  -7.333  1.00  0.00     0.074 A 
ATOM     59  C   UNL     1      -7.667 -12.368  -5.273  1.00  0.00     0.029 A 
ATOM     60  N   UNL     1      -6.172 -10.746  -5.556  1.00  0.00    -0.354 N 
ATOM     61  N   UNL     1      -3.883  -9.438  -6.850  1.00  0.00    -0.248 NA
ATOM     62  C   UNL     1      -2.074  -9.506  -8.328  1.00  0.00     0.031 C 
ATOM     63  C   UNL     1      -6.734 -12.787  -6.227  1.00  0.00     0.029 A 
ATOM     64  C   UNL     1      -5.818 -11.766  -6.424  1.00  0.00     0.049 A 
ATOM     65  H   UNL     1      -5.699  -9.887  -5.472  1.00  0.00     0.167 HD
ATOM     66  C   UNL     1      -3.866 -10.671  -7.493  1.00  0.00     0.074 A 
ATOM     67  C   UNL     1      -2.751 -10.643  -8.418  1.00  0.00     0.031 C 
ATOM     68  C   UNL     1      -4.696 -11.730  -7.330  1.00  0.00     0.031 A 
BRANCH  55  69
ATOM     69  C   UNL     1      -9.045 -10.905  -3.010  1.00  0.00    -0.014 A 
ATOM     70  C   UNL     1     -10.353 -10.399  -3.127  1.00  0.00     0.010 A 
ATOM     71  C   UNL     1      -8.816 -12.011  -2.170  1.00  0.00     0.010 A 
ATOM     72  C   UNL     1     -11.398 -10.955  -2.384  1.00  0.00     0.020 A 
ATOM     73  C   UNL     1      -9.864 -12.592  -1.450  1.00  0.00     0.020 A 
ATOM     74  C   UNL     1     -11.146 -12.047  -1.548  1.00  0.00     0.054 A 
BRANCH  74  75
ATOM     75  S   UNL     1     -12.525 -12.757  -0.608  1.00  0.00     0.124 S 
ATOM     76  O   UNL     1     -12.780 -11.717   0.386  1.00  0.00    -0.237 OA
ATOM     77  O   UNL     1     -13.558 -12.916  -1.628  1.00  0.00    -0.237 OA
ATOM     78  O   UNL     1     -11.980 -14.004  -0.077  1.00  0.00    -0.744 OA
ENDBRANCH  74  75
ENDBRANCH  55  69
BRANCH  56  79
ATOM     79  C   UNL     1      -1.215  -6.777  -7.662  1.00  0.00    -0.014 A 
ATOM     80  C   UNL     1      -1.236  -6.437  -9.025  1.00  0.00     0.010 A 
ATOM     81  C   UNL     1      -0.051  -6.521  -6.912  1.00  0.00     0.010 A 
ATOM     82  C   UNL     1      -0.114  -5.860  -9.629  1.00  0.00     0.020 A 
ATOM     83  C   UNL     1       1.060  -5.916  -7.503  1.00  0.00     0.020 A 
ATOM     84  C   UNL     1       1.025  -5.596  -8.861  1.00  0.00     0.054 A 
BRANCH  84  85
ATOM     85  S   UNL     1       2.442  -4.782  -9.650  1.00  0.00     0.124 S 
ATOM     86  O   UNL     1       2.967  -5.843 -10.502  1.00  0.00    -0.237 OA
ATOM     87  O   UNL     1       1.812  -3.663 -10.346  1.00  0.00    -0.237 OA
ATOM     88  O   UNL     1       3.290  -4.405  -8.521  1.00  0.00    -0.744 OA
ENDBRANCH  84  85
ENDBRANCH  56  79
BRANCH  68  89
ATOM     89  C   UNL     1      -4.439 -12.951  -8.175  1.00  0.00    -0.014 A 
ATOM     90  C   UNL     1      -3.327 -13.777  -7.936  1.00  0.00     0.010 A 
ATOM     91  C   UNL     1      -5.357 -13.311  -9.178  1.00  0.00     0.010 A 
ATOM     92  C   UNL     1      -3.124 -14.928  -8.702  1.00  0.00     0.020 A 
ATOM     93  C   UNL     1      -5.176 -14.477  -9.925  1.00  0.00     0.020 A 
ATOM     94  C   UNL     1      -4.053 -15.273  -9.689  1.00  0.00     0.054 A 
BRANCH  94  95
ATOM     95  S   UNL     1      -3.795 -16.803 -10.629  1.00  0.00     0.124 S 
ATOM     96  O   UNL     1      -2.652 -16.455 -11.468  1.00  0.00    -0.237 OA
ATOM     97  O   UNL     1      -3.530 -17.782  -9.578  1.00  0.00    -0.237 OA
ATOM     98  O   UNL     1      -5.057 -16.989 -11.343  1.00  0.00    -0.744 OA
ENDBRANCH  94  95
ENDBRANCH  68  89
ENDBRANCH  42  43
ENDBRANCH  34  37
ENDBRANCH  32  33
ENDBRANCH   1  32
TORSDOF 15
