REMARK SMILES Cc1cc(O[C@@H](C)C(=O)NCCC(=O)NCCCNC(=O)c2ccc(-c3c4nc(c(-c5ccc(S(=O)(=O)[O-])cc5)c5ccc([nH]5)c(-c5ccc(S(=O)(=O)[O-])cc5)c5nc(c(-c6ccc(S(=O)(=O)[O-])cc6)c6ccc3[nH]6)C=C5)C=C4)cc2)c2c3c(c(=O)oc2c1)CCCC3
REMARK SMILES IDX 16 1 15 2 13 3 14 4 12 6 11 7 10 8 8 9 9 10 6 12 7 13 5 14
REMARK SMILES IDX 4 15 1 16 2 17 3 18 89 19 88 20 82 21 87 22 83 23 85 24
REMARK SMILES IDX 84 25 93 26 86 27 90 28 92 29 91 30 17 31 18 32 19 33 20 34
REMARK SMILES IDX 21 36 22 37 23 38 81 39 24 40 80 41 25 42 26 43 27 44 74 45
REMARK SMILES IDX 28 46 79 47 73 48 75 49 29 50 78 51 72 52 71 53 30 55 60 56
REMARK SMILES IDX 41 57 59 58 42 59 45 60 58 61 76 62 43 63 44 64 57 66 77 67
REMARK SMILES IDX 46 68 31 69 32 70 40 71 33 72 39 73 34 74 35 75 36 76 37 77
REMARK SMILES IDX 38 78 61 79 62 80 70 81 63 82 69 83 64 84 65 85 66 86 67 87
REMARK SMILES IDX 68 88 47 89 48 90 56 91 49 92 55 93 50 94 51 95 52 96 53 97
REMARK SMILES IDX 54 98
REMARK H PARENT 15 5 10 11 19 35 75 54 45 65
REMARK Flexibility Score: inf
ROOT
ATOM      1  C   UNL     1      -3.286   3.223  -0.541  1.00  0.00     0.117 C 
ENDROOT
BRANCH   1   2
ATOM      2  N   UNL     1      -3.115   1.794  -0.726  1.00  0.00    -0.356 N 
ATOM      3  C   UNL     1      -2.034   1.032  -0.411  1.00  0.00     0.221 C 
ATOM      4  O   UNL     1      -1.962  -0.113  -0.858  1.00  0.00    -0.275 OA
ATOM      5  H   UNL     1      -3.876   1.317  -1.129  1.00  0.00     0.163 HD
BRANCH   3   6
ATOM      6  C   UNL     1      -0.965   1.589   0.497  1.00  0.00     0.121 C 
BRANCH   6   7
ATOM      7  C   UNL     1       0.151   2.331  -0.235  1.00  0.00     0.126 C 
BRANCH   7   8
ATOM      8  N   UNL     1       0.105   3.763   0.006  1.00  0.00    -0.352 N 
ATOM      9  C   UNL     1       0.382   4.529   1.088  1.00  0.00     0.260 C 
ATOM     10  O   UNL     1      -0.235   5.603   1.129  1.00  0.00    -0.271 OA
ATOM     11  H   UNL     1      -0.188   4.283  -0.777  1.00  0.00     0.163 HD
BRANCH   9  12
ATOM     12  C   UNL     1       1.474   4.217   2.147  1.00  0.00     0.258 C 
ATOM     13  C   UNL     1       2.871   4.260   1.531  1.00  0.00     0.064 C 
BRANCH  12  14
ATOM     14  O   UNL     1       1.347   3.355   3.264  1.00  0.00    -0.480 OA
BRANCH  14  15
ATOM     15  C   UNL     1       1.162   2.013   3.218  1.00  0.00     0.132 A 
ATOM     16  C   UNL     1       2.087  -0.924   0.982  1.00  0.00     0.044 C 
ATOM     17  C   UNL     1       1.560  -0.157   2.160  1.00  0.00    -0.044 A 
ATOM     18  C   UNL     1       1.843   1.209   2.296  1.00  0.00     0.050 A 
ATOM     19  C   UNL     1       0.665  -0.738   3.049  1.00  0.00     0.051 A 
ATOM     20  C   UNL     1       0.102   0.039   4.064  1.00  0.00     0.142 A 
ATOM     21  C   UNL     1       0.326   1.415   4.192  1.00  0.00     0.063 A 
ATOM     22  O   UNL     1      -0.716  -0.675   4.956  1.00  0.00    -0.422 OA
ATOM     23  C   UNL     1      -0.311   2.099   5.353  1.00  0.00    -0.023 A 
ATOM     24  C   UNL     1      -1.216  -0.091   6.099  1.00  0.00     0.339 A 
ATOM     25  C   UNL     1      -1.007   1.369   6.251  1.00  0.00     0.042 A 
ATOM     26  C   UNL     1      -0.132   3.591   5.560  1.00  0.00     0.037 C 
ATOM     27  O   UNL     1      -1.820  -0.753   6.937  1.00  0.00    -0.246 OA
ATOM     28  C   UNL     1      -1.636   1.948   7.495  1.00  0.00     0.043 C 
ATOM     29  C   UNL     1      -0.489   4.102   6.958  1.00  0.00     0.005 C 
ATOM     30  C   UNL     1      -1.764   3.466   7.476  1.00  0.00     0.005 C 
ENDBRANCH  14  15
ENDBRANCH  12  14
ENDBRANCH   9  12
ENDBRANCH   7   8
ENDBRANCH   6   7
ENDBRANCH   3   6
ENDBRANCH   1   2
BRANCH   1  31
ATOM     31  C   UNL     1      -2.716   3.975  -1.734  1.00  0.00     0.042 C 
BRANCH  31  32
ATOM     32  C   UNL     1      -3.483   3.721  -3.018  1.00  0.00     0.118 C 
BRANCH  32  33
ATOM     33  N   UNL     1      -4.757   4.418  -3.046  1.00  0.00    -0.352 N 
ATOM     34  C   UNL     1      -5.086   5.622  -3.624  1.00  0.00     0.251 C 
ATOM     35  H   UNL     1      -5.495   3.961  -2.581  1.00  0.00     0.163 HD
ATOM     36  O   UNL     1      -6.154   6.160  -3.344  1.00  0.00    -0.269 OA
BRANCH  34  37
ATOM     37  C   UNL     1      -4.135   6.278  -4.547  1.00  0.00     0.039 A 
ATOM     38  C   UNL     1      -3.437   5.529  -5.493  1.00  0.00     0.014 A 
ATOM     39  C   UNL     1      -3.917   7.654  -4.450  1.00  0.00     0.014 A 
ATOM     40  C   UNL     1      -2.368   6.098  -6.169  1.00  0.00     0.010 A 
ATOM     41  C   UNL     1      -2.933   8.255  -5.241  1.00  0.00     0.010 A 
ATOM     42  C   UNL     1      -2.110   7.474  -6.068  1.00  0.00    -0.014 A 
BRANCH  42  43
ATOM     43  C   UNL     1      -0.993   8.072  -6.847  1.00  0.00     0.031 A 
ATOM     44  C   UNL     1       0.129   8.800  -6.155  1.00  0.00     0.074 A 
ATOM     45  C   UNL     1      -0.976   7.926  -8.188  1.00  0.00     0.049 A 
ATOM     46  N   UNL     1       1.153   9.419  -6.684  1.00  0.00    -0.248 NA
ATOM     47  C   UNL     1       0.101   8.847  -4.684  1.00  0.00     0.031 C 
ATOM     48  C   UNL     1      -1.989   7.211  -8.969  1.00  0.00     0.029 A 
ATOM     49  N   UNL     1      -0.068   8.341  -9.131  1.00  0.00    -0.354 N 
ATOM     50  C   UNL     1       1.865   9.960  -5.619  1.00  0.00     0.074 A 
ATOM     51  C   UNL     1       1.147   9.615  -4.413  1.00  0.00     0.031 C 
ATOM     52  C   UNL     1      -1.613   7.174 -10.252  1.00  0.00     0.029 A 
ATOM     53  C   UNL     1      -0.390   7.954 -10.411  1.00  0.00     0.049 A 
ATOM     54  H   UNL     1       0.736   8.865  -8.912  1.00  0.00     0.167 HD
ATOM     55  C   UNL     1       3.017  10.672  -5.650  1.00  0.00     0.031 A 
ATOM     56  C   UNL     1       0.204   8.214 -11.593  1.00  0.00     0.031 A 
ATOM     57  C   UNL     1       3.735  10.982  -6.860  1.00  0.00     0.049 A 
ATOM     58  C   UNL     1       1.450   9.047 -11.608  1.00  0.00     0.074 A 
ATOM     59  C   UNL     1       4.927  11.673  -6.991  1.00  0.00     0.029 A 
ATOM     60  N   UNL     1       3.336  10.625  -8.140  1.00  0.00    -0.354 N 
ATOM     61  N   UNL     1       2.105   9.552 -10.592  1.00  0.00    -0.248 NA
ATOM     62  C   UNL     1       2.035   9.353 -12.919  1.00  0.00     0.031 C 
ATOM     63  C   UNL     1       5.208  11.800  -8.352  1.00  0.00     0.029 A 
ATOM     64  C   UNL     1       4.241  11.112  -9.069  1.00  0.00     0.049 A 
ATOM     65  H   UNL     1       2.530  10.102  -8.356  1.00  0.00     0.167 HD
ATOM     66  C   UNL     1       3.188  10.229 -11.137  1.00  0.00     0.074 A 
ATOM     67  C   UNL     1       3.109  10.053 -12.574  1.00  0.00     0.031 C 
ATOM     68  C   UNL     1       4.154  10.933 -10.499  1.00  0.00     0.031 A 
BRANCH  55  69
ATOM     69  C   UNL     1       3.581  11.186  -4.347  1.00  0.00    -0.014 A 
ATOM     70  C   UNL     1       3.655  12.575  -4.124  1.00  0.00     0.010 A 
ATOM     71  C   UNL     1       4.138  10.315  -3.393  1.00  0.00     0.010 A 
ATOM     72  C   UNL     1       4.294  13.084  -2.990  1.00  0.00     0.020 A 
ATOM     73  C   UNL     1       4.749  10.819  -2.240  1.00  0.00     0.020 A 
ATOM     74  C   UNL     1       4.844  12.201  -2.058  1.00  0.00     0.054 A 
BRANCH  74  75
ATOM     75  S   UNL     1       5.681  12.878  -0.597  1.00  0.00     0.124 S 
ATOM     76  O   UNL     1       6.944  13.350  -1.157  1.00  0.00    -0.237 OA
ATOM     77  O   UNL     1       4.758  13.919  -0.153  1.00  0.00    -0.237 OA
ATOM     78  O   UNL     1       5.786  11.728   0.299  1.00  0.00    -0.744 OA
ENDBRANCH  74  75
ENDBRANCH  55  69
BRANCH  56  79
ATOM     79  C   UNL     1      -0.399   7.650 -12.833  1.00  0.00    -0.014 A 
ATOM     80  C   UNL     1      -1.678   8.068 -13.254  1.00  0.00     0.010 A 
ATOM     81  C   UNL     1       0.225   6.585 -13.504  1.00  0.00     0.010 A 
ATOM     82  C   UNL     1      -2.358   7.372 -14.255  1.00  0.00     0.020 A 
ATOM     83  C   UNL     1      -0.439   5.909 -14.532  1.00  0.00     0.020 A 
ATOM     84  C   UNL     1      -1.743   6.280 -14.871  1.00  0.00     0.054 A 
BRANCH  84  85
ATOM     85  S   UNL     1      -2.691   5.319 -16.082  1.00  0.00     0.124 S 
ATOM     86  O   UNL     1      -3.629   4.600 -15.223  1.00  0.00    -0.237 OA
ATOM     87  O   UNL     1      -3.278   6.358 -16.924  1.00  0.00    -0.237 OA
ATOM     88  O   UNL     1      -1.678   4.491 -16.731  1.00  0.00    -0.744 OA
ENDBRANCH  84  85
ENDBRANCH  56  79
BRANCH  68  89
ATOM     89  C   UNL     1       5.230  11.584 -11.329  1.00  0.00    -0.014 A 
ATOM     90  C   UNL     1       6.561  11.139 -11.213  1.00  0.00     0.010 A 
ATOM     91  C   UNL     1       4.956  12.737 -12.085  1.00  0.00     0.010 A 
ATOM     92  C   UNL     1       7.604  11.867 -11.786  1.00  0.00     0.020 A 
ATOM     93  C   UNL     1       5.995  13.450 -12.688  1.00  0.00     0.020 A 
ATOM     94  C   UNL     1       7.315  13.029 -12.506  1.00  0.00     0.054 A 
BRANCH  94  95
ATOM     95  S   UNL     1       8.691  14.004 -13.174  1.00  0.00     0.124 S 
ATOM     96  O   UNL     1       9.239  14.626 -11.972  1.00  0.00    -0.237 OA
ATOM     97  O   UNL     1       9.533  12.984 -13.795  1.00  0.00    -0.237 OA
ATOM     98  O   UNL     1       8.041  14.919 -14.110  1.00  0.00    -0.744 OA
ENDBRANCH  94  95
ENDBRANCH  68  89
ENDBRANCH  42  43
ENDBRANCH  34  37
ENDBRANCH  32  33
ENDBRANCH  31  32
ENDBRANCH   1  31
TORSDOF 18
