REMARK SMILES C[C@@H](C(=O)NCCCNC(=O)c1ccc(-c2c3nc(c(-c4ccc(S(=O)(=O)[O-])cc4)c4ccc([nH]4)c(-c4ccc(S(=O)(=O)[O-])cc4)c4nc(c(-c5ccc(S(=O)(=O)[O-])cc5)c5ccc2[nH]5)C=C4)C=C3)cc1)c1ccc(-c2ccc3[nH]ccc3c2)cc1
REMARK SMILES IDX 7 1 6 2 5 3 3 4 4 5 2 7 1 8 72 9 73 10 86 11 74 12 85 13
REMARK SMILES IDX 75 14 76 15 77 16 84 17 78 18 83 19 79 20 82 21 80 22 81 23
REMARK SMILES IDX 8 25 9 26 10 27 11 29 12 30 13 31 71 32 14 33 70 34 15 35
REMARK SMILES IDX 16 36 17 37 64 38 18 39 69 40 63 41 65 42 19 43 68 44 62 45
REMARK SMILES IDX 61 46 20 48 50 49 31 50 49 51 32 52 35 53 48 54 66 55 33 56
REMARK SMILES IDX 34 57 47 59 67 60 36 61 21 62 22 63 30 64 23 65 29 66 24 67
REMARK SMILES IDX 25 68 26 69 27 70 28 71 51 72 52 73 60 74 53 75 59 76 54 77
REMARK SMILES IDX 55 78 56 79 57 80 58 81 37 82 38 83 46 84 39 85 45 86 40 87
REMARK SMILES IDX 41 88 42 89 43 90 44 91
REMARK H PARENT 5 6 80 24 9 28 65 47 35 58
REMARK Flexibility Score: inf
ROOT
ATOM      1  C   UNL     1       4.371   0.240   1.181  1.00  0.00     0.042 C 
ENDROOT
BRANCH   1   2
ATOM      2  C   UNL     1       3.524  -0.914   1.707  1.00  0.00     0.117 C 
BRANCH   2   3
ATOM      3  N   UNL     1       2.485  -0.434   2.593  1.00  0.00    -0.356 N 
ATOM      4  C   UNL     1       1.160  -0.219   2.354  1.00  0.00     0.227 C 
ATOM      5  O   UNL     1       0.524   0.337   3.252  1.00  0.00    -0.274 OA
ATOM      6  H   UNL     1       2.780  -0.232   3.510  1.00  0.00     0.163 HD
BRANCH   4   7
ATOM      7  C   UNL     1       0.532  -0.704   1.039  1.00  0.00     0.105 C 
ATOM      8  C   UNL     1       0.948   0.144  -0.168  1.00  0.00     0.023 C 
BRANCH   7   9
ATOM      9  C   UNL     1      -0.987  -0.758   1.127  1.00  0.00    -0.036 A 
ATOM     10  C   UNL     1      -1.738   0.424   1.196  1.00  0.00     0.005 A 
ATOM     11  C   UNL     1      -1.657  -1.989   1.135  1.00  0.00     0.005 A 
ATOM     12  C   UNL     1      -3.127   0.379   1.226  1.00  0.00     0.009 A 
ATOM     13  C   UNL     1      -3.054  -2.031   1.167  1.00  0.00     0.009 A 
ATOM     14  C   UNL     1      -3.801  -0.847   1.191  1.00  0.00    -0.018 A 
BRANCH  14  15
ATOM     15  C   UNL     1      -5.261  -0.860   1.129  1.00  0.00    -0.018 A 
ATOM     16  C   UNL     1      -5.900  -0.566  -0.084  1.00  0.00     0.011 A 
ATOM     17  C   UNL     1      -6.030  -1.094   2.281  1.00  0.00     0.019 A 
ATOM     18  C   UNL     1      -7.292  -0.516  -0.190  1.00  0.00     0.027 A 
ATOM     19  C   UNL     1      -7.433  -0.999   2.209  1.00  0.00    -0.000 A 
ATOM     20  C   UNL     1      -8.028  -0.733   0.976  1.00  0.00     0.045 A 
ATOM     21  C   UNL     1      -8.480  -1.078   3.169  1.00  0.00     0.028 A 
ATOM     22  N   UNL     1      -9.389  -0.724   1.178  1.00  0.00    -0.361 N 
ATOM     23  C   UNL     1      -9.671  -0.880   2.509  1.00  0.00     0.083 A 
ATOM     24  H   UNL     1     -10.063  -0.620   0.468  1.00  0.00     0.166 HD
ENDBRANCH  14  15
ENDBRANCH   7   9
ENDBRANCH   4   7
ENDBRANCH   2   3
ENDBRANCH   1   2
BRANCH   1  25
ATOM     25  C   UNL     1       5.120   0.994   2.273  1.00  0.00     0.118 C 
BRANCH  25  26
ATOM     26  N   UNL     1       6.099   0.158   2.953  1.00  0.00    -0.352 N 
ATOM     27  C   UNL     1       7.458   0.326   3.067  1.00  0.00     0.251 C 
ATOM     28  H   UNL     1       5.735  -0.642   3.396  1.00  0.00     0.163 HD
ATOM     29  O   UNL     1       8.152  -0.588   3.496  1.00  0.00    -0.269 OA
BRANCH  27  30
ATOM     30  C   UNL     1       8.074   1.604   2.653  1.00  0.00     0.039 A 
ATOM     31  C   UNL     1       9.251   1.582   1.901  1.00  0.00     0.014 A 
ATOM     32  C   UNL     1       7.488   2.821   3.010  1.00  0.00     0.014 A 
ATOM     33  C   UNL     1       9.809   2.783   1.456  1.00  0.00     0.010 A 
ATOM     34  C   UNL     1       7.996   4.008   2.495  1.00  0.00     0.010 A 
ATOM     35  C   UNL     1       9.168   4.003   1.723  1.00  0.00    -0.014 A 
BRANCH  35  36
ATOM     36  C   UNL     1       9.708   5.298   1.238  1.00  0.00     0.031 A 
ATOM     37  C   UNL     1      10.121   6.349   2.231  1.00  0.00     0.074 A 
ATOM     38  C   UNL     1       9.740   5.564  -0.083  1.00  0.00     0.049 A 
ATOM     39  N   UNL     1      10.487   7.587   2.021  1.00  0.00    -0.248 NA
ATOM     40  C   UNL     1      10.086   5.965   3.652  1.00  0.00     0.031 C 
ATOM     41  C   UNL     1       9.343   4.638  -1.145  1.00  0.00     0.029 A 
ATOM     42  N   UNL     1      10.107   6.703  -0.755  1.00  0.00    -0.354 N 
ATOM     43  C   UNL     1      10.697   8.136   3.281  1.00  0.00     0.074 A 
ATOM     44  C   UNL     1      10.366   7.114   4.249  1.00  0.00     0.031 C 
ATOM     45  C   UNL     1       9.501   5.241  -2.334  1.00  0.00     0.029 A 
ATOM     46  C   UNL     1       9.959   6.611  -2.119  1.00  0.00     0.049 A 
ATOM     47  H   UNL     1      10.444   7.510  -0.303  1.00  0.00     0.167 HD
ATOM     48  C   UNL     1      11.140   9.375   3.604  1.00  0.00     0.031 A 
ATOM     49  C   UNL     1      10.149   7.529  -3.087  1.00  0.00     0.031 A 
ATOM     50  C   UNL     1      11.468  10.386   2.635  1.00  0.00     0.049 A 
ATOM     51  C   UNL     1      10.620   8.907  -2.708  1.00  0.00     0.074 A 
ATOM     52  C   UNL     1      11.970  11.657   2.855  1.00  0.00     0.029 A 
ATOM     53  N   UNL     1      11.322  10.244   1.263  1.00  0.00    -0.354 N 
ATOM     54  N   UNL     1      10.862   9.395  -1.514  1.00  0.00    -0.248 NA
ATOM     55  C   UNL     1      10.855   9.854  -3.806  1.00  0.00     0.031 C 
ATOM     56  C   UNL     1      12.070  12.304   1.619  1.00  0.00     0.029 A 
ATOM     57  C   UNL     1      11.703  11.412   0.624  1.00  0.00     0.049 A 
ATOM     58  H   UNL     1      10.997   9.433   0.810  1.00  0.00     0.167 HD
ATOM     59  C   UNL     1      11.314  10.694  -1.720  1.00  0.00     0.074 A 
ATOM     60  C   UNL     1      11.313  10.914  -3.152  1.00  0.00     0.031 C 
ATOM     61  C   UNL     1      11.703  11.616  -0.804  1.00  0.00     0.031 A 
BRANCH  48  62
ATOM     62  C   UNL     1      11.268   9.704   5.070  1.00  0.00    -0.014 A 
ATOM     63  C   UNL     1      12.218   9.059   5.885  1.00  0.00     0.010 A 
ATOM     64  C   UNL     1      10.428  10.676   5.643  1.00  0.00     0.010 A 
ATOM     65  C   UNL     1      12.281   9.333   7.253  1.00  0.00     0.020 A 
ATOM     66  C   UNL     1      10.513  10.980   7.005  1.00  0.00     0.020 A 
ATOM     67  C   UNL     1      11.423  10.288   7.806  1.00  0.00     0.054 A 
BRANCH  67  68
ATOM     68  S   UNL     1      11.520  10.616   9.587  1.00  0.00     0.124 S 
ATOM     69  O   UNL     1      10.930   9.403  10.148  1.00  0.00    -0.237 OA
ATOM     70  O   UNL     1      12.956  10.774   9.805  1.00  0.00    -0.237 OA
ATOM     71  O   UNL     1      10.728  11.831   9.760  1.00  0.00    -0.744 OA
ENDBRANCH  67  68
ENDBRANCH  48  62
BRANCH  49  72
ATOM     72  C   UNL     1       9.904   7.160  -4.508  1.00  0.00    -0.014 A 
ATOM     73  C   UNL     1      10.979   7.001  -5.400  1.00  0.00     0.010 A 
ATOM     74  C   UNL     1       8.595   6.919  -4.966  1.00  0.00     0.010 A 
ATOM     75  C   UNL     1      10.750   6.612  -6.724  1.00  0.00     0.020 A 
ATOM     76  C   UNL     1       8.364   6.502  -6.280  1.00  0.00     0.020 A 
ATOM     77  C   UNL     1       9.444   6.356  -7.152  1.00  0.00     0.054 A 
BRANCH  77  78
ATOM     78  S   UNL     1       9.181   5.774  -8.851  1.00  0.00     0.124 S 
ATOM     79  O   UNL     1       9.471   6.972  -9.632  1.00  0.00    -0.237 OA
ATOM     80  O   UNL     1      10.156   4.692  -8.965  1.00  0.00    -0.237 OA
ATOM     81  O   UNL     1       7.784   5.346  -8.854  1.00  0.00    -0.744 OA
ENDBRANCH  77  78
ENDBRANCH  49  72
BRANCH  61  82
ATOM     82  C   UNL     1      12.219  12.937  -1.314  1.00  0.00    -0.014 A 
ATOM     83  C   UNL     1      11.360  13.898  -1.875  1.00  0.00     0.010 A 
ATOM     84  C   UNL     1      13.581  13.250  -1.146  1.00  0.00     0.010 A 
ATOM     85  C   UNL     1      11.859  15.141  -2.276  1.00  0.00     0.020 A 
ATOM     86  C   UNL     1      14.077  14.501  -1.517  1.00  0.00     0.020 A 
ATOM     87  C   UNL     1      13.214  15.436  -2.089  1.00  0.00     0.054 A 
BRANCH  87  88
ATOM     88  S   UNL     1      13.821  17.081  -2.556  1.00  0.00     0.124 S 
ATOM     89  O   UNL     1      13.788  17.015  -4.014  1.00  0.00    -0.237 OA
ATOM     90  O   UNL     1      12.838  17.970  -1.944  1.00  0.00    -0.237 OA
ATOM     91  O   UNL     1      15.157  17.138  -1.966  1.00  0.00    -0.744 OA
ENDBRANCH  87  88
ENDBRANCH  61  82
ENDBRANCH  35  36
ENDBRANCH  27  30
ENDBRANCH  25  26
ENDBRANCH   1  25
TORSDOF 15
