REMARK SMILES [NH3+][C@]1(C(=O)NCCCNC(=O)c2ccc(-c3c4nc(c(-c5ccc(S(=O)(=O)[O-])cc5)c5ccc([nH]5)c(-c5ccc(S(=O)(=O)[O-])cc5)c5nc(c(-c6ccc(S(=O)(=O)[O-])cc6)c6ccc3[nH]6)C=C5)C=C4)cc2)CC[C@@H](Sc2cc3ccccc3[nH]2)C1
REMARK SMILES IDX 7 1 6 2 5 3 3 4 4 5 2 7 72 8 85 9 73 10 74 11 1 12 75 16
REMARK SMILES IDX 76 17 77 18 84 19 78 20 83 21 79 23 82 24 80 25 81 26 8 27
REMARK SMILES IDX 9 28 10 29 11 31 12 32 13 33 71 34 14 35 70 36 15 37 16 38
REMARK SMILES IDX 17 39 64 40 18 41 69 42 63 43 65 44 19 45 68 46 62 47 61 48
REMARK SMILES IDX 20 50 50 51 31 52 49 53 32 54 35 55 48 56 66 57 33 58 34 59
REMARK SMILES IDX 47 61 67 62 36 63 21 64 22 65 30 66 23 67 29 68 24 69 25 70
REMARK SMILES IDX 26 71 27 72 28 73 51 74 52 75 60 76 53 77 59 78 54 79 55 80
REMARK SMILES IDX 56 81 57 82 58 83 37 84 38 85 46 86 39 87 45 88 40 89 41 90
REMARK SMILES IDX 42 91 43 92 44 93
REMARK H PARENT 5 6 1 13 1 14 1 15 84 22 9 30 65 49 35 60
REMARK Flexibility Score: inf
ROOT
ATOM      1  C   UNL     1       1.864   1.444   3.018  1.00  0.00     0.042 C 
ENDROOT
BRANCH   1   2
ATOM      2  C   UNL     1       0.583   1.363   2.187  1.00  0.00     0.118 C 
BRANCH   2   3
ATOM      3  N   UNL     1       0.856   1.182   0.773  1.00  0.00    -0.351 N 
ATOM      4  C   UNL     1       0.732   0.074  -0.013  1.00  0.00     0.281 C 
ATOM      5  O   UNL     1       0.930   0.219  -1.224  1.00  0.00    -0.268 OA
ATOM      6  H   UNL     1       1.183   1.986   0.308  1.00  0.00     0.163 HD
BRANCH   4   7
ATOM      7  C   UNL     1       0.285  -1.292   0.572  1.00  0.00     0.175 C 
ATOM      8  C   UNL     1       0.630  -2.427  -0.417  1.00  0.00     0.080 C 
ATOM      9  C   UNL     1       1.074  -1.720   1.808  1.00  0.00     0.094 C 
ATOM     10  C   UNL     1       0.664  -3.703   0.414  1.00  0.00     0.022 C 
ATOM     11  C   UNL     1       1.051  -3.243   1.814  1.00  0.00     0.060 C 
BRANCH   7  12
ATOM     12  N   UNL     1      -1.169  -1.256   0.846  1.00  0.00    -0.345 N 
ATOM     13  H   UNL     1      -1.465  -2.152   1.231  1.00  0.00     0.345 HD
ATOM     14  H   UNL     1      -1.674  -1.075  -0.022  1.00  0.00     0.345 HD
ATOM     15  H   UNL     1      -1.370  -0.514   1.517  1.00  0.00     0.345 HD
ENDBRANCH   7  12
BRANCH  11  16
ATOM     16  S   UNL     1       2.561  -3.868   2.547  1.00  0.00    -0.105 SA
BRANCH  16  17
ATOM     17  C   UNL     1       3.763  -3.954   1.297  1.00  0.00     0.073 A 
ATOM     18  C   UNL     1       4.900  -3.199   1.085  1.00  0.00     0.043 A 
ATOM     19  N   UNL     1       4.040  -5.215   0.836  1.00  0.00    -0.350 N 
ATOM     20  C   UNL     1       5.966  -4.163   1.156  1.00  0.00     0.001 A 
ATOM     21  C   UNL     1       5.378  -5.427   1.092  1.00  0.00     0.046 A 
ATOM     22  H   UNL     1       3.412  -5.841   0.409  1.00  0.00     0.167 HD
ATOM     23  C   UNL     1       7.339  -4.078   1.460  1.00  0.00     0.010 A 
ATOM     24  C   UNL     1       6.053  -6.612   1.387  1.00  0.00     0.027 A 
ATOM     25  C   UNL     1       8.015  -5.250   1.830  1.00  0.00     0.001 A 
ATOM     26  C   UNL     1       7.375  -6.490   1.813  1.00  0.00     0.002 A 
ENDBRANCH  16  17
ENDBRANCH  11  16
ENDBRANCH   4   7
ENDBRANCH   2   3
ENDBRANCH   1   2
BRANCH   1  27
ATOM     27  C   UNL     1       2.639   2.744   2.821  1.00  0.00     0.118 C 
BRANCH  27  28
ATOM     28  N   UNL     1       1.891   3.903   3.292  1.00  0.00    -0.352 N 
ATOM     29  C   UNL     1       2.220   4.837   4.232  1.00  0.00     0.251 C 
ATOM     30  H   UNL     1       1.013   4.032   2.867  1.00  0.00     0.163 HD
ATOM     31  O   UNL     1       1.337   5.602   4.651  1.00  0.00    -0.269 OA
BRANCH  29  32
ATOM     32  C   UNL     1       3.595   4.950   4.756  1.00  0.00     0.039 A 
ATOM     33  C   UNL     1       3.781   5.231   6.112  1.00  0.00     0.014 A 
ATOM     34  C   UNL     1       4.702   4.830   3.910  1.00  0.00     0.014 A 
ATOM     35  C   UNL     1       5.074   5.347   6.627  1.00  0.00     0.010 A 
ATOM     36  C   UNL     1       5.990   4.873   4.438  1.00  0.00     0.010 A 
ATOM     37  C   UNL     1       6.190   5.142   5.800  1.00  0.00    -0.014 A 
BRANCH  37  38
ATOM     38  C   UNL     1       7.570   5.208   6.343  1.00  0.00     0.031 A 
ATOM     39  C   UNL     1       8.524   6.271   5.867  1.00  0.00     0.074 A 
ATOM     40  C   UNL     1       7.981   4.276   7.225  1.00  0.00     0.049 A 
ATOM     41  N   UNL     1       9.779   6.457   6.190  1.00  0.00    -0.248 NA
ATOM     42  C   UNL     1       8.009   7.237   4.883  1.00  0.00     0.031 C 
ATOM     43  C   UNL     1       7.163   3.172   7.733  1.00  0.00     0.029 A 
ATOM     44  N   UNL     1       9.193   4.103   7.846  1.00  0.00    -0.354 N 
ATOM     45  C   UNL     1      10.207   7.546   5.439  1.00  0.00     0.074 A 
ATOM     46  C   UNL     1       9.093   7.949   4.609  1.00  0.00     0.031 C 
ATOM     47  C   UNL     1       7.886   2.454   8.607  1.00  0.00     0.029 A 
ATOM     48  C   UNL     1       9.229   3.018   8.691  1.00  0.00     0.049 A 
ATOM     49  H   UNL     1       9.963   4.699   7.701  1.00  0.00     0.167 HD
ATOM     50  C   UNL     1      11.412   8.165   5.451  1.00  0.00     0.031 A 
ATOM     51  C   UNL     1      10.232   2.527   9.444  1.00  0.00     0.031 A 
ATOM     52  C   UNL     1      12.514   7.764   6.286  1.00  0.00     0.049 A 
ATOM     53  C   UNL     1      11.563   3.228   9.436  1.00  0.00     0.074 A 
ATOM     54  C   UNL     1      13.758   8.359   6.413  1.00  0.00     0.029 A 
ATOM     55  N   UNL     1      12.508   6.667   7.134  1.00  0.00    -0.354 N 
ATOM     56  N   UNL     1      11.928   4.295   8.767  1.00  0.00    -0.248 NA
ATOM     57  C   UNL     1      12.614   2.664  10.295  1.00  0.00     0.031 C 
ATOM     58  C   UNL     1      14.521   7.591   7.298  1.00  0.00     0.029 A 
ATOM     59  C   UNL     1      13.733   6.553   7.769  1.00  0.00     0.049 A 
ATOM     60  H   UNL     1      11.745   6.059   7.265  1.00  0.00     0.167 HD
ATOM     61  C   UNL     1      13.242   4.547   9.144  1.00  0.00     0.074 A 
ATOM     62  C   UNL     1      13.601   3.530  10.112  1.00  0.00     0.031 C 
ATOM     63  C   UNL     1      14.076   5.532   8.728  1.00  0.00     0.031 A 
BRANCH  50  64
ATOM     64  C   UNL     1      11.603   9.339   4.526  1.00  0.00    -0.014 A 
ATOM     65  C   UNL     1      10.935  10.557   4.748  1.00  0.00     0.010 A 
ATOM     66  C   UNL     1      12.493   9.237   3.441  1.00  0.00     0.010 A 
ATOM     67  C   UNL     1      11.120  11.636   3.880  1.00  0.00     0.020 A 
ATOM     68  C   UNL     1      12.703  10.324   2.586  1.00  0.00     0.020 A 
ATOM     69  C   UNL     1      12.001  11.511   2.802  1.00  0.00     0.054 A 
BRANCH  69  70
ATOM     70  S   UNL     1      12.237  12.935   1.703  1.00  0.00     0.124 S 
ATOM     71  O   UNL     1      10.976  12.957   0.965  1.00  0.00    -0.237 OA
ATOM     72  O   UNL     1      12.433  14.036   2.642  1.00  0.00    -0.237 OA
ATOM     73  O   UNL     1      13.413  12.575   0.915  1.00  0.00    -0.744 OA
ENDBRANCH  69  70
ENDBRANCH  50  64
BRANCH  51  74
ATOM     74  C   UNL     1      10.009   1.316  10.280  1.00  0.00    -0.014 A 
ATOM     75  C   UNL     1       9.954   1.416  11.682  1.00  0.00     0.010 A 
ATOM     76  C   UNL     1       9.832   0.057   9.678  1.00  0.00     0.010 A 
ATOM     77  C   UNL     1       9.747   0.278  12.466  1.00  0.00     0.020 A 
ATOM     78  C   UNL     1       9.595  -1.079  10.457  1.00  0.00     0.020 A 
ATOM     79  C   UNL     1       9.566  -0.963  11.848  1.00  0.00     0.054 A 
BRANCH  79  80
ATOM     80  S   UNL     1       9.249  -2.418  12.884  1.00  0.00     0.124 S 
ATOM     81  O   UNL     1      10.563  -2.668  13.468  1.00  0.00    -0.237 OA
ATOM     82  O   UNL     1       8.227  -1.931  13.808  1.00  0.00    -0.237 OA
ATOM     83  O   UNL     1       8.786  -3.423  11.930  1.00  0.00    -0.744 OA
ENDBRANCH  79  80
ENDBRANCH  51  74
BRANCH  63  84
ATOM     84  C   UNL     1      15.450   5.580   9.343  1.00  0.00    -0.014 A 
ATOM     85  C   UNL     1      16.428   4.623   9.021  1.00  0.00     0.010 A 
ATOM     86  C   UNL     1      15.780   6.630  10.221  1.00  0.00     0.010 A 
ATOM     87  C   UNL     1      17.701   4.694   9.595  1.00  0.00     0.020 A 
ATOM     88  C   UNL     1      17.060   6.721  10.773  1.00  0.00     0.020 A 
ATOM     89  C   UNL     1      18.008   5.743  10.468  1.00  0.00     0.054 A 
BRANCH  89  90
ATOM     90  S   UNL     1      19.678   5.834  11.169  1.00  0.00     0.124 S 
ATOM     91  O   UNL     1      19.653   4.756  12.154  1.00  0.00    -0.237 OA
ATOM     92  O   UNL     1      20.529   5.602  10.005  1.00  0.00    -0.237 OA
ATOM     93  O   UNL     1      19.747   7.184  11.725  1.00  0.00    -0.744 OA
ENDBRANCH  89  90
ENDBRANCH  63  84
ENDBRANCH  37  38
ENDBRANCH  29  32
ENDBRANCH  27  28
ENDBRANCH   1  27
TORSDOF 16
