REMARK SMILES Cc1ccc(C)c(/C=C2\SC(=S)N(CC(=O)NCCCNC(=O)c3ccc(-c4c5nc(c(-c6ccc(S(=O)(=O)[O-])cc6)c6ccc([nH]6)c(-c6ccc(S(=O)(=O)[O-])cc6)c6nc(c(-c7ccc(S(=O)(=O)[O-])cc7)c7ccc4[nH]7)C=C6)C=C5)cc3)C2=O)c1
REMARK SMILES IDX 19 1 18 2 17 3 15 4 16 5 14 7 13 8 8 9 9 10 10 11 84 12
REMARK SMILES IDX 11 13 85 14 12 15 7 16 1 17 2 18 3 19 86 20 4 21 5 22 6 23
REMARK SMILES IDX 20 24 21 25 22 26 23 28 24 29 25 30 83 31 26 32 82 33 27 34
REMARK SMILES IDX 28 35 29 36 76 37 30 38 81 39 75 40 77 41 31 42 80 43 74 44
REMARK SMILES IDX 73 45 32 47 62 48 43 49 61 50 44 51 47 52 60 53 78 54 45 55
REMARK SMILES IDX 46 56 59 58 79 59 48 60 33 61 34 62 42 63 35 64 41 65 36 66
REMARK SMILES IDX 37 67 38 68 39 69 40 70 63 71 64 72 72 73 65 74 71 75 66 76
REMARK SMILES IDX 67 77 68 78 69 79 70 80 49 81 50 82 58 83 51 84 57 85 52 86
REMARK SMILES IDX 53 87 54 88 55 89 56 90
REMARK H PARENT 17 6 21 27 77 46 47 57
REMARK Flexibility Score: inf
ROOT
ATOM      1  C   UNL     1      -3.016   3.813  -4.734  1.00  0.00     0.042 C 
ENDROOT
BRANCH   1   2
ATOM      2  C   UNL     1      -3.299   5.317  -4.785  1.00  0.00     0.117 C 
BRANCH   2   3
ATOM      3  N   UNL     1      -4.039   5.833  -3.649  1.00  0.00    -0.354 N 
ATOM      4  C   UNL     1      -3.614   6.634  -2.626  1.00  0.00     0.240 C 
ATOM      5  O   UNL     1      -4.464   7.342  -2.081  1.00  0.00    -0.273 OA
ATOM      6  H   UNL     1      -4.987   5.567  -3.609  1.00  0.00     0.163 HD
BRANCH   4   7
ATOM      7  C   UNL     1      -2.130   6.786  -2.271  1.00  0.00     0.227 C 
BRANCH   7   8
ATOM      8  N   UNL     1      -1.448   5.505  -2.092  1.00  0.00    -0.283 N 
ATOM      9  C   UNL     1      -1.298   2.517  -0.057  1.00  0.00     0.029 C 
ATOM     10  C   UNL     1      -1.070   3.457  -0.985  1.00  0.00     0.081 C 
ATOM     11  S   UNL     1       0.045   3.423  -2.292  1.00  0.00    -0.054 SA
ATOM     12  C   UNL     1      -1.842   4.731  -1.004  1.00  0.00     0.266 C 
ATOM     13  C   UNL     1      -0.370   5.051  -2.812  1.00  0.00     0.148 C 
ATOM     14  O   UNL     1      -2.675   5.022  -0.183  1.00  0.00    -0.268 OA
ATOM     15  S   UNL     1       0.500   5.832  -4.003  1.00  0.00    -0.052 S 
BRANCH   9  16
ATOM     16  C   UNL     1      -0.643   1.201   0.016  1.00  0.00    -0.021 A 
ATOM     17  C   UNL     1       2.940  -0.118   0.094  1.00  0.00     0.044 C 
ATOM     18  C   UNL     1       1.442  -0.079   0.087  1.00  0.00    -0.051 A 
ATOM     19  C   UNL     1       0.704  -1.262   0.060  1.00  0.00     0.004 A 
ATOM     20  C   UNL     1       0.760   1.143   0.091  1.00  0.00     0.011 A 
ATOM     21  C   UNL     1      -0.692  -1.221   0.036  1.00  0.00     0.004 A 
ATOM     22  C   UNL     1      -1.383   0.003   0.013  1.00  0.00    -0.044 A 
ATOM     23  C   UNL     1      -2.888  -0.052  -0.024  1.00  0.00     0.045 C 
ENDBRANCH   9  16
ENDBRANCH   7   8
ENDBRANCH   4   7
ENDBRANCH   2   3
ENDBRANCH   1   2
BRANCH   1  24
ATOM     24  C   UNL     1      -4.196   2.917  -5.097  1.00  0.00     0.118 C 
BRANCH  24  25
ATOM     25  N   UNL     1      -4.671   3.116  -6.476  1.00  0.00    -0.352 N 
ATOM     26  C   UNL     1      -5.921   3.040  -7.072  1.00  0.00     0.251 C 
ATOM     27  H   UNL     1      -3.952   3.352  -7.106  1.00  0.00     0.163 HD
ATOM     28  O   UNL     1      -5.991   2.964  -8.296  1.00  0.00    -0.269 OA
BRANCH  26  29
ATOM     29  C   UNL     1      -7.162   3.054  -6.272  1.00  0.00     0.039 A 
ATOM     30  C   UNL     1      -8.439   2.789  -6.782  1.00  0.00     0.014 A 
ATOM     31  C   UNL     1      -7.067   3.441  -4.961  1.00  0.00     0.014 A 
ATOM     32  C   UNL     1      -9.555   3.019  -5.960  1.00  0.00     0.010 A 
ATOM     33  C   UNL     1      -8.076   3.148  -4.110  1.00  0.00     0.010 A 
ATOM     34  C   UNL     1      -9.345   3.265  -4.607  1.00  0.00    -0.014 A 
BRANCH  34  35
ATOM     35  C   UNL     1     -10.345   3.620  -3.618  1.00  0.00     0.031 A 
ATOM     36  C   UNL     1     -11.078   2.475  -3.048  1.00  0.00     0.074 A 
ATOM     37  C   UNL     1     -10.316   4.804  -2.961  1.00  0.00     0.049 A 
ATOM     38  N   UNL     1     -12.268   2.077  -3.346  1.00  0.00    -0.248 NA
ATOM     39  C   UNL     1     -10.326   1.545  -2.188  1.00  0.00     0.031 C 
ATOM     40  C   UNL     1      -9.332   5.891  -3.063  1.00  0.00     0.029 A 
ATOM     41  N   UNL     1     -11.114   5.223  -1.942  1.00  0.00    -0.354 N 
ATOM     42  C   UNL     1     -12.489   0.976  -2.530  1.00  0.00     0.074 A 
ATOM     43  C   UNL     1     -11.189   0.534  -2.100  1.00  0.00     0.031 C 
ATOM     44  C   UNL     1      -9.479   6.736  -2.014  1.00  0.00     0.029 A 
ATOM     45  C   UNL     1     -10.647   6.333  -1.249  1.00  0.00     0.049 A 
ATOM     46  H   UNL     1     -11.960   4.773  -1.712  1.00  0.00     0.167 HD
ATOM     47  C   UNL     1     -13.715   0.699  -2.004  1.00  0.00     0.031 A 
ATOM     48  C   UNL     1     -11.165   6.841  -0.101  1.00  0.00     0.031 A 
ATOM     49  C   UNL     1     -14.730   1.568  -2.552  1.00  0.00     0.049 A 
ATOM     50  C   UNL     1     -12.539   6.288   0.037  1.00  0.00     0.074 A 
ATOM     51  C   UNL     1     -15.187   1.849  -3.823  1.00  0.00     0.029 A 
ATOM     52  N   UNL     1     -15.135   2.619  -1.757  1.00  0.00    -0.354 N 
ATOM     53  N   UNL     1     -13.518   6.567  -0.779  1.00  0.00    -0.248 NA
ATOM     54  C   UNL     1     -12.723   5.080   0.829  1.00  0.00     0.031 C 
ATOM     55  C   UNL     1     -15.441   3.253  -3.823  1.00  0.00     0.029 A 
ATOM     56  C   UNL     1     -15.188   3.744  -2.540  1.00  0.00     0.049 A 
ATOM     57  H   UNL     1     -15.348   2.571  -0.797  1.00  0.00     0.167 HD
ATOM     58  C   UNL     1     -14.222   5.379  -0.918  1.00  0.00     0.074 A 
ATOM     59  C   UNL     1     -13.761   4.538   0.183  1.00  0.00     0.031 C 
ATOM     60  C   UNL     1     -14.892   5.087  -2.073  1.00  0.00     0.031 A 
BRANCH  47  61
ATOM     61  C   UNL     1     -13.934  -0.055  -0.712  1.00  0.00    -0.014 A 
ATOM     62  C   UNL     1     -15.254  -0.358  -0.328  1.00  0.00     0.010 A 
ATOM     63  C   UNL     1     -12.927  -0.270   0.252  1.00  0.00     0.010 A 
ATOM     64  C   UNL     1     -15.555  -0.778   0.974  1.00  0.00     0.020 A 
ATOM     65  C   UNL     1     -13.208  -0.739   1.535  1.00  0.00     0.020 A 
ATOM     66  C   UNL     1     -14.527  -0.950   1.901  1.00  0.00     0.054 A 
BRANCH  66  67
ATOM     67  S   UNL     1     -14.929  -1.368   3.612  1.00  0.00     0.124 S 
ATOM     68  O   UNL     1     -15.591  -0.149   4.067  1.00  0.00    -0.237 OA
ATOM     69  O   UNL     1     -15.788  -2.538   3.453  1.00  0.00    -0.237 OA
ATOM     70  O   UNL     1     -13.625  -1.636   4.214  1.00  0.00    -0.744 OA
ENDBRANCH  66  67
ENDBRANCH  47  61
BRANCH  48  71
ATOM     71  C   UNL     1     -10.480   7.561   1.003  1.00  0.00    -0.014 A 
ATOM     72  C   UNL     1     -11.218   8.252   1.983  1.00  0.00     0.010 A 
ATOM     73  C   UNL     1      -9.109   7.346   1.252  1.00  0.00     0.010 A 
ATOM     74  C   UNL     1     -10.625   8.649   3.195  1.00  0.00     0.020 A 
ATOM     75  C   UNL     1      -8.508   7.746   2.454  1.00  0.00     0.020 A 
ATOM     76  C   UNL     1      -9.277   8.372   3.432  1.00  0.00     0.054 A 
BRANCH  76  77
ATOM     77  S   UNL     1      -8.571   8.710   5.074  1.00  0.00     0.124 S 
ATOM     78  O   UNL     1      -8.490  10.168   5.085  1.00  0.00    -0.237 OA
ATOM     79  O   UNL     1      -9.564   8.127   5.973  1.00  0.00    -0.237 OA
ATOM     80  O   UNL     1      -7.285   8.017   5.048  1.00  0.00    -0.744 OA
ENDBRANCH  76  77
ENDBRANCH  48  71
BRANCH  60  81
ATOM     81  C   UNL     1     -15.119   6.200  -3.073  1.00  0.00    -0.014 A 
ATOM     82  C   UNL     1     -14.075   6.884  -3.726  1.00  0.00     0.010 A 
ATOM     83  C   UNL     1     -16.440   6.438  -3.494  1.00  0.00     0.010 A 
ATOM     84  C   UNL     1     -14.347   7.787  -4.765  1.00  0.00     0.020 A 
ATOM     85  C   UNL     1     -16.716   7.323  -4.541  1.00  0.00     0.020 A 
ATOM     86  C   UNL     1     -15.668   7.996  -5.170  1.00  0.00     0.054 A 
BRANCH  86  87
ATOM     87  S   UNL     1     -16.008   9.097  -6.572  1.00  0.00     0.124 S 
ATOM     88  O   UNL     1     -15.727  10.417  -6.016  1.00  0.00    -0.237 OA
ATOM     89  O   UNL     1     -15.068   8.630  -7.590  1.00  0.00    -0.237 OA
ATOM     90  O   UNL     1     -17.415   8.843  -6.881  1.00  0.00    -0.744 OA
ENDBRANCH  86  87
ENDBRANCH  60  81
ENDBRANCH  34  35
ENDBRANCH  26  29
ENDBRANCH  24  25
ENDBRANCH   1  24
TORSDOF 15
