REMARK SMILES O=C(NCCCNC(=O)[C@H]1Cc2c([nH]c3ccccc23)[C@H](c2c[nH]c3ccccc23)[NH2+]1)c1ccc(-c2c3nc(c(-c4ccc(S(=O)(=O)[O-])cc4)c4ccc([nH]4)c(-c4ccc(S(=O)(=O)[O-])cc4)c4nc(c(-c5ccc(S(=O)(=O)[O-])cc5)c5ccc2[nH]5)C=C4)C=C3)cc1
REMARK SMILES IDX 4 1 3 2 1 3 2 4 32 6 33 7 91 8 34 9 90 10 35 11 36 12 37 13
REMARK SMILES IDX 84 14 38 15 89 16 83 17 85 18 39 19 88 20 82 21 81 22 40 24
REMARK SMILES IDX 70 25 51 26 69 27 52 28 55 29 68 30 86 31 53 32 54 33 67 35
REMARK SMILES IDX 87 36 56 37 41 38 42 39 50 40 43 41 49 42 44 43 45 44 46 45
REMARK SMILES IDX 47 46 48 47 71 48 72 49 80 50 73 51 79 52 74 53 75 54 76 55
REMARK SMILES IDX 77 56 78 57 57 58 58 59 66 60 59 61 65 62 60 63 61 64 62 65
REMARK SMILES IDX 63 66 64 67 5 68 6 69 7 70 8 71 9 73 10 74 11 75 31 76 12 77
REMARK SMILES IDX 21 78 13 81 20 82 14 83 15 84 19 85 16 87 18 88 17 89 22 90
REMARK SMILES IDX 23 91 30 92 24 93 25 94 29 95 26 97 28 98 27 99
REMARK H PARENT 3 5 85 23 55 34 7 72 31 79 31 80 14 86 24 96
REMARK Flexibility Score: inf
ROOT
ATOM      1  C   UNL     1       4.487   0.989   0.845  1.00  0.00     0.118 C 
ENDROOT
BRANCH   1   2
ATOM      2  N   UNL     1       3.059   0.670   0.847  1.00  0.00    -0.352 N 
ATOM      3  O   UNL     1       1.157  -0.227   0.042  1.00  0.00    -0.269 OA
ATOM      4  C   UNL     1       2.374  -0.304   0.164  1.00  0.00     0.251 C 
ATOM      5  H   UNL     1       2.505   1.242   1.426  1.00  0.00     0.163 HD
BRANCH   4   6
ATOM      6  C   UNL     1       3.119  -1.442  -0.405  1.00  0.00     0.039 A 
ATOM      7  C   UNL     1       4.197  -1.975   0.302  1.00  0.00     0.014 A 
ATOM      8  C   UNL     1       2.725  -2.002  -1.623  1.00  0.00     0.014 A 
ATOM      9  C   UNL     1       4.986  -2.949  -0.277  1.00  0.00     0.010 A 
ATOM     10  C   UNL     1       3.439  -3.086  -2.140  1.00  0.00     0.010 A 
ATOM     11  C   UNL     1       4.580  -3.557  -1.473  1.00  0.00    -0.014 A 
BRANCH  11  12
ATOM     12  C   UNL     1       5.296  -4.778  -1.904  1.00  0.00     0.031 A 
ATOM     13  C   UNL     1       6.051  -4.828  -3.197  1.00  0.00     0.074 A 
ATOM     14  C   UNL     1       5.279  -5.834  -1.064  1.00  0.00     0.049 A 
ATOM     15  N   UNL     1       6.745  -5.819  -3.693  1.00  0.00    -0.248 NA
ATOM     16  C   UNL     1       6.025  -3.627  -4.047  1.00  0.00     0.031 C 
ATOM     17  C   UNL     1       4.564  -5.880   0.220  1.00  0.00     0.029 A 
ATOM     18  N   UNL     1       5.894  -7.054  -1.137  1.00  0.00    -0.354 N 
ATOM     19  C   UNL     1       7.215  -5.376  -4.923  1.00  0.00     0.074 A 
ATOM     20  C   UNL     1       6.720  -4.029  -5.105  1.00  0.00     0.031 C 
ATOM     21  C   UNL     1       4.833  -7.037   0.836  1.00  0.00     0.029 A 
ATOM     22  C   UNL     1       5.655  -7.853  -0.043  1.00  0.00     0.049 A 
ATOM     23  H   UNL     1       6.452  -7.333  -1.898  1.00  0.00     0.167 HD
ATOM     24  C   UNL     1       7.985  -6.044  -5.813  1.00  0.00     0.031 A 
ATOM     25  C   UNL     1       6.025  -9.121   0.212  1.00  0.00     0.031 A 
ATOM     26  C   UNL     1       8.472  -7.385  -5.606  1.00  0.00     0.049 A 
ATOM     27  C   UNL     1       6.847  -9.840  -0.815  1.00  0.00     0.074 A 
ATOM     28  C   UNL     1       9.294  -8.134  -6.429  1.00  0.00     0.029 A 
ATOM     29  N   UNL     1       8.175  -8.178  -4.508  1.00  0.00    -0.354 N 
ATOM     30  N   UNL     1       7.320  -9.386  -1.951  1.00  0.00    -0.248 NA
ATOM     31  C   UNL     1       7.181 -11.239  -0.531  1.00  0.00     0.031 C 
ATOM     32  C   UNL     1       9.441  -9.403  -5.861  1.00  0.00     0.029 A 
ATOM     33  C   UNL     1       8.767  -9.422  -4.650  1.00  0.00     0.049 A 
ATOM     34  H   UNL     1       7.626  -7.899  -3.740  1.00  0.00     0.167 HD
ATOM     35  C   UNL     1       8.020 -10.445  -2.514  1.00  0.00     0.074 A 
ATOM     36  C   UNL     1       7.936 -11.547  -1.576  1.00  0.00     0.031 C 
ATOM     37  C   UNL     1       8.666 -10.505  -3.704  1.00  0.00     0.031 A 
BRANCH  24  38
ATOM     38  C   UNL     1       8.332  -5.363  -7.111  1.00  0.00    -0.014 A 
ATOM     39  C   UNL     1       9.272  -4.320  -7.163  1.00  0.00     0.010 A 
ATOM     40  C   UNL     1       7.785  -5.852  -8.312  1.00  0.00     0.010 A 
ATOM     41  C   UNL     1       9.653  -3.773  -8.393  1.00  0.00     0.020 A 
ATOM     42  C   UNL     1       8.180  -5.324  -9.545  1.00  0.00     0.020 A 
ATOM     43  C   UNL     1       9.110  -4.284  -9.576  1.00  0.00     0.054 A 
BRANCH  43  44
ATOM     44  S   UNL     1       9.680  -3.605 -11.159  1.00  0.00     0.124 S 
ATOM     45  O   UNL     1       9.085  -2.271 -11.148  1.00  0.00    -0.237 OA
ATOM     46  O   UNL     1      11.133  -3.644 -11.018  1.00  0.00    -0.237 OA
ATOM     47  O   UNL     1       9.128  -4.523 -12.152  1.00  0.00    -0.744 OA
ENDBRANCH  43  44
ENDBRANCH  24  38
BRANCH  25  48
ATOM     48  C   UNL     1       5.566  -9.798   1.454  1.00  0.00    -0.014 A 
ATOM     49  C   UNL     1       6.482 -10.201   2.440  1.00  0.00     0.010 A 
ATOM     50  C   UNL     1       4.194 -10.051   1.651  1.00  0.00     0.010 A 
ATOM     51  C   UNL     1       6.039 -10.880   3.579  1.00  0.00     0.020 A 
ATOM     52  C   UNL     1       3.744 -10.693   2.805  1.00  0.00     0.020 A 
ATOM     53  C   UNL     1       4.673 -11.125   3.752  1.00  0.00     0.054 A 
BRANCH  53  54
ATOM     54  S   UNL     1       4.120 -12.003   5.238  1.00  0.00     0.124 S 
ATOM     55  O   UNL     1       4.537 -13.371   4.952  1.00  0.00    -0.237 OA
ATOM     56  O   UNL     1       4.859 -11.324   6.300  1.00  0.00    -0.237 OA
ATOM     57  O   UNL     1       2.676 -11.777   5.251  1.00  0.00    -0.744 OA
ENDBRANCH  53  54
ENDBRANCH  25  48
BRANCH  37  58
ATOM     58  C   UNL     1       9.352 -11.799  -4.040  1.00  0.00    -0.014 A 
ATOM     59  C   UNL     1       8.613 -12.951  -4.364  1.00  0.00     0.010 A 
ATOM     60  C   UNL     1      10.758 -11.853  -4.063  1.00  0.00     0.010 A 
ATOM     61  C   UNL     1       9.269 -14.145  -4.671  1.00  0.00     0.020 A 
ATOM     62  C   UNL     1      11.416 -13.036  -4.402  1.00  0.00     0.020 A 
ATOM     63  C   UNL     1      10.667 -14.179  -4.688  1.00  0.00     0.054 A 
BRANCH  63  64
ATOM     64  S   UNL     1      11.493 -15.731  -5.128  1.00  0.00     0.124 S 
ATOM     65  O   UNL     1      11.265 -16.545  -3.938  1.00  0.00    -0.237 OA
ATOM     66  O   UNL     1      10.768 -16.151  -6.325  1.00  0.00    -0.237 OA
ATOM     67  O   UNL     1      12.881 -15.333  -5.354  1.00  0.00    -0.744 OA
ENDBRANCH  63  64
ENDBRANCH  37  58
ENDBRANCH  11  12
ENDBRANCH   4   6
ENDBRANCH   1   2
BRANCH   1  68
ATOM     68  C   UNL     1       4.767   2.255   0.058  1.00  0.00     0.042 C 
BRANCH  68  69
ATOM     69  C   UNL     1       4.122   3.456   0.723  1.00  0.00     0.118 C 
BRANCH  69  70
ATOM     70  N   UNL     1       4.941   3.989   1.802  1.00  0.00    -0.351 N 
ATOM     71  C   UNL     1       5.718   5.090   1.972  1.00  0.00     0.278 C 
ATOM     72  H   UNL     1       4.930   3.412   2.599  1.00  0.00     0.163 HD
ATOM     73  O   UNL     1       6.258   5.184   3.087  1.00  0.00    -0.268 OA
BRANCH  71  74
ATOM     74  C   UNL     1       5.989   6.183   0.907  1.00  0.00     0.277 C 
ATOM     75  C   UNL     1       5.140   6.065  -0.349  1.00  0.00     0.114 C 
ATOM     76  N   UNL     1       5.813   7.517   1.568  1.00  0.00    -0.324 N 
ATOM     77  C   UNL     1       5.218   7.263  -1.190  1.00  0.00    -0.006 A 
ATOM     78  C   UNL     1       6.152   8.680   0.729  1.00  0.00     0.264 C 
ATOM     79  H   UNL     1       6.409   7.541   2.396  1.00  0.00     0.347 HD
ATOM     80  H   UNL     1       4.819   7.600   1.781  1.00  0.00     0.347 HD
ATOM     81  C   UNL     1       5.641   8.462  -0.673  1.00  0.00     0.083 A 
ATOM     82  C   UNL     1       4.799   7.441  -2.522  1.00  0.00     0.003 A 
ATOM     83  N   UNL     1       5.443   9.401  -1.654  1.00  0.00    -0.353 N 
ATOM     84  C   UNL     1       4.930   8.802  -2.793  1.00  0.00     0.046 A 
ATOM     85  C   UNL     1       4.283   6.576  -3.504  1.00  0.00     0.010 A 
ATOM     86  H   UNL     1       5.637  10.362  -1.562  1.00  0.00     0.166 HD
ATOM     87  C   UNL     1       4.557   9.342  -4.029  1.00  0.00     0.026 A 
ATOM     88  C   UNL     1       3.917   7.099  -4.744  1.00  0.00     0.001 A 
ATOM     89  C   UNL     1       4.050   8.463  -4.998  1.00  0.00     0.002 A 
BRANCH  78  90
ATOM     90  C   UNL     1       7.621   9.071   0.759  1.00  0.00     0.041 A 
ATOM     91  C   UNL     1       8.079  10.258   0.196  1.00  0.00     0.093 A 
ATOM     92  C   UNL     1       8.798   8.435   1.323  1.00  0.00     0.009 A 
ATOM     93  N   UNL     1       9.437  10.309   0.290  1.00  0.00    -0.361 N 
ATOM     94  C   UNL     1       9.906   9.214   0.967  1.00  0.00     0.046 A 
ATOM     95  C   UNL     1       9.067   7.276   2.091  1.00  0.00     0.011 A 
ATOM     96  H   UNL     1      10.000  11.029  -0.076  1.00  0.00     0.166 HD
ATOM     97  C   UNL     1      11.229   8.874   1.282  1.00  0.00     0.026 A 
ATOM     98  C   UNL     1      10.383   6.919   2.417  1.00  0.00     0.001 A 
ATOM     99  C   UNL     1      11.450   7.705   2.006  1.00  0.00     0.002 A 
ENDBRANCH  78  90
ENDBRANCH  71  74
ENDBRANCH  69  70
ENDBRANCH  68  69
ENDBRANCH   1  68
TORSDOF 14
