REMARK SMILES [NH3+]C[C@@H]1CC[C@H](C(=O)N[C@@H](Cc2ccccc2)C(=O)NCCCNC(=O)c2ccc(-c3c4nc(c(-c5ccc(S(=O)(=O)[O-])cc5)c5ccc([nH]5)c(-c5ccc(S(=O)(=O)[O-])cc5)c5nc(c(-c6ccc(S(=O)(=O)[O-])cc6)c6ccc3[nH]6)C=C5)C=C4)cc2)O1
REMARK SMILES IDX 21 1 20 2 18 3 19 4 10 6 9 7 7 8 8 9 6 11 3 12 4 13 87 14
REMARK SMILES IDX 5 15 2 16 1 17 11 21 12 22 13 23 17 24 14 25 16 26 15 27
REMARK SMILES IDX 22 28 23 29 24 30 25 31 26 33 27 34 28 35 86 36 29 37 85 38
REMARK SMILES IDX 30 39 31 40 32 41 79 42 33 43 84 44 78 45 80 46 34 47 83 48
REMARK SMILES IDX 77 49 76 50 35 52 65 53 46 54 64 55 47 56 50 57 63 58 81 59
REMARK SMILES IDX 48 60 49 61 62 63 82 64 51 65 36 66 37 67 45 68 38 69 44 70
REMARK SMILES IDX 39 71 40 72 41 73 42 74 43 75 66 76 67 77 75 78 68 79 74 80
REMARK SMILES IDX 69 81 70 82 71 83 72 84 73 85 52 86 53 87 61 88 54 89 60 90
REMARK SMILES IDX 55 91 56 92 57 93 58 94 59 95
REMARK H PARENT 20 5 9 10 1 18 1 19 1 20 24 32 80 51 50 62
REMARK Flexibility Score: inf
ROOT
ATOM      1  C   UNL     1      -3.199   2.675  -2.654  1.00  0.00     0.117 C 
ENDROOT
BRANCH   1   2
ATOM      2  N   UNL     1      -2.594   1.696  -1.775  1.00  0.00    -0.354 N 
ATOM      3  C   UNL     1      -2.022   1.869  -0.555  1.00  0.00     0.242 C 
ATOM      4  O   UNL     1      -2.045   0.892   0.204  1.00  0.00    -0.273 OA
ATOM      5  H   UNL     1      -2.599   0.770  -2.110  1.00  0.00     0.163 HD
BRANCH   3   6
ATOM      6  C   UNL     1      -1.504   3.227  -0.045  1.00  0.00     0.175 C 
BRANCH   6   7
ATOM      7  N   UNL     1      -0.768   4.059  -0.998  1.00  0.00    -0.342 N 
ATOM      8  C   UNL     1       0.572   4.297  -1.081  1.00  0.00     0.249 C 
ATOM      9  O   UNL     1       0.969   5.007  -2.010  1.00  0.00    -0.272 OA
ATOM     10  H   UNL     1      -1.320   4.513  -1.675  1.00  0.00     0.164 HD
BRANCH   8  11
ATOM     11  C   UNL     1       1.554   3.766  -0.023  1.00  0.00     0.207 C 
ATOM     12  C   UNL     1       1.712   2.067   1.548  1.00  0.00     0.174 C 
ATOM     13  C   UNL     1       1.221   3.279   2.321  1.00  0.00     0.041 C 
ATOM     14  O   UNL     1       1.453   2.354   0.165  1.00  0.00    -0.359 OA
ATOM     15  C   UNL     1       1.402   4.425   1.345  1.00  0.00     0.045 C 
BRANCH  12  16
ATOM     16  C   UNL     1       1.019   0.754   1.947  1.00  0.00     0.291 C 
BRANCH  16  17
ATOM     17  N   UNL     1       1.249  -0.315   0.967  1.00  0.00    -0.355 N 
ATOM     18  H   UNL     1       0.772  -1.163   1.271  1.00  0.00     0.344 HD
ATOM     19  H   UNL     1       2.250  -0.496   0.891  1.00  0.00     0.344 HD
ATOM     20  H   UNL     1       0.885  -0.027   0.058  1.00  0.00     0.344 HD
ENDBRANCH  16  17
ENDBRANCH  12  16
ENDBRANCH   8  11
ENDBRANCH   6   7
BRANCH   6  21
ATOM     21  C   UNL     1      -2.533   4.018   0.781  1.00  0.00     0.070 C 
BRANCH  21  22
ATOM     22  C   UNL     1      -3.826   4.357   0.088  1.00  0.00    -0.045 A 
ATOM     23  C   UNL     1      -3.930   5.492  -0.727  1.00  0.00     0.004 A 
ATOM     24  C   UNL     1      -4.932   3.502   0.215  1.00  0.00     0.004 A 
ATOM     25  C   UNL     1      -5.106   5.742  -1.436  1.00  0.00     0.000 A 
ATOM     26  C   UNL     1      -6.107   3.756  -0.494  1.00  0.00     0.000 A 
ATOM     27  C   UNL     1      -6.189   4.870  -1.327  1.00  0.00     0.000 A 
ENDBRANCH  21  22
ENDBRANCH   6  21
ENDBRANCH   3   6
ENDBRANCH   1   2
BRANCH   1  28
ATOM     28  C   UNL     1      -3.208   2.257  -4.107  1.00  0.00     0.042 C 
BRANCH  28  29
ATOM     29  C   UNL     1      -4.012   0.991  -4.356  1.00  0.00     0.118 C 
BRANCH  29  30
ATOM     30  N   UNL     1      -5.414   1.105  -3.952  1.00  0.00    -0.352 N 
ATOM     31  C   UNL     1      -6.553   1.165  -4.722  1.00  0.00     0.251 C 
ATOM     32  H   UNL     1      -5.566   1.145  -2.980  1.00  0.00     0.163 HD
ATOM     33  O   UNL     1      -7.635   1.440  -4.214  1.00  0.00    -0.269 OA
BRANCH  31  34
ATOM     34  C   UNL     1      -6.442   0.929  -6.174  1.00  0.00     0.039 A 
ATOM     35  C   UNL     1      -7.037   1.820  -7.069  1.00  0.00     0.014 A 
ATOM     36  C   UNL     1      -5.661  -0.128  -6.640  1.00  0.00     0.014 A 
ATOM     37  C   UNL     1      -6.746   1.714  -8.431  1.00  0.00     0.010 A 
ATOM     38  C   UNL     1      -5.267  -0.145  -7.968  1.00  0.00     0.010 A 
ATOM     39  C   UNL     1      -5.807   0.772  -8.881  1.00  0.00    -0.014 A 
BRANCH  39  40
ATOM     40  C   UNL     1      -5.364   0.705 -10.297  1.00  0.00     0.031 A 
ATOM     41  C   UNL     1      -5.513  -0.586 -11.059  1.00  0.00     0.074 A 
ATOM     42  C   UNL     1      -4.732   1.756 -10.858  1.00  0.00     0.049 A 
ATOM     43  N   UNL     1      -5.054  -0.906 -12.240  1.00  0.00    -0.248 NA
ATOM     44  C   UNL     1      -6.230  -1.680 -10.379  1.00  0.00     0.031 C 
ATOM     45  C   UNL     1      -4.467   3.042 -10.205  1.00  0.00     0.029 A 
ATOM     46  N   UNL     1      -4.185   1.906 -12.108  1.00  0.00    -0.354 N 
ATOM     47  C   UNL     1      -5.388  -2.243 -12.423  1.00  0.00     0.074 A 
ATOM     48  C   UNL     1      -6.030  -2.692 -11.208  1.00  0.00     0.031 C 
ATOM     49  C   UNL     1      -3.848   3.860 -11.073  1.00  0.00     0.029 A 
ATOM     50  C   UNL     1      -3.627   3.144 -12.324  1.00  0.00     0.049 A 
ATOM     51  H   UNL     1      -4.191   1.193 -12.787  1.00  0.00     0.167 HD
ATOM     52  C   UNL     1      -5.207  -3.023 -13.514  1.00  0.00     0.031 A 
ATOM     53  C   UNL     1      -3.004   3.646 -13.408  1.00  0.00     0.031 A 
ATOM     54  C   UNL     1      -4.615  -2.556 -14.737  1.00  0.00     0.049 A 
ATOM     55  C   UNL     1      -2.848   2.775 -14.625  1.00  0.00     0.074 A 
ATOM     56  C   UNL     1      -4.450  -3.239 -15.929  1.00  0.00     0.029 A 
ATOM     57  N   UNL     1      -4.106  -1.281 -14.929  1.00  0.00    -0.354 N 
ATOM     58  N   UNL     1      -3.220   1.529 -14.797  1.00  0.00    -0.248 NA
ATOM     59  C   UNL     1      -2.197   3.380 -15.795  1.00  0.00     0.031 C 
ATOM     60  C   UNL     1      -3.809  -2.385 -16.832  1.00  0.00     0.029 A 
ATOM     61  C   UNL     1      -3.618  -1.157 -16.217  1.00  0.00     0.049 A 
ATOM     62  H   UNL     1      -4.093  -0.569 -14.249  1.00  0.00     0.167 HD
ATOM     63  C   UNL     1      -2.872   1.209 -16.105  1.00  0.00     0.074 A 
ATOM     64  C   UNL     1      -2.273   2.396 -16.681  1.00  0.00     0.031 C 
ATOM     65  C   UNL     1      -3.033   0.038 -16.769  1.00  0.00     0.031 A 
BRANCH  52  66
ATOM     66  C   UNL     1      -5.673  -4.452 -13.430  1.00  0.00    -0.014 A 
ATOM     67  C   UNL     1      -7.043  -4.764 -13.364  1.00  0.00     0.010 A 
ATOM     68  C   UNL     1      -4.733  -5.498 -13.429  1.00  0.00     0.010 A 
ATOM     69  C   UNL     1      -7.463  -6.091 -13.245  1.00  0.00     0.020 A 
ATOM     70  C   UNL     1      -5.150  -6.830 -13.343  1.00  0.00     0.020 A 
ATOM     71  C   UNL     1      -6.513  -7.115 -13.230  1.00  0.00     0.054 A 
BRANCH  71  72
ATOM     72  S   UNL     1      -7.087  -8.830 -13.091  1.00  0.00     0.124 S 
ATOM     73  O   UNL     1      -7.463  -8.907 -11.681  1.00  0.00    -0.237 OA
ATOM     74  O   UNL     1      -8.197  -8.875 -14.039  1.00  0.00    -0.237 OA
ATOM     75  O   UNL     1      -5.917  -9.619 -13.468  1.00  0.00    -0.744 OA
ENDBRANCH  71  72
ENDBRANCH  52  66
BRANCH  53  76
ATOM     76  C   UNL     1      -2.517   5.053 -13.406  1.00  0.00    -0.014 A 
ATOM     77  C   UNL     1      -3.183   6.032 -14.165  1.00  0.00     0.010 A 
ATOM     78  C   UNL     1      -1.401   5.428 -12.636  1.00  0.00     0.010 A 
ATOM     79  C   UNL     1      -2.732   7.356 -14.169  1.00  0.00     0.020 A 
ATOM     80  C   UNL     1      -0.963   6.756 -12.617  1.00  0.00     0.020 A 
ATOM     81  C   UNL     1      -1.626   7.710 -13.393  1.00  0.00     0.054 A 
BRANCH  81  82
ATOM     82  S   UNL     1      -1.093   9.445 -13.371  1.00  0.00     0.124 S 
ATOM     83  O   UNL     1      -0.449   9.581 -14.674  1.00  0.00    -0.237 OA
ATOM     84  O   UNL     1      -2.356  10.162 -13.211  1.00  0.00    -0.237 OA
ATOM     85  O   UNL     1      -0.198   9.512 -12.218  1.00  0.00    -0.744 OA
ENDBRANCH  81  82
ENDBRANCH  53  76
BRANCH  65  86
ATOM     86  C   UNL     1      -2.591  -0.007 -18.205  1.00  0.00    -0.014 A 
ATOM     87  C   UNL     1      -1.228  -0.061 -18.544  1.00  0.00     0.010 A 
ATOM     88  C   UNL     1      -3.558  -0.068 -19.225  1.00  0.00     0.010 A 
ATOM     89  C   UNL     1      -0.839  -0.150 -19.883  1.00  0.00     0.020 A 
ATOM     90  C   UNL     1      -3.174  -0.183 -20.562  1.00  0.00     0.020 A 
ATOM     91  C   UNL     1      -1.815  -0.211 -20.883  1.00  0.00     0.054 A 
BRANCH  91  92
ATOM     92  S   UNL     1      -1.286  -0.383 -22.609  1.00  0.00     0.124 S 
ATOM     93  O   UNL     1      -0.813   0.964 -22.916  1.00  0.00    -0.237 OA
ATOM     94  O   UNL     1      -0.250  -1.410 -22.527  1.00  0.00    -0.237 OA
ATOM     95  O   UNL     1      -2.504  -0.790 -23.305  1.00  0.00    -0.744 OA
ENDBRANCH  91  92
ENDBRANCH  65  86
ENDBRANCH  39  40
ENDBRANCH  31  34
ENDBRANCH  29  30
ENDBRANCH  28  29
ENDBRANCH   1  28
TORSDOF 19
