REMARK SMILES Cc1nonc1CSCC(=O)NCCCNC(=O)c1ccc(-c2c3nc(c(-c4ccc(S(=O)(=O)[O-])cc4)c4ccc([nH]4)c(-c4ccc(S(=O)(=O)[O-])cc4)c4nc(c(-c5ccc(S(=O)(=O)[O-])cc5)c5ccc2[nH]5)C=C4)C=C3)cc1
REMARK SMILES IDX 14 1 13 2 12 3 10 4 11 5 9 7 8 8 7 9 6 10 1 11 2 12 3 13
REMARK SMILES IDX 4 14 5 15 15 16 16 17 17 18 18 20 19 21 20 22 78 23 21 24
REMARK SMILES IDX 77 25 22 26 23 27 24 28 71 29 25 30 76 31 70 32 72 33 26 34
REMARK SMILES IDX 75 35 69 36 68 37 27 39 57 40 38 41 56 42 39 43 42 44 55 45
REMARK SMILES IDX 73 46 40 47 41 48 54 50 74 51 43 52 28 53 29 54 37 55 30 56
REMARK SMILES IDX 36 57 31 58 32 59 33 60 34 61 35 62 58 63 59 64 67 65 60 66
REMARK SMILES IDX 66 67 61 68 62 69 63 70 64 71 65 72 44 73 45 74 53 75 46 76
REMARK SMILES IDX 52 77 47 78 48 79 49 80 50 81 51 82
REMARK H PARENT 12 6 16 19 72 38 42 49
REMARK Flexibility Score: inf
ROOT
ATOM      1  C   UNL     1       1.560   6.180  -2.118  1.00  0.00     0.042 C 
ENDROOT
BRANCH   1   2
ATOM      2  C   UNL     1       1.423   5.262  -3.332  1.00  0.00     0.117 C 
BRANCH   2   3
ATOM      3  N   UNL     1       2.075   3.980  -3.121  1.00  0.00    -0.355 N 
ATOM      4  C   UNL     1       1.518   2.772  -2.821  1.00  0.00     0.230 C 
ATOM      5  O   UNL     1       2.273   1.834  -2.552  1.00  0.00    -0.274 OA
ATOM      6  H   UNL     1       3.055   3.985  -3.207  1.00  0.00     0.163 HD
BRANCH   4   7
ATOM      7  C   UNL     1       0.013   2.592  -2.824  1.00  0.00     0.169 C 
BRANCH   7   8
ATOM      8  S   UNL     1      -0.781   3.319  -1.357  1.00  0.00    -0.145 SA
BRANCH   8   9
ATOM      9  C   UNL     1       0.114   2.455  -0.019  1.00  0.00     0.132 C 
BRANCH   9  10
ATOM     10  C   UNL     1      -0.091   0.984   0.004  1.00  0.00     0.117 A 
ATOM     11  C   UNL     1       2.339  -0.007  -0.007  1.00  0.00     0.073 C 
ATOM     12  C   UNL     1       0.862  -0.057   0.016  1.00  0.00     0.106 A 
ATOM     13  N   UNL     1       0.233  -1.234   0.071  1.00  0.00    -0.055 NA
ATOM     14  O   UNL     1      -1.120  -0.921   0.105  1.00  0.00    -0.244 OA
ATOM     15  N   UNL     1      -1.317   0.453   0.076  1.00  0.00    -0.054 NA
ENDBRANCH   9  10
ENDBRANCH   8   9
ENDBRANCH   7   8
ENDBRANCH   4   7
ENDBRANCH   2   3
ENDBRANCH   1   2
BRANCH   1  16
ATOM     16  C   UNL     1       2.991   6.614  -1.809  1.00  0.00     0.118 C 
BRANCH  16  17
ATOM     17  N   UNL     1       3.567   7.436  -2.861  1.00  0.00    -0.352 N 
ATOM     18  C   UNL     1       4.140   8.681  -2.804  1.00  0.00     0.251 C 
ATOM     19  H   UNL     1       3.540   7.035  -3.759  1.00  0.00     0.163 HD
ATOM     20  O   UNL     1       4.394   9.261  -3.860  1.00  0.00    -0.269 OA
BRANCH  18  21
ATOM     21  C   UNL     1       4.447   9.339  -1.512  1.00  0.00     0.039 A 
ATOM     22  C   UNL     1       4.269  10.723  -1.414  1.00  0.00     0.014 A 
ATOM     23  C   UNL     1       4.972   8.633  -0.425  1.00  0.00     0.014 A 
ATOM     24  C   UNL     1       4.582  11.389  -0.225  1.00  0.00     0.010 A 
ATOM     25  C   UNL     1       5.221   9.288   0.783  1.00  0.00     0.010 A 
ATOM     26  C   UNL     1       5.044  10.675   0.892  1.00  0.00    -0.014 A 
BRANCH  26  27
ATOM     27  C   UNL     1       5.362  11.377   2.163  1.00  0.00     0.031 A 
ATOM     28  C   UNL     1       6.778  11.432   2.675  1.00  0.00     0.074 A 
ATOM     29  C   UNL     1       4.370  11.948   2.876  1.00  0.00     0.049 A 
ATOM     30  N   UNL     1       7.242  12.004   3.757  1.00  0.00    -0.248 NA
ATOM     31  C   UNL     1       7.802  10.738   1.879  1.00  0.00     0.031 C 
ATOM     32  C   UNL     1       2.950  11.930   2.517  1.00  0.00     0.029 A 
ATOM     33  N   UNL     1       4.407  12.657   4.051  1.00  0.00    -0.354 N 
ATOM     34  C   UNL     1       8.605  11.727   3.780  1.00  0.00     0.074 A 
ATOM     35  C   UNL     1       8.883  10.896   2.628  1.00  0.00     0.031 C 
ATOM     36  C   UNL     1       2.257  12.623   3.434  1.00  0.00     0.029 A 
ATOM     37  C   UNL     1       3.175  13.112   4.459  1.00  0.00     0.049 A 
ATOM     38  H   UNL     1       5.236  12.825   4.553  1.00  0.00     0.167 HD
ATOM     39  C   UNL     1       9.544  12.140   4.666  1.00  0.00     0.031 A 
ATOM     40  C   UNL     1       2.822  13.846   5.531  1.00  0.00     0.031 A 
ATOM     41  C   UNL     1       9.273  12.978   5.804  1.00  0.00     0.049 A 
ATOM     42  C   UNL     1       3.886  14.317   6.484  1.00  0.00     0.074 A 
ATOM     43  C   UNL     1      10.166  13.487   6.732  1.00  0.00     0.029 A 
ATOM     44  N   UNL     1       8.016  13.436   6.167  1.00  0.00    -0.354 N 
ATOM     45  N   UNL     1       5.177  14.089   6.456  1.00  0.00    -0.248 NA
ATOM     46  C   UNL     1       3.445  15.164   7.601  1.00  0.00     0.031 C 
ATOM     47  C   UNL     1       9.443  14.225   7.677  1.00  0.00     0.029 A 
ATOM     48  C   UNL     1       8.107  14.214   7.310  1.00  0.00     0.049 A 
ATOM     49  H   UNL     1       7.182  13.238   5.684  1.00  0.00     0.167 HD
ATOM     50  C   UNL     1       5.707  14.788   7.535  1.00  0.00     0.074 A 
ATOM     51  C   UNL     1       4.598  15.458   8.185  1.00  0.00     0.031 C 
ATOM     52  C   UNL     1       6.996  14.871   7.949  1.00  0.00     0.031 A 
BRANCH  39  53
ATOM     53  C   UNL     1      10.961  11.683   4.434  1.00  0.00    -0.014 A 
ATOM     54  C   UNL     1      11.721  12.191   3.364  1.00  0.00     0.010 A 
ATOM     55  C   UNL     1      11.551  10.755   5.311  1.00  0.00     0.010 A 
ATOM     56  C   UNL     1      13.027  11.744   3.147  1.00  0.00     0.020 A 
ATOM     57  C   UNL     1      12.867  10.325   5.113  1.00  0.00     0.020 A 
ATOM     58  C   UNL     1      13.589  10.807   4.020  1.00  0.00     0.054 A 
BRANCH  58  59
ATOM     59  S   UNL     1      15.289  10.249   3.721  1.00  0.00     0.124 S 
ATOM     60  O   UNL     1      15.112   9.340   2.591  1.00  0.00    -0.237 OA
ATOM     61  O   UNL     1      15.990  11.494   3.421  1.00  0.00    -0.237 OA
ATOM     62  O   UNL     1      15.670   9.611   4.979  1.00  0.00    -0.744 OA
ENDBRANCH  58  59
ENDBRANCH  39  53
BRANCH  40  63
ATOM     63  C   UNL     1       1.397  14.216   5.739  1.00  0.00    -0.014 A 
ATOM     64  C   UNL     1       0.965  15.537   5.525  1.00  0.00     0.010 A 
ATOM     65  C   UNL     1       0.461  13.246   6.141  1.00  0.00     0.010 A 
ATOM     66  C   UNL     1      -0.373  15.886   5.726  1.00  0.00     0.020 A 
ATOM     67  C   UNL     1      -0.883  13.586   6.320  1.00  0.00     0.020 A 
ATOM     68  C   UNL     1      -1.289  14.907   6.122  1.00  0.00     0.054 A 
BRANCH  68  69
ATOM     69  S   UNL     1      -3.032  15.369   6.326  1.00  0.00     0.124 S 
ATOM     70  O   UNL     1      -3.013  16.066   7.608  1.00  0.00    -0.237 OA
ATOM     71  O   UNL     1      -3.279  16.204   5.153  1.00  0.00    -0.237 OA
ATOM     72  O   UNL     1      -3.726  14.083   6.321  1.00  0.00    -0.744 OA
ENDBRANCH  68  69
ENDBRANCH  40  63
BRANCH  52  73
ATOM     73  C   UNL     1       7.279  15.749   9.138  1.00  0.00    -0.014 A 
ATOM     74  C   UNL     1       6.894  15.369  10.436  1.00  0.00     0.010 A 
ATOM     75  C   UNL     1       7.952  16.970   8.952  1.00  0.00     0.010 A 
ATOM     76  C   UNL     1       7.133  16.218  11.520  1.00  0.00     0.020 A 
ATOM     77  C   UNL     1       8.216  17.810  10.037  1.00  0.00     0.020 A 
ATOM     78  C   UNL     1       7.785  17.438  11.312  1.00  0.00     0.054 A 
BRANCH  78  79
ATOM     79  S   UNL     1       8.091  18.523  12.733  1.00  0.00     0.124 S 
ATOM     80  O   UNL     1       6.777  19.126  12.941  1.00  0.00    -0.237 OA
ATOM     81  O   UNL     1       8.524  17.588  13.768  1.00  0.00    -0.237 OA
ATOM     82  O   UNL     1       9.127  19.435  12.253  1.00  0.00    -0.744 OA
ENDBRANCH  78  79
ENDBRANCH  52  73
ENDBRANCH  26  27
ENDBRANCH  18  21
ENDBRANCH  16  17
ENDBRANCH   1  16
TORSDOF 16
