REMARK SMILES C[C@](NC(=O)Cc1cccc(F)c1F)(C(=O)NCCCNC(=O)c1ccc(-c2c3nc(c(-c4ccc(S(=O)(=O)[O-])cc4)c4ccc([nH]4)c(-c4ccc(S(=O)(=O)[O-])cc4)c4nc(c(-c5ccc(S(=O)(=O)[O-])cc5)c5ccc2[nH]5)C=C4)C=C3)cc1)C1CC1
REMARK SMILES IDX 19 1 18 2 17 3 15 4 16 5 2 7 1 8 84 9 85 10 86 11 3 12 4 13
REMARK SMILES IDX 5 15 6 16 7 17 8 18 13 19 9 20 11 21 14 22 10 23 12 24 20 25
REMARK SMILES IDX 21 26 22 27 23 29 24 30 25 31 83 32 26 33 82 34 27 35 28 36
REMARK SMILES IDX 29 37 76 38 30 39 81 40 75 41 77 42 31 43 80 44 74 45 73 46
REMARK SMILES IDX 32 48 62 49 43 50 61 51 44 52 47 53 60 54 78 55 45 56 46 57
REMARK SMILES IDX 59 59 79 60 48 61 33 62 34 63 42 64 35 65 41 66 36 67 37 68
REMARK SMILES IDX 38 69 39 70 40 71 63 72 64 73 72 74 65 75 71 76 66 77 67 78
REMARK SMILES IDX 68 79 69 80 70 81 49 82 50 83 58 84 51 85 57 86 52 87 53 88
REMARK SMILES IDX 54 89 55 90 56 91
REMARK H PARENT 17 6 3 14 21 28 77 47 47 58
REMARK Flexibility Score: inf
ROOT
ATOM      1  C   UNL     1      -1.408   0.068   2.744  1.00  0.00     0.042 C 
ENDROOT
BRANCH   1   2
ATOM      2  C   UNL     1      -1.136  -1.020   1.719  1.00  0.00     0.117 C 
BRANCH   2   3
ATOM      3  N   UNL     1      -1.726  -0.689   0.429  1.00  0.00    -0.354 N 
ATOM      4  C   UNL     1      -1.203  -0.648  -0.836  1.00  0.00     0.245 C 
ATOM      5  O   UNL     1      -2.030  -0.469  -1.734  1.00  0.00    -0.272 OA
ATOM      6  H   UNL     1      -2.680  -0.451   0.475  1.00  0.00     0.163 HD
BRANCH   4   7
ATOM      7  C   UNL     1       0.291  -1.052  -1.095  1.00  0.00     0.119 C 
ATOM      8  C   UNL     1       0.278  -2.569  -0.879  1.00  0.00     0.046 C 
BRANCH   7   9
ATOM      9  C   UNL     1       0.844  -0.780  -2.493  1.00  0.00     0.024 C 
ATOM     10  C   UNL     1       0.215  -1.447  -3.700  1.00  0.00     0.007 C 
ATOM     11  C   UNL     1       0.200   0.050  -3.582  1.00  0.00     0.007 C 
ENDBRANCH   7   9
BRANCH   7  12
ATOM     12  N   UNL     1       1.128  -0.280  -0.149  1.00  0.00    -0.341 N 
ATOM     13  C   UNL     1       2.347  -0.420   0.435  1.00  0.00     0.225 C 
ATOM     14  H   UNL     1       0.685   0.553   0.131  1.00  0.00     0.164 HD
ATOM     15  O   UNL     1       2.742   0.535   1.110  1.00  0.00    -0.275 OA
BRANCH  13  16
ATOM     16  C   UNL     1       3.207  -1.669   0.293  1.00  0.00     0.138 C 
BRANCH  16  17
ATOM     17  C   UNL     1       2.806  -2.806   1.205  1.00  0.00     0.000 A 
ATOM     18  C   UNL     1       2.496  -4.069   0.672  1.00  0.00     0.007 A 
ATOM     19  C   UNL     1       2.675  -2.629   2.586  1.00  0.00     0.162 A 
ATOM     20  C   UNL     1       1.877  -5.046   1.457  1.00  0.00     0.004 A 
ATOM     21  C   UNL     1       2.107  -3.623   3.378  1.00  0.00     0.159 A 
ATOM     22  F   UNL     1       3.077  -1.486   3.156  1.00  0.00    -0.203 F 
ATOM     23  C   UNL     1       1.662  -4.812   2.812  1.00  0.00     0.042 A 
ATOM     24  F   UNL     1       1.954  -3.432   4.695  1.00  0.00    -0.204 F 
ENDBRANCH  16  17
ENDBRANCH  13  16
ENDBRANCH   7  12
ENDBRANCH   4   7
ENDBRANCH   2   3
ENDBRANCH   1   2
BRANCH   1  25
ATOM     25  C   UNL     1      -2.882   0.209   3.093  1.00  0.00     0.118 C 
BRANCH  25  26
ATOM     26  N   UNL     1      -3.420  -0.966   3.763  1.00  0.00    -0.352 N 
ATOM     27  C   UNL     1      -4.143  -1.045   4.931  1.00  0.00     0.251 C 
ATOM     28  H   UNL     1      -3.242  -1.826   3.317  1.00  0.00     0.163 HD
ATOM     29  O   UNL     1      -4.375  -2.138   5.431  1.00  0.00    -0.269 OA
BRANCH  27  30
ATOM     30  C   UNL     1      -4.608   0.197   5.585  1.00  0.00     0.039 A 
ATOM     31  C   UNL     1      -4.468   0.323   6.968  1.00  0.00     0.014 A 
ATOM     32  C   UNL     1      -5.154   1.242   4.835  1.00  0.00     0.014 A 
ATOM     33  C   UNL     1      -4.816   1.525   7.586  1.00  0.00     0.010 A 
ATOM     34  C   UNL     1      -5.401   2.471   5.437  1.00  0.00     0.010 A 
ATOM     35  C   UNL     1      -5.245   2.624   6.821  1.00  0.00    -0.014 A 
BRANCH  35  36
ATOM     36  C   UNL     1      -5.521   3.935   7.463  1.00  0.00     0.031 A 
ATOM     37  C   UNL     1      -6.897   4.544   7.403  1.00  0.00     0.074 A 
ATOM     38  C   UNL     1      -4.515   4.595   8.073  1.00  0.00     0.049 A 
ATOM     39  N   UNL     1      -7.326   5.661   7.933  1.00  0.00    -0.248 NA
ATOM     40  C   UNL     1      -7.918   3.822   6.626  1.00  0.00     0.031 C 
ATOM     41  C   UNL     1      -3.122   4.142   8.141  1.00  0.00     0.029 A 
ATOM     42  N   UNL     1      -4.509   5.781   8.763  1.00  0.00    -0.354 N 
ATOM     43  C   UNL     1      -8.656   5.778   7.548  1.00  0.00     0.074 A 
ATOM     44  C   UNL     1      -8.947   4.654   6.687  1.00  0.00     0.031 C 
ATOM     45  C   UNL     1      -2.412   5.011   8.877  1.00  0.00     0.029 A 
ATOM     46  C   UNL     1      -3.284   6.102   9.299  1.00  0.00     0.049 A 
ATOM     47  H   UNL     1      -5.307   6.349   8.864  1.00  0.00     0.167 HD
ATOM     48  C   UNL     1      -9.564   6.720   7.900  1.00  0.00     0.031 A 
ATOM     49  C   UNL     1      -2.904   7.151  10.053  1.00  0.00     0.031 A 
ATOM     50  C   UNL     1      -9.270   7.836   8.762  1.00  0.00     0.049 A 
ATOM     51  C   UNL     1      -3.932   8.179  10.439  1.00  0.00     0.074 A 
ATOM     52  C   UNL     1     -10.131   8.816   9.225  1.00  0.00     0.029 A 
ATOM     53  N   UNL     1      -8.019   8.123   9.288  1.00  0.00    -0.354 N 
ATOM     54  N   UNL     1      -5.206   8.229  10.130  1.00  0.00    -0.248 NA
ATOM     55  C   UNL     1      -3.474   9.280  11.295  1.00  0.00     0.031 C 
ATOM     56  C   UNL     1      -9.388   9.728   9.982  1.00  0.00     0.029 A 
ATOM     57  C   UNL     1      -8.079   9.278  10.050  1.00  0.00     0.049 A 
ATOM     58  H   UNL     1      -7.208   7.585   9.140  1.00  0.00     0.167 HD
ATOM     59  C   UNL     1      -5.709   9.352  10.777  1.00  0.00     0.074 A 
ATOM     60  C   UNL     1      -4.605   9.936  11.513  1.00  0.00     0.031 C 
ATOM     61  C   UNL     1      -6.969   9.855  10.766  1.00  0.00     0.031 A 
BRANCH  48  62
ATOM     62  C   UNL     1     -10.961   6.585   7.349  1.00  0.00    -0.014 A 
ATOM     63  C   UNL     1     -11.805   5.533   7.753  1.00  0.00     0.010 A 
ATOM     64  C   UNL     1     -11.454   7.543   6.445  1.00  0.00     0.010 A 
ATOM     65  C   UNL     1     -13.097   5.419   7.232  1.00  0.00     0.020 A 
ATOM     66  C   UNL     1     -12.757   7.452   5.947  1.00  0.00     0.020 A 
ATOM     67  C   UNL     1     -13.565   6.380   6.332  1.00  0.00     0.054 A 
BRANCH  67  68
ATOM     68  S   UNL     1     -15.256   6.223   5.696  1.00  0.00     0.124 S 
ATOM     69  O   UNL     1     -15.136   5.072   4.803  1.00  0.00    -0.237 OA
ATOM     70  O   UNL     1     -16.035   5.996   6.911  1.00  0.00    -0.237 OA
ATOM     71  O   UNL     1     -15.499   7.501   5.032  1.00  0.00    -0.744 OA
ENDBRANCH  67  68
ENDBRANCH  48  62
BRANCH  49  72
ATOM     72  C   UNL     1      -1.493   7.263  10.518  1.00  0.00    -0.014 A 
ATOM     73  C   UNL     1      -1.171   7.107  11.877  1.00  0.00     0.010 A 
ATOM     74  C   UNL     1      -0.460   7.517   9.597  1.00  0.00     0.010 A 
ATOM     75  C   UNL     1       0.153   7.227  12.311  1.00  0.00     0.020 A 
ATOM     76  C   UNL     1       0.869   7.605  10.022  1.00  0.00     0.020 A 
ATOM     77  C   UNL     1       1.165   7.472  11.380  1.00  0.00     0.054 A 
BRANCH  77  78
ATOM     78  S   UNL     1       2.881   7.579  11.960  1.00  0.00     0.124 S 
ATOM     79  O   UNL     1       2.887   8.862  12.655  1.00  0.00    -0.237 OA
ATOM     80  O   UNL     1       3.000   6.397  12.809  1.00  0.00    -0.237 OA
ATOM     81  O   UNL     1       3.663   7.532  10.726  1.00  0.00    -0.744 OA
ENDBRANCH  77  78
ENDBRANCH  49  72
BRANCH  61  82
ATOM     82  C   UNL     1      -7.226  11.079  11.607  1.00  0.00    -0.014 A 
ATOM     83  C   UNL     1      -6.668  12.328  11.277  1.00  0.00     0.010 A 
ATOM     84  C   UNL     1      -8.049  10.976  12.743  1.00  0.00     0.010 A 
ATOM     85  C   UNL     1      -6.878  13.435  12.104  1.00  0.00     0.020 A 
ATOM     86  C   UNL     1      -8.290  12.089  13.552  1.00  0.00     0.020 A 
ATOM     87  C   UNL     1      -7.682  13.306  13.241  1.00  0.00     0.054 A 
BRANCH  87  88
ATOM     88  S   UNL     1      -7.935  14.755  14.301  1.00  0.00     0.124 S 
ATOM     89  O   UNL     1      -6.641  14.872  14.968  1.00  0.00    -0.237 OA
ATOM     90  O   UNL     1      -8.242  15.809  13.336  1.00  0.00    -0.237 OA
ATOM     91  O   UNL     1      -9.048  14.364  15.163  1.00  0.00    -0.744 OA
ENDBRANCH  87  88
ENDBRANCH  61  82
ENDBRANCH  35  36
ENDBRANCH  27  30
ENDBRANCH  25  26
ENDBRANCH   1  25
TORSDOF 17
