REMARK SMILES Cc1cc(NC[C@H](C)[NH+](C)C)cc(C(=O)NCCCNC(=O)c2ccc(-c3c4nc(c(-c5ccc(S(=O)(=O)[O-])cc5)c5ccc([nH]5)c(-c5ccc(S(=O)(=O)[O-])cc5)c5nc(c(-c6ccc(S(=O)(=O)[O-])cc6)c6ccc3[nH]6)C=C5)C=C4)cc2)c1N
REMARK SMILES IDX 17 1 16 2 14 3 15 4 13 6 1 7 2 8 3 9 83 10 4 11 12 12 84 13
REMARK SMILES IDX 5 16 6 18 7 19 8 20 9 21 10 22 11 23 18 25 19 26 20 27 21 28
REMARK SMILES IDX 22 30 23 31 24 32 82 33 25 34 81 35 26 36 27 37 28 38 75 39
REMARK SMILES IDX 29 40 80 41 74 42 76 43 30 44 79 45 73 46 72 47 31 49 61 50
REMARK SMILES IDX 42 51 60 52 43 53 46 54 59 55 77 56 44 57 45 58 58 60 78 61
REMARK SMILES IDX 47 62 32 63 33 64 41 65 34 66 40 67 35 68 36 69 37 70 38 71
REMARK SMILES IDX 39 72 62 73 63 74 71 75 64 76 70 77 65 78 66 79 67 80 68 81
REMARK SMILES IDX 69 82 48 83 49 84 57 85 50 86 56 87 51 88 52 89 53 90 54 91
REMARK SMILES IDX 55 92
REMARK H PARENT 16 5 84 14 84 15 5 17 9 24 20 29 76 48 46 59
REMARK Flexibility Score: inf
ROOT
ATOM      1  C   UNL     1      -4.656   6.085  -0.708  1.00  0.00     0.118 C 
ENDROOT
BRANCH   1   2
ATOM      2  N   UNL     1      -5.175   7.332  -0.166  1.00  0.00    -0.352 N 
ATOM      3  C   UNL     1      -5.693   7.691   1.058  1.00  0.00     0.253 C 
ATOM      4  O   UNL     1      -6.016   8.876   1.185  1.00  0.00    -0.269 OA
ATOM      5  H   UNL     1      -5.152   8.075  -0.811  1.00  0.00     0.163 HD
BRANCH   3   6
ATOM      6  C   UNL     1      -5.839   6.750   2.218  1.00  0.00     0.065 A 
ATOM      7  C   UNL     1      -6.061   6.805   6.039  1.00  0.00     0.046 C 
ATOM      8  C   UNL     1      -5.979   6.332   4.613  1.00  0.00    -0.025 A 
ATOM      9  C   UNL     1      -5.986   4.946   4.355  1.00  0.00     0.031 A 
ATOM     10  C   UNL     1      -5.898   7.249   3.541  1.00  0.00     0.047 A 
ATOM     11  C   UNL     1      -5.954   4.446   3.055  1.00  0.00     0.035 A 
ATOM     12  C   UNL     1      -5.975   5.374   2.015  1.00  0.00     0.041 A 
BRANCH  10  13
ATOM     13  N   UNL     1      -5.729   8.614   3.810  1.00  0.00    -0.398 N 
ATOM     14  H   UNL     1      -5.774   8.942   4.738  1.00  0.00     0.156 HD
ATOM     15  H   UNL     1      -5.566   9.245   3.072  1.00  0.00     0.156 HD
ENDBRANCH  10  13
BRANCH  11  16
ATOM     16  N   UNL     1      -5.901   3.080   2.823  1.00  0.00    -0.379 N 
ATOM     17  H   UNL     1      -6.109   2.459   3.558  1.00  0.00     0.160 HD
BRANCH  16  18
ATOM     18  C   UNL     1      -5.542   2.540   1.509  1.00  0.00     0.177 C 
BRANCH  18  19
ATOM     19  C   UNL     1      -5.364   0.996   1.496  1.00  0.00     0.199 C 
ATOM     20  C   UNL     1      -4.462   0.617   0.305  1.00  0.00     0.077 C 
BRANCH  19  21
ATOM     21  N   UNL     1      -6.593   0.167   1.494  1.00  0.00    -0.336 N 
ATOM     22  C   UNL     1      -7.402   0.346   2.699  1.00  0.00     0.332 C 
ATOM     23  C   UNL     1      -7.438   0.323   0.308  1.00  0.00     0.332 C 
ATOM     24  H   UNL     1      -6.229  -0.785   1.476  1.00  0.00     0.347 HD
ENDBRANCH  19  21
ENDBRANCH  18  19
ENDBRANCH  16  18
ENDBRANCH  11  16
ENDBRANCH   3   6
ENDBRANCH   1   2
BRANCH   1  25
ATOM     25  C   UNL     1      -5.713   5.363  -1.548  1.00  0.00     0.042 C 
BRANCH  25  26
ATOM     26  C   UNL     1      -5.910   5.983  -2.929  1.00  0.00     0.118 C 
BRANCH  26  27
ATOM     27  N   UNL     1      -4.759   5.753  -3.790  1.00  0.00    -0.352 N 
ATOM     28  C   UNL     1      -4.685   5.136  -5.014  1.00  0.00     0.251 C 
ATOM     29  H   UNL     1      -3.904   6.093  -3.441  1.00  0.00     0.163 HD
ATOM     30  O   UNL     1      -3.585   4.830  -5.465  1.00  0.00    -0.269 OA
BRANCH  28  31
ATOM     31  C   UNL     1      -5.913   4.833  -5.782  1.00  0.00     0.039 A 
ATOM     32  C   UNL     1      -5.994   3.620  -6.471  1.00  0.00     0.014 A 
ATOM     33  C   UNL     1      -6.960   5.754  -5.863  1.00  0.00     0.014 A 
ATOM     34  C   UNL     1      -7.146   3.308  -7.198  1.00  0.00     0.010 A 
ATOM     35  C   UNL     1      -8.135   5.414  -6.530  1.00  0.00     0.010 A 
ATOM     36  C   UNL     1      -8.239   4.191  -7.209  1.00  0.00    -0.014 A 
BRANCH  36  37
ATOM     37  C   UNL     1      -9.499   3.854  -7.919  1.00  0.00     0.031 A 
ATOM     38  C   UNL     1      -9.959   4.691  -9.082  1.00  0.00     0.074 A 
ATOM     39  C   UNL     1     -10.264   2.840  -7.469  1.00  0.00     0.049 A 
ATOM     40  N   UNL     1     -11.070   4.607  -9.768  1.00  0.00    -0.248 NA
ATOM     41  C   UNL     1      -9.067   5.779  -9.515  1.00  0.00     0.031 C 
ATOM     42  C   UNL     1      -9.944   1.978  -6.328  1.00  0.00     0.029 A 
ATOM     43  N   UNL     1     -11.477   2.370  -7.907  1.00  0.00    -0.354 N 
ATOM     44  C   UNL     1     -11.021   5.642 -10.696  1.00  0.00     0.074 A 
ATOM     45  C   UNL     1      -9.791   6.365 -10.457  1.00  0.00     0.031 C 
ATOM     46  C   UNL     1     -10.925   1.076  -6.169  1.00  0.00     0.029 A 
ATOM     47  C   UNL     1     -11.964   1.320  -7.164  1.00  0.00     0.049 A 
ATOM     48  H   UNL     1     -11.954   2.749  -8.681  1.00  0.00     0.167 HD
ATOM     49  C   UNL     1     -11.912   5.953 -11.668  1.00  0.00     0.031 A 
ATOM     50  C   UNL     1     -13.122   0.638  -7.262  1.00  0.00     0.031 A 
ATOM     51  C   UNL     1     -13.128   5.221 -11.909  1.00  0.00     0.049 A 
ATOM     52  C   UNL     1     -14.098   1.005  -8.345  1.00  0.00     0.074 A 
ATOM     53  C   UNL     1     -14.068   5.420 -12.905  1.00  0.00     0.029 A 
ATOM     54  N   UNL     1     -13.575   4.153 -11.145  1.00  0.00    -0.354 N 
ATOM     55  N   UNL     1     -14.004   1.948  -9.252  1.00  0.00    -0.248 NA
ATOM     56  C   UNL     1     -15.331   0.210  -8.425  1.00  0.00     0.031 C 
ATOM     57  C   UNL     1     -15.108   4.506 -12.712  1.00  0.00     0.029 A 
ATOM     58  C   UNL     1     -14.787   3.697 -11.633  1.00  0.00     0.049 A 
ATOM     59  H   UNL     1     -13.099   3.774 -10.371  1.00  0.00     0.167 HD
ATOM     60  C   UNL     1     -15.153   1.843 -10.027  1.00  0.00     0.074 A 
ATOM     61  C   UNL     1     -15.920   0.736  -9.491  1.00  0.00     0.031 C 
ATOM     62  C   UNL     1     -15.537   2.593 -11.089  1.00  0.00     0.031 A 
BRANCH  49  63
ATOM     63  C   UNL     1     -11.609   7.142 -12.542  1.00  0.00    -0.014 A 
ATOM     64  C   UNL     1     -10.558   7.110 -13.477  1.00  0.00     0.010 A 
ATOM     65  C   UNL     1     -12.415   8.293 -12.460  1.00  0.00     0.010 A 
ATOM     66  C   UNL     1     -10.293   8.219 -14.284  1.00  0.00     0.020 A 
ATOM     67  C   UNL     1     -12.171   9.394 -13.287  1.00  0.00     0.020 A 
ATOM     68  C   UNL     1     -11.101   9.356 -14.182  1.00  0.00     0.054 A 
BRANCH  68  69
ATOM     69  S   UNL     1     -10.748  10.771 -15.260  1.00  0.00     0.124 S 
ATOM     70  O   UNL     1      -9.525  11.305 -14.666  1.00  0.00    -0.237 OA
ATOM     71  O   UNL     1     -10.587  10.144 -16.570  1.00  0.00    -0.237 OA
ATOM     72  O   UNL     1     -11.930  11.618 -15.120  1.00  0.00    -0.744 OA
ENDBRANCH  68  69
ENDBRANCH  49  63
BRANCH  50  73
ATOM     73  C   UNL     1     -13.413  -0.466  -6.307  1.00  0.00    -0.014 A 
ATOM     74  C   UNL     1     -13.402  -1.804  -6.738  1.00  0.00     0.010 A 
ATOM     75  C   UNL     1     -13.682  -0.185  -4.955  1.00  0.00     0.010 A 
ATOM     76  C   UNL     1     -13.669  -2.840  -5.838  1.00  0.00     0.020 A 
ATOM     77  C   UNL     1     -13.921  -1.220  -4.046  1.00  0.00     0.020 A 
ATOM     78  C   UNL     1     -13.924  -2.542  -4.497  1.00  0.00     0.054 A 
BRANCH  78  79
ATOM     79  S   UNL     1     -14.211  -3.906  -3.335  1.00  0.00     0.124 S 
ATOM     80  O   UNL     1     -15.555  -4.339  -3.702  1.00  0.00    -0.237 OA
ATOM     81  O   UNL     1     -13.133  -4.834  -3.667  1.00  0.00    -0.237 OA
ATOM     82  O   UNL     1     -14.092  -3.269  -2.025  1.00  0.00    -0.744 OA
ENDBRANCH  78  79
ENDBRANCH  50  73
BRANCH  62  83
ATOM     83  C   UNL     1     -16.829   2.226 -11.769  1.00  0.00    -0.014 A 
ATOM     84  C   UNL     1     -18.072   2.491 -11.168  1.00  0.00     0.010 A 
ATOM     85  C   UNL     1     -16.796   1.669 -13.061  1.00  0.00     0.010 A 
ATOM     86  C   UNL     1     -19.259   2.182 -11.838  1.00  0.00     0.020 A 
ATOM     87  C   UNL     1     -17.980   1.385 -13.745  1.00  0.00     0.020 A 
ATOM     88  C   UNL     1     -19.206   1.633 -13.123  1.00  0.00     0.054 A 
BRANCH  88  89
ATOM     89  S   UNL     1     -20.761   1.295 -13.993  1.00  0.00     0.124 S 
ATOM     90  O   UNL     1     -21.254   0.117 -13.287  1.00  0.00    -0.237 OA
ATOM     91  O   UNL     1     -21.523   2.523 -13.776  1.00  0.00    -0.237 OA
ATOM     92  O   UNL     1     -20.343   1.065 -15.374  1.00  0.00    -0.744 OA
ENDBRANCH  88  89
ENDBRANCH  62  83
ENDBRANCH  36  37
ENDBRANCH  28  31
ENDBRANCH  26  27
ENDBRANCH  25  26
ENDBRANCH   1  25
TORSDOF 18
