REMARK SMILES O=C(CCC(=O)Nc1cc(Cl)cc(Cl)c1)NCCCNC(=O)c1ccc(-c2c3nc(c(-c4ccc(S(=O)(=O)[O-])cc4)c4ccc([nH]4)c(-c4ccc(S(=O)(=O)[O-])cc4)c4nc(c(-c5ccc(S(=O)(=O)[O-])cc5)c5ccc2[nH]5)C=C4)C=C3)cc1
REMARK SMILES IDX 18 1 17 2 16 3 1 4 2 5 3 7 4 8 5 9 6 10 7 11 8 13 9 14 15 15
REMARK SMILES IDX 10 16 13 17 11 18 12 19 14 20 19 21 20 22 21 23 22 25 23 26
REMARK SMILES IDX 24 27 82 28 25 29 81 30 26 31 27 32 28 33 75 34 29 35 80 36
REMARK SMILES IDX 74 37 76 38 30 39 79 40 73 41 72 42 31 44 61 45 42 46 60 47
REMARK SMILES IDX 43 48 46 49 59 50 77 51 44 52 45 53 58 55 78 56 47 57 32 58
REMARK SMILES IDX 33 59 41 60 34 61 40 62 35 63 36 64 37 65 38 66 39 67 62 68
REMARK SMILES IDX 63 69 71 70 64 71 70 72 65 73 66 74 67 75 68 76 69 77 48 78
REMARK SMILES IDX 49 79 57 80 50 81 56 82 51 83 52 84 53 85 54 86 55 87
REMARK H PARENT 16 6 7 12 20 24 76 43 46 54
REMARK Flexibility Score: inf
ROOT
ATOM      1  C   UNL     1       2.718   0.765   3.590  1.00  0.00     0.042 C 
ENDROOT
BRANCH   1   2
ATOM      2  C   UNL     1       2.346   0.778   2.121  1.00  0.00     0.117 C 
BRANCH   2   3
ATOM      3  N   UNL     1       3.260   0.043   1.267  1.00  0.00    -0.356 N 
ATOM      4  O   UNL     1       1.664  -1.281   0.268  1.00  0.00    -0.275 OA
ATOM      5  C   UNL     1       2.814  -0.861   0.330  1.00  0.00     0.220 C 
ATOM      6  H   UNL     1       4.228   0.197   1.361  1.00  0.00     0.163 HD
BRANCH   5   7
ATOM      7  C   UNL     1       3.838  -1.202  -0.726  1.00  0.00     0.110 C 
BRANCH   7   8
ATOM      8  C   UNL     1       3.815  -0.173  -1.855  1.00  0.00     0.110 C 
BRANCH   8   9
ATOM      9  C   UNL     1       4.413   1.143  -1.425  1.00  0.00     0.224 C 
ATOM     10  O   UNL     1       5.643   1.223  -1.307  1.00  0.00    -0.275 OA
ATOM     11  N   UNL     1       3.706   2.258  -1.106  1.00  0.00    -0.326 N 
ATOM     12  H   UNL     1       4.294   3.039  -0.988  1.00  0.00     0.169 HD
BRANCH  11  13
ATOM     13  C   UNL     1       2.352   2.590  -0.902  1.00  0.00     0.044 A 
ATOM     14  C   UNL     1       1.260   1.734  -1.032  1.00  0.00     0.046 A 
ATOM     15  C   UNL     1       2.113   3.891  -0.424  1.00  0.00     0.046 A 
ATOM     16  C   UNL     1      -0.020   2.144  -0.633  1.00  0.00     0.044 A 
ATOM     17  C   UNL     1       0.831   4.293  -0.037  1.00  0.00     0.044 A 
ATOM     18  Cl  UNL     1      -1.337   1.038  -0.737  1.00  0.00    -0.084 Cl
ATOM     19  C   UNL     1      -0.241   3.417  -0.125  1.00  0.00     0.041 A 
ATOM     20  Cl  UNL     1       0.585   5.878   0.585  1.00  0.00    -0.084 Cl
ENDBRANCH  11  13
ENDBRANCH   8   9
ENDBRANCH   7   8
ENDBRANCH   5   7
ENDBRANCH   2   3
ENDBRANCH   1   2
BRANCH   1  21
ATOM     21  C   UNL     1       4.119   1.264   3.904  1.00  0.00     0.118 C 
BRANCH  21  22
ATOM     22  N   UNL     1       4.392   2.640   3.507  1.00  0.00    -0.352 N 
ATOM     23  C   UNL     1       5.132   3.598   4.170  1.00  0.00     0.251 C 
ATOM     24  H   UNL     1       3.996   2.924   2.651  1.00  0.00     0.163 HD
ATOM     25  O   UNL     1       5.230   4.727   3.697  1.00  0.00    -0.269 OA
BRANCH  23  26
ATOM     26  C   UNL     1       5.753   3.272   5.476  1.00  0.00     0.039 A 
ATOM     27  C   UNL     1       5.611   4.169   6.538  1.00  0.00     0.014 A 
ATOM     28  C   UNL     1       6.403   2.054   5.679  1.00  0.00     0.014 A 
ATOM     29  C   UNL     1       6.026   3.795   7.821  1.00  0.00     0.010 A 
ATOM     30  C   UNL     1       6.710   1.640   6.971  1.00  0.00     0.010 A 
ATOM     31  C   UNL     1       6.525   2.503   8.060  1.00  0.00    -0.014 A 
BRANCH  31  32
ATOM     32  C   UNL     1       6.846   2.032   9.436  1.00  0.00     0.031 A 
ATOM     33  C   UNL     1       8.239   1.565   9.776  1.00  0.00     0.074 A 
ATOM     34  C   UNL     1       5.868   1.950  10.362  1.00  0.00     0.049 A 
ATOM     35  N   UNL     1       8.693   1.078  10.903  1.00  0.00    -0.248 NA
ATOM     36  C   UNL     1       9.243   1.615   8.701  1.00  0.00     0.031 C 
ATOM     37  C   UNL     1       4.459   2.293  10.146  1.00  0.00     0.029 A 
ATOM     38  N   UNL     1       5.910   1.550  11.675  1.00  0.00    -0.354 N 
ATOM     39  C   UNL     1      10.020   0.740  10.663  1.00  0.00     0.074 A 
ATOM     40  C   UNL     1      10.281   1.020   9.269  1.00  0.00     0.031 C 
ATOM     41  C   UNL     1       3.784   2.133  11.296  1.00  0.00     0.029 A 
ATOM     42  C   UNL     1       4.699   1.644  12.322  1.00  0.00     0.049 A 
ATOM     43  H   UNL     1       6.730   1.227  12.114  1.00  0.00     0.167 HD
ATOM     44  C   UNL     1      10.950   0.269  11.527  1.00  0.00     0.031 A 
ATOM     45  C   UNL     1       4.362   1.375  13.599  1.00  0.00     0.031 A 
ATOM     46  C   UNL     1      10.704   0.024  12.923  1.00  0.00     0.049 A 
ATOM     47  C   UNL     1       5.422   0.902  14.554  1.00  0.00     0.074 A 
ATOM     48  C   UNL     1      11.599  -0.383  13.897  1.00  0.00     0.029 A 
ATOM     49  N   UNL     1       9.475   0.174  13.546  1.00  0.00    -0.354 N 
ATOM     50  N   UNL     1       6.691   0.661  14.322  1.00  0.00    -0.248 NA
ATOM     51  C   UNL     1       5.009   0.683  15.947  1.00  0.00     0.031 C 
ATOM     52  C   UNL     1      10.902  -0.514  15.103  1.00  0.00     0.029 A 
ATOM     53  C   UNL     1       9.585  -0.142  14.889  1.00  0.00     0.049 A 
ATOM     54  H   UNL     1       8.647   0.463  13.099  1.00  0.00     0.167 HD
ATOM     55  C   UNL     1       7.233   0.287  15.547  1.00  0.00     0.074 A 
ATOM     56  C   UNL     1       6.159   0.351  16.517  1.00  0.00     0.031 C 
ATOM     57  C   UNL     1       8.506  -0.075  15.842  1.00  0.00     0.031 A 
BRANCH  44  58
ATOM     58  C   UNL     1      12.329   0.001  10.982  1.00  0.00    -0.014 A 
ATOM     59  C   UNL     1      13.168   1.059  10.584  1.00  0.00     0.010 A 
ATOM     60  C   UNL     1      12.802  -1.320  10.885  1.00  0.00     0.010 A 
ATOM     61  C   UNL     1      14.433   0.799  10.053  1.00  0.00     0.020 A 
ATOM     62  C   UNL     1      14.080  -1.583  10.382  1.00  0.00     0.020 A 
ATOM     63  C   UNL     1      14.879  -0.522   9.949  1.00  0.00     0.054 A 
BRANCH  63  64
ATOM     64  S   UNL     1      16.532  -0.831   9.268  1.00  0.00     0.124 S 
ATOM     65  O   UNL     1      16.315  -0.603   7.842  1.00  0.00    -0.237 OA
ATOM     66  O   UNL     1      17.351   0.171   9.946  1.00  0.00    -0.237 OA
ATOM     67  O   UNL     1      16.808  -2.215   9.644  1.00  0.00    -0.744 OA
ENDBRANCH  63  64
ENDBRANCH  44  58
BRANCH  45  68
ATOM     68  C   UNL     1       2.964   1.594  14.062  1.00  0.00    -0.014 A 
ATOM     69  C   UNL     1       2.658   2.674  14.910  1.00  0.00     0.010 A 
ATOM     70  C   UNL     1       1.930   0.734  13.652  1.00  0.00     0.010 A 
ATOM     71  C   UNL     1       1.349   2.878  15.357  1.00  0.00     0.020 A 
ATOM     72  C   UNL     1       0.614   0.950  14.076  1.00  0.00     0.020 A 
ATOM     73  C   UNL     1       0.335   2.014  14.935  1.00  0.00     0.054 A 
BRANCH  73  74
ATOM     74  S   UNL     1      -1.367   2.328  15.484  1.00  0.00     0.124 S 
ATOM     75  O   UNL     1      -1.329   1.864  16.867  1.00  0.00    -0.237 OA
ATOM     76  O   UNL     1      -1.497   3.771  15.304  1.00  0.00    -0.237 OA
ATOM     77  O   UNL     1      -2.173   1.519  14.572  1.00  0.00    -0.744 OA
ENDBRANCH  73  74
ENDBRANCH  45  68
BRANCH  57  78
ATOM     78  C   UNL     1       8.814  -0.398  17.279  1.00  0.00    -0.014 A 
ATOM     79  C   UNL     1       8.354  -1.585  17.874  1.00  0.00     0.010 A 
ATOM     80  C   UNL     1       9.606   0.487  18.033  1.00  0.00     0.010 A 
ATOM     81  C   UNL     1       8.643  -1.861  19.213  1.00  0.00     0.020 A 
ATOM     82  C   UNL     1       9.920   0.202  19.364  1.00  0.00     0.020 A 
ATOM     83  C   UNL     1       9.420  -0.963  19.951  1.00  0.00     0.054 A 
BRANCH  83  84
ATOM     84  S   UNL     1       9.803  -1.351  21.681  1.00  0.00     0.124 S 
ATOM     85  O   UNL     1       8.543  -1.034  22.348  1.00  0.00    -0.237 OA
ATOM     86  O   UNL     1      10.144  -2.771  21.625  1.00  0.00    -0.237 OA
ATOM     87  O   UNL     1      10.917  -0.461  21.996  1.00  0.00    -0.744 OA
ENDBRANCH  83  84
ENDBRANCH  57  78
ENDBRANCH  31  32
ENDBRANCH  23  26
ENDBRANCH  21  22
ENDBRANCH   1  21
TORSDOF 16
