REMARK SMILES O=C(NCCCNC(=O)c1cccc(Nc2ccnc3ccc(F)cc23)c1)c1ccc(-c2c3nc(c(-c4ccc(S(=O)(=O)[O-])cc4)c4ccc([nH]4)c(-c4ccc(S(=O)(=O)[O-])cc4)c4nc(c(-c5ccc(S(=O)(=O)[O-])cc5)c5ccc2[nH]5)C=C4)C=C3)cc1
REMARK SMILES IDX 4 1 3 2 1 3 2 4 28 6 29 7 87 8 30 9 86 10 31 11 32 12 33 13
REMARK SMILES IDX 80 14 34 15 85 16 79 17 81 18 35 19 84 20 78 21 77 22 36 24
REMARK SMILES IDX 66 25 47 26 65 27 48 28 51 29 64 30 82 31 49 32 50 33 63 35
REMARK SMILES IDX 83 36 52 37 37 38 38 39 46 40 39 41 45 42 40 43 41 44 42 45
REMARK SMILES IDX 43 46 44 47 67 48 68 49 76 50 69 51 75 52 70 53 71 54 72 55
REMARK SMILES IDX 73 56 74 57 53 58 54 59 62 60 55 61 61 62 56 63 57 64 58 65
REMARK SMILES IDX 59 66 60 67 5 68 6 69 7 70 8 71 9 73 10 74 11 75 27 76 12 77
REMARK SMILES IDX 14 78 13 79 15 80 16 82 17 83 26 84 18 85 20 86 25 87 19 88
REMARK SMILES IDX 21 89 23 90 22 91 24 92
REMARK H PARENT 3 5 81 23 51 34 7 72 15 81
REMARK Flexibility Score: inf
ROOT
ATOM      1  C   UNL     1       4.633   1.671  -0.170  1.00  0.00     0.118 C 
ENDROOT
BRANCH   1   2
ATOM      2  N   UNL     1       3.212   1.364  -0.088  1.00  0.00    -0.352 N 
ATOM      3  O   UNL     1       1.308   0.185  -0.067  1.00  0.00    -0.269 OA
ATOM      4  C   UNL     1       2.537   0.168  -0.017  1.00  0.00     0.251 C 
ATOM      5  H   UNL     1       2.628   2.156  -0.084  1.00  0.00     0.163 HD
BRANCH   4   6
ATOM      6  C   UNL     1       3.243  -1.133   0.092  1.00  0.00     0.039 A 
ATOM      7  C   UNL     1       4.364  -1.304   0.905  1.00  0.00     0.014 A 
ATOM      8  C   UNL     1       2.719  -2.240  -0.590  1.00  0.00     0.014 A 
ATOM      9  C   UNL     1       5.038  -2.526   0.922  1.00  0.00     0.010 A 
ATOM     10  C   UNL     1       3.351  -3.488  -0.510  1.00  0.00     0.010 A 
ATOM     11  C   UNL     1       4.538  -3.636   0.221  1.00  0.00    -0.014 A 
BRANCH  11  12
ATOM     12  C   UNL     1       5.239  -4.947   0.312  1.00  0.00     0.031 A 
ATOM     13  C   UNL     1       5.880  -5.576  -0.898  1.00  0.00     0.074 A 
ATOM     14  C   UNL     1       5.319  -5.567   1.506  1.00  0.00     0.049 A 
ATOM     15  N   UNL     1       6.565  -6.690  -0.981  1.00  0.00    -0.248 NA
ATOM     16  C   UNL     1       5.731  -4.870  -2.180  1.00  0.00     0.031 C 
ATOM     17  C   UNL     1       4.729  -5.073   2.753  1.00  0.00     0.029 A 
ATOM     18  N   UNL     1       5.939  -6.735   1.875  1.00  0.00    -0.354 N 
ATOM     19  C   UNL     1       6.918  -6.826  -2.319  1.00  0.00     0.074 A 
ATOM     20  C   UNL     1       6.347  -5.694  -3.019  1.00  0.00     0.031 C 
ATOM     21  C   UNL     1       5.053  -5.906   3.754  1.00  0.00     0.029 A 
ATOM     22  C   UNL     1       5.823  -7.021   3.215  1.00  0.00     0.049 A 
ATOM     23  H   UNL     1       6.421  -7.313   1.240  1.00  0.00     0.167 HD
ATOM     24  C   UNL     1       7.654  -7.799  -2.911  1.00  0.00     0.031 A 
ATOM     25  C   UNL     1       6.273  -8.067   3.935  1.00  0.00     0.031 A 
ATOM     26  C   UNL     1       8.218  -8.928  -2.216  1.00  0.00     0.049 A 
ATOM     27  C   UNL     1       7.061  -9.147   3.250  1.00  0.00     0.074 A 
ATOM     28  C   UNL     1       9.006  -9.946  -2.727  1.00  0.00     0.029 A 
ATOM     29  N   UNL     1       8.049  -9.196  -0.866  1.00  0.00    -0.354 N 
ATOM     30  N   UNL     1       7.420  -9.230   1.991  1.00  0.00    -0.248 NA
ATOM     31  C   UNL     1       7.508 -10.272   4.083  1.00  0.00     0.031 C 
ATOM     32  C   UNL     1       9.269 -10.857  -1.698  1.00  0.00     0.029 A 
ATOM     33  C   UNL     1       8.695 -10.376  -0.532  1.00  0.00     0.049 A 
ATOM     34  H   UNL     1       7.544  -8.632  -0.237  1.00  0.00     0.167 HD
ATOM     35  C   UNL     1       8.151 -10.408   1.885  1.00  0.00     0.074 A 
ATOM     36  C   UNL     1       8.199 -10.992   3.210  1.00  0.00     0.031 C 
ATOM     37  C   UNL     1       8.730 -10.954   0.788  1.00  0.00     0.031 A 
BRANCH  24  38
ATOM     38  C   UNL     1       7.879  -7.700  -4.399  1.00  0.00    -0.014 A 
ATOM     39  C   UNL     1       8.741  -6.731  -4.944  1.00  0.00     0.010 A 
ATOM     40  C   UNL     1       7.264  -8.628  -5.261  1.00  0.00     0.010 A 
ATOM     41  C   UNL     1       8.951  -6.666  -6.324  1.00  0.00     0.020 A 
ATOM     42  C   UNL     1       7.492  -8.583  -6.639  1.00  0.00     0.020 A 
ATOM     43  C   UNL     1       8.322  -7.590  -7.164  1.00  0.00     0.054 A 
BRANCH  43  44
ATOM     44  S   UNL     1       8.626  -7.492  -8.950  1.00  0.00     0.124 S 
ATOM     45  O   UNL     1       7.862  -6.303  -9.320  1.00  0.00    -0.237 OA
ATOM     46  O   UNL     1      10.078  -7.351  -9.021  1.00  0.00    -0.237 OA
ATOM     47  O   UNL     1       8.100  -8.755  -9.463  1.00  0.00    -0.744 OA
ENDBRANCH  43  44
ENDBRANCH  24  38
BRANCH  25  48
ATOM     48  C   UNL     1       5.976  -8.141   5.391  1.00  0.00    -0.014 A 
ATOM     49  C   UNL     1       6.997  -7.970   6.342  1.00  0.00     0.010 A 
ATOM     50  C   UNL     1       4.657  -8.356   5.833  1.00  0.00     0.010 A 
ATOM     51  C   UNL     1       6.706  -8.025   7.709  1.00  0.00     0.020 A 
ATOM     52  C   UNL     1       4.358  -8.382   7.197  1.00  0.00     0.020 A 
ATOM     53  C   UNL     1       5.387  -8.227   8.127  1.00  0.00     0.054 A 
BRANCH  53  54
ATOM     54  S   UNL     1       5.022  -8.234   9.904  1.00  0.00     0.124 S 
ATOM     55  O   UNL     1       5.535  -9.538  10.314  1.00  0.00    -0.237 OA
ATOM     56  O   UNL     1       5.774  -7.078  10.386  1.00  0.00    -0.237 OA
ATOM     57  O   UNL     1       3.569  -8.087   9.954  1.00  0.00    -0.744 OA
ENDBRANCH  53  54
ENDBRANCH  25  48
BRANCH  37  58
ATOM     58  C   UNL     1       9.492 -12.239   0.976  1.00  0.00    -0.014 A 
ATOM     59  C   UNL     1       8.824 -13.455   1.207  1.00  0.00     0.010 A 
ATOM     60  C   UNL     1      10.895 -12.236   0.876  1.00  0.00     0.010 A 
ATOM     61  C   UNL     1       9.549 -14.639   1.368  1.00  0.00     0.020 A 
ATOM     62  C   UNL     1      11.622 -13.421   1.010  1.00  0.00     0.020 A 
ATOM     63  C   UNL     1      10.944 -14.614   1.270  1.00  0.00     0.054 A 
BRANCH  63  64
ATOM     64  S   UNL     1      11.861 -16.170   1.442  1.00  0.00     0.124 S 
ATOM     65  O   UNL     1      11.783 -16.411   2.880  1.00  0.00    -0.237 OA
ATOM     66  O   UNL     1      11.092 -17.091   0.608  1.00  0.00    -0.237 OA
ATOM     67  O   UNL     1      13.192 -15.846   0.936  1.00  0.00    -0.744 OA
ENDBRANCH  63  64
ENDBRANCH  37  58
ENDBRANCH  11  12
ENDBRANCH   4   6
ENDBRANCH   1   2
BRANCH   1  68
ATOM     68  C   UNL     1       5.034   2.412  -1.445  1.00  0.00     0.042 C 
BRANCH  68  69
ATOM     69  C   UNL     1       4.371   3.769  -1.667  1.00  0.00     0.118 C 
BRANCH  69  70
ATOM     70  N   UNL     1       4.638   4.750  -0.628  1.00  0.00    -0.352 N 
ATOM     71  C   UNL     1       5.381   5.904  -0.705  1.00  0.00     0.251 C 
ATOM     72  H   UNL     1       4.231   4.563   0.249  1.00  0.00     0.163 HD
ATOM     73  O   UNL     1       5.331   6.748   0.179  1.00  0.00    -0.269 OA
BRANCH  71  74
ATOM     74  C   UNL     1       6.306   6.093  -1.835  1.00  0.00     0.041 A 
ATOM     75  C   UNL     1       7.577   5.524  -1.722  1.00  0.00     0.014 A 
ATOM     76  C   UNL     1       5.938   6.840  -2.965  1.00  0.00     0.039 A 
ATOM     77  C   UNL     1       8.486   5.669  -2.760  1.00  0.00     0.003 A 
ATOM     78  C   UNL     1       6.846   6.971  -4.023  1.00  0.00     0.039 A 
ATOM     79  C   UNL     1       8.114   6.373  -3.904  1.00  0.00     0.026 A 
BRANCH  78  80
ATOM     80  N   UNL     1       6.473   7.537  -5.261  1.00  0.00    -0.355 N 
ATOM     81  H   UNL     1       6.035   8.418  -5.255  1.00  0.00     0.167 HD
BRANCH  80  82
ATOM     82  C   UNL     1       6.694   6.909  -6.515  1.00  0.00     0.050 A 
ATOM     83  C   UNL     1       6.383   5.550  -6.636  1.00  0.00     0.047 A 
ATOM     84  C   UNL     1       7.226   7.593  -7.635  1.00  0.00     0.027 A 
ATOM     85  C   UNL     1       6.629   4.911  -7.830  1.00  0.00     0.114 A 
ATOM     86  C   UNL     1       7.421   6.835  -8.818  1.00  0.00     0.072 A 
ATOM     87  C   UNL     1       7.618   8.952  -7.632  1.00  0.00     0.051 A 
ATOM     88  N   UNL     1       7.130   5.532  -8.914  1.00  0.00    -0.256 NA
ATOM     89  C   UNL     1       7.956   7.448  -9.942  1.00  0.00     0.032 A 
ATOM     90  C   UNL     1       8.163   9.530  -8.776  1.00  0.00     0.124 A 
ATOM     91  C   UNL     1       8.328   8.791  -9.936  1.00  0.00     0.041 A 
ATOM     92  F   UNL     1       8.542  10.814  -8.756  1.00  0.00    -0.207 F 
ENDBRANCH  80  82
ENDBRANCH  78  80
ENDBRANCH  71  74
ENDBRANCH  69  70
ENDBRANCH  68  69
ENDBRANCH   1  68
TORSDOF 15
