REMARK SMILES O=C(NCCCNC(=O)[C@@H]1C[C@@H]1C(=O)N1CCN(c2ncc(C(F)(F)F)cc2Cl)CC1)c1ccc(-c2c3nc(c(-c4ccc(S(=O)(=O)[O-])cc4)c4ccc([nH]4)c(-c4ccc(S(=O)(=O)[O-])cc4)c4nc(c(-c5ccc(S(=O)(=O)[O-])cc5)c5ccc2[nH]5)C=C4)C=C3)cc1
REMARK SMILES IDX 5 1 4 2 3 3 1 4 2 5 32 7 33 8 91 9 34 10 90 11 35 12 36 13
REMARK SMILES IDX 37 14 84 15 38 16 89 17 83 18 85 19 39 20 88 21 82 22 81 23
REMARK SMILES IDX 40 25 70 26 51 27 69 28 52 29 55 30 68 31 86 32 53 33 54 34
REMARK SMILES IDX 67 36 87 37 56 38 41 39 42 40 50 41 43 42 49 43 44 44 45 45
REMARK SMILES IDX 46 46 47 47 48 48 71 49 72 50 80 51 73 52 79 53 74 54 75 55
REMARK SMILES IDX 76 56 77 57 78 58 57 59 58 60 66 61 59 62 65 63 60 64 61 65
REMARK SMILES IDX 62 66 63 67 64 68 6 69 7 70 8 71 9 73 10 74 11 75 12 76
REMARK SMILES IDX 13 77 14 78 15 79 16 80 31 81 17 82 30 83 18 84 19 85 20 86
REMARK SMILES IDX 28 87 21 88 27 89 29 90 22 91 23 92 24 93 25 94 26 95
REMARK H PARENT 3 6 85 24 55 35 7 72
REMARK Flexibility Score: inf
ROOT
ATOM      1  C   UNL     1       5.807   1.895  -1.717  1.00  0.00     0.042 C 
ENDROOT
BRANCH   1   2
ATOM      2  C   UNL     1       5.077   1.777  -0.385  1.00  0.00     0.118 C 
BRANCH   2   3
ATOM      3  N   UNL     1       3.656   1.444  -0.406  1.00  0.00    -0.352 N 
ATOM      4  O   UNL     1       1.702   0.497   0.188  1.00  0.00    -0.269 OA
ATOM      5  C   UNL     1       2.925   0.520   0.317  1.00  0.00     0.251 C 
ATOM      6  H   UNL     1       3.126   1.970  -1.048  1.00  0.00     0.163 HD
BRANCH   5   7
ATOM      7  C   UNL     1       3.573  -0.479   1.196  1.00  0.00     0.039 A 
ATOM      8  C   UNL     1       4.693  -0.145   1.942  1.00  0.00     0.014 A 
ATOM      9  C   UNL     1       3.034  -1.771   1.313  1.00  0.00     0.014 A 
ATOM     10  C   UNL     1       5.399  -1.129   2.608  1.00  0.00     0.010 A 
ATOM     11  C   UNL     1       3.652  -2.725   2.136  1.00  0.00     0.010 A 
ATOM     12  C   UNL     1       4.859  -2.416   2.774  1.00  0.00    -0.014 A 
BRANCH  12  13
ATOM     13  C   UNL     1       5.560  -3.304   3.739  1.00  0.00     0.031 A 
ATOM     14  C   UNL     1       6.220  -4.581   3.316  1.00  0.00     0.074 A 
ATOM     15  C   UNL     1       5.735  -2.819   4.988  1.00  0.00     0.049 A 
ATOM     16  N   UNL     1       7.075  -5.313   3.985  1.00  0.00    -0.248 NA
ATOM     17  C   UNL     1       5.879  -5.119   1.991  1.00  0.00     0.031 C 
ATOM     18  C   UNL     1       5.106  -1.596   5.506  1.00  0.00     0.029 A 
ATOM     19  N   UNL     1       6.563  -3.215   6.006  1.00  0.00    -0.354 N 
ATOM     20  C   UNL     1       7.369  -6.399   3.170  1.00  0.00     0.074 A 
ATOM     21  C   UNL     1       6.579  -6.247   1.967  1.00  0.00     0.031 C 
ATOM     22  C   UNL     1       5.676  -1.265   6.670  1.00  0.00     0.029 A 
ATOM     23  C   UNL     1       6.633  -2.300   7.034  1.00  0.00     0.049 A 
ATOM     24  H   UNL     1       7.057  -4.067   6.003  1.00  0.00     0.167 HD
ATOM     25  C   UNL     1       8.224  -7.424   3.409  1.00  0.00     0.031 A 
ATOM     26  C   UNL     1       7.387  -2.287   8.149  1.00  0.00     0.031 A 
ATOM     27  C   UNL     1       8.996  -7.562   4.619  1.00  0.00     0.049 A 
ATOM     28  C   UNL     1       8.338  -3.422   8.374  1.00  0.00     0.074 A 
ATOM     29  C   UNL     1       9.876  -8.572   4.970  1.00  0.00     0.029 A 
ATOM     30  N   UNL     1       8.986  -6.660   5.674  1.00  0.00    -0.354 N 
ATOM     31  N   UNL     1       8.603  -4.438   7.587  1.00  0.00    -0.248 NA
ATOM     32  C   UNL     1       9.082  -3.420   9.639  1.00  0.00     0.031 C 
ATOM     33  C   UNL     1      10.363  -8.302   6.254  1.00  0.00     0.029 A 
ATOM     34  C   UNL     1       9.832  -7.096   6.681  1.00  0.00     0.049 A 
ATOM     35  H   UNL     1       8.455  -5.831   5.702  1.00  0.00     0.167 HD
ATOM     36  C   UNL     1       9.535  -5.207   8.268  1.00  0.00     0.074 A 
ATOM     37  C   UNL     1       9.826  -4.509   9.506  1.00  0.00     0.031 C 
ATOM     38  C   UNL     1      10.086  -6.394   7.914  1.00  0.00     0.031 A 
BRANCH  25  39
ATOM     39  C   UNL     1       8.353  -8.491   2.352  1.00  0.00    -0.014 A 
ATOM     40  C   UNL     1       9.027  -8.239   1.143  1.00  0.00     0.010 A 
ATOM     41  C   UNL     1       7.843  -9.780   2.592  1.00  0.00     0.010 A 
ATOM     42  C   UNL     1       9.164  -9.249   0.184  1.00  0.00     0.020 A 
ATOM     43  C   UNL     1       7.999 -10.799   1.647  1.00  0.00     0.020 A 
ATOM     44  C   UNL     1       8.648 -10.523   0.442  1.00  0.00     0.054 A 
BRANCH  44  45
ATOM     45  S   UNL     1       8.870 -11.822  -0.806  1.00  0.00     0.124 S 
ATOM     46  O   UNL     1       7.939 -11.400  -1.849  1.00  0.00    -0.237 OA
ATOM     47  O   UNL     1      10.286 -11.704  -1.143  1.00  0.00    -0.237 OA
ATOM     48  O   UNL     1       8.500 -13.047  -0.102  1.00  0.00    -0.744 OA
ENDBRANCH  44  45
ENDBRANCH  25  39
BRANCH  26  49
ATOM     49  C   UNL     1       7.226  -1.189   9.142  1.00  0.00    -0.014 A 
ATOM     50  C   UNL     1       8.266  -0.284   9.416  1.00  0.00     0.010 A 
ATOM     51  C   UNL     1       5.997  -1.037   9.814  1.00  0.00     0.010 A 
ATOM     52  C   UNL     1       8.086   0.737  10.357  1.00  0.00     0.020 A 
ATOM     53  C   UNL     1       5.801   0.003  10.724  1.00  0.00     0.020 A 
ATOM     54  C   UNL     1       6.854   0.873  11.004  1.00  0.00     0.054 A 
BRANCH  54  55
ATOM     55  S   UNL     1       6.620   2.225  12.190  1.00  0.00     0.124 S 
ATOM     56  O   UNL     1       7.324   1.720  13.364  1.00  0.00    -0.237 OA
ATOM     57  O   UNL     1       7.246   3.357  11.512  1.00  0.00    -0.237 OA
ATOM     58  O   UNL     1       5.167   2.315  12.321  1.00  0.00    -0.744 OA
ENDBRANCH  54  55
ENDBRANCH  26  49
BRANCH  38  59
ATOM     59  C   UNL     1      11.055  -7.000   8.890  1.00  0.00    -0.014 A 
ATOM     60  C   UNL     1      10.608  -7.543  10.109  1.00  0.00     0.010 A 
ATOM     61  C   UNL     1      12.427  -7.029   8.585  1.00  0.00     0.010 A 
ATOM     62  C   UNL     1      11.523  -8.057  11.030  1.00  0.00     0.020 A 
ATOM     63  C   UNL     1      13.342  -7.569   9.492  1.00  0.00     0.020 A 
ATOM     64  C   UNL     1      12.886  -8.060  10.717  1.00  0.00     0.054 A 
BRANCH  64  65
ATOM     65  S   UNL     1      14.056  -8.738  11.925  1.00  0.00     0.124 S 
ATOM     66  O   UNL     1      14.114  -7.671  12.921  1.00  0.00    -0.237 OA
ATOM     67  O   UNL     1      13.396  -9.967  12.358  1.00  0.00    -0.237 OA
ATOM     68  O   UNL     1      15.278  -8.934  11.149  1.00  0.00    -0.744 OA
ENDBRANCH  64  65
ENDBRANCH  38  59
ENDBRANCH  12  13
ENDBRANCH   5   7
ENDBRANCH   2   3
ENDBRANCH   1   2
BRANCH   1  69
ATOM     69  C   UNL     1       5.021   2.454  -2.887  1.00  0.00     0.117 C 
BRANCH  69  70
ATOM     70  N   UNL     1       5.872   3.191  -3.792  1.00  0.00    -0.356 N 
ATOM     71  C   UNL     1       6.457   2.949  -4.996  1.00  0.00     0.223 C 
ATOM     72  H   UNL     1       6.080   4.092  -3.454  1.00  0.00     0.163 HD
ATOM     73  O   UNL     1       7.075   3.905  -5.473  1.00  0.00    -0.275 OA
BRANCH  71  74
ATOM     74  C   UNL     1       6.400   1.724  -5.836  1.00  0.00     0.091 C 
ATOM     75  C   UNL     1       5.050   1.365  -6.424  1.00  0.00     0.028 C 
ATOM     76  C   UNL     1       5.885   0.307  -5.766  1.00  0.00     0.092 C 
BRANCH  76  77
ATOM     77  C   UNL     1       5.522  -0.376  -4.518  1.00  0.00     0.226 C 
ATOM     78  O   UNL     1       6.370  -0.486  -3.646  1.00  0.00    -0.275 OA
ATOM     79  N   UNL     1       4.230  -0.842  -4.400  1.00  0.00    -0.339 N 
ATOM     80  C   UNL     1       3.615  -0.899  -3.078  1.00  0.00     0.141 C 
ATOM     81  C   UNL     1       3.408  -1.399  -5.484  1.00  0.00     0.141 C 
ATOM     82  C   UNL     1       2.306  -0.101  -3.131  1.00  0.00     0.139 C 
ATOM     83  C   UNL     1       1.935  -0.909  -5.480  1.00  0.00     0.139 C 
ATOM     84  N   UNL     1       1.435  -0.706  -4.128  1.00  0.00    -0.352 N 
BRANCH  84  85
ATOM     85  C   UNL     1       0.186  -1.043  -3.673  1.00  0.00     0.147 A 
ATOM     86  N   UNL     1      -0.637  -0.007  -3.378  1.00  0.00    -0.237 NA
ATOM     87  C   UNL     1      -0.131  -2.352  -3.283  1.00  0.00     0.084 A 
ATOM     88  C   UNL     1      -1.754  -0.256  -2.655  1.00  0.00     0.126 A 
ATOM     89  C   UNL     1      -1.289  -2.583  -2.541  1.00  0.00     0.039 A 
ATOM     90  Cl  UNL     1       0.920  -3.689  -3.587  1.00  0.00    -0.080 Cl
ATOM     91  C   UNL     1      -2.119  -1.513  -2.203  1.00  0.00     0.075 A 
BRANCH  91  92
ATOM     92  C   UNL     1      -3.351  -1.674  -1.371  1.00  0.00     0.417 C 
ATOM     93  F   UNL     1      -3.299  -0.976  -0.205  1.00  0.00    -0.166 F 
ATOM     94  F   UNL     1      -4.469  -1.239  -2.016  1.00  0.00    -0.166 F 
ATOM     95  F   UNL     1      -3.605  -2.966  -1.024  1.00  0.00    -0.166 F 
ENDBRANCH  91  92
ENDBRANCH  84  85
ENDBRANCH  76  77
ENDBRANCH  71  74
ENDBRANCH  69  70
ENDBRANCH   1  69
TORSDOF 16
