REMARK SMILES CC(C)(C)c1cc(NC(=O)CSC[C@H]([NH3+])C(=O)NCCCNC(=O)c2ccc(-c3c4nc(c(-c5ccc(S(=O)(=O)[O-])cc5)c5ccc([nH]5)c(-c5ccc(S(=O)(=O)[O-])cc5)c5nc(c(-c6ccc(S(=O)(=O)[O-])cc6)c6ccc3[nH]6)C=C5)C=C4)cc2)on1
REMARK SMILES IDX 16 1 17 2 18 3 14 5 13 6 12 7 11 8 9 9 8 10 10 12 7 13 5 14
REMARK SMILES IDX 6 15 86 16 85 17 2 18 1 19 3 20 4 21 15 22 19 26 20 27 21 28
REMARK SMILES IDX 22 29 23 30 24 32 25 33 26 34 84 35 27 36 83 37 28 38 29 39
REMARK SMILES IDX 30 40 77 41 31 42 82 43 76 44 78 45 32 46 81 47 75 48 74 49
REMARK SMILES IDX 33 51 63 52 44 53 62 54 45 55 48 56 61 57 79 58 46 59 47 60
REMARK SMILES IDX 60 62 80 63 49 64 34 65 35 66 43 67 36 68 42 69 37 70 38 71
REMARK SMILES IDX 39 72 40 73 41 74 64 75 65 76 73 77 66 78 72 79 67 80 68 81
REMARK SMILES IDX 69 82 70 83 71 84 50 85 51 86 59 87 52 88 58 89 53 90 54 91
REMARK SMILES IDX 55 92 56 93 57 94
REMARK H PARENT 18 4 8 11 15 23 15 24 15 25 22 31 78 50 48 61
REMARK Flexibility Score: inf
ROOT
ATOM      1  C   UNL     1       6.047   7.695  -1.908  1.00  0.00     0.279 C 
ATOM      2  O   UNL     1       7.261   7.909  -1.884  1.00  0.00    -0.268 OA
ATOM      3  N   UNL     1       5.269   8.299  -0.964  1.00  0.00    -0.351 N 
ATOM      4  H   UNL     1       5.770   8.848  -0.319  1.00  0.00     0.163 HD
ENDROOT
BRANCH   1   5
ATOM      5  C   UNL     1       5.415   6.804  -2.985  1.00  0.00     0.280 C 
BRANCH   5   6
ATOM      6  C   UNL     1       4.487   7.620  -3.907  1.00  0.00     0.145 C 
BRANCH   6   7
ATOM      7  S   UNL     1       5.321   8.468  -5.296  1.00  0.00    -0.145 SA
BRANCH   7   8
ATOM      8  C   UNL     1       6.138   9.893  -4.491  1.00  0.00     0.170 C 
BRANCH   8   9
ATOM      9  C   UNL     1       5.258  10.725  -3.572  1.00  0.00     0.236 C 
ATOM     10  N   UNL     1       4.201  11.466  -3.998  1.00  0.00    -0.294 N 
ATOM     11  H   UNL     1       3.689  11.921  -3.291  1.00  0.00     0.173 HD
ATOM     12  O   UNL     1       5.498  10.783  -2.358  1.00  0.00    -0.274 OA
BRANCH  10  13
ATOM     13  C   UNL     1       3.749  11.665  -5.271  1.00  0.00     0.231 A 
ATOM     14  C   UNL     1       2.659  12.197  -7.115  1.00  0.00     0.091 A 
ATOM     15  C   UNL     1       2.634  12.334  -5.703  1.00  0.00     0.097 A 
ATOM     16  N   UNL     1       3.751  11.524  -7.502  1.00  0.00    -0.082 NA
ATOM     17  O   UNL     1       4.430  11.204  -6.345  1.00  0.00    -0.338 OA
BRANCH  14  18
ATOM     18  C   UNL     1       1.657  12.721  -8.121  1.00  0.00     0.008 C 
ATOM     19  C   UNL     1       0.253  12.161  -7.813  1.00  0.00     0.018 C 
ATOM     20  C   UNL     1       2.021  12.319  -9.566  1.00  0.00     0.018 C 
ATOM     21  C   UNL     1       1.611  14.260  -8.046  1.00  0.00     0.018 C 
ENDBRANCH  14  18
ENDBRANCH  10  13
ENDBRANCH   8   9
ENDBRANCH   7   8
ENDBRANCH   6   7
ENDBRANCH   5   6
BRANCH   5  22
ATOM     22  N   UNL     1       4.765   5.633  -2.347  1.00  0.00    -0.347 N 
ATOM     23  H   UNL     1       4.029   5.954  -1.718  1.00  0.00     0.345 HD
ATOM     24  H   UNL     1       5.459   5.106  -1.818  1.00  0.00     0.345 HD
ATOM     25  H   UNL     1       4.360   5.035  -3.067  1.00  0.00     0.345 HD
ENDBRANCH   5  22
ENDBRANCH   1   5
BRANCH   3  26
ATOM     26  C   UNL     1       3.833   8.277  -0.740  1.00  0.00     0.118 C 
BRANCH  26  27
ATOM     27  C   UNL     1       3.492   7.758   0.646  1.00  0.00     0.042 C 
BRANCH  27  28
ATOM     28  C   UNL     1       4.015   8.640   1.771  1.00  0.00     0.118 C 
BRANCH  28  29
ATOM     29  N   UNL     1       3.377   9.949   1.799  1.00  0.00    -0.352 N 
ATOM     30  C   UNL     1       2.595  10.525   2.769  1.00  0.00     0.251 C 
ATOM     31  H   UNL     1       3.531  10.505   1.001  1.00  0.00     0.163 HD
ATOM     32  O   UNL     1       1.976  11.557   2.513  1.00  0.00    -0.269 OA
BRANCH  30  33
ATOM     33  C   UNL     1       2.476   9.898   4.104  1.00  0.00     0.039 A 
ATOM     34  C   UNL     1       1.230   9.874   4.734  1.00  0.00     0.014 A 
ATOM     35  C   UNL     1       3.589   9.340   4.740  1.00  0.00     0.014 A 
ATOM     36  C   UNL     1       1.091   9.236   5.969  1.00  0.00     0.010 A 
ATOM     37  C   UNL     1       3.428   8.618   5.919  1.00  0.00     0.010 A 
ATOM     38  C   UNL     1       2.180   8.568   6.555  1.00  0.00    -0.014 A 
BRANCH  38  39
ATOM     39  C   UNL     1       2.026   7.819   7.830  1.00  0.00     0.031 A 
ATOM     40  C   UNL     1       2.812   8.219   9.051  1.00  0.00     0.074 A 
ATOM     41  C   UNL     1       1.215   6.743   7.873  1.00  0.00     0.049 A 
ATOM     42  N   UNL     1       2.809   7.681  10.244  1.00  0.00    -0.248 NA
ATOM     43  C   UNL     1       3.742   9.351   8.908  1.00  0.00     0.031 C 
ATOM     44  C   UNL     1       0.448   6.214   6.743  1.00  0.00     0.029 A 
ATOM     45  N   UNL     1       0.903   5.898   8.909  1.00  0.00    -0.354 N 
ATOM     46  C   UNL     1       3.746   8.394  10.985  1.00  0.00     0.074 A 
ATOM     47  C   UNL     1       4.337   9.365  10.091  1.00  0.00     0.031 C 
ATOM     48  C   UNL     1      -0.272   5.158   7.155  1.00  0.00     0.029 A 
ATOM     49  C   UNL     1       0.012   4.908   8.564  1.00  0.00     0.049 A 
ATOM     50  H   UNL     1       1.280   5.992   9.813  1.00  0.00     0.167 HD
ATOM     51  C   UNL     1       4.072   8.266  12.293  1.00  0.00     0.031 A 
ATOM     52  C   UNL     1      -0.516   3.908   9.296  1.00  0.00     0.031 A 
ATOM     53  C   UNL     1       3.478   7.300  13.180  1.00  0.00     0.049 A 
ATOM     54  C   UNL     1      -0.151   3.793  10.750  1.00  0.00     0.074 A 
ATOM     55  C   UNL     1       3.686   7.138  14.539  1.00  0.00     0.029 A 
ATOM     56  N   UNL     1       2.567   6.326  12.797  1.00  0.00    -0.354 N 
ATOM     57  N   UNL     1       0.669   4.537  11.454  1.00  0.00    -0.248 NA
ATOM     58  C   UNL     1      -0.797   2.717  11.511  1.00  0.00     0.031 C 
ATOM     59  C   UNL     1       2.953   6.024  14.963  1.00  0.00     0.029 A 
ATOM     60  C   UNL     1       2.231   5.537  13.885  1.00  0.00     0.049 A 
ATOM     61  H   UNL     1       2.213   6.212  11.885  1.00  0.00     0.167 HD
ATOM     62  C   UNL     1       0.621   4.030  12.749  1.00  0.00     0.074 A 
ATOM     63  C   UNL     1      -0.328   2.935  12.732  1.00  0.00     0.031 C 
ATOM     64  C   UNL     1       1.300   4.436  13.851  1.00  0.00     0.031 A 
BRANCH  51  65
ATOM     65  C   UNL     1       5.137   9.184  12.839  1.00  0.00    -0.014 A 
ATOM     66  C   UNL     1       4.919  10.570  12.962  1.00  0.00     0.010 A 
ATOM     67  C   UNL     1       6.368   8.649  13.262  1.00  0.00     0.010 A 
ATOM     68  C   UNL     1       5.928  11.407  13.447  1.00  0.00     0.020 A 
ATOM     69  C   UNL     1       7.367   9.479  13.780  1.00  0.00     0.020 A 
ATOM     70  C   UNL     1       7.148  10.855  13.850  1.00  0.00     0.054 A 
BRANCH  70  71
ATOM     71  S   UNL     1       8.434  11.964  14.488  1.00  0.00     0.124 S 
ATOM     72  O   UNL     1       8.861  12.658  13.275  1.00  0.00    -0.237 OA
ATOM     73  O   UNL     1       7.702  12.780  15.453  1.00  0.00    -0.237 OA
ATOM     74  O   UNL     1       9.421  11.056  15.065  1.00  0.00    -0.744 OA
ENDBRANCH  70  71
ENDBRANCH  51  65
BRANCH  52  75
ATOM     75  C   UNL     1      -1.459   2.947   8.659  1.00  0.00    -0.014 A 
ATOM     76  C   UNL     1      -2.827   2.958   8.986  1.00  0.00     0.010 A 
ATOM     77  C   UNL     1      -0.995   2.035   7.693  1.00  0.00     0.010 A 
ATOM     78  C   UNL     1      -3.710   2.068   8.366  1.00  0.00     0.020 A 
ATOM     79  C   UNL     1      -1.879   1.166   7.049  1.00  0.00     0.020 A 
ATOM     80  C   UNL     1      -3.231   1.183   7.396  1.00  0.00     0.054 A 
BRANCH  80  81
ATOM     81  S   UNL     1      -4.408   0.090   6.552  1.00  0.00     0.124 S 
ATOM     82  O   UNL     1      -4.737  -0.871   7.600  1.00  0.00    -0.237 OA
ATOM     83  O   UNL     1      -5.478   1.011   6.177  1.00  0.00    -0.237 OA
ATOM     84  O   UNL     1      -3.636  -0.444   5.431  1.00  0.00    -0.744 OA
ENDBRANCH  80  81
ENDBRANCH  52  75
BRANCH  64  85
ATOM     85  C   UNL     1       1.022   3.703  15.139  1.00  0.00    -0.014 A 
ATOM     86  C   UNL     1       1.427   2.369  15.326  1.00  0.00     0.010 A 
ATOM     87  C   UNL     1       0.364   4.370  16.188  1.00  0.00     0.010 A 
ATOM     88  C   UNL     1       1.130   1.700  16.516  1.00  0.00     0.020 A 
ATOM     89  C   UNL     1       0.096   3.716  17.393  1.00  0.00     0.020 A 
ATOM     90  C   UNL     1       0.461   2.377  17.541  1.00  0.00     0.054 A 
BRANCH  90  91
ATOM     91  S   UNL     1       0.093   1.490  19.079  1.00  0.00     0.124 S 
ATOM     92  O   UNL     1      -0.985   0.597  18.663  1.00  0.00    -0.237 OA
ATOM     93  O   UNL     1       1.365   0.840  19.386  1.00  0.00    -0.237 OA
ATOM     94  O   UNL     1      -0.298   2.550  20.006  1.00  0.00    -0.744 OA
ENDBRANCH  90  91
ENDBRANCH  64  85
ENDBRANCH  38  39
ENDBRANCH  30  33
ENDBRANCH  28  29
ENDBRANCH  27  28
ENDBRANCH  26  27
ENDBRANCH   3  26
TORSDOF 20
