REMARK SMILES CC1=C(C(=O)NCCCNC(=O)c2ccc(-c3c4nc(c(-c5ccc(S(=O)(=O)[O-])cc5)c5ccc([nH]5)c(-c5ccc(S(=O)(=O)[O-])cc5)c5nc(c(-c6ccc(S(=O)(=O)[O-])cc6)c6ccc3[nH]6)C=C5)C=C4)cc2)[C@H](c2ccc(Cl)cc2)n2ncnc2N1
REMARK SMILES IDX 9 1 8 2 7 3 6 4 4 5 5 6 3 8 1 9 2 10 86 11 73 12 85 13 81 15
REMARK SMILES IDX 84 16 82 17 83 18 74 19 75 20 80 21 76 22 79 23 77 24 78 25
REMARK SMILES IDX 10 26 11 27 12 29 13 30 14 31 72 32 15 33 71 34 16 35 17 36
REMARK SMILES IDX 18 37 65 38 19 39 70 40 64 41 66 42 20 43 69 44 63 45 62 46
REMARK SMILES IDX 21 48 51 49 32 50 50 51 33 52 36 53 49 54 67 55 34 56 35 57
REMARK SMILES IDX 48 59 68 60 37 61 22 62 23 63 31 64 24 65 30 66 25 67 26 68
REMARK SMILES IDX 27 69 28 70 29 71 52 72 53 73 61 74 54 75 60 76 55 77 56 78
REMARK SMILES IDX 57 79 58 80 59 81 38 82 39 83 47 84 40 85 46 86 41 87 42 88
REMARK SMILES IDX 43 89 44 90 45 91
REMARK H PARENT 6 7 86 14 10 28 66 47 36 58
REMARK Flexibility Score: inf
ROOT
ATOM      1  C   UNL     1       0.961   0.465  -3.744  1.00  0.00     0.118 C 
ENDROOT
BRANCH   1   2
ATOM      2  C   UNL     1       0.202   0.316  -2.454  1.00  0.00     0.042 C 
BRANCH   2   3
ATOM      3  C   UNL     1       1.075   0.458  -1.225  1.00  0.00     0.118 C 
BRANCH   3   4
ATOM      4  N   UNL     1       1.407   1.787  -0.795  1.00  0.00    -0.352 N 
ATOM      5  C   UNL     1       1.345   2.361   0.432  1.00  0.00     0.251 C 
ATOM      6  O   UNL     1       1.600   3.569   0.438  1.00  0.00    -0.270 OA
ATOM      7  H   UNL     1       1.732   2.380  -1.510  1.00  0.00     0.163 HD
BRANCH   5   8
ATOM      8  C   UNL     1       0.863   1.694   1.707  1.00  0.00     0.065 C 
ATOM      9  C   UNL     1       1.153  -0.876   1.440  1.00  0.00     0.065 C 
ATOM     10  C   UNL     1       0.627   0.394   2.065  1.00  0.00     0.026 C 
ATOM     11  N   UNL     1      -0.186   0.116   3.166  1.00  0.00    -0.328 N 
ATOM     12  C   UNL     1       0.643   2.773   2.826  1.00  0.00     0.179 C 
ATOM     13  C   UNL     1      -0.817   1.057   3.884  1.00  0.00     0.226 A 
ATOM     14  H   UNL     1      -0.303  -0.825   3.431  1.00  0.00     0.169 HD
ATOM     15  N   UNL     1      -0.468   2.364   3.696  1.00  0.00    -0.219 N 
ATOM     16  N   UNL     1      -1.731   0.968   4.813  1.00  0.00    -0.200 NA
ATOM     17  N   UNL     1      -1.168   3.176   4.516  1.00  0.00    -0.157 NA
ATOM     18  C   UNL     1      -1.923   2.280   5.163  1.00  0.00     0.248 A 
BRANCH  12  19
ATOM     19  C   UNL     1       1.956   2.968   3.642  1.00  0.00    -0.018 A 
ATOM     20  C   UNL     1       2.148   2.425   4.928  1.00  0.00     0.008 A 
ATOM     21  C   UNL     1       3.049   3.651   3.071  1.00  0.00     0.008 A 
ATOM     22  C   UNL     1       3.374   2.542   5.595  1.00  0.00     0.021 A 
ATOM     23  C   UNL     1       4.284   3.745   3.723  1.00  0.00     0.021 A 
ATOM     24  C   UNL     1       4.441   3.188   4.984  1.00  0.00     0.041 A 
ATOM     25  Cl  UNL     1       5.957   3.295   5.789  1.00  0.00    -0.084 Cl
ENDBRANCH  12  19
ENDBRANCH   5   8
ENDBRANCH   3   4
ENDBRANCH   2   3
ENDBRANCH   1   2
BRANCH   1  26
ATOM     26  N   UNL     1       1.938  -0.602  -4.001  1.00  0.00    -0.352 N 
ATOM     27  C   UNL     1       2.676  -0.774  -5.165  1.00  0.00     0.251 C 
ATOM     28  H   UNL     1       2.083  -1.257  -3.280  1.00  0.00     0.163 HD
ATOM     29  O   UNL     1       3.254  -1.827  -5.414  1.00  0.00    -0.269 OA
BRANCH  27  30
ATOM     30  C   UNL     1       2.731   0.375  -6.085  1.00  0.00     0.039 A 
ATOM     31  C   UNL     1       2.335   0.282  -7.419  1.00  0.00     0.014 A 
ATOM     32  C   UNL     1       2.946   1.605  -5.477  1.00  0.00     0.014 A 
ATOM     33  C   UNL     1       2.031   1.463  -8.095  1.00  0.00     0.010 A 
ATOM     34  C   UNL     1       2.398   2.714  -6.056  1.00  0.00     0.010 A 
ATOM     35  C   UNL     1       2.011   2.679  -7.388  1.00  0.00    -0.014 A 
BRANCH  35  36
ATOM     36  C   UNL     1       1.486   3.910  -7.972  1.00  0.00     0.031 A 
ATOM     37  C   UNL     1       0.177   3.758  -8.656  1.00  0.00     0.074 A 
ATOM     38  C   UNL     1       2.027   5.132  -7.760  1.00  0.00     0.049 A 
ATOM     39  N   UNL     1      -0.017   3.551  -9.916  1.00  0.00    -0.248 NA
ATOM     40  C   UNL     1      -1.043   3.629  -7.842  1.00  0.00     0.031 C 
ATOM     41  C   UNL     1       3.125   5.501  -6.850  1.00  0.00     0.029 A 
ATOM     42  N   UNL     1       1.646   6.340  -8.258  1.00  0.00    -0.354 N 
ATOM     43  C   UNL     1      -1.395   3.575 -10.089  1.00  0.00     0.074 A 
ATOM     44  C   UNL     1      -1.959   3.366  -8.780  1.00  0.00     0.031 C 
ATOM     45  C   UNL     1       3.160   6.841  -6.686  1.00  0.00     0.029 A 
ATOM     46  C   UNL     1       2.255   7.432  -7.649  1.00  0.00     0.049 A 
ATOM     47  H   UNL     1       0.994   6.433  -8.990  1.00  0.00     0.167 HD
ATOM     48  C   UNL     1      -1.942   4.106 -11.220  1.00  0.00     0.031 A 
ATOM     49  C   UNL     1       2.088   8.740  -7.954  1.00  0.00     0.031 A 
ATOM     50  C   UNL     1      -0.915   4.412 -12.187  1.00  0.00     0.049 A 
ATOM     51  C   UNL     1       1.633   8.791  -9.359  1.00  0.00     0.074 A 
ATOM     52  C   UNL     1      -0.065   3.705 -13.007  1.00  0.00     0.029 A 
ATOM     53  N   UNL     1      -0.398   5.679 -12.051  1.00  0.00    -0.354 N 
ATOM     54  N   UNL     1       2.370   8.386 -10.357  1.00  0.00    -0.248 NA
ATOM     55  C   UNL     1       0.213   8.929  -9.648  1.00  0.00     0.031 C 
ATOM     56  C   UNL     1       1.101   4.517 -13.150  1.00  0.00     0.029 A 
ATOM     57  C   UNL     1       0.905   5.719 -12.467  1.00  0.00     0.049 A 
ATOM     58  H   UNL     1      -0.897   6.452 -11.701  1.00  0.00     0.167 HD
ATOM     59  C   UNL     1       1.473   7.810 -11.237  1.00  0.00     0.074 A 
ATOM     60  C   UNL     1       0.167   8.323 -10.838  1.00  0.00     0.031 C 
ATOM     61  C   UNL     1       1.828   6.741 -12.007  1.00  0.00     0.031 A 
BRANCH  48  62
ATOM     62  C   UNL     1      -3.272   4.832 -11.279  1.00  0.00    -0.014 A 
ATOM     63  C   UNL     1      -3.708   5.332 -12.525  1.00  0.00     0.010 A 
ATOM     64  C   UNL     1      -3.959   5.290 -10.137  1.00  0.00     0.010 A 
ATOM     65  C   UNL     1      -4.733   6.284 -12.616  1.00  0.00     0.020 A 
ATOM     66  C   UNL     1      -5.006   6.212 -10.219  1.00  0.00     0.020 A 
ATOM     67  C   UNL     1      -5.368   6.725 -11.456  1.00  0.00     0.054 A 
BRANCH  67  68
ATOM     68  S   UNL     1      -6.632   8.015 -11.570  1.00  0.00     0.124 S 
ATOM     69  O   UNL     1      -5.854   9.161 -12.030  1.00  0.00    -0.237 OA
ATOM     70  O   UNL     1      -7.564   7.448 -12.541  1.00  0.00    -0.237 OA
ATOM     71  O   UNL     1      -7.144   8.112 -10.205  1.00  0.00    -0.744 OA
ENDBRANCH  67  68
ENDBRANCH  48  62
BRANCH  49  72
ATOM     72  C   UNL     1       2.094   9.917  -7.059  1.00  0.00    -0.014 A 
ATOM     73  C   UNL     1       2.282  11.216  -7.565  1.00  0.00     0.010 A 
ATOM     74  C   UNL     1       1.606   9.785  -5.742  1.00  0.00     0.010 A 
ATOM     75  C   UNL     1       1.923  12.343  -6.808  1.00  0.00     0.020 A 
ATOM     76  C   UNL     1       1.245  10.905  -4.983  1.00  0.00     0.020 A 
ATOM     77  C   UNL     1       1.382  12.180  -5.530  1.00  0.00     0.054 A 
BRANCH  77  78
ATOM     78  S   UNL     1       0.747  13.632  -4.638  1.00  0.00     0.124 S 
ATOM     79  O   UNL     1       1.972  14.356  -4.311  1.00  0.00    -0.237 OA
ATOM     80  O   UNL     1      -0.114  14.265  -5.634  1.00  0.00    -0.237 OA
ATOM     81  O   UNL     1       0.044  13.054  -3.494  1.00  0.00    -0.744 OA
ENDBRANCH  77  78
ENDBRANCH  49  72
BRANCH  61  82
ATOM     82  C   UNL     1       3.294   6.530 -12.288  1.00  0.00    -0.014 A 
ATOM     83  C   UNL     1       4.260   6.199 -11.320  1.00  0.00     0.010 A 
ATOM     84  C   UNL     1       3.687   6.591 -13.637  1.00  0.00     0.010 A 
ATOM     85  C   UNL     1       5.591   5.955 -11.697  1.00  0.00     0.020 A 
ATOM     86  C   UNL     1       5.002   6.332 -14.020  1.00  0.00     0.020 A 
ATOM     87  C   UNL     1       5.952   6.025 -13.048  1.00  0.00     0.054 A 
BRANCH  87  88
ATOM     88  S   UNL     1       7.665   5.682 -13.541  1.00  0.00     0.124 S 
ATOM     89  O   UNL     1       8.390   6.820 -12.984  1.00  0.00    -0.237 OA
ATOM     90  O   UNL     1       7.934   4.393 -12.908  1.00  0.00    -0.237 OA
ATOM     91  O   UNL     1       7.606   5.643 -15.002  1.00  0.00    -0.744 OA
ENDBRANCH  87  88
ENDBRANCH  61  82
ENDBRANCH  35  36
ENDBRANCH  27  30
ENDBRANCH   1  26
TORSDOF 14
