REMARK SMILES O=C(NCCCNC(=O)c1ccc(N2C(=O)[C@@H]3N=NC(c4ccccc4)=C3[C@H]2c2cccc(Br)c2)cc1)c1ccc(-c2c3nc(c(-c4ccc(S(=O)(=O)[O-])cc4)c4ccc([nH]4)c(-c4ccc(S(=O)(=O)[O-])cc4)c4nc(c(-c5ccc(S(=O)(=O)[O-])cc5)c5ccc2[nH]5)C=C4)C=C3)cc1
REMARK SMILES IDX 4 1 3 2 1 3 2 4 38 6 39 7 97 8 40 9 96 10 41 11 42 12 43 13
REMARK SMILES IDX 90 14 44 15 95 16 89 17 91 18 45 19 94 20 88 21 87 22 46 24
REMARK SMILES IDX 76 25 57 26 75 27 58 28 61 29 74 30 92 31 59 32 60 33 73 35
REMARK SMILES IDX 93 36 62 37 47 38 48 39 56 40 49 41 55 42 50 43 51 44 52 45
REMARK SMILES IDX 53 46 54 47 77 48 78 49 86 50 79 51 85 52 80 53 81 54 82 55
REMARK SMILES IDX 83 56 84 57 63 58 64 59 72 60 65 61 71 62 66 63 67 64 68 65
REMARK SMILES IDX 69 66 70 67 5 68 6 69 7 70 8 71 9 73 10 74 11 75 37 76 12 77
REMARK SMILES IDX 36 78 13 79 14 80 15 81 28 82 17 83 16 84 27 85 18 86 20 87
REMARK SMILES IDX 19 88 29 89 30 90 35 91 31 92 33 93 32 94 34 95 21 96 22 97
REMARK SMILES IDX 26 98 23 99 25 100 24 101
REMARK H PARENT 3 5 91 23 61 34 7 72
REMARK Flexibility Score: inf
ROOT
ATOM      1  C   UNL     1       4.609  -0.949   0.707  1.00  0.00     0.118 C 
ENDROOT
BRANCH   1   2
ATOM      2  N   UNL     1       3.210  -1.074   0.348  1.00  0.00    -0.352 N 
ATOM      3  O   UNL     1       1.171  -0.671  -0.389  1.00  0.00    -0.269 OA
ATOM      4  C   UNL     1       2.185  -0.195   0.130  1.00  0.00     0.251 C 
ATOM      5  H   UNL     1       2.933  -2.012   0.234  1.00  0.00     0.163 HD
BRANCH   4   6
ATOM      6  C   UNL     1       2.173   1.236   0.540  1.00  0.00     0.039 A 
ATOM      7  C   UNL     1       3.290   2.016   0.843  1.00  0.00     0.014 A 
ATOM      8  C   UNL     1       0.897   1.824   0.636  1.00  0.00     0.014 A 
ATOM      9  C   UNL     1       3.130   3.323   1.312  1.00  0.00     0.010 A 
ATOM     10  C   UNL     1       0.732   3.126   1.095  1.00  0.00     0.010 A 
ATOM     11  C   UNL     1       1.850   3.867   1.464  1.00  0.00    -0.014 A 
BRANCH  11  12
ATOM     12  C   UNL     1       1.711   5.271   1.853  1.00  0.00     0.031 A 
ATOM     13  C   UNL     1       2.157   6.256   0.825  1.00  0.00     0.074 A 
ATOM     14  C   UNL     1       1.055   5.687   2.956  1.00  0.00     0.049 A 
ATOM     15  N   UNL     1       3.109   7.127   0.910  1.00  0.00    -0.248 NA
ATOM     16  C   UNL     1       1.522   6.196  -0.502  1.00  0.00     0.031 C 
ATOM     17  C   UNL     1       0.285   4.872   3.900  1.00  0.00     0.029 A 
ATOM     18  N   UNL     1       0.834   6.960   3.401  1.00  0.00    -0.354 N 
ATOM     19  C   UNL     1       3.072   7.859  -0.276  1.00  0.00     0.074 A 
ATOM     20  C   UNL     1       2.181   7.149  -1.160  1.00  0.00     0.031 C 
ATOM     21  C   UNL     1      -0.497   5.681   4.653  1.00  0.00     0.029 A 
ATOM     22  C   UNL     1      -0.187   7.066   4.340  1.00  0.00     0.049 A 
ATOM     23  H   UNL     1       1.353   7.734   3.085  1.00  0.00     0.167 HD
ATOM     24  C   UNL     1       3.605   9.109  -0.379  1.00  0.00     0.031 A 
ATOM     25  C   UNL     1      -0.781   8.207   4.781  1.00  0.00     0.031 A 
ATOM     26  C   UNL     1       4.472   9.418   0.726  1.00  0.00     0.049 A 
ATOM     27  C   UNL     1       0.136   9.332   4.482  1.00  0.00     0.074 A 
ATOM     28  C   UNL     1       5.636   8.883   1.238  1.00  0.00     0.029 A 
ATOM     29  N   UNL     1       3.964  10.234   1.708  1.00  0.00    -0.354 N 
ATOM     30  N   UNL     1       1.290   9.494   5.063  1.00  0.00    -0.248 NA
ATOM     31  C   UNL     1      -0.042  10.055   3.233  1.00  0.00     0.031 C 
ATOM     32  C   UNL     1       5.510   9.019   2.651  1.00  0.00     0.029 A 
ATOM     33  C   UNL     1       4.308   9.680   2.912  1.00  0.00     0.049 A 
ATOM     34  H   UNL     1       3.449  11.062   1.571  1.00  0.00     0.167 HD
ATOM     35  C   UNL     1       2.125   9.969   4.063  1.00  0.00     0.074 A 
ATOM     36  C   UNL     1       1.227  10.392   2.991  1.00  0.00     0.031 C 
ATOM     37  C   UNL     1       3.467   9.720   4.089  1.00  0.00     0.031 A 
BRANCH  24  38
ATOM     38  C   UNL     1       3.044  10.197  -1.264  1.00  0.00    -0.014 A 
ATOM     39  C   UNL     1       3.717  11.437  -1.328  1.00  0.00     0.010 A 
ATOM     40  C   UNL     1       1.739  10.152  -1.795  1.00  0.00     0.010 A 
ATOM     41  C   UNL     1       3.083  12.586  -1.818  1.00  0.00     0.020 A 
ATOM     42  C   UNL     1       1.114  11.282  -2.328  1.00  0.00     0.020 A 
ATOM     43  C   UNL     1       1.776  12.502  -2.299  1.00  0.00     0.054 A 
BRANCH  43  44
ATOM     44  S   UNL     1       0.923  14.012  -2.814  1.00  0.00     0.124 S 
ATOM     45  O   UNL     1       0.791  14.729  -1.549  1.00  0.00    -0.237 OA
ATOM     46  O   UNL     1       1.861  14.586  -3.774  1.00  0.00    -0.237 OA
ATOM     47  O   UNL     1      -0.326  13.519  -3.390  1.00  0.00    -0.744 OA
ENDBRANCH  43  44
ENDBRANCH  24  38
BRANCH  25  48
ATOM     48  C   UNL     1      -2.202   8.425   5.160  1.00  0.00    -0.014 A 
ATOM     49  C   UNL     1      -2.611   9.601   5.820  1.00  0.00     0.010 A 
ATOM     50  C   UNL     1      -3.208   7.603   4.612  1.00  0.00     0.010 A 
ATOM     51  C   UNL     1      -3.967   9.972   5.870  1.00  0.00     0.020 A 
ATOM     52  C   UNL     1      -4.561   7.962   4.665  1.00  0.00     0.020 A 
ATOM     53  C   UNL     1      -4.932   9.159   5.271  1.00  0.00     0.054 A 
BRANCH  53  54
ATOM     54  S   UNL     1      -6.655   9.732   5.171  1.00  0.00     0.124 S 
ATOM     55  O   UNL     1      -7.100   9.627   6.558  1.00  0.00    -0.237 OA
ATOM     56  O   UNL     1      -6.511  11.091   4.655  1.00  0.00    -0.237 OA
ATOM     57  O   UNL     1      -7.279   8.787   4.247  1.00  0.00    -0.744 OA
ENDBRANCH  53  54
ENDBRANCH  25  48
BRANCH  37  58
ATOM     58  C   UNL     1       4.085   9.212   5.369  1.00  0.00    -0.014 A 
ATOM     59  C   UNL     1       3.718   8.004   5.995  1.00  0.00     0.010 A 
ATOM     60  C   UNL     1       5.189   9.921   5.874  1.00  0.00     0.010 A 
ATOM     61  C   UNL     1       4.423   7.536   7.114  1.00  0.00     0.020 A 
ATOM     62  C   UNL     1       5.907   9.450   6.975  1.00  0.00     0.020 A 
ATOM     63  C   UNL     1       5.515   8.265   7.596  1.00  0.00     0.054 A 
BRANCH  63  64
ATOM     64  S   UNL     1       6.454   7.634   9.015  1.00  0.00     0.124 S 
ATOM     65  O   UNL     1       5.505   7.783  10.115  1.00  0.00    -0.237 OA
ATOM     66  O   UNL     1       6.750   6.258   8.622  1.00  0.00    -0.237 OA
ATOM     67  O   UNL     1       7.619   8.515   9.081  1.00  0.00    -0.744 OA
ENDBRANCH  63  64
ENDBRANCH  37  58
ENDBRANCH  11  12
ENDBRANCH   4   6
ENDBRANCH   1   2
BRANCH   1  68
ATOM     68  C   UNL     1       4.907  -0.795   2.198  1.00  0.00     0.042 C 
BRANCH  68  69
ATOM     69  C   UNL     1       4.381  -1.909   3.107  1.00  0.00     0.118 C 
BRANCH  69  70
ATOM     70  N   UNL     1       4.946  -3.216   2.808  1.00  0.00    -0.352 N 
ATOM     71  C   UNL     1       5.620  -4.103   3.608  1.00  0.00     0.251 C 
ATOM     72  H   UNL     1       4.825  -3.512   1.877  1.00  0.00     0.163 HD
ATOM     73  O   UNL     1       6.101  -5.117   3.103  1.00  0.00    -0.269 OA
BRANCH  71  74
ATOM     74  C   UNL     1       5.820  -3.864   5.059  1.00  0.00     0.039 A 
ATOM     75  C   UNL     1       7.113  -4.018   5.559  1.00  0.00     0.016 A 
ATOM     76  C   UNL     1       4.772  -3.574   5.946  1.00  0.00     0.016 A 
ATOM     77  C   UNL     1       7.365  -3.809   6.916  1.00  0.00     0.027 A 
ATOM     78  C   UNL     1       5.028  -3.377   7.321  1.00  0.00     0.027 A 
ATOM     79  C   UNL     1       6.332  -3.468   7.810  1.00  0.00     0.045 A 
BRANCH  79  80
ATOM     80  N   UNL     1       6.657  -3.136   9.168  1.00  0.00    -0.299 N 
ATOM     81  C   UNL     1       7.839  -2.337   9.340  1.00  0.00     0.259 C 
ATOM     82  C   UNL     1       6.566  -4.165  10.232  1.00  0.00     0.152 C 
ATOM     83  C   UNL     1       8.574  -2.846  10.541  1.00  0.00     0.248 C 
ATOM     84  O   UNL     1       8.235  -1.449   8.591  1.00  0.00    -0.271 OA
ATOM     85  C   UNL     1       8.010  -4.214  10.544  1.00  0.00     0.021 C 
ATOM     86  N   UNL     1      10.010  -3.115  10.363  1.00  0.00    -0.170 NA
ATOM     87  C   UNL     1       9.039  -5.052  10.602  1.00  0.00     0.097 C 
ATOM     88  N   UNL     1      10.228  -4.353  10.538  1.00  0.00    -0.154 NA
BRANCH  82  89
ATOM     89  C   UNL     1       5.771  -3.777  11.499  1.00  0.00    -0.020 A 
ATOM     90  C   UNL     1       6.371  -3.842  12.787  1.00  0.00     0.006 A 
ATOM     91  C   UNL     1       4.412  -3.435  11.456  1.00  0.00     0.022 A 
ATOM     92  C   UNL     1       5.675  -3.550  13.960  1.00  0.00     0.002 A 
ATOM     93  C   UNL     1       3.706  -3.173  12.645  1.00  0.00     0.018 A 
ATOM     94  C   UNL     1       4.332  -3.221  13.891  1.00  0.00     0.016 A 
ATOM     95  Br  UNL     1       1.856  -2.780  12.582  1.00  0.00    -0.051 Br
ENDBRANCH  82  89
BRANCH  87  96
ATOM     96  C   UNL     1       9.070  -6.510  10.547  1.00  0.00     0.002 A 
ATOM     97  C   UNL     1       8.944  -7.265  11.721  1.00  0.00     0.010 A 
ATOM     98  C   UNL     1       9.450  -7.147   9.360  1.00  0.00     0.010 A 
ATOM     99  C   UNL     1       9.281  -8.621  11.722  1.00  0.00     0.001 A 
ATOM    100  C   UNL     1       9.784  -8.502   9.363  1.00  0.00     0.001 A 
ATOM    101  C   UNL     1       9.724  -9.232  10.549  1.00  0.00     0.000 A 
ENDBRANCH  87  96
ENDBRANCH  79  80
ENDBRANCH  71  74
ENDBRANCH  69  70
ENDBRANCH  68  69
ENDBRANCH   1  68
TORSDOF 16
