REMARK SMILES CCOC(=O)C1=NN(c2ccc(C)cc2Cl)[C@@](C)(C(=O)NCCCNC(=O)c2ccc(-c3c4nc(c(-c5ccc(S(=O)(=O)[O-])cc5)c5ccc([nH]5)c(-c5ccc(S(=O)(=O)[O-])cc5)c5nc(c(-c6ccc(S(=O)(=O)[O-])cc6)c6ccc3[nH]6)C=C5)C=C4)cc2)C1
REMARK SMILES IDX 23 1 22 2 21 3 19 4 20 5 17 7 6 8 7 9 88 10 8 11 18 12 4 13
REMARK SMILES IDX 5 14 3 15 2 16 1 17 9 18 10 19 15 20 11 21 14 22 16 23 12 24
REMARK SMILES IDX 13 25 24 26 25 27 26 28 27 30 28 31 29 32 87 33 30 34 86 35
REMARK SMILES IDX 31 36 32 37 33 38 80 39 34 40 85 41 79 42 81 43 35 44 84 45
REMARK SMILES IDX 78 46 77 47 36 49 66 50 47 51 65 52 48 53 51 54 64 55 82 56
REMARK SMILES IDX 49 57 50 58 63 60 83 61 52 62 37 63 38 64 46 65 39 66 45 67
REMARK SMILES IDX 40 68 41 69 42 70 43 71 44 72 67 73 68 74 76 75 69 76 75 77
REMARK SMILES IDX 70 78 71 79 72 80 73 81 74 82 53 83 54 84 62 85 55 86 61 87
REMARK SMILES IDX 56 88 57 89 58 90 59 91 60 92
REMARK H PARENT 21 6 25 29 81 48 51 59
REMARK Flexibility Score: inf
ROOT
ATOM      1  C   UNL     1       5.161  -2.595   9.277  1.00  0.00     0.042 C 
ENDROOT
BRANCH   1   2
ATOM      2  C   UNL     1       5.632  -1.460   8.370  1.00  0.00     0.117 C 
BRANCH   2   3
ATOM      3  N   UNL     1       5.746  -1.858   6.980  1.00  0.00    -0.354 N 
ATOM      4  C   UNL     1       5.207  -1.402   5.819  1.00  0.00     0.248 C 
ATOM      5  O   UNL     1       5.543  -2.055   4.820  1.00  0.00    -0.272 OA
ATOM      6  H   UNL     1       6.345  -2.628   6.849  1.00  0.00     0.163 HD
BRANCH   4   7
ATOM      7  C   UNL     1       4.269  -0.162   5.685  1.00  0.00     0.144 C 
ATOM      8  C   UNL     1       2.855  -0.467   3.860  1.00  0.00     0.149 C 
ATOM      9  N   UNL     1       2.114  -0.765   4.880  1.00  0.00    -0.169 NA
ATOM     10  C   UNL     1       4.163   0.176   4.169  1.00  0.00     0.106 C 
ATOM     11  N   UNL     1       2.855  -0.485   5.997  1.00  0.00    -0.248 N 
ATOM     12  C   UNL     1       4.787   1.098   6.377  1.00  0.00     0.048 C 
BRANCH   8  13
ATOM     13  C   UNL     1       2.443  -0.664   2.423  1.00  0.00     0.354 C 
ATOM     14  O   UNL     1       3.254  -0.601   1.514  1.00  0.00    -0.245 OA
BRANCH  13  15
ATOM     15  O   UNL     1       1.114  -0.855   2.325  1.00  0.00    -0.461 OA
BRANCH  15  16
ATOM     16  C   UNL     1       0.618  -1.120   1.008  1.00  0.00     0.230 C 
ATOM     17  C   UNL     1       0.424   0.171   0.234  1.00  0.00     0.049 C 
ENDBRANCH  15  16
ENDBRANCH  13  15
ENDBRANCH   8  13
BRANCH  11  18
ATOM     18  C   UNL     1       2.359  -0.912   7.226  1.00  0.00     0.079 A 
ATOM     19  C   UNL     1       2.226   0.020   8.269  1.00  0.00     0.030 A 
ATOM     20  C   UNL     1       1.918  -2.228   7.481  1.00  0.00     0.066 A 
ATOM     21  C   UNL     1       1.707  -0.339   9.519  1.00  0.00     0.006 A 
ATOM     22  C   UNL     1       1.385  -2.586   8.729  1.00  0.00     0.026 A 
ATOM     23  Cl  UNL     1       2.106  -3.507   6.324  1.00  0.00    -0.082 Cl
ATOM     24  C   UNL     1       1.274  -1.644   9.756  1.00  0.00    -0.049 A 
ATOM     25  C   UNL     1       0.753  -2.053  11.103  1.00  0.00     0.044 C 
ENDBRANCH  11  18
ENDBRANCH   4   7
ENDBRANCH   2   3
ENDBRANCH   1   2
BRANCH   1  26
ATOM     26  C   UNL     1       6.072  -3.816   9.339  1.00  0.00     0.118 C 
BRANCH  26  27
ATOM     27  N   UNL     1       7.328  -3.548  10.017  1.00  0.00    -0.352 N 
ATOM     28  C   UNL     1       7.904  -4.215  11.070  1.00  0.00     0.251 C 
ATOM     29  H   UNL     1       7.838  -2.779   9.673  1.00  0.00     0.163 HD
ATOM     30  O   UNL     1       8.896  -3.738  11.617  1.00  0.00    -0.269 OA
BRANCH  28  31
ATOM     31  C   UNL     1       7.328  -5.487  11.566  1.00  0.00     0.039 A 
ATOM     32  C   UNL     1       7.178  -5.660  12.946  1.00  0.00     0.014 A 
ATOM     33  C   UNL     1       6.979  -6.521  10.691  1.00  0.00     0.014 A 
ATOM     34  C   UNL     1       6.630  -6.844  13.446  1.00  0.00     0.010 A 
ATOM     35  C   UNL     1       6.404  -7.692  11.189  1.00  0.00     0.010 A 
ATOM     36  C   UNL     1       6.224  -7.862  12.570  1.00  0.00    -0.014 A 
BRANCH  36  37
ATOM     37  C   UNL     1       5.637  -9.122  13.084  1.00  0.00     0.031 A 
ATOM     38  C   UNL     1       6.420 -10.400  13.014  1.00  0.00     0.074 A 
ATOM     39  C   UNL     1       4.385  -9.137  13.577  1.00  0.00     0.049 A 
ATOM     40  N   UNL     1       6.015 -11.624  13.237  1.00  0.00    -0.248 NA
ATOM     41  C   UNL     1       7.832 -10.289  12.619  1.00  0.00     0.031 C 
ATOM     42  C   UNL     1       3.499  -7.977  13.687  1.00  0.00     0.029 A 
ATOM     43  N   UNL     1       3.642 -10.176  14.077  1.00  0.00    -0.354 N 
ATOM     44  C   UNL     1       7.098 -12.438  12.934  1.00  0.00     0.074 A 
ATOM     45  C   UNL     1       8.193 -11.564  12.564  1.00  0.00     0.031 C 
ATOM     46  C   UNL     1       2.338  -8.366  14.242  1.00  0.00     0.029 A 
ATOM     47  C   UNL     1       2.394  -9.801  14.510  1.00  0.00     0.049 A 
ATOM     48  H   UNL     1       3.972 -11.102  14.122  1.00  0.00     0.167 HD
ATOM     49  C   UNL     1       7.164 -13.791  12.929  1.00  0.00     0.031 A 
ATOM     50  C   UNL     1       1.406 -10.530  15.061  1.00  0.00     0.031 A 
ATOM     51  C   UNL     1       6.096 -14.660  13.336  1.00  0.00     0.049 A 
ATOM     52  C   UNL     1       1.589 -12.004  15.263  1.00  0.00     0.074 A 
ATOM     53  C   UNL     1       6.015 -16.040  13.262  1.00  0.00     0.029 A 
ATOM     54  N   UNL     1       4.931 -14.225  13.947  1.00  0.00    -0.354 N 
ATOM     55  N   UNL     1       2.575 -12.767  14.859  1.00  0.00    -0.248 NA
ATOM     56  C   UNL     1       0.534 -12.712  16.001  1.00  0.00     0.031 C 
ATOM     57  C   UNL     1       4.815 -16.441  13.870  1.00  0.00     0.029 A 
ATOM     58  C   UNL     1       4.153 -15.308  14.315  1.00  0.00     0.049 A 
ATOM     59  H   UNL     1       4.691 -13.281  14.097  1.00  0.00     0.167 HD
ATOM     60  C   UNL     1       2.249 -14.052  15.273  1.00  0.00     0.074 A 
ATOM     61  C   UNL     1       0.991 -13.958  15.988  1.00  0.00     0.031 C 
ATOM     62  C   UNL     1       2.923 -15.207  15.053  1.00  0.00     0.031 A 
BRANCH  49  63
ATOM     63  C   UNL     1       8.440 -14.386  12.415  1.00  0.00    -0.014 A 
ATOM     64  C   UNL     1       9.519 -14.630  13.280  1.00  0.00     0.010 A 
ATOM     65  C   UNL     1       8.581 -14.637  11.039  1.00  0.00     0.010 A 
ATOM     66  C   UNL     1      10.743 -15.072  12.768  1.00  0.00     0.020 A 
ATOM     67  C   UNL     1       9.801 -15.081  10.525  1.00  0.00     0.020 A 
ATOM     68  C   UNL     1      10.881 -15.272  11.391  1.00  0.00     0.054 A 
BRANCH  68  69
ATOM     69  S   UNL     1      12.477 -15.783  10.697  1.00  0.00     0.124 S 
ATOM     70  O   UNL     1      12.988 -14.523  10.164  1.00  0.00    -0.237 OA
ATOM     71  O   UNL     1      13.200 -16.312  11.851  1.00  0.00    -0.237 OA
ATOM     72  O   UNL     1      12.095 -16.778   9.698  1.00  0.00    -0.744 OA
ENDBRANCH  68  69
ENDBRANCH  49  63
BRANCH  50  73
ATOM     73  C   UNL     1       0.157  -9.852  15.480  1.00  0.00    -0.014 A 
ATOM     74  C   UNL     1       0.060  -9.292  16.766  1.00  0.00     0.010 A 
ATOM     75  C   UNL     1      -0.908  -9.704  14.577  1.00  0.00     0.010 A 
ATOM     76  C   UNL     1      -1.081  -8.578  17.139  1.00  0.00     0.020 A 
ATOM     77  C   UNL     1      -2.048  -8.987  14.947  1.00  0.00     0.020 A 
ATOM     78  C   UNL     1      -2.127  -8.427  16.226  1.00  0.00     0.054 A 
BRANCH  78  79
ATOM     79  S   UNL     1      -3.568  -7.413  16.660  1.00  0.00     0.124 S 
ATOM     80  O   UNL     1      -4.539  -8.424  17.066  1.00  0.00    -0.237 OA
ATOM     81  O   UNL     1      -3.065  -6.556  17.732  1.00  0.00    -0.237 OA
ATOM     82  O   UNL     1      -3.862  -6.718  15.409  1.00  0.00    -0.744 OA
ENDBRANCH  78  79
ENDBRANCH  50  73
BRANCH  62  83
ATOM     83  C   UNL     1       2.314 -16.462  15.602  1.00  0.00    -0.014 A 
ATOM     84  C   UNL     1       1.402 -17.203  14.831  1.00  0.00     0.010 A 
ATOM     85  C   UNL     1       2.662 -16.912  16.886  1.00  0.00     0.010 A 
ATOM     86  C   UNL     1       0.829 -18.369  15.344  1.00  0.00     0.020 A 
ATOM     87  C   UNL     1       2.090 -18.078  17.403  1.00  0.00     0.020 A 
ATOM     88  C   UNL     1       1.167 -18.793  16.633  1.00  0.00     0.054 A 
BRANCH  88  89
ATOM     89  S   UNL     1       0.441 -20.319  17.293  1.00  0.00     0.124 S 
ATOM     90  O   UNL     1      -0.760 -19.820  17.957  1.00  0.00    -0.237 OA
ATOM     91  O   UNL     1       0.207 -21.124  16.096  1.00  0.00    -0.237 OA
ATOM     92  O   UNL     1       1.482 -20.829  18.182  1.00  0.00    -0.744 OA
ENDBRANCH  88  89
ENDBRANCH  62  83
ENDBRANCH  36  37
ENDBRANCH  28  31
ENDBRANCH  26  27
ENDBRANCH   1  26
TORSDOF 17
