REMARK SMILES O=C(NCCCNC(=O)c1cn(-c2ccccc2)c2c1N=C(O)C[C@@H]2c1cccs1)c1ccc(-c2c3nc(c(-c4ccc(S(=O)(=O)[O-])cc4)c4ccc([nH]4)c(-c4ccc(S(=O)(=O)[O-])cc4)c4nc(c(-c5ccc(S(=O)(=O)[O-])cc5)c5ccc2[nH]5)C=C4)C=C3)cc1
REMARK SMILES IDX 4 1 3 2 1 3 2 4 31 6 32 7 90 8 33 9 89 10 34 11 35 12 36 13
REMARK SMILES IDX 83 14 37 15 88 16 82 17 84 18 38 19 87 20 81 21 80 22 39 24
REMARK SMILES IDX 69 25 50 26 68 27 51 28 54 29 67 30 85 31 52 32 53 33 66 35
REMARK SMILES IDX 86 36 55 37 40 38 41 39 49 40 42 41 48 42 43 43 44 44 45 45
REMARK SMILES IDX 46 46 47 47 70 48 71 49 79 50 72 51 78 52 73 53 74 54 75 55
REMARK SMILES IDX 76 56 77 57 56 58 57 59 65 60 58 61 64 62 59 63 60 64 61 65
REMARK SMILES IDX 62 66 63 67 5 68 6 69 7 70 8 71 9 73 10 74 11 75 20 76 12 77
REMARK SMILES IDX 19 78 21 79 25 80 22 81 24 82 13 83 14 84 18 85 15 86 17 87
REMARK SMILES IDX 16 88 26 89 27 90 30 91 28 92 29 93 23 94
REMARK H PARENT 3 5 84 23 54 34 7 72 23 95
REMARK Flexibility Score: inf
ROOT
ATOM      1  C   UNL     1       4.735  -0.500   0.855  1.00  0.00     0.118 C 
ENDROOT
BRANCH   1   2
ATOM      2  N   UNL     1       3.312  -0.725   0.699  1.00  0.00    -0.352 N 
ATOM      3  O   UNL     1       1.224  -0.660  -0.001  1.00  0.00    -0.269 OA
ATOM      4  C   UNL     1       2.273  -0.025   0.149  1.00  0.00     0.251 C 
ATOM      5  H   UNL     1       3.024  -1.587   1.080  1.00  0.00     0.163 HD
BRANCH   4   6
ATOM      6  C   UNL     1       2.288   1.420  -0.222  1.00  0.00     0.039 A 
ATOM      7  C   UNL     1       3.413   2.242  -0.296  1.00  0.00     0.014 A 
ATOM      8  C   UNL     1       1.028   1.992  -0.498  1.00  0.00     0.014 A 
ATOM      9  C   UNL     1       3.275   3.603  -0.589  1.00  0.00     0.010 A 
ATOM     10  C   UNL     1       0.886   3.347  -0.794  1.00  0.00     0.010 A 
ATOM     11  C   UNL     1       2.012   4.161  -0.824  1.00  0.00    -0.014 A 
BRANCH  11  12
ATOM     12  C   UNL     1       1.932   5.558  -1.257  1.00  0.00     0.031 A 
ATOM     13  C   UNL     1       2.492   5.833  -2.610  1.00  0.00     0.074 A 
ATOM     14  C   UNL     1       1.279   6.548  -0.616  1.00  0.00     0.049 A 
ATOM     15  N   UNL     1       3.542   6.526  -2.909  1.00  0.00    -0.248 NA
ATOM     16  C   UNL     1       1.845   5.193  -3.765  1.00  0.00     0.031 C 
ATOM     17  C   UNL     1       0.388   6.446   0.540  1.00  0.00     0.029 A 
ATOM     18  N   UNL     1       1.210   7.874  -0.944  1.00  0.00    -0.354 N 
ATOM     19  C   UNL     1       3.598   6.564  -4.301  1.00  0.00     0.074 A 
ATOM     20  C   UNL     1       2.609   5.623  -4.770  1.00  0.00     0.031 C 
ATOM     21  C   UNL     1      -0.291   7.609   0.683  1.00  0.00     0.029 A 
ATOM     22  C   UNL     1       0.216   8.579  -0.276  1.00  0.00     0.049 A 
ATOM     23  H   UNL     1       1.814   8.294  -1.599  1.00  0.00     0.167 HD
ATOM     24  C   UNL     1       4.321   7.502  -4.976  1.00  0.00     0.031 A 
ATOM     25  C   UNL     1      -0.191   9.850  -0.525  1.00  0.00     0.031 A 
ATOM     26  C   UNL     1       5.219   8.220  -4.114  1.00  0.00     0.049 A 
ATOM     27  C   UNL     1       0.897  10.539  -1.257  1.00  0.00     0.074 A 
ATOM     28  C   UNL     1       6.280   7.880  -3.299  1.00  0.00     0.029 A 
ATOM     29  N   UNL     1       4.849   9.491  -3.744  1.00  0.00    -0.354 N 
ATOM     30  N   UNL     1       2.045  10.851  -0.725  1.00  0.00    -0.248 NA
ATOM     31  C   UNL     1       0.858  10.565  -2.710  1.00  0.00     0.031 C 
ATOM     32  C   UNL     1       6.183   8.760  -2.182  1.00  0.00     0.029 A 
ATOM     33  C   UNL     1       5.099   9.613  -2.403  1.00  0.00     0.049 A 
ATOM     34  H   UNL     1       4.474  10.185  -4.334  1.00  0.00     0.167 HD
ATOM     35  C   UNL     1       2.965  10.694  -1.749  1.00  0.00     0.074 A 
ATOM     36  C   UNL     1       2.166  10.633  -2.969  1.00  0.00     0.031 C 
ATOM     37  C   UNL     1       4.263  10.357  -1.486  1.00  0.00     0.031 A 
BRANCH  24  38
ATOM     38  C   UNL     1       3.971   8.025  -6.349  1.00  0.00    -0.014 A 
ATOM     39  C   UNL     1       4.862   8.915  -6.986  1.00  0.00     0.010 A 
ATOM     40  C   UNL     1       2.682   7.902  -6.905  1.00  0.00     0.010 A 
ATOM     41  C   UNL     1       4.459   9.695  -8.077  1.00  0.00     0.020 A 
ATOM     42  C   UNL     1       2.285   8.641  -8.023  1.00  0.00     0.020 A 
ATOM     43  C   UNL     1       3.164   9.562  -8.578  1.00  0.00     0.054 A 
BRANCH  43  44
ATOM     44  S   UNL     1       2.615  10.657  -9.912  1.00  0.00     0.124 S 
ATOM     45  O   UNL     1       2.592  11.954  -9.243  1.00  0.00    -0.237 OA
ATOM     46  O   UNL     1       3.664  10.477 -10.912  1.00  0.00    -0.237 OA
ATOM     47  O   UNL     1       1.309  10.117 -10.281  1.00  0.00    -0.744 OA
ENDBRANCH  43  44
ENDBRANCH  24  38
BRANCH  25  48
ATOM     48  C   UNL     1      -1.546  10.441  -0.395  1.00  0.00    -0.014 A 
ATOM     49  C   UNL     1      -1.738  11.836  -0.465  1.00  0.00     0.010 A 
ATOM     50  C   UNL     1      -2.685   9.619  -0.497  1.00  0.00     0.010 A 
ATOM     51  C   UNL     1      -3.011  12.381  -0.705  1.00  0.00     0.020 A 
ATOM     52  C   UNL     1      -3.958  10.155  -0.726  1.00  0.00     0.020 A 
ATOM     53  C   UNL     1      -4.111  11.533  -0.858  1.00  0.00     0.054 A 
BRANCH  53  54
ATOM     54  S   UNL     1      -5.713  12.227  -1.366  1.00  0.00     0.124 S 
ATOM     55  O   UNL     1      -6.145  12.928  -0.161  1.00  0.00    -0.237 OA
ATOM     56  O   UNL     1      -5.347  13.078  -2.495  1.00  0.00    -0.237 OA
ATOM     57  O   UNL     1      -6.503  11.048  -1.715  1.00  0.00    -0.744 OA
ENDBRANCH  53  54
ENDBRANCH  25  48
BRANCH  37  58
ATOM     58  C   UNL     1       4.785  10.518  -0.078  1.00  0.00    -0.014 A 
ATOM     59  C   UNL     1       4.223   9.883   1.045  1.00  0.00     0.010 A 
ATOM     60  C   UNL     1       5.983  11.237   0.088  1.00  0.00     0.010 A 
ATOM     61  C   UNL     1       4.830   9.989   2.306  1.00  0.00     0.020 A 
ATOM     62  C   UNL     1       6.604  11.328   1.336  1.00  0.00     0.020 A 
ATOM     63  C   UNL     1       6.019  10.710   2.442  1.00  0.00     0.054 A 
BRANCH  63  64
ATOM     64  S   UNL     1       6.828  10.795   4.064  1.00  0.00     0.124 S 
ATOM     65  O   UNL     1       5.921  11.647   4.828  1.00  0.00    -0.237 OA
ATOM     66  O   UNL     1       6.873   9.394   4.481  1.00  0.00    -0.237 OA
ATOM     67  O   UNL     1       8.133  11.386   3.772  1.00  0.00    -0.744 OA
ENDBRANCH  63  64
ENDBRANCH  37  58
ENDBRANCH  11  12
ENDBRANCH   4   6
ENDBRANCH   1   2
BRANCH   1  68
ATOM     68  C   UNL     1       5.134   0.292   2.095  1.00  0.00     0.042 C 
BRANCH  68  69
ATOM     69  C   UNL     1       4.745  -0.342   3.428  1.00  0.00     0.118 C 
BRANCH  69  70
ATOM     70  N   UNL     1       5.437  -1.594   3.708  1.00  0.00    -0.352 N 
ATOM     71  C   UNL     1       6.074  -1.989   4.860  1.00  0.00     0.255 C 
ATOM     72  H   UNL     1       5.450  -2.246   2.970  1.00  0.00     0.163 HD
ATOM     73  O   UNL     1       6.676  -3.070   4.858  1.00  0.00    -0.269 OA
BRANCH  71  74
ATOM     74  C   UNL     1       6.089  -1.111   6.016  1.00  0.00     0.084 A 
ATOM     75  C   UNL     1       7.225  -0.777   6.738  1.00  0.00     0.107 A 
ATOM     76  C   UNL     1       5.037  -0.419   6.652  1.00  0.00     0.101 A 
ATOM     77  N   UNL     1       6.896   0.122   7.739  1.00  0.00    -0.317 N 
ATOM     78  C   UNL     1       5.551   0.427   7.600  1.00  0.00     0.058 A 
ATOM     79  N   UNL     1       3.706  -0.450   6.253  1.00  0.00    -0.215 NA
ATOM     80  C   UNL     1       4.808   1.582   8.189  1.00  0.00     0.088 C 
ATOM     81  C   UNL     1       2.966   0.471   6.765  1.00  0.00     0.187 C 
ATOM     82  C   UNL     1       3.314   1.499   7.811  1.00  0.00     0.112 C 
BRANCH  77  83
ATOM     83  C   UNL     1       7.821   0.665   8.668  1.00  0.00     0.045 A 
ATOM     84  C   UNL     1       7.459   0.839  10.008  1.00  0.00     0.026 A 
ATOM     85  C   UNL     1       9.101   1.033   8.234  1.00  0.00     0.026 A 
ATOM     86  C   UNL     1       8.370   1.400  10.905  1.00  0.00     0.002 A 
ATOM     87  C   UNL     1       9.994   1.622   9.130  1.00  0.00     0.002 A 
ATOM     88  C   UNL     1       9.630   1.804  10.464  1.00  0.00     0.000 A 
ENDBRANCH  77  83
BRANCH  80  89
ATOM     89  C   UNL     1       5.335   2.968   7.819  1.00  0.00     0.014 A 
ATOM     90  C   UNL     1       5.011   4.161   8.448  1.00  0.00     0.016 A 
ATOM     91  S   UNL     1       6.376   3.259   6.481  1.00  0.00    -0.148 S 
ATOM     92  C   UNL     1       5.634   5.292   7.848  1.00  0.00     0.012 A 
ATOM     93  C   UNL     1       6.436   4.936   6.789  1.00  0.00     0.065 A 
ENDBRANCH  80  89
BRANCH  81  94
ATOM     94  O   UNL     1       1.679   0.532   6.358  1.00  0.00    -0.496 OA
ATOM     95  H   UNL     1       1.365  -0.066   5.710  1.00  0.00     0.294 HD
ENDBRANCH  81  94
ENDBRANCH  71  74
ENDBRANCH  69  70
ENDBRANCH  68  69
ENDBRANCH   1  68
TORSDOF 16
