REMARK SMILES O=C(CCCN1C(=O)C(=O)/C(=C(/[O-])c2ccccc2)[C@@H]1/C=C/c1ccccc1)NCCCNC(=O)c1ccc(-c2c3nc(c(-c4ccc(S(=O)(=O)[O-])cc4)c4ccc([nH]4)c(-c4ccc(S(=O)(=O)[O-])cc4)c4nc(c(-c5ccc(S(=O)(=O)[O-])cc5)c5ccc2[nH]5)C=C4)C=C3)cc1
REMARK SMILES IDX 30 1 29 2 1 3 2 4 3 6 4 7 5 8 6 9 7 10 20 11 8 12 9 13 11 14
REMARK SMILES IDX 10 15 12 16 13 17 21 18 22 19 23 20 24 21 28 22 25 23 27 24
REMARK SMILES IDX 26 25 14 26 15 27 19 28 16 29 18 30 17 31 31 32 32 33 33 34
REMARK SMILES IDX 34 35 35 37 36 38 37 39 95 40 38 41 94 42 39 43 40 44 41 45
REMARK SMILES IDX 88 46 42 47 93 48 87 49 89 50 43 51 92 52 86 53 85 54 44 56
REMARK SMILES IDX 74 57 55 58 73 59 56 60 59 61 72 62 90 63 57 64 58 65 71 67
REMARK SMILES IDX 91 68 60 69 45 70 46 71 54 72 47 73 53 74 48 75 49 76 50 77
REMARK SMILES IDX 51 78 52 79 75 80 76 81 84 82 77 83 83 84 78 85 79 86 80 87
REMARK SMILES IDX 81 88 82 89 61 90 62 91 70 92 63 93 69 94 64 95 65 96 66 97
REMARK SMILES IDX 67 98 68 99
REMARK H PARENT 29 5 33 36 89 55 59 66
REMARK Flexibility Score: inf
ROOT
ATOM      1  C   UNL     1       1.217  -1.942  -0.536  1.00  0.00     0.117 C 
ENDROOT
BRANCH   1   2
ATOM      2  N   UNL     1       2.133  -0.872  -0.126  1.00  0.00    -0.356 N 
ATOM      3  O   UNL     1       0.622   0.776   0.364  1.00  0.00    -0.275 OA
ATOM      4  C   UNL     1       1.780   0.396   0.245  1.00  0.00     0.220 C 
ATOM      5  H   UNL     1       3.094  -1.087  -0.117  1.00  0.00     0.163 HD
BRANCH   4   6
ATOM      6  C   UNL     1       2.974   1.329   0.421  1.00  0.00     0.102 C 
BRANCH   6   7
ATOM      7  C   UNL     1       3.908   1.036   1.608  1.00  0.00     0.031 C 
BRANCH   7   8
ATOM      8  C   UNL     1       5.207   0.244   1.328  1.00  0.00     0.121 C 
BRANCH   8   9
ATOM      9  N   UNL     1       5.928   0.635   0.116  1.00  0.00    -0.325 N 
ATOM     10  C   UNL     1       6.198   1.943  -0.212  1.00  0.00     0.295 C 
ATOM     11  C   UNL     1       6.621  -0.297  -0.767  1.00  0.00     0.143 C 
ATOM     12  O   UNL     1       6.014   2.943   0.448  1.00  0.00    -0.265 OA
ATOM     13  C   UNL     1       6.720   1.927  -1.645  1.00  0.00     0.248 C 
ATOM     14  C   UNL     1       6.997   0.503  -2.002  1.00  0.00     0.024 C 
ATOM     15  O   UNL     1       6.773   2.920  -2.336  1.00  0.00    -0.283 OA
ATOM     16  C   UNL     1       7.365   0.039  -3.217  1.00  0.00    -0.092 C 
ATOM     17  O   UNL     1       7.550  -1.306  -3.498  1.00  0.00    -0.872 OA
BRANCH  11  18
ATOM     18  C   UNL     1       5.695  -1.441  -1.033  1.00  0.00     0.003 C 
ATOM     19  C   UNL     1       4.653  -1.343  -1.866  1.00  0.00     0.006 C 
BRANCH  19  20
ATOM     20  C   UNL     1       3.686  -2.408  -1.980  1.00  0.00    -0.026 A 
ATOM     21  C   UNL     1       2.993  -2.719  -3.612  1.00  0.00     0.008 A 
ATOM     22  C   UNL     1       3.131  -3.381  -0.554  1.00  0.00     0.008 A 
ATOM     23  C   UNL     1       1.744  -3.978  -3.811  1.00  0.00     0.001 A 
ATOM     24  C   UNL     1       1.847  -4.657  -0.782  1.00  0.00     0.001 A 
ATOM     25  C   UNL     1       1.191  -4.978  -2.420  1.00  0.00     0.000 A 
ENDBRANCH  19  20
ENDBRANCH  11  18
BRANCH  16  26
ATOM     26  C   UNL     1       7.525   0.860  -4.433  1.00  0.00    -0.033 A 
ATOM     27  C   UNL     1       6.798   0.530  -5.590  1.00  0.00     0.007 A 
ATOM     28  C   UNL     1       8.410   1.941  -4.485  1.00  0.00     0.007 A 
ATOM     29  C   UNL     1       6.924   1.290  -6.755  1.00  0.00     0.001 A 
ATOM     30  C   UNL     1       8.522   2.713  -5.643  1.00  0.00     0.001 A 
ATOM     31  C   UNL     1       7.779   2.389  -6.776  1.00  0.00     0.000 A 
ENDBRANCH  16  26
ENDBRANCH   8   9
ENDBRANCH   7   8
ENDBRANCH   6   7
ENDBRANCH   4   6
ENDBRANCH   1   2
BRANCH   1  32
ATOM     32  C   UNL     1       1.669  -2.937  -1.926  1.00  0.00     0.042 C 
BRANCH  32  33
ATOM     33  C   UNL     1       3.229  -4.420  -2.323  1.00  0.00     0.118 C 
BRANCH  33  34
ATOM     34  N   UNL     1       4.159  -5.325  -1.296  1.00  0.00    -0.352 N 
ATOM     35  C   UNL     1       5.272  -6.082  -1.532  1.00  0.00     0.251 C 
ATOM     36  H   UNL     1       3.861  -5.316  -0.358  1.00  0.00     0.163 HD
ATOM     37  O   UNL     1       5.857  -6.649  -0.617  1.00  0.00    -0.269 OA
BRANCH  35  38
ATOM     38  C   UNL     1       5.693  -6.268  -2.917  1.00  0.00     0.039 A 
ATOM     39  C   UNL     1       5.446  -7.511  -3.498  1.00  0.00     0.014 A 
ATOM     40  C   UNL     1       6.203  -5.197  -3.650  1.00  0.00     0.014 A 
ATOM     41  C   UNL     1       5.655  -7.665  -4.860  1.00  0.00     0.010 A 
ATOM     42  C   UNL     1       6.337  -5.332  -5.023  1.00  0.00     0.010 A 
ATOM     43  C   UNL     1       6.058  -6.565  -5.634  1.00  0.00    -0.014 A 
BRANCH  43  44
ATOM     44  C   UNL     1       6.176  -6.703  -7.099  1.00  0.00     0.031 A 
ATOM     45  C   UNL     1       7.523  -6.590  -7.745  1.00  0.00     0.074 A 
ATOM     46  C   UNL     1       5.063  -6.911  -7.828  1.00  0.00     0.049 A 
ATOM     47  N   UNL     1       7.835  -6.690  -9.008  1.00  0.00    -0.248 NA
ATOM     48  C   UNL     1       8.666  -6.312  -6.859  1.00  0.00     0.031 C 
ATOM     49  C   UNL     1       3.703  -7.010  -7.288  1.00  0.00     0.029 A 
ATOM     50  N   UNL     1       4.897  -7.089  -9.176  1.00  0.00    -0.354 N 
ATOM     51  C   UNL     1       9.206  -6.479  -9.071  1.00  0.00     0.074 A 
ATOM     52  C   UNL     1       9.657  -6.189  -7.729  1.00  0.00     0.031 C 
ATOM     53  C   UNL     1       2.850  -7.272  -8.290  1.00  0.00     0.029 A 
ATOM     54  C   UNL     1       3.591  -7.306  -9.546  1.00  0.00     0.049 A 
ATOM     55  H   UNL     1       5.642  -7.063  -9.819  1.00  0.00     0.167 HD
ATOM     56  C   UNL     1      10.017  -6.543 -10.151  1.00  0.00     0.031 A 
ATOM     57  C   UNL     1       3.054  -7.503 -10.766  1.00  0.00     0.031 A 
ATOM     58  C   UNL     1       9.544  -6.824 -11.480  1.00  0.00     0.049 A 
ATOM     59  C   UNL     1       3.972  -7.524 -11.957  1.00  0.00     0.074 A 
ATOM     60  C   UNL     1      10.279  -6.947 -12.644  1.00  0.00     0.029 A 
ATOM     61  N   UNL     1       8.212  -7.012 -11.822  1.00  0.00    -0.354 N 
ATOM     62  N   UNL     1       5.278  -7.392 -11.991  1.00  0.00    -0.248 NA
ATOM     63  C   UNL     1       3.350  -7.729 -13.271  1.00  0.00     0.031 C 
ATOM     64  C   UNL     1       9.385  -7.136 -13.702  1.00  0.00     0.029 A 
ATOM     65  C   UNL     1       8.100  -7.215 -13.186  1.00  0.00     0.049 A 
ATOM     66  H   UNL     1       7.459  -7.003 -11.188  1.00  0.00     0.167 HD
ATOM     67  C   UNL     1       5.637  -7.525 -13.327  1.00  0.00     0.074 A 
ATOM     68  C   UNL     1       4.412  -7.768 -14.064  1.00  0.00     0.031 C 
ATOM     69  C   UNL     1       6.866  -7.454 -13.895  1.00  0.00     0.031 A 
BRANCH  56  70
ATOM     70  C   UNL     1      11.484  -6.283  -9.939  1.00  0.00    -0.014 A 
ATOM     71  C   UNL     1      12.286  -7.173  -9.200  1.00  0.00     0.010 A 
ATOM     72  C   UNL     1      12.079  -5.146 -10.515  1.00  0.00     0.010 A 
ATOM     73  C   UNL     1      13.645  -6.911  -9.009  1.00  0.00     0.020 A 
ATOM     74  C   UNL     1      13.445  -4.899 -10.356  1.00  0.00     0.020 A 
ATOM     75  C   UNL     1      14.216  -5.776  -9.591  1.00  0.00     0.054 A 
BRANCH  75  76
ATOM     76  S   UNL     1      15.990  -5.483  -9.355  1.00  0.00     0.124 S 
ATOM     77  O   UNL     1      16.055  -5.155  -7.933  1.00  0.00    -0.237 OA
ATOM     78  O   UNL     1      16.576  -6.767  -9.731  1.00  0.00    -0.237 OA
ATOM     79  O   UNL     1      16.284  -4.376 -10.263  1.00  0.00    -0.744 OA
ENDBRANCH  75  76
ENDBRANCH  56  70
BRANCH  57  80
ATOM     80  C   UNL     1       1.584  -7.691 -10.915  1.00  0.00    -0.014 A 
ATOM     81  C   UNL     1       1.053  -8.919 -11.346  1.00  0.00     0.010 A 
ATOM     82  C   UNL     1       0.702  -6.636 -10.615  1.00  0.00     0.010 A 
ATOM     83  C   UNL     1      -0.328  -9.082 -11.494  1.00  0.00     0.020 A 
ATOM     84  C   UNL     1      -0.681  -6.805 -10.728  1.00  0.00     0.020 A 
ATOM     85  C   UNL     1      -1.186  -8.025 -11.180  1.00  0.00     0.054 A 
BRANCH  85  86
ATOM     86  S   UNL     1      -2.976  -8.275 -11.336  1.00  0.00     0.124 S 
ATOM     87  O   UNL     1      -3.146  -8.359 -12.783  1.00  0.00    -0.237 OA
ATOM     88  O   UNL     1      -3.183  -9.519 -10.599  1.00  0.00    -0.237 OA
ATOM     89  O   UNL     1      -3.544  -7.084 -10.707  1.00  0.00    -0.744 OA
ENDBRANCH  85  86
ENDBRANCH  57  80
BRANCH  69  90
ATOM     90  C   UNL     1       6.957  -7.676 -15.381  1.00  0.00    -0.014 A 
ATOM     91  C   UNL     1       6.461  -6.730 -16.295  1.00  0.00     0.010 A 
ATOM     92  C   UNL     1       7.618  -8.820 -15.867  1.00  0.00     0.010 A 
ATOM     93  C   UNL     1       6.601  -6.938 -17.669  1.00  0.00     0.020 A 
ATOM     94  C   UNL     1       7.793  -9.012 -17.238  1.00  0.00     0.020 A 
ATOM     95  C   UNL     1       7.273  -8.074 -18.131  1.00  0.00     0.054 A 
BRANCH  95  96
ATOM     96  S   UNL     1       7.495  -8.285 -19.918  1.00  0.00     0.124 S 
ATOM     97  O   UNL     1       6.132  -8.563 -20.363  1.00  0.00    -0.237 OA
ATOM     98  O   UNL     1       8.039  -6.992 -20.325  1.00  0.00    -0.237 OA
ATOM     99  O   UNL     1       8.425  -9.407 -20.022  1.00  0.00    -0.744 OA
ENDBRANCH  95  96
ENDBRANCH  69  90
ENDBRANCH  43  44
ENDBRANCH  35  38
ENDBRANCH  33  34
ENDBRANCH  32  33
ENDBRANCH   1  32
TORSDOF 19
