REMARK SMILES C[C@@H](C(=O)NCCCNC(=O)c1ccc(-c2c3nc(c(-c4ccc(S(=O)(=O)[O-])cc4)c4ccc([nH]4)c(-c4ccc(S(=O)(=O)[O-])cc4)c4nc(c(-c5ccc(S(=O)(=O)[O-])cc5)c5ccc2[nH]5)C=C4)C=C3)cc1)c1ccc(-c2ccccc2)cc1
REMARK SMILES IDX 7 1 6 2 5 3 3 4 4 5 2 7 1 8 72 9 73 10 83 11 74 12 82 13
REMARK SMILES IDX 75 14 76 15 77 16 81 17 78 18 80 19 79 20 8 21 9 22 10 23
REMARK SMILES IDX 11 25 12 26 13 27 71 28 14 29 70 30 15 31 16 32 17 33 64 34
REMARK SMILES IDX 18 35 69 36 63 37 65 38 19 39 68 40 62 41 61 42 20 44 50 45
REMARK SMILES IDX 31 46 49 47 32 48 35 49 48 50 66 51 33 52 34 53 47 55 67 56
REMARK SMILES IDX 36 57 21 58 22 59 30 60 23 61 29 62 24 63 25 64 26 65 27 66
REMARK SMILES IDX 28 67 51 68 52 69 60 70 53 71 59 72 54 73 55 74 56 75 57 76
REMARK SMILES IDX 58 77 37 78 38 79 46 80 39 81 45 82 40 83 41 84 42 85 43 86
REMARK SMILES IDX 44 87
REMARK H PARENT 5 6 9 24 65 43 35 54
REMARK Flexibility Score: inf
ROOT
ATOM      1  C   UNL     1       4.389   0.604   1.134  1.00  0.00     0.042 C 
ENDROOT
BRANCH   1   2
ATOM      2  C   UNL     1       3.511  -0.225   2.067  1.00  0.00     0.117 C 
BRANCH   2   3
ATOM      3  N   UNL     1       2.483   0.579   2.699  1.00  0.00    -0.356 N 
ATOM      4  C   UNL     1       1.147   0.683   2.447  1.00  0.00     0.227 C 
ATOM      5  O   UNL     1       0.535   1.508   3.129  1.00  0.00    -0.274 OA
ATOM      6  H   UNL     1       2.805   1.147   3.435  1.00  0.00     0.163 HD
BRANCH   4   7
ATOM      7  C   UNL     1       0.480  -0.218   1.391  1.00  0.00     0.105 C 
ATOM      8  C   UNL     1       0.865   0.176  -0.037  1.00  0.00     0.023 C 
BRANCH   7   9
ATOM      9  C   UNL     1      -1.043  -0.244   1.497  1.00  0.00    -0.036 A 
ATOM     10  C   UNL     1      -1.795   0.937   1.427  1.00  0.00     0.005 A 
ATOM     11  C   UNL     1      -1.726  -1.462   1.615  1.00  0.00     0.005 A 
ATOM     12  C   UNL     1      -3.188   0.905   1.499  1.00  0.00     0.009 A 
ATOM     13  C   UNL     1      -3.125  -1.491   1.677  1.00  0.00     0.009 A 
ATOM     14  C   UNL     1      -3.879  -0.308   1.623  1.00  0.00    -0.018 A 
BRANCH  14  15
ATOM     15  C   UNL     1      -5.349  -0.324   1.696  1.00  0.00    -0.018 A 
ATOM     16  C   UNL     1      -6.125   0.344   0.734  1.00  0.00     0.009 A 
ATOM     17  C   UNL     1      -6.017  -0.978   2.744  1.00  0.00     0.009 A 
ATOM     18  C   UNL     1      -7.519   0.367   0.821  1.00  0.00     0.001 A 
ATOM     19  C   UNL     1      -7.411  -0.956   2.833  1.00  0.00     0.001 A 
ATOM     20  C   UNL     1      -8.161  -0.281   1.872  1.00  0.00     0.000 A 
ENDBRANCH  14  15
ENDBRANCH   7   9
ENDBRANCH   4   7
ENDBRANCH   2   3
ENDBRANCH   1   2
BRANCH   1  21
ATOM     21  C   UNL     1       5.124   1.754   1.816  1.00  0.00     0.118 C 
BRANCH  21  22
ATOM     22  N   UNL     1       6.127   1.299   2.769  1.00  0.00    -0.352 N 
ATOM     23  C   UNL     1       7.476   1.562   2.802  1.00  0.00     0.251 C 
ATOM     24  H   UNL     1       5.791   0.722   3.493  1.00  0.00     0.163 HD
ATOM     25  O   UNL     1       8.199   0.956   3.588  1.00  0.00    -0.269 OA
BRANCH  23  26
ATOM     26  C   UNL     1       8.055   2.554   1.872  1.00  0.00     0.039 A 
ATOM     27  C   UNL     1       9.204   2.222   1.149  1.00  0.00     0.014 A 
ATOM     28  C   UNL     1       7.457   3.806   1.706  1.00  0.00     0.014 A 
ATOM     29  C   UNL     1       9.711   3.116   0.202  1.00  0.00     0.010 A 
ATOM     30  C   UNL     1       7.922   4.666   0.717  1.00  0.00     0.010 A 
ATOM     31  C   UNL     1       9.051   4.329  -0.048  1.00  0.00    -0.014 A 
BRANCH  31  32
ATOM     32  C   UNL     1       9.505   5.276  -1.097  1.00  0.00     0.031 A 
ATOM     33  C   UNL     1       9.957   6.655  -0.708  1.00  0.00     0.074 A 
ATOM     34  C   UNL     1       9.393   4.944  -2.398  1.00  0.00     0.049 A 
ATOM     35  N   UNL     1      10.206   7.689  -1.470  1.00  0.00    -0.248 NA
ATOM     36  C   UNL     1      10.115   6.912   0.732  1.00  0.00     0.031 C 
ATOM     37  C   UNL     1       8.939   3.649  -2.907  1.00  0.00     0.029 A 
ATOM     38  N   UNL     1       9.621   5.686  -3.531  1.00  0.00    -0.354 N 
ATOM     39  C   UNL     1      10.509   8.731  -0.601  1.00  0.00     0.074 A 
ATOM     40  C   UNL     1      10.382   8.210   0.744  1.00  0.00     0.031 C 
ATOM     41  C   UNL     1       8.915   3.689  -4.248  1.00  0.00     0.029 A 
ATOM     42  C   UNL     1       9.307   5.023  -4.694  1.00  0.00     0.049 A 
ATOM     43  H   UNL     1       9.975   6.604  -3.512  1.00  0.00     0.167 HD
ATOM     44  C   UNL     1      10.866  10.004  -0.894  1.00  0.00     0.031 A 
ATOM     45  C   UNL     1       9.304   5.446  -5.973  1.00  0.00     0.031 A 
ATOM     46  C   UNL     1      11.002  10.513  -2.232  1.00  0.00     0.049 A 
ATOM     47  C   UNL     1       9.715   6.858  -6.284  1.00  0.00     0.074 A 
ATOM     48  C   UNL     1      11.412  11.771  -2.638  1.00  0.00     0.029 A 
ATOM     49  N   UNL     1      10.729   9.789  -3.384  1.00  0.00    -0.354 N 
ATOM     50  N   UNL     1      10.047   7.817  -5.453  1.00  0.00    -0.248 NA
ATOM     51  C   UNL     1       9.760   7.243  -7.701  1.00  0.00     0.031 C 
ATOM     52  C   UNL     1      11.349  11.820  -4.035  1.00  0.00     0.029 A 
ATOM     53  C   UNL     1      10.947  10.577  -4.500  1.00  0.00     0.049 A 
ATOM     54  H   UNL     1      10.425   8.853  -3.404  1.00  0.00     0.167 HD
ATOM     55  C   UNL     1      10.366   8.912  -6.247  1.00  0.00     0.074 A 
ATOM     56  C   UNL     1      10.189   8.497  -7.624  1.00  0.00     0.031 C 
ATOM     57  C   UNL     1      10.775  10.147  -5.866  1.00  0.00     0.031 A 
BRANCH  44  58
ATOM     58  C   UNL     1      11.103  10.934   0.266  1.00  0.00    -0.014 A 
ATOM     59  C   UNL     1      12.213  10.771   1.116  1.00  0.00     0.010 A 
ATOM     60  C   UNL     1      10.193  11.974   0.522  1.00  0.00     0.010 A 
ATOM     61  C   UNL     1      12.366  11.583   2.242  1.00  0.00     0.020 A 
ATOM     62  C   UNL     1      10.359  12.809   1.630  1.00  0.00     0.020 A 
ATOM     63  C   UNL     1      11.429  12.588   2.500  1.00  0.00     0.054 A 
BRANCH  63  64
ATOM     64  S   UNL     1      11.628  13.608   3.987  1.00  0.00     0.124 S 
ATOM     65  O   UNL     1      11.150  12.707   5.032  1.00  0.00    -0.237 OA
ATOM     66  O   UNL     1      13.063  13.881   4.002  1.00  0.00    -0.237 OA
ATOM     67  O   UNL     1      10.780  14.768   3.726  1.00  0.00    -0.744 OA
ENDBRANCH  63  64
ENDBRANCH  44  58
BRANCH  45  68
ATOM     68  C   UNL     1       8.899   4.501  -7.048  1.00  0.00    -0.014 A 
ATOM     69  C   UNL     1       9.867   3.907  -7.874  1.00  0.00     0.010 A 
ATOM     70  C   UNL     1       7.549   4.132  -7.197  1.00  0.00     0.010 A 
ATOM     71  C   UNL     1       9.495   2.951  -8.824  1.00  0.00     0.020 A 
ATOM     72  C   UNL     1       7.176   3.161  -8.131  1.00  0.00     0.020 A 
ATOM     73  C   UNL     1       8.153   2.577  -8.940  1.00  0.00     0.054 A 
BRANCH  73  74
ATOM     74  S   UNL     1       7.709   1.256 -10.103  1.00  0.00     0.124 S 
ATOM     75  O   UNL     1       7.790   1.943 -11.388  1.00  0.00    -0.237 OA
ATOM     76  O   UNL     1       8.743   0.254  -9.854  1.00  0.00    -0.237 OA
ATOM     77  O   UNL     1       6.365   0.868  -9.681  1.00  0.00    -0.744 OA
ENDBRANCH  73  74
ENDBRANCH  45  68
BRANCH  57  78
ATOM     78  C   UNL     1      11.104  11.141  -6.946  1.00  0.00    -0.014 A 
ATOM     79  C   UNL     1      10.092  11.812  -7.652  1.00  0.00     0.010 A 
ATOM     80  C   UNL     1      12.449  11.485  -7.177  1.00  0.00     0.010 A 
ATOM     81  C   UNL     1      10.420  12.809  -8.576  1.00  0.00     0.020 A 
ATOM     82  C   UNL     1      12.779  12.495  -8.084  1.00  0.00     0.020 A 
ATOM     83  C   UNL     1      11.761  13.149  -8.781  1.00  0.00     0.054 A 
BRANCH  83  84
ATOM     84  S   UNL     1      12.157  14.508  -9.915  1.00  0.00     0.124 S 
ATOM     85  O   UNL     1      11.946  13.887 -11.220  1.00  0.00    -0.237 OA
ATOM     86  O   UNL     1      11.183  15.532  -9.543  1.00  0.00    -0.237 OA
ATOM     87  O   UNL     1      13.545  14.833  -9.596  1.00  0.00    -0.744 OA
ENDBRANCH  83  84
ENDBRANCH  57  78
ENDBRANCH  31  32
ENDBRANCH  23  26
ENDBRANCH  21  22
ENDBRANCH   1  21
TORSDOF 15
