REMARK SMILES COc1ccc(/C=C2/C(=O)N(c3ccccc3)C(=O)[NH+]=C2NCCCNC(=O)c2ccc(-c3c4nc(c(-c5ccc(S(=O)(=O)[O-])cc5)c5ccc([nH]5)c(-c5ccc(S(=O)(=O)[O-])cc5)c5nc(c(-c6ccc(S(=O)(=O)[O-])cc6)c6ccc3[nH]6)C=C5)C=C4)cc2)cc1C(=O)[O-]
REMARK SMILES IDX 25 1 24 2 23 3 22 4 7 5 8 6 9 7 21 8 10 9 11 10 20 11 18 12
REMARK SMILES IDX 19 15 6 16 3 17 4 18 90 19 5 20 89 21 2 22 1 23 91 24 92 25
REMARK SMILES IDX 93 26 12 27 13 28 17 29 14 30 16 31 15 32 26 33 27 34 28 36
REMARK SMILES IDX 29 37 30 38 88 39 31 40 87 41 32 42 33 43 34 44 81 45 35 46
REMARK SMILES IDX 86 47 80 48 82 49 36 50 85 51 79 52 78 53 37 55 67 56 48 57
REMARK SMILES IDX 66 58 49 59 52 60 65 61 83 62 50 63 51 64 64 66 84 67 53 68
REMARK SMILES IDX 38 69 39 70 47 71 40 72 46 73 41 74 42 75 43 76 44 77 45 78
REMARK SMILES IDX 68 79 69 80 77 81 70 82 76 83 71 84 72 85 73 86 74 87 75 88
REMARK SMILES IDX 54 89 55 90 63 91 56 92 62 93 57 94 58 95 59 96 60 97 61 98
REMARK H PARENT 20 13 22 14 26 35 82 54 52 65
REMARK Flexibility Score: inf
ROOT
ATOM      1  C   UNL     1      -2.554  -2.960   1.842  1.00  0.00     0.119 C 
ENDROOT
BRANCH   1   2
ATOM      2  C   UNL     1      -1.383  -3.815   1.381  1.00  0.00     0.059 C 
BRANCH   2   3
ATOM      3  C   UNL     1      -0.381  -4.128   2.468  1.00  0.00     0.195 C 
BRANCH   3   4
ATOM      4  N   UNL     1      -0.795  -5.156   3.374  1.00  0.00    -0.305 N 
ATOM      5  C   UNL     1       2.457  -5.344   3.933  1.00  0.00     0.030 C 
ATOM      6  C   UNL     1       1.443  -6.207   4.193  1.00  0.00     0.129 C 
ATOM      7  C   UNL     1       1.913  -7.568   4.646  1.00  0.00     0.328 C 
ATOM      8  C   UNL     1      -0.047  -6.059   4.085  1.00  0.00     0.236 C 
ATOM      9  O   UNL     1       3.085  -7.907   4.461  1.00  0.00    -0.249 OA
ATOM     10  N   UNL     1       0.950  -8.378   5.234  1.00  0.00    -0.155 N 
ATOM     11  N   UNL     1      -0.833  -6.902   4.693  1.00  0.00    -0.209 N 
ATOM     12  C   UNL     1      -0.358  -7.941   5.437  1.00  0.00     0.448 C 
ATOM     13  H   UNL     1      -1.807  -6.784   4.611  1.00  0.00     0.270 HD
ATOM     14  H   UNL     1      -1.768  -5.226   3.508  1.00  0.00     0.256 HD
ATOM     15  O   UNL     1      -1.098  -8.450   6.279  1.00  0.00    -0.212 OA
BRANCH   5  16
ATOM     16  C   UNL     1       2.498  -3.946   3.475  1.00  0.00    -0.024 A 
ATOM     17  C   UNL     1       2.341  -1.374   2.338  1.00  0.00     0.127 A 
ATOM     18  C   UNL     1       1.779  -1.634   3.594  1.00  0.00     0.048 A 
ATOM     19  C   UNL     1       3.146  -2.344   1.736  1.00  0.00     0.040 A 
ATOM     20  C   UNL     1       1.884  -2.907   4.177  1.00  0.00     0.012 A 
ATOM     21  C   UNL     1       3.188  -3.639   2.288  1.00  0.00     0.022 A 
BRANCH  17  22
ATOM     22  O   UNL     1       2.038  -0.153   1.796  1.00  0.00    -0.496 OA
ATOM     23  C   UNL     1       1.385  -0.256   0.525  1.00  0.00     0.278 C 
ENDBRANCH  17  22
BRANCH  19  24
ATOM     24  C   UNL     1       3.986  -2.091   0.545  1.00  0.00     0.075 C 
ATOM     25  O   UNL     1       4.335  -2.935  -0.261  1.00  0.00    -0.545 OA
ATOM     26  O   UNL     1       4.434  -0.827   0.479  1.00  0.00    -0.545 OA
ENDBRANCH  19  24
ENDBRANCH   5  16
BRANCH  10  27
ATOM     27  C   UNL     1       1.317  -9.667   5.761  1.00  0.00     0.111 A 
ATOM     28  C   UNL     1       0.458 -10.769   5.597  1.00  0.00     0.044 A 
ATOM     29  C   UNL     1       2.515  -9.861   6.462  1.00  0.00     0.044 A 
ATOM     30  C   UNL     1       0.786 -12.022   6.123  1.00  0.00     0.004 A 
ATOM     31  C   UNL     1       2.830 -11.109   7.011  1.00  0.00     0.004 A 
ATOM     32  C   UNL     1       1.967 -12.189   6.839  1.00  0.00     0.000 A 
ENDBRANCH  10  27
ENDBRANCH   3   4
ENDBRANCH   2   3
ENDBRANCH   1   2
BRANCH   1  33
ATOM     33  N   UNL     1      -2.184  -1.663   2.419  1.00  0.00    -0.352 N 
ATOM     34  C   UNL     1      -2.240  -0.371   1.940  1.00  0.00     0.251 C 
ATOM     35  H   UNL     1      -1.823  -1.727   3.332  1.00  0.00     0.163 HD
ATOM     36  O   UNL     1      -1.772   0.540   2.618  1.00  0.00    -0.269 OA
BRANCH  34  37
ATOM     37  C   UNL     1      -2.800  -0.079   0.603  1.00  0.00     0.039 A 
ATOM     38  C   UNL     1      -2.211   0.903  -0.202  1.00  0.00     0.014 A 
ATOM     39  C   UNL     1      -3.889  -0.794   0.123  1.00  0.00     0.014 A 
ATOM     40  C   UNL     1      -2.622   1.053  -1.530  1.00  0.00     0.010 A 
ATOM     41  C   UNL     1      -4.194  -0.755  -1.226  1.00  0.00     0.010 A 
ATOM     42  C   UNL     1      -3.576   0.179  -2.067  1.00  0.00    -0.014 A 
BRANCH  42  43
ATOM     43  C   UNL     1      -4.024   0.241  -3.479  1.00  0.00     0.031 A 
ATOM     44  C   UNL     1      -5.486   0.466  -3.765  1.00  0.00     0.074 A 
ATOM     45  C   UNL     1      -3.161  -0.028  -4.478  1.00  0.00     0.049 A 
ATOM     46  N   UNL     1      -6.134   0.362  -4.894  1.00  0.00    -0.248 NA
ATOM     47  C   UNL     1      -6.344   0.793  -2.610  1.00  0.00     0.031 C 
ATOM     48  C   UNL     1      -1.732  -0.313  -4.321  1.00  0.00     0.029 A 
ATOM     49  N   UNL     1      -3.369  -0.127  -5.831  1.00  0.00    -0.354 N 
ATOM     50  C   UNL     1      -7.472   0.566  -4.576  1.00  0.00     0.074 A 
ATOM     51  C   UNL     1      -7.553   0.725  -3.143  1.00  0.00     0.031 C 
ATOM     52  C   UNL     1      -1.189  -0.527  -5.531  1.00  0.00     0.029 A 
ATOM     53  C   UNL     1      -2.236  -0.441  -6.544  1.00  0.00     0.049 A 
ATOM     54  H   UNL     1      -4.248   0.015  -6.252  1.00  0.00     0.167 HD
ATOM     55  C   UNL     1      -8.538   0.646  -5.406  1.00  0.00     0.031 A 
ATOM     56  C   UNL     1      -2.067  -0.644  -7.865  1.00  0.00     0.031 A 
ATOM     57  C   UNL     1      -8.438   0.536  -6.834  1.00  0.00     0.049 A 
ATOM     58  C   UNL     1      -3.260  -0.519  -8.775  1.00  0.00     0.074 A 
ATOM     59  C   UNL     1      -9.436   0.676  -7.780  1.00  0.00     0.029 A 
ATOM     60  N   UNL     1      -7.263   0.272  -7.521  1.00  0.00    -0.354 N 
ATOM     61  N   UNL     1      -4.510  -0.267  -8.464  1.00  0.00    -0.248 NA
ATOM     62  C   UNL     1      -3.018  -0.694 -10.213  1.00  0.00     0.031 C 
ATOM     63  C   UNL     1      -8.870   0.455  -9.040  1.00  0.00     0.029 A 
ATOM     64  C   UNL     1      -7.511   0.232  -8.880  1.00  0.00     0.049 A 
ATOM     65  H   UNL     1      -6.382   0.133  -7.103  1.00  0.00     0.167 HD
ATOM     66  C   UNL     1      -5.198  -0.221  -9.671  1.00  0.00     0.074 A 
ATOM     67  C   UNL     1      -4.223  -0.459 -10.716  1.00  0.00     0.031 C 
ATOM     68  C   UNL     1      -6.517   0.000  -9.898  1.00  0.00     0.031 A 
BRANCH  55  69
ATOM     69  C   UNL     1      -9.888   0.877  -4.780  1.00  0.00    -0.014 A 
ATOM     70  C   UNL     1     -10.195   2.094  -4.142  1.00  0.00     0.010 A 
ATOM     71  C   UNL     1     -10.866  -0.132  -4.833  1.00  0.00     0.010 A 
ATOM     72  C   UNL     1     -11.432   2.276  -3.522  1.00  0.00     0.020 A 
ATOM     73  C   UNL     1     -12.119   0.060  -4.243  1.00  0.00     0.020 A 
ATOM     74  C   UNL     1     -12.386   1.256  -3.573  1.00  0.00     0.054 A 
BRANCH  74  75
ATOM     75  S   UNL     1     -13.990   1.528  -2.772  1.00  0.00     0.124 S 
ATOM     76  O   UNL     1     -13.641   1.421  -1.357  1.00  0.00    -0.237 OA
ATOM     77  O   UNL     1     -14.353   2.867  -3.229  1.00  0.00    -0.237 OA
ATOM     78  O   UNL     1     -14.824   0.447  -3.291  1.00  0.00    -0.744 OA
ENDBRANCH  74  75
ENDBRANCH  55  69
BRANCH  56  79
ATOM     79  C   UNL     1      -0.714  -0.948  -8.409  1.00  0.00    -0.014 A 
ATOM     80  C   UNL     1      -0.024   0.014  -9.169  1.00  0.00     0.010 A 
ATOM     81  C   UNL     1      -0.101  -2.189  -8.163  1.00  0.00     0.010 A 
ATOM     82  C   UNL     1       1.244  -0.267  -9.689  1.00  0.00     0.020 A 
ATOM     83  C   UNL     1       1.179  -2.464  -8.658  1.00  0.00     0.020 A 
ATOM     84  C   UNL     1       1.838  -1.504  -9.428  1.00  0.00     0.054 A 
BRANCH  84  85
ATOM     85  S   UNL     1       3.505  -1.824 -10.071  1.00  0.00     0.124 S 
ATOM     86  O   UNL     1       3.251  -2.002 -11.497  1.00  0.00    -0.237 OA
ATOM     87  O   UNL     1       4.223  -0.607  -9.702  1.00  0.00    -0.237 OA
ATOM     88  O   UNL     1       3.922  -3.026  -9.353  1.00  0.00    -0.744 OA
ENDBRANCH  84  85
ENDBRANCH  56  79
BRANCH  68  89
ATOM     89  C   UNL     1      -6.976   0.036 -11.329  1.00  0.00    -0.014 A 
ATOM     90  C   UNL     1      -7.073  -1.139 -12.093  1.00  0.00     0.010 A 
ATOM     91  C   UNL     1      -7.383   1.260 -11.891  1.00  0.00     0.010 A 
ATOM     92  C   UNL     1      -7.545  -1.086 -13.407  1.00  0.00     0.020 A 
ATOM     93  C   UNL     1      -7.882   1.312 -13.194  1.00  0.00     0.020 A 
ATOM     94  C   UNL     1      -7.947   0.139 -13.948  1.00  0.00     0.054 A 
BRANCH  94  95
ATOM     95  S   UNL     1      -8.605   0.172 -15.637  1.00  0.00     0.124 S 
ATOM     96  O   UNL     1      -7.396  -0.005 -16.436  1.00  0.00    -0.237 OA
ATOM     97  O   UNL     1      -9.533  -0.956 -15.642  1.00  0.00    -0.237 OA
ATOM     98  O   UNL     1      -9.232   1.488 -15.739  1.00  0.00    -0.744 OA
ENDBRANCH  94  95
ENDBRANCH  68  89
ENDBRANCH  42  43
ENDBRANCH  34  37
ENDBRANCH   1  33
TORSDOF 16
