REMARK SMILES O=Cc1ccc2c(c1)C=C(C(=O)NCCCNC(=O)c1ccc(-c3c4nc(c(-c5ccc(S(=O)(=O)[O-])cc5)c5ccc([nH]5)c(-c5ccc(S(=O)(=O)[O-])cc5)c5nc(c(-c6ccc(S(=O)(=O)[O-])cc6)c6ccc3[nH]6)C=C5)C=C4)cc1)[C@H](C(F)(F)F)O2
REMARK SMILES IDX 16 1 15 2 14 3 13 4 11 5 12 6 10 8 3 9 4 10 8 11 5 12 7 13
REMARK SMILES IDX 6 14 9 15 85 16 80 17 2 18 1 19 81 20 82 21 83 22 84 23
REMARK SMILES IDX 17 24 18 25 19 27 20 28 21 29 79 30 22 31 78 32 23 33 24 34
REMARK SMILES IDX 25 35 72 36 26 37 77 38 71 39 73 40 27 41 76 42 70 43 69 44
REMARK SMILES IDX 28 46 58 47 39 48 57 49 40 50 43 51 56 52 74 53 41 54 42 55
REMARK SMILES IDX 55 57 75 58 44 59 29 60 30 61 38 62 31 63 37 64 32 65 33 66
REMARK SMILES IDX 34 67 35 68 36 69 59 70 60 71 68 72 61 73 67 74 62 75 63 76
REMARK SMILES IDX 64 77 65 78 66 79 45 80 46 81 54 82 47 83 53 84 48 85 49 86
REMARK SMILES IDX 50 87 51 88 52 89
REMARK H PARENT 13 7 17 26 73 45 43 56
REMARK Flexibility Score: inf
ROOT
ATOM      1  C   UNL     1       9.156   3.950   2.967  1.00  0.00     0.118 C 
ENDROOT
BRANCH   1   2
ATOM      2  C   UNL     1       8.144   2.910   2.486  1.00  0.00     0.042 C 
BRANCH   2   3
ATOM      3  C   UNL     1       8.667   1.470   2.535  1.00  0.00     0.118 C 
BRANCH   3   4
ATOM      4  N   UNL     1       8.716   0.980   3.904  1.00  0.00    -0.352 N 
ATOM      5  C   UNL     1       7.858   0.245   4.657  1.00  0.00     0.251 C 
ATOM      6  O   UNL     1       8.135   0.065   5.841  1.00  0.00    -0.270 OA
ATOM      7  H   UNL     1       9.538   1.234   4.382  1.00  0.00     0.163 HD
BRANCH   5   8
ATOM      8  C   UNL     1       6.645  -0.410   4.100  1.00  0.00     0.067 C 
ATOM      9  C   UNL     1       2.836  -0.702   1.147  1.00  0.00     0.015 A 
ATOM     10  C   UNL     1       2.566  -1.992   1.611  1.00  0.00     0.015 A 
ATOM     11  C   UNL     1       3.902   0.032   1.676  1.00  0.00     0.023 A 
ATOM     12  C   UNL     1       3.375  -2.554   2.598  1.00  0.00     0.048 A 
ATOM     13  C   UNL     1       4.712  -0.539   2.667  1.00  0.00     0.018 A 
ATOM     14  C   UNL     1       4.446  -1.829   3.121  1.00  0.00     0.128 A 
ATOM     15  C   UNL     1       5.873   0.174   3.173  1.00  0.00     0.025 C 
ATOM     16  O   UNL     1       5.224  -2.477   4.032  1.00  0.00    -0.475 OA
ATOM     17  C   UNL     1       6.225  -1.716   4.771  1.00  0.00     0.314 C 
BRANCH   9  18
ATOM     18  C   UNL     1       2.014  -0.114   0.070  1.00  0.00     0.260 C 
ATOM     19  O   UNL     1       1.087  -0.730  -0.442  1.00  0.00    -0.298 OA
ENDBRANCH   9  18
BRANCH  17  20
ATOM     20  C   UNL     1       7.368  -2.697   5.120  1.00  0.00     0.429 C 
ATOM     21  F   UNL     1       7.959  -2.423   6.303  1.00  0.00    -0.167 F 
ATOM     22  F   UNL     1       6.898  -3.970   5.237  1.00  0.00    -0.167 F 
ATOM     23  F   UNL     1       8.329  -2.728   4.166  1.00  0.00    -0.167 F 
ENDBRANCH  17  20
ENDBRANCH   5   8
ENDBRANCH   3   4
ENDBRANCH   2   3
ENDBRANCH   1   2
BRANCH   1  24
ATOM     24  N   UNL     1      10.254   4.111   2.028  1.00  0.00    -0.352 N 
ATOM     25  C   UNL     1      10.731   5.235   1.402  1.00  0.00     0.251 C 
ATOM     26  H   UNL     1      10.732   3.280   1.806  1.00  0.00     0.163 HD
ATOM     27  O   UNL     1      11.521   5.098   0.470  1.00  0.00    -0.269 OA
BRANCH  25  28
ATOM     28  C   UNL     1      10.310   6.594   1.817  1.00  0.00     0.039 A 
ATOM     29  C   UNL     1      10.143   7.567   0.827  1.00  0.00     0.014 A 
ATOM     30  C   UNL     1      10.156   6.944   3.163  1.00  0.00     0.014 A 
ATOM     31  C   UNL     1       9.787   8.872   1.178  1.00  0.00     0.010 A 
ATOM     32  C   UNL     1       9.743   8.233   3.509  1.00  0.00     0.010 A 
ATOM     33  C   UNL     1       9.562   9.213   2.522  1.00  0.00    -0.014 A 
BRANCH  33  34
ATOM     34  C   UNL     1       9.130  10.586   2.890  1.00  0.00     0.031 A 
ATOM     35  C   UNL     1      10.030  11.491   3.689  1.00  0.00     0.074 A 
ATOM     36  C   UNL     1       7.903  11.011   2.526  1.00  0.00     0.049 A 
ATOM     37  N   UNL     1       9.818  12.722   4.084  1.00  0.00    -0.248 NA
ATOM     38  C   UNL     1      11.325  10.938   4.115  1.00  0.00     0.031 C 
ATOM     39  C   UNL     1       6.918  10.215   1.790  1.00  0.00     0.029 A 
ATOM     40  N   UNL     1       7.276  12.216   2.723  1.00  0.00    -0.354 N 
ATOM     41  C   UNL     1      10.945  13.086   4.814  1.00  0.00     0.074 A 
ATOM     42  C   UNL     1      11.817  11.932   4.843  1.00  0.00     0.031 C 
ATOM     43  C   UNL     1       5.825  10.963   1.570  1.00  0.00     0.029 A 
ATOM     44  C   UNL     1       6.018  12.278   2.174  1.00  0.00     0.049 A 
ATOM     45  H   UNL     1       7.689  12.965   3.211  1.00  0.00     0.167 HD
ATOM     46  C   UNL     1      11.235  14.277   5.393  1.00  0.00     0.031 A 
ATOM     47  C   UNL     1       5.118  13.280   2.153  1.00  0.00     0.031 A 
ATOM     48  C   UNL     1      10.370  15.428   5.356  1.00  0.00     0.049 A 
ATOM     49  C   UNL     1       5.467  14.596   2.789  1.00  0.00     0.074 A 
ATOM     50  C   UNL     1      10.600  16.695   5.864  1.00  0.00     0.029 A 
ATOM     51  N   UNL     1       9.108  15.452   4.783  1.00  0.00    -0.354 N 
ATOM     52  N   UNL     1       6.568  14.941   3.413  1.00  0.00    -0.248 NA
ATOM     53  C   UNL     1       4.459  15.661   2.703  1.00  0.00     0.031 C 
ATOM     54  C   UNL     1       9.460  17.473   5.635  1.00  0.00     0.029 A 
ATOM     55  C   UNL     1       8.539  16.705   4.941  1.00  0.00     0.049 A 
ATOM     56  H   UNL     1       8.679  14.691   4.329  1.00  0.00     0.167 HD
ATOM     57  C   UNL     1       6.392  16.270   3.779  1.00  0.00     0.074 A 
ATOM     58  C   UNL     1       5.088  16.671   3.289  1.00  0.00     0.031 C 
ATOM     59  C   UNL     1       7.235  17.086   4.459  1.00  0.00     0.031 A 
BRANCH  46  60
ATOM     60  C   UNL     1      12.547  14.393   6.123  1.00  0.00    -0.014 A 
ATOM     61  C   UNL     1      13.767  14.425   5.423  1.00  0.00     0.010 A 
ATOM     62  C   UNL     1      12.561  14.511   7.525  1.00  0.00     0.010 A 
ATOM     63  C   UNL     1      14.978  14.525   6.114  1.00  0.00     0.020 A 
ATOM     64  C   UNL     1      13.769  14.638   8.218  1.00  0.00     0.020 A 
ATOM     65  C   UNL     1      14.972  14.624   7.508  1.00  0.00     0.054 A 
BRANCH  65  66
ATOM     66  S   UNL     1      16.557  14.767   8.379  1.00  0.00     0.124 S 
ATOM     67  O   UNL     1      17.066  13.400   8.299  1.00  0.00    -0.237 OA
ATOM     68  O   UNL     1      17.277  15.753   7.578  1.00  0.00    -0.237 OA
ATOM     69  O   UNL     1      16.178  15.213   9.717  1.00  0.00    -0.744 OA
ENDBRANCH  65  66
ENDBRANCH  46  60
BRANCH  47  70
ATOM     70  C   UNL     1       3.808  13.080   1.478  1.00  0.00    -0.014 A 
ATOM     71  C   UNL     1       3.540  13.698   0.244  1.00  0.00     0.010 A 
ATOM     72  C   UNL     1       2.832  12.246   2.053  1.00  0.00     0.010 A 
ATOM     73  C   UNL     1       2.316  13.494  -0.399  1.00  0.00     0.020 A 
ATOM     74  C   UNL     1       1.617  12.020   1.401  1.00  0.00     0.020 A 
ATOM     75  C   UNL     1       1.363  12.653   0.183  1.00  0.00     0.054 A 
BRANCH  75  76
ATOM     76  S   UNL     1      -0.192  12.345  -0.701  1.00  0.00     0.124 S 
ATOM     77  O   UNL     1      -0.931  13.578  -0.453  1.00  0.00    -0.237 OA
ATOM     78  O   UNL     1       0.260  12.141  -2.075  1.00  0.00    -0.237 OA
ATOM     79  O   UNL     1      -0.723  11.151  -0.046  1.00  0.00    -0.744 OA
ENDBRANCH  75  76
ENDBRANCH  47  70
BRANCH  59  80
ATOM     80  C   UNL     1       6.779  18.500   4.698  1.00  0.00    -0.014 A 
ATOM     81  C   UNL     1       5.773  18.789   5.637  1.00  0.00     0.010 A 
ATOM     82  C   UNL     1       7.387  19.556   3.995  1.00  0.00     0.010 A 
ATOM     83  C   UNL     1       5.357  20.107   5.842  1.00  0.00     0.020 A 
ATOM     84  C   UNL     1       6.991  20.877   4.216  1.00  0.00     0.020 A 
ATOM     85  C   UNL     1       5.965  21.143   5.126  1.00  0.00     0.054 A 
BRANCH  85  86
ATOM     86  S   UNL     1       5.428  22.849   5.427  1.00  0.00     0.124 S 
ATOM     87  O   UNL     1       4.161  22.900   4.702  1.00  0.00    -0.237 OA
ATOM     88  O   UNL     1       5.322  22.902   6.883  1.00  0.00    -0.237 OA
ATOM     89  O   UNL     1       6.505  23.656   4.858  1.00  0.00    -0.744 OA
ENDBRANCH  85  86
ENDBRANCH  59  80
ENDBRANCH  33  34
ENDBRANCH  25  28
ENDBRANCH   1  24
TORSDOF 15
