REMARK SMILES O=C(NCCCNC(=O)c1cnccc1C(=O)N1CCC(Cc2ccccc2)CC1)c1ccc(-c2c3nc(c(-c4ccc(S(=O)(=O)[O-])cc4)c4ccc([nH]4)c(-c4ccc(S(=O)(=O)[O-])cc4)c4nc(c(-c5ccc(S(=O)(=O)[O-])cc5)c5ccc2[nH]5)C=C4)C=C3)cc1
REMARK SMILES IDX 5 1 4 2 3 3 1 4 2 5 31 7 32 8 90 9 33 10 89 11 34 12 35 13
REMARK SMILES IDX 36 14 83 15 37 16 88 17 82 18 84 19 38 20 87 21 81 22 80 23
REMARK SMILES IDX 39 25 69 26 50 27 68 28 51 29 54 30 67 31 85 32 52 33 53 34
REMARK SMILES IDX 66 36 86 37 55 38 40 39 41 40 49 41 42 42 48 43 43 44 44 45
REMARK SMILES IDX 45 46 46 47 47 48 70 49 71 50 79 51 72 52 78 53 73 54 74 55
REMARK SMILES IDX 75 56 76 57 77 58 56 59 57 60 65 61 58 62 64 63 59 64 60 65
REMARK SMILES IDX 61 66 62 67 63 68 6 69 7 70 8 71 9 73 10 74 11 75 15 76
REMARK SMILES IDX 12 77 14 78 13 79 16 80 17 81 18 82 19 83 30 84 20 85 29 86
REMARK SMILES IDX 21 87 22 88 23 89 24 90 28 91 25 92 27 93 26 94
REMARK H PARENT 3 6 84 24 54 35 7 72
REMARK Flexibility Score: inf
ROOT
ATOM      1  C   UNL     1       5.542  -0.204  -2.098  1.00  0.00     0.042 C 
ENDROOT
BRANCH   1   2
ATOM      2  C   UNL     1       4.858   0.422  -0.892  1.00  0.00     0.118 C 
BRANCH   2   3
ATOM      3  N   UNL     1       3.401   0.334  -0.897  1.00  0.00    -0.352 N 
ATOM      4  O   UNL     1       1.336  -0.272  -0.204  1.00  0.00    -0.269 OA
ATOM      5  C   UNL     1       2.546  -0.268   0.001  1.00  0.00     0.251 C 
ATOM      6  H   UNL     1       2.961   0.772  -1.661  1.00  0.00     0.163 HD
BRANCH   5   7
ATOM      7  C   UNL     1       3.107  -0.959   1.179  1.00  0.00     0.039 A 
ATOM      8  C   UNL     1       4.118  -0.356   1.919  1.00  0.00     0.014 A 
ATOM      9  C   UNL     1       2.698  -2.261   1.478  1.00  0.00     0.014 A 
ATOM     10  C   UNL     1       4.902  -1.139   2.749  1.00  0.00     0.010 A 
ATOM     11  C   UNL     1       3.396  -3.002   2.438  1.00  0.00     0.010 A 
ATOM     12  C   UNL     1       4.549  -2.471   3.032  1.00  0.00    -0.014 A 
BRANCH  12  13
ATOM     13  C   UNL     1       5.412  -3.245   3.966  1.00  0.00     0.031 A 
ATOM     14  C   UNL     1       6.109  -4.512   3.540  1.00  0.00     0.074 A 
ATOM     15  C   UNL     1       5.649  -2.722   5.187  1.00  0.00     0.049 A 
ATOM     16  N   UNL     1       6.958  -5.245   4.218  1.00  0.00    -0.248 NA
ATOM     17  C   UNL     1       5.814  -5.036   2.196  1.00  0.00     0.031 C 
ATOM     18  C   UNL     1       5.021  -1.507   5.719  1.00  0.00     0.029 A 
ATOM     19  N   UNL     1       6.521  -3.099   6.175  1.00  0.00    -0.354 N 
ATOM     20  C   UNL     1       7.270  -6.328   3.403  1.00  0.00     0.074 A 
ATOM     21  C   UNL     1       6.510  -6.166   2.182  1.00  0.00     0.031 C 
ATOM     22  C   UNL     1       5.603  -1.180   6.880  1.00  0.00     0.029 A 
ATOM     23  C   UNL     1       6.577  -2.208   7.221  1.00  0.00     0.049 A 
ATOM     24  H   UNL     1       7.054  -3.926   6.140  1.00  0.00     0.167 HD
ATOM     25  C   UNL     1       8.112  -7.362   3.649  1.00  0.00     0.031 A 
ATOM     26  C   UNL     1       7.320  -2.214   8.343  1.00  0.00     0.031 A 
ATOM     27  C   UNL     1       8.881  -7.508   4.859  1.00  0.00     0.049 A 
ATOM     28  C   UNL     1       8.270  -3.349   8.572  1.00  0.00     0.074 A 
ATOM     29  C   UNL     1       9.754  -8.525   5.209  1.00  0.00     0.029 A 
ATOM     30  N   UNL     1       8.883  -6.603   5.910  1.00  0.00    -0.354 N 
ATOM     31  N   UNL     1       8.523  -4.375   7.796  1.00  0.00    -0.248 NA
ATOM     32  C   UNL     1       9.023  -3.334   9.832  1.00  0.00     0.031 C 
ATOM     33  C   UNL     1      10.260  -8.249   6.485  1.00  0.00     0.029 A 
ATOM     34  C   UNL     1       9.736  -7.039   6.910  1.00  0.00     0.049 A 
ATOM     35  H   UNL     1       8.354  -5.773   5.941  1.00  0.00     0.167 HD
ATOM     36  C   UNL     1       9.456  -5.140   8.482  1.00  0.00     0.074 A 
ATOM     37  C   UNL     1       9.754  -4.433   9.713  1.00  0.00     0.031 C 
ATOM     38  C   UNL     1      10.001  -6.331   8.135  1.00  0.00     0.031 A 
BRANCH  25  39
ATOM     39  C   UNL     1       8.235  -8.434   2.598  1.00  0.00    -0.014 A 
ATOM     40  C   UNL     1       8.958  -8.213   1.412  1.00  0.00     0.010 A 
ATOM     41  C   UNL     1       7.668  -9.703   2.826  1.00  0.00     0.010 A 
ATOM     42  C   UNL     1       9.089  -9.232   0.462  1.00  0.00     0.020 A 
ATOM     43  C   UNL     1       7.815 -10.730   1.888  1.00  0.00     0.020 A 
ATOM     44  C   UNL     1       8.514 -10.483   0.705  1.00  0.00     0.054 A 
BRANCH  44  45
ATOM     45  S   UNL     1       8.728 -11.798  -0.529  1.00  0.00     0.124 S 
ATOM     46  O   UNL     1       7.792 -11.385  -1.572  1.00  0.00    -0.237 OA
ATOM     47  O   UNL     1      10.142 -11.688  -0.876  1.00  0.00    -0.237 OA
ATOM     48  O   UNL     1       8.360 -13.013   0.193  1.00  0.00    -0.744 OA
ENDBRANCH  44  45
ENDBRANCH  25  39
BRANCH  26  49
ATOM     49  C   UNL     1       7.155  -1.122   9.338  1.00  0.00    -0.014 A 
ATOM     50  C   UNL     1       8.166  -0.167   9.536  1.00  0.00     0.010 A 
ATOM     51  C   UNL     1       5.953  -1.010  10.061  1.00  0.00     0.010 A 
ATOM     52  C   UNL     1       7.980   0.877  10.448  1.00  0.00     0.020 A 
ATOM     53  C   UNL     1       5.752   0.048  10.948  1.00  0.00     0.020 A 
ATOM     54  C   UNL     1       6.772   0.979  11.146  1.00  0.00     0.054 A 
BRANCH  54  55
ATOM     55  S   UNL     1       6.513   2.377  12.271  1.00  0.00     0.124 S 
ATOM     56  O   UNL     1       7.197   1.924  13.477  1.00  0.00    -0.237 OA
ATOM     57  O   UNL     1       7.148   3.485  11.560  1.00  0.00    -0.237 OA
ATOM     58  O   UNL     1       5.058   2.466  12.368  1.00  0.00    -0.744 OA
ENDBRANCH  54  55
ENDBRANCH  26  49
BRANCH  38  59
ATOM     59  C   UNL     1      10.970  -6.934   9.112  1.00  0.00    -0.014 A 
ATOM     60  C   UNL     1      10.514  -7.514  10.309  1.00  0.00     0.010 A 
ATOM     61  C   UNL     1      12.347  -6.917   8.833  1.00  0.00     0.010 A 
ATOM     62  C   UNL     1      11.425  -8.025  11.235  1.00  0.00     0.020 A 
ATOM     63  C   UNL     1      13.259  -7.448   9.748  1.00  0.00     0.020 A 
ATOM     64  C   UNL     1      12.793  -7.979  10.953  1.00  0.00     0.054 A 
BRANCH  64  65
ATOM     65  S   UNL     1      13.961  -8.649  12.167  1.00  0.00     0.124 S 
ATOM     66  O   UNL     1      14.027  -7.570  13.149  1.00  0.00    -0.237 OA
ATOM     67  O   UNL     1      13.297  -9.870  12.618  1.00  0.00    -0.237 OA
ATOM     68  O   UNL     1      15.180  -8.862  11.390  1.00  0.00    -0.744 OA
ENDBRANCH  64  65
ENDBRANCH  38  59
ENDBRANCH  12  13
ENDBRANCH   5   7
ENDBRANCH   2   3
ENDBRANCH   1   2
BRANCH   1  69
ATOM     69  C   UNL     1       5.284   0.509  -3.409  1.00  0.00     0.118 C 
BRANCH  69  70
ATOM     70  N   UNL     1       5.648   1.918  -3.376  1.00  0.00    -0.352 N 
ATOM     71  C   UNL     1       6.014   2.734  -4.411  1.00  0.00     0.253 C 
ATOM     72  H   UNL     1       5.627   2.341  -2.487  1.00  0.00     0.163 HD
ATOM     73  O   UNL     1       6.320   3.901  -4.211  1.00  0.00    -0.269 OA
BRANCH  71  74
ATOM     74  C   UNL     1       6.092   2.208  -5.771  1.00  0.00     0.070 A 
ATOM     75  C   UNL     1       7.365   2.195  -6.331  1.00  0.00     0.125 A 
ATOM     76  C   UNL     1       5.033   1.679  -6.507  1.00  0.00     0.055 A 
ATOM     77  N   UNL     1       7.657   1.640  -7.530  1.00  0.00    -0.264 NA
ATOM     78  C   UNL     1       5.324   1.075  -7.739  1.00  0.00     0.035 A 
ATOM     79  C   UNL     1       6.632   1.071  -8.196  1.00  0.00     0.112 A 
BRANCH  76  80
ATOM     80  C   UNL     1       3.662   1.473  -5.981  1.00  0.00     0.254 C 
ATOM     81  O   UNL     1       3.191   0.349  -6.172  1.00  0.00    -0.269 OA
ATOM     82  N   UNL     1       2.980   2.434  -5.238  1.00  0.00    -0.339 N 
ATOM     83  C   UNL     1       2.027   1.946  -4.244  1.00  0.00     0.120 C 
ATOM     84  C   UNL     1       3.220   3.879  -5.237  1.00  0.00     0.120 C 
ATOM     85  C   UNL     1       0.718   2.710  -4.245  1.00  0.00     0.025 C 
ATOM     86  C   UNL     1       1.906   4.677  -5.216  1.00  0.00     0.025 C 
ATOM     87  C   UNL     1       0.985   4.211  -4.070  1.00  0.00    -0.003 C 
BRANCH  87  88
ATOM     88  C   UNL     1      -0.325   5.019  -4.018  1.00  0.00     0.039 C 
BRANCH  88  89
ATOM     89  C   UNL     1      -1.203   4.644  -2.842  1.00  0.00    -0.048 A 
ATOM     90  C   UNL     1      -2.387   3.920  -3.043  1.00  0.00     0.004 A 
ATOM     91  C   UNL     1      -0.823   4.966  -1.532  1.00  0.00     0.004 A 
ATOM     92  C   UNL     1      -3.167   3.517  -1.956  1.00  0.00     0.000 A 
ATOM     93  C   UNL     1      -1.603   4.562  -0.446  1.00  0.00     0.000 A 
ATOM     94  C   UNL     1      -2.774   3.836  -0.658  1.00  0.00     0.000 A 
ENDBRANCH  88  89
ENDBRANCH  87  88
ENDBRANCH  76  80
ENDBRANCH  71  74
ENDBRANCH  69  70
ENDBRANCH   1  69
TORSDOF 16
