REMARK SMILES Cc1ccc(C)c(S(=O)(=O)N[C@H](CC2=c3ccccc3=NC2)C(=O)NCCCNC(=O)c2ccc(-c3c4nc(c(-c5ccc(S(=O)(=O)[O-])cc5)c5ccc([nH]5)c(-c5ccc(S(=O)(=O)[O-])cc5)c5nc(c(-c6ccc(S(=O)(=O)[O-])cc6)c6ccc3[nH]6)C=C5)C=C4)cc2)c1
REMARK SMILES IDX 27 1 26 2 25 3 23 4 24 5 12 7 11 8 8 10 9 11 10 12 7 13 1 14
REMARK SMILES IDX 2 15 3 16 92 17 4 18 5 19 6 20 13 21 14 22 15 23 22 24 16 25
REMARK SMILES IDX 20 26 21 27 17 28 19 29 18 30 28 31 29 32 30 33 31 35 32 36
REMARK SMILES IDX 33 37 91 38 34 39 90 40 35 41 36 42 37 43 84 44 38 45 89 46
REMARK SMILES IDX 83 47 85 48 39 49 88 50 82 51 81 52 40 54 70 55 51 56 69 57
REMARK SMILES IDX 52 58 55 59 68 60 86 61 53 62 54 63 67 65 87 66 56 67 41 68
REMARK SMILES IDX 42 69 50 70 43 71 49 72 44 73 45 74 46 75 47 76 48 77 71 78
REMARK SMILES IDX 72 79 80 80 73 81 79 82 74 83 75 84 76 85 77 86 78 87 57 88
REMARK SMILES IDX 58 89 66 90 59 91 65 92 60 93 61 94 62 95 63 96 64 97
REMARK H PARENT 25 6 11 9 29 34 85 53 55 64
REMARK Flexibility Score: inf
ROOT
ATOM      1  C   UNL     1      -1.912   7.879  -1.755  1.00  0.00     0.042 C 
ENDROOT
BRANCH   1   2
ATOM      2  C   UNL     1      -1.123   6.792  -2.491  1.00  0.00     0.117 C 
BRANCH   2   3
ATOM      3  N   UNL     1       0.273   6.595  -2.119  1.00  0.00    -0.355 N 
ATOM      4  C   UNL     1       1.036   5.576  -1.626  1.00  0.00     0.238 C 
ATOM      5  O   UNL     1       2.238   5.830  -1.489  1.00  0.00    -0.273 OA
ATOM      6  H   UNL     1       0.805   7.411  -2.262  1.00  0.00     0.163 HD
BRANCH   4   7
ATOM      7  C   UNL     1       0.492   4.219  -1.174  1.00  0.00     0.163 C 
BRANCH   7   8
ATOM      8  N   UNL     1      -0.467   3.663  -2.169  1.00  0.00    -0.198 NA
ATOM      9  H   UNL     1      -1.211   3.215  -1.633  1.00  0.00     0.142 HD
BRANCH   8  10
ATOM     10  S   UNL     1       0.020   2.550  -3.325  1.00  0.00     0.241 S 
ATOM     11  O   UNL     1       1.456   2.656  -3.492  1.00  0.00    -0.207 OA
ATOM     12  O   UNL     1      -0.902   2.754  -4.412  1.00  0.00    -0.207 OA
BRANCH  10  13
ATOM     13  C   UNL     1      -0.363   0.970  -2.612  1.00  0.00     0.085 A 
ATOM     14  C   UNL     1      -1.727  -0.302   0.708  1.00  0.00     0.044 C 
ATOM     15  C   UNL     1      -1.170  -0.283  -0.683  1.00  0.00    -0.050 A 
ATOM     16  C   UNL     1      -0.839  -1.468  -1.340  1.00  0.00     0.004 A 
ATOM     17  C   UNL     1      -0.951   0.929  -1.339  1.00  0.00     0.025 A 
ATOM     18  C   UNL     1      -0.310  -1.437  -2.635  1.00  0.00     0.005 A 
ATOM     19  C   UNL     1      -0.068  -0.221  -3.297  1.00  0.00    -0.031 A 
ATOM     20  C   UNL     1       0.488  -0.283  -4.693  1.00  0.00     0.046 C 
ENDBRANCH  10  13
ENDBRANCH   8  10
ENDBRANCH   7   8
BRANCH   7  21
ATOM     21  C   UNL     1      -0.157   4.182   0.246  1.00  0.00     0.063 C 
BRANCH  21  22
ATOM     22  C   UNL     1       0.154   5.213   1.303  1.00  0.00    -0.037 C 
ATOM     23  C   UNL     1       0.630   5.073   2.544  1.00  0.00     0.001 A 
ATOM     24  C   UNL     1      -0.261   6.635   1.094  1.00  0.00     0.174 C 
ATOM     25  C   UNL     1       1.084   3.994   3.365  1.00  0.00     0.010 A 
ATOM     26  C   UNL     1       0.514   6.439   3.101  1.00  0.00     0.065 A 
ATOM     27  N   UNL     1      -0.015   7.357   2.354  1.00  0.00    -0.280 NA
ATOM     28  C   UNL     1       1.455   4.254   4.633  1.00  0.00     0.001 A 
ATOM     29  C   UNL     1       0.980   6.655   4.483  1.00  0.00     0.028 A 
ATOM     30  C   UNL     1       1.423   5.599   5.182  1.00  0.00     0.002 A 
ENDBRANCH  21  22
ENDBRANCH   7  21
ENDBRANCH   4   7
ENDBRANCH   2   3
ENDBRANCH   1   2
BRANCH   1  31
ATOM     31  C   UNL     1      -1.125   9.040  -1.179  1.00  0.00     0.118 C 
BRANCH  31  32
ATOM     32  N   UNL     1      -1.582  10.356  -1.592  1.00  0.00    -0.352 N 
ATOM     33  C   UNL     1      -1.002  11.569  -1.266  1.00  0.00     0.251 C 
ATOM     34  H   UNL     1      -2.385  10.388  -2.160  1.00  0.00     0.163 HD
ATOM     35  O   UNL     1      -1.466  12.618  -1.698  1.00  0.00    -0.269 OA
BRANCH  33  36
ATOM     36  C   UNL     1       0.255  11.555  -0.485  1.00  0.00     0.039 A 
ATOM     37  C   UNL     1       1.370  12.196  -1.027  1.00  0.00     0.014 A 
ATOM     38  C   UNL     1       0.375  10.759   0.658  1.00  0.00     0.014 A 
ATOM     39  C   UNL     1       2.629  11.903  -0.516  1.00  0.00     0.010 A 
ATOM     40  C   UNL     1       1.631  10.388   1.099  1.00  0.00     0.010 A 
ATOM     41  C   UNL     1       2.758  10.945   0.497  1.00  0.00    -0.014 A 
BRANCH  41  42
ATOM     42  C   UNL     1       4.077  10.671   1.045  1.00  0.00     0.031 A 
ATOM     43  C   UNL     1       4.425  11.479   2.234  1.00  0.00     0.074 A 
ATOM     44  C   UNL     1       4.891   9.670   0.666  1.00  0.00     0.049 A 
ATOM     45  N   UNL     1       5.200  12.510   2.293  1.00  0.00    -0.248 NA
ATOM     46  C   UNL     1       3.713  11.181   3.486  1.00  0.00     0.031 C 
ATOM     47  C   UNL     1       4.567   8.512  -0.165  1.00  0.00     0.029 A 
ATOM     48  N   UNL     1       6.177   9.437   1.057  1.00  0.00    -0.354 N 
ATOM     49  C   UNL     1       5.205  12.889   3.630  1.00  0.00     0.074 A 
ATOM     50  C   UNL     1       4.109  12.194   4.254  1.00  0.00     0.031 C 
ATOM     51  C   UNL     1       5.559   7.598  -0.048  1.00  0.00     0.029 A 
ATOM     52  C   UNL     1       6.644   8.173   0.735  1.00  0.00     0.049 A 
ATOM     53  H   UNL     1       6.724  10.107   1.527  1.00  0.00     0.167 HD
ATOM     54  C   UNL     1       6.260  13.535   4.197  1.00  0.00     0.031 A 
ATOM     55  C   UNL     1       7.812   7.628   1.149  1.00  0.00     0.031 A 
ATOM     56  C   UNL     1       7.232  13.936   3.216  1.00  0.00     0.049 A 
ATOM     57  C   UNL     1       8.735   8.729   1.524  1.00  0.00     0.074 A 
ATOM     58  C   UNL     1       7.323  14.904   2.243  1.00  0.00     0.029 A 
ATOM     59  N   UNL     1       8.200  12.997   2.957  1.00  0.00    -0.354 N 
ATOM     60  N   UNL     1       9.184   9.618   0.681  1.00  0.00    -0.248 NA
ATOM     61  C   UNL     1       8.965   9.040   2.931  1.00  0.00     0.031 C 
ATOM     62  C   UNL     1       8.215  14.386   1.259  1.00  0.00     0.029 A 
ATOM     63  C   UNL     1       8.650  13.123   1.667  1.00  0.00     0.049 A 
ATOM     64  H   UNL     1       8.524  12.329   3.603  1.00  0.00     0.167 HD
ATOM     65  C   UNL     1       9.374  10.758   1.441  1.00  0.00     0.074 A 
ATOM     66  C   UNL     1       9.395  10.300   2.821  1.00  0.00     0.031 C 
ATOM     67  C   UNL     1       9.186  12.001   0.913  1.00  0.00     0.031 A 
BRANCH  54  68
ATOM     68  C   UNL     1       6.617  13.458   5.662  1.00  0.00    -0.014 A 
ATOM     69  C   UNL     1       6.131  12.457   6.527  1.00  0.00     0.010 A 
ATOM     70  C   UNL     1       7.656  14.273   6.157  1.00  0.00     0.010 A 
ATOM     71  C   UNL     1       6.610  12.298   7.827  1.00  0.00     0.020 A 
ATOM     72  C   UNL     1       8.181  14.090   7.446  1.00  0.00     0.020 A 
ATOM     73  C   UNL     1       7.643  13.109   8.276  1.00  0.00     0.054 A 
BRANCH  73  74
ATOM     74  S   UNL     1       8.317  12.784   9.922  1.00  0.00     0.124 S 
ATOM     75  O   UNL     1       7.237  13.254  10.786  1.00  0.00    -0.237 OA
ATOM     76  O   UNL     1       8.519  11.338   9.899  1.00  0.00    -0.237 OA
ATOM     77  O   UNL     1       9.539  13.582   9.957  1.00  0.00    -0.744 OA
ENDBRANCH  73  74
ENDBRANCH  54  68
BRANCH  55  78
ATOM     78  C   UNL     1       8.044   6.227   1.579  1.00  0.00    -0.014 A 
ATOM     79  C   UNL     1       6.980   5.475   2.116  1.00  0.00     0.010 A 
ATOM     80  C   UNL     1       9.354   5.745   1.762  1.00  0.00     0.010 A 
ATOM     81  C   UNL     1       7.217   4.337   2.891  1.00  0.00     0.020 A 
ATOM     82  C   UNL     1       9.599   4.604   2.543  1.00  0.00     0.020 A 
ATOM     83  C   UNL     1       8.528   3.934   3.137  1.00  0.00     0.054 A 
BRANCH  83  84
ATOM     84  S   UNL     1       8.802   2.589   4.325  1.00  0.00     0.124 S 
ATOM     85  O   UNL     1       8.364   3.198   5.578  1.00  0.00    -0.237 OA
ATOM     86  O   UNL     1       7.937   1.530   3.810  1.00  0.00    -0.237 OA
ATOM     87  O   UNL     1      10.234   2.323   4.226  1.00  0.00    -0.744 OA
ENDBRANCH  83  84
ENDBRANCH  55  78
BRANCH  67  88
ATOM     88  C   UNL     1       9.305  12.178  -0.580  1.00  0.00    -0.014 A 
ATOM     89  C   UNL     1      10.234  13.130  -1.041  1.00  0.00     0.010 A 
ATOM     90  C   UNL     1       8.446  11.569  -1.513  1.00  0.00     0.010 A 
ATOM     91  C   UNL     1      10.270  13.508  -2.383  1.00  0.00     0.020 A 
ATOM     92  C   UNL     1       8.496  11.925  -2.869  1.00  0.00     0.020 A 
ATOM     93  C   UNL     1       9.387  12.917  -3.288  1.00  0.00     0.054 A 
BRANCH  93  94
ATOM     94  S   UNL     1       9.410  13.495  -5.007  1.00  0.00     0.124 S 
ATOM     95  O   UNL     1       8.789  14.813  -4.898  1.00  0.00    -0.237 OA
ATOM     96  O   UNL     1      10.836  13.504  -5.327  1.00  0.00    -0.237 OA
ATOM     97  O   UNL     1       8.624  12.496  -5.728  1.00  0.00    -0.744 OA
ENDBRANCH  93  94
ENDBRANCH  67  88
ENDBRANCH  41  42
ENDBRANCH  33  36
ENDBRANCH  31  32
ENDBRANCH   1  31
TORSDOF 18
