REMARK SMILES CCN(C)S(=O)(=O)N1CC[C@H](Cc2ccc(C(=O)NCCCNC(=O)c3ccc(-c4c5nc(c(-c6ccc(S(=O)(=O)[O-])cc6)c6ccc([nH]6)c(-c6ccc(S(=O)(=O)[O-])cc6)c6nc(c(-c7ccc(S(=O)(=O)[O-])cc7)c7ccc4[nH]7)C=C6)C=C5)cc3)cc2)C1
REMARK SMILES IDX 20 1 19 2 17 3 18 4 16 6 13 7 14 8 87 9 15 10 86 11 12 12
REMARK SMILES IDX 11 13 8 14 9 15 88 16 10 17 5 18 6 19 7 20 3 21 4 22 2 23
REMARK SMILES IDX 1 24 21 25 22 26 23 27 24 28 25 30 26 31 27 32 85 33 28 34
REMARK SMILES IDX 84 35 29 36 30 37 31 38 78 39 32 40 83 41 77 42 79 43 33 44
REMARK SMILES IDX 82 45 76 46 75 47 34 49 64 50 45 51 63 52 46 53 49 54 62 55
REMARK SMILES IDX 80 56 47 57 48 58 61 60 81 61 50 62 35 63 36 64 44 65 37 66
REMARK SMILES IDX 43 67 38 68 39 69 40 70 41 71 42 72 65 73 66 74 74 75 67 76
REMARK SMILES IDX 73 77 68 78 69 79 70 80 71 81 72 82 51 83 52 84 60 85 53 86
REMARK SMILES IDX 59 87 54 88 55 89 56 90 57 91 58 92
REMARK H PARENT 19 5 23 29 79 48 49 59
REMARK Flexibility Score: inf
ROOT
ATOM      1  C   UNL     1      -0.870  -6.336  10.046  1.00  0.00     0.118 C 
ENDROOT
BRANCH   1   2
ATOM      2  N   UNL     1      -2.079  -6.596   9.286  1.00  0.00    -0.352 N 
ATOM      3  C   UNL     1      -2.586  -6.000   8.160  1.00  0.00     0.251 C 
ATOM      4  O   UNL     1      -3.602  -6.481   7.658  1.00  0.00    -0.269 OA
ATOM      5  H   UNL     1      -2.631  -7.330   9.642  1.00  0.00     0.163 HD
BRANCH   3   6
ATOM      6  C   UNL     1      -1.923  -4.845   7.496  1.00  0.00     0.039 A 
ATOM      7  C   UNL     1      -0.629  -2.779   6.086  1.00  0.00    -0.048 A 
ATOM      8  C   UNL     1      -1.457  -3.687   5.413  1.00  0.00     0.004 A 
ATOM      9  C   UNL     1      -0.505  -2.873   7.471  1.00  0.00     0.004 A 
ATOM     10  C   UNL     1      -2.092  -4.716   6.112  1.00  0.00     0.014 A 
ATOM     11  C   UNL     1      -1.171  -3.878   8.168  1.00  0.00     0.014 A 
BRANCH   7  12
ATOM     12  C   UNL     1       0.117  -1.709   5.338  1.00  0.00     0.040 C 
BRANCH  12  13
ATOM     13  C   UNL     1       1.651  -1.870   5.353  1.00  0.00     0.010 C 
ATOM     14  N   UNL     1       2.885  -1.758   3.332  1.00  0.00    -0.189 NA
ATOM     15  C   UNL     1       3.232  -3.047   3.907  1.00  0.00     0.104 C 
ATOM     16  C   UNL     1       2.289  -0.896   4.348  1.00  0.00     0.107 C 
ATOM     17  C   UNL     1       2.163  -3.272   4.963  1.00  0.00     0.022 C 
BRANCH  14  18
ATOM     18  S   UNL     1       2.737  -1.456   1.714  1.00  0.00     0.281 S 
ATOM     19  O   UNL     1       3.353  -2.534   0.971  1.00  0.00    -0.195 OA
ATOM     20  O   UNL     1       3.138  -0.085   1.514  1.00  0.00    -0.195 OA
BRANCH  18  21
ATOM     21  N   UNL     1       1.049  -1.556   1.465  1.00  0.00    -0.192 NA
ATOM     22  C   UNL     1       0.451  -2.876   1.785  1.00  0.00     0.125 C 
BRANCH  21  23
ATOM     23  C   UNL     1       0.577  -1.153   0.100  1.00  0.00     0.100 C 
ATOM     24  C   UNL     1       0.923   0.265  -0.305  1.00  0.00     0.022 C 
ENDBRANCH  21  23
ENDBRANCH  18  21
ENDBRANCH  14  18
ENDBRANCH  12  13
ENDBRANCH   7  12
ENDBRANCH   3   6
ENDBRANCH   1   2
BRANCH   1  25
ATOM     25  C   UNL     1      -1.167  -5.495  11.287  1.00  0.00     0.042 C 
BRANCH  25  26
ATOM     26  C   UNL     1      -1.823  -6.288  12.409  1.00  0.00     0.118 C 
BRANCH  26  27
ATOM     27  N   UNL     1      -0.930  -7.309  12.931  1.00  0.00    -0.352 N 
ATOM     28  C   UNL     1      -0.436  -7.491  14.195  1.00  0.00     0.251 C 
ATOM     29  H   UNL     1      -0.633  -7.976  12.271  1.00  0.00     0.163 HD
ATOM     30  O   UNL     1       0.524  -8.242  14.351  1.00  0.00    -0.269 OA
BRANCH  28  31
ATOM     31  C   UNL     1      -1.041  -6.807  15.359  1.00  0.00     0.039 A 
ATOM     32  C   UNL     1      -0.207  -6.441  16.418  1.00  0.00     0.014 A 
ATOM     33  C   UNL     1      -2.420  -6.589  15.451  1.00  0.00     0.014 A 
ATOM     34  C   UNL     1      -0.751  -5.840  17.553  1.00  0.00     0.010 A 
ATOM     35  C   UNL     1      -2.949  -5.907  16.545  1.00  0.00     0.010 A 
ATOM     36  C   UNL     1      -2.124  -5.545  17.617  1.00  0.00    -0.014 A 
BRANCH  36  37
ATOM     37  C   UNL     1      -2.688  -4.859  18.806  1.00  0.00     0.031 A 
ATOM     38  C   UNL     1      -3.701  -5.545  19.683  1.00  0.00     0.074 A 
ATOM     39  C   UNL     1      -2.288  -3.603  19.085  1.00  0.00     0.049 A 
ATOM     40  N   UNL     1      -4.254  -5.117  20.789  1.00  0.00    -0.248 NA
ATOM     41  C   UNL     1      -4.171  -6.874  19.256  1.00  0.00     0.031 C 
ATOM     42  C   UNL     1      -1.352  -2.816  18.276  1.00  0.00     0.029 A 
ATOM     43  N   UNL     1      -2.604  -2.772  20.128  1.00  0.00    -0.354 N 
ATOM     44  C   UNL     1      -5.139  -6.114  21.183  1.00  0.00     0.074 A 
ATOM     45  C   UNL     1      -5.092  -7.144  20.170  1.00  0.00     0.031 C 
ATOM     46  C   UNL     1      -1.133  -1.638  18.880  1.00  0.00     0.029 A 
ATOM     47  C   UNL     1      -1.942  -1.567  20.091  1.00  0.00     0.049 A 
ATOM     48  H   UNL     1      -3.243  -3.015  20.837  1.00  0.00     0.167 HD
ATOM     49  C   UNL     1      -5.907  -6.175  22.299  1.00  0.00     0.031 A 
ATOM     50  C   UNL     1      -1.980  -0.521  20.938  1.00  0.00     0.031 A 
ATOM     51  C   UNL     1      -5.949  -5.142  23.302  1.00  0.00     0.049 A 
ATOM     52  C   UNL     1      -2.837  -0.615  22.169  1.00  0.00     0.074 A 
ATOM     53  C   UNL     1      -6.650  -5.130  24.495  1.00  0.00     0.029 A 
ATOM     54  N   UNL     1      -5.271  -3.934  23.225  1.00  0.00    -0.354 N 
ATOM     55  N   UNL     1      -3.606  -1.601  22.566  1.00  0.00    -0.248 NA
ATOM     56  C   UNL     1      -2.814   0.538  23.077  1.00  0.00     0.031 C 
ATOM     57  C   UNL     1      -6.448  -3.888  25.107  1.00  0.00     0.029 A 
ATOM     58  C   UNL     1      -5.561  -3.156  24.335  1.00  0.00     0.049 A 
ATOM     59  H   UNL     1      -4.671  -3.669  22.491  1.00  0.00     0.167 HD
ATOM     60  C   UNL     1      -4.141  -1.197  23.784  1.00  0.00     0.074 A 
ATOM     61  C   UNL     1      -3.583   0.110  24.068  1.00  0.00     0.031 C 
ATOM     62  C   UNL     1      -5.013  -1.847  24.594  1.00  0.00     0.031 A 
BRANCH  49  63
ATOM     63  C   UNL     1      -6.776  -7.395  22.485  1.00  0.00    -0.014 A 
ATOM     64  C   UNL     1      -6.216  -8.663  22.729  1.00  0.00     0.010 A 
ATOM     65  C   UNL     1      -8.177  -7.264  22.460  1.00  0.00     0.010 A 
ATOM     66  C   UNL     1      -7.037  -9.781  22.901  1.00  0.00     0.020 A 
ATOM     67  C   UNL     1      -9.003  -8.373  22.665  1.00  0.00     0.020 A 
ATOM     68  C   UNL     1      -8.427  -9.629  22.868  1.00  0.00     0.054 A 
BRANCH  68  69
ATOM     69  S   UNL     1      -9.467 -11.093  23.121  1.00  0.00     0.124 S 
ATOM     70  O   UNL     1      -9.246 -11.837  21.883  1.00  0.00    -0.237 OA
ATOM     71  O   UNL     1      -8.892 -11.689  24.323  1.00  0.00    -0.237 OA
ATOM     72  O   UNL     1     -10.810 -10.541  23.284  1.00  0.00    -0.744 OA
ENDBRANCH  68  69
ENDBRANCH  49  63
BRANCH  50  73
ATOM     73  C   UNL     1      -1.166   0.693  20.653  1.00  0.00    -0.014 A 
ATOM     74  C   UNL     1      -0.067   1.031  21.462  1.00  0.00     0.010 A 
ATOM     75  C   UNL     1      -1.479   1.510  19.551  1.00  0.00     0.010 A 
ATOM     76  C   UNL     1       0.690   2.174  21.187  1.00  0.00     0.020 A 
ATOM     77  C   UNL     1      -0.704   2.633  19.253  1.00  0.00     0.020 A 
ATOM     78  C   UNL     1       0.369   2.965  20.081  1.00  0.00     0.054 A 
BRANCH  78  79
ATOM     79  S   UNL     1       1.397   4.413  19.711  1.00  0.00     0.124 S 
ATOM     80  O   UNL     1       1.026   5.331  20.783  1.00  0.00    -0.237 OA
ATOM     81  O   UNL     1       2.749   3.865  19.785  1.00  0.00    -0.237 OA
ATOM     82  O   UNL     1       0.966   4.806  18.371  1.00  0.00    -0.744 OA
ENDBRANCH  78  79
ENDBRANCH  50  73
BRANCH  62  83
ATOM     83  C   UNL     1      -5.393  -1.161  25.882  1.00  0.00    -0.014 A 
ATOM     84  C   UNL     1      -6.162   0.017  25.888  1.00  0.00     0.010 A 
ATOM     85  C   UNL     1      -4.974  -1.710  27.108  1.00  0.00     0.010 A 
ATOM     86  C   UNL     1      -6.450   0.667  27.091  1.00  0.00     0.020 A 
ATOM     87  C   UNL     1      -5.293  -1.084  28.315  1.00  0.00     0.020 A 
ATOM     88  C   UNL     1      -6.006   0.115  28.297  1.00  0.00     0.054 A 
BRANCH  88  89
ATOM     89  S   UNL     1      -6.387   0.981  29.844  1.00  0.00     0.124 S 
ATOM     90  O   UNL     1      -5.491   2.132  29.775  1.00  0.00    -0.237 OA
ATOM     91  O   UNL     1      -7.809   1.281  29.701  1.00  0.00    -0.237 OA
ATOM     92  O   UNL     1      -6.064   0.000  30.878  1.00  0.00    -0.744 OA
ENDBRANCH  88  89
ENDBRANCH  62  83
ENDBRANCH  36  37
ENDBRANCH  28  31
ENDBRANCH  26  27
ENDBRANCH  25  26
ENDBRANCH   1  25
TORSDOF 18
