REMARK SMILES C[NH2+][C@@]1(C(=O)NCCCNC(=O)c2ccc(-c3c4nc(c(-c5ccc(S(=O)(=O)[O-])cc5)c5ccc([nH]5)c(-c5ccc(S(=O)(=O)[O-])cc5)c5nc(c(-c6ccc(S(=O)(=O)[O-])cc6)c6ccc3[nH]6)C=C5)C=C4)cc2)CC[C@@H]([N@@H+](C)C2CCCCCC2)C1
REMARK SMILES IDX 7 1 6 2 4 3 5 4 3 6 73 7 85 8 74 9 75 10 2 11 1 12 76 15
REMARK SMILES IDX 77 16 78 18 79 19 80 20 81 21 84 23 83 24 82 25 8 27 9 28
REMARK SMILES IDX 10 29 11 30 12 32 13 33 14 34 72 35 15 36 71 37 16 38 17 39
REMARK SMILES IDX 18 40 65 41 19 42 70 43 64 44 66 45 20 46 69 47 63 48 62 49
REMARK SMILES IDX 21 51 51 52 32 53 50 54 33 55 36 56 49 57 67 58 34 59 35 60
REMARK SMILES IDX 48 62 68 63 37 64 22 65 23 66 31 67 24 68 30 69 25 70 26 71
REMARK SMILES IDX 27 72 28 73 29 74 52 75 53 76 61 77 54 78 60 79 55 80 56 81
REMARK SMILES IDX 57 82 58 83 59 84 38 85 39 86 47 87 40 88 46 89 41 90 42 91
REMARK SMILES IDX 43 92 44 93 45 94
REMARK H PARENT 6 5 2 13 2 14 76 17 10 31 66 50 36 61
REMARK Flexibility Score: 90.00
ROOT
ATOM      1  C   UNL     1      -3.700   1.114   2.969  1.00  0.00     0.118 C 
ENDROOT
BRANCH   1   2
ATOM      2  N   UNL     1      -2.383   0.727   3.399  1.00  0.00    -0.351 N 
ATOM      3  C   UNL     1      -1.200   0.730   2.731  1.00  0.00     0.281 C 
ATOM      4  O   UNL     1      -0.197   0.540   3.433  1.00  0.00    -0.268 OA
ATOM      5  H   UNL     1      -2.330   0.408   4.329  1.00  0.00     0.163 HD
BRANCH   3   6
ATOM      6  C   UNL     1      -1.075   0.986   1.175  1.00  0.00     0.181 C 
ATOM      7  C   UNL     1      -1.675   2.355   0.777  1.00  0.00     0.085 C 
ATOM      8  C   UNL     1      -1.821  -0.074   0.340  1.00  0.00     0.144 C 
ATOM      9  C   UNL     1      -2.857   2.120  -0.170  1.00  0.00     0.072 C 
ATOM     10  C   UNL     1      -2.890   0.633  -0.511  1.00  0.00     0.191 C 
BRANCH   6  11
ATOM     11  N   UNL     1       0.395   1.091   0.879  1.00  0.00    -0.336 N 
ATOM     12  C   UNL     1       1.097  -0.186   0.771  1.00  0.00     0.331 C 
ATOM     13  H   UNL     1       0.505   1.588  -0.004  1.00  0.00     0.346 HD
ATOM     14  H   UNL     1       0.811   1.578   1.673  1.00  0.00     0.346 HD
ENDBRANCH   6  11
BRANCH  10  15
ATOM     15  N   UNL     1      -3.008   0.223  -1.923  1.00  0.00    -0.332 N 
ATOM     16  C   UNL     1      -4.401   0.315  -2.380  1.00  0.00     0.333 C 
ATOM     17  H   UNL     1      -2.671  -0.736  -1.836  1.00  0.00     0.348 HD
BRANCH  15  18
ATOM     18  C   UNL     1      -2.045   0.663  -2.972  1.00  0.00     0.184 C 
BRANCH  18  19
ATOM     19  C   UNL     1      -2.104   2.136  -3.444  1.00  0.00     0.065 C 
BRANCH  19  20
ATOM     20  C   UNL     1      -1.117   3.105  -2.791  1.00  0.00     0.006 C 
BRANCH  20  21
ATOM     21  C   UNL     1       0.251   3.178  -3.448  1.00  0.00     0.000 CG0
ATOM     22  G   UNL     1       1.104   1.936  -3.223  1.00  0.00     0.000 G0
ENDBRANCH  20  21
ENDBRANCH  19  20
ENDBRANCH  18  19
BRANCH  18  23
ATOM     23  C   UNL     1      -0.621   0.142  -2.723  1.00  0.00     0.065 C 
BRANCH  23  24
ATOM     24  C   UNL     1       0.457   0.632  -3.693  1.00  0.00     0.006 C 
BRANCH  24  25
ATOM     25  C   UNL     1       1.104   1.936  -3.223  1.00  0.00     0.000 CG0
ATOM     26  G   UNL     1       0.251   3.178  -3.448  1.00  0.00     0.000 G0
ENDBRANCH  24  25
ENDBRANCH  23  24
ENDBRANCH  18  23
ENDBRANCH  15  18
ENDBRANCH  10  15
ENDBRANCH   3   6
ENDBRANCH   1   2
BRANCH   1  27
ATOM     27  C   UNL     1      -4.625  -0.062   2.746  1.00  0.00     0.042 C 
BRANCH  27  28
ATOM     28  C   UNL     1      -5.547  -0.250   3.930  1.00  0.00     0.118 C 
BRANCH  28  29
ATOM     29  N   UNL     1      -6.469   0.874   4.087  1.00  0.00    -0.352 N 
ATOM     30  C   UNL     1      -7.840   0.877   4.187  1.00  0.00     0.251 C 
ATOM     31  H   UNL     1      -6.044   1.761   4.126  1.00  0.00     0.163 HD
ATOM     32  O   UNL     1      -8.455   1.929   4.128  1.00  0.00    -0.269 OA
BRANCH  30  33
ATOM     33  C   UNL     1      -8.547  -0.411   4.335  1.00  0.00     0.039 A 
ATOM     34  C   UNL     1      -9.735  -0.622   3.635  1.00  0.00     0.014 A 
ATOM     35  C   UNL     1      -8.001  -1.421   5.128  1.00  0.00     0.014 A 
ATOM     36  C   UNL     1     -10.338  -1.879   3.683  1.00  0.00     0.010 A 
ATOM     37  C   UNL     1      -8.519  -2.701   5.056  1.00  0.00     0.010 A 
ATOM     38  C   UNL     1      -9.711  -2.937   4.361  1.00  0.00    -0.014 A 
BRANCH  38  39
ATOM     39  C   UNL     1     -10.300  -4.294   4.410  1.00  0.00     0.031 A 
ATOM     40  C   UNL     1     -10.637  -4.903   5.745  1.00  0.00     0.074 A 
ATOM     41  C   UNL     1     -10.454  -4.999   3.272  1.00  0.00     0.049 A 
ATOM     42  N   UNL     1     -11.073  -6.105   6.017  1.00  0.00    -0.248 NA
ATOM     43  C   UNL     1     -10.412  -4.067   6.939  1.00  0.00     0.031 C 
ATOM     44  C   UNL     1     -10.105  -4.532   1.927  1.00  0.00     0.029 A 
ATOM     45  N   UNL     1     -10.941  -6.263   3.066  1.00  0.00    -0.354 N 
ATOM     46  C   UNL     1     -11.139  -6.175   7.404  1.00  0.00     0.074 A 
ATOM     47  C   UNL     1     -10.633  -4.926   7.920  1.00  0.00     0.031 C 
ATOM     48  C   UNL     1     -10.432  -5.480   1.034  1.00  0.00     0.029 A 
ATOM     49  C   UNL     1     -10.967  -6.636   1.743  1.00  0.00     0.049 A 
ATOM     50  H   UNL     1     -11.245  -6.849   3.797  1.00  0.00     0.167 HD
ATOM     51  C   UNL     1     -11.612  -7.178   8.180  1.00  0.00     0.031 A 
ATOM     52  C   UNL     1     -11.376  -7.784   1.170  1.00  0.00     0.031 A 
ATOM     53  C   UNL     1     -12.148  -8.402   7.652  1.00  0.00     0.049 A 
ATOM     54  C   UNL     1     -11.915  -8.878   2.050  1.00  0.00     0.074 A 
ATOM     55  C   UNL     1     -12.721  -9.456   8.338  1.00  0.00     0.029 A 
ATOM     56  N   UNL     1     -12.180  -8.731   6.305  1.00  0.00    -0.354 N 
ATOM     57  N   UNL     1     -12.039  -8.899   3.356  1.00  0.00    -0.248 NA
ATOM     58  C   UNL     1     -12.380 -10.098   1.378  1.00  0.00     0.031 C 
ATOM     59  C   UNL     1     -13.054 -10.446   7.409  1.00  0.00     0.029 A 
ATOM     60  C   UNL     1     -12.744  -9.982   6.139  1.00  0.00     0.049 A 
ATOM     61  H   UNL     1     -11.851  -8.158   5.575  1.00  0.00     0.167 HD
ATOM     62  C   UNL     1     -12.622 -10.124   3.661  1.00  0.00     0.074 A 
ATOM     63  C   UNL     1     -12.839 -10.806   2.401  1.00  0.00     0.031 C 
ATOM     64  C   UNL     1     -12.948 -10.639   4.872  1.00  0.00     0.031 A 
BRANCH  51  65
ATOM     65  C   UNL     1     -11.569  -6.983   9.672  1.00  0.00    -0.014 A 
ATOM     66  C   UNL     1     -12.375  -6.018  10.306  1.00  0.00     0.010 A 
ATOM     67  C   UNL     1     -10.720  -7.784  10.457  1.00  0.00     0.010 A 
ATOM     68  C   UNL     1     -12.297  -5.824  11.687  1.00  0.00     0.020 A 
ATOM     69  C   UNL     1     -10.664  -7.616  11.844  1.00  0.00     0.020 A 
ATOM     70  C   UNL     1     -11.438  -6.623  12.447  1.00  0.00     0.054 A 
BRANCH  70  71
ATOM     71  S   UNL     1     -11.371  -6.361  14.240  1.00  0.00     0.124 S 
ATOM     72  O   UNL     1     -10.645  -5.096  14.332  1.00  0.00    -0.237 OA
ATOM     73  O   UNL     1     -12.783  -6.302  14.608  1.00  0.00    -0.237 OA
ATOM     74  O   UNL     1     -10.649  -7.530  14.735  1.00  0.00    -0.744 OA
ENDBRANCH  70  71
ENDBRANCH  51  65
BRANCH  52  75
ATOM     75  C   UNL     1     -11.321  -7.937  -0.309  1.00  0.00    -0.014 A 
ATOM     76  C   UNL     1     -12.505  -7.955  -1.068  1.00  0.00     0.010 A 
ATOM     77  C   UNL     1     -10.084  -8.041  -0.972  1.00  0.00     0.010 A 
ATOM     78  C   UNL     1     -12.455  -8.091  -2.458  1.00  0.00     0.020 A 
ATOM     79  C   UNL     1     -10.029  -8.149  -2.365  1.00  0.00     0.020 A 
ATOM     80  C   UNL     1     -11.216  -8.184  -3.099  1.00  0.00     0.054 A 
BRANCH  80  81
ATOM     81  S   UNL     1     -11.175  -8.307  -4.909  1.00  0.00     0.124 S 
ATOM     82  O   UNL     1     -11.644  -9.671  -5.131  1.00  0.00    -0.237 OA
ATOM     83  O   UNL     1     -12.094  -7.247  -5.317  1.00  0.00    -0.237 OA
ATOM     84  O   UNL     1      -9.772  -8.064  -5.236  1.00  0.00    -0.744 OA
ENDBRANCH  80  81
ENDBRANCH  52  75
BRANCH  64  85
ATOM     85  C   UNL     1     -13.606 -11.991   4.892  1.00  0.00    -0.014 A 
ATOM     86  C   UNL     1     -12.878 -13.159   4.605  1.00  0.00     0.010 A 
ATOM     87  C   UNL     1     -14.958 -12.097   5.266  1.00  0.00     0.010 A 
ATOM     88  C   UNL     1     -13.502 -14.408   4.661  1.00  0.00     0.020 A 
ATOM     89  C   UNL     1     -15.576 -13.345   5.354  1.00  0.00     0.020 A 
ATOM     90  C   UNL     1     -14.846 -14.492   5.037  1.00  0.00     0.054 A 
BRANCH  90  91
ATOM     91  S   UNL     1     -15.618 -16.129   5.148  1.00  0.00     0.124 S 
ATOM     92  O   UNL     1     -15.769 -16.489   3.741  1.00  0.00    -0.237 OA
ATOM     93  O   UNL     1     -14.626 -16.901   5.892  1.00  0.00    -0.237 OA
ATOM     94  O   UNL     1     -16.866 -15.876   5.864  1.00  0.00    -0.744 OA
ENDBRANCH  90  91
ENDBRANCH  64  85
ENDBRANCH  38  39
ENDBRANCH  30  33
ENDBRANCH  28  29
ENDBRANCH  27  28
ENDBRANCH   1  27
TORSDOF 16
