REMARK SMILES N#CC1=C(N)N2C(=O)[C@@H](CC(=O)NCCCNC(=O)c3ccc(-c4c5nc(c(-c6ccc(S(=O)(=O)[O-])cc6)c6ccc([nH]6)c(-c6ccc(S(=O)(=O)[O-])cc6)c6nc(c(-c7ccc(S(=O)(=O)[O-])cc7)c7ccc4[nH]7)C=C6)C=C5)cc3)SC2=C(C#N)[C@H]1c1ccc(Cl)cc1
REMARK SMILES IDX 15 1 14 2 13 3 11 4 12 5 10 7 9 8 3 9 4 10 85 11 6 12 82 13
REMARK SMILES IDX 7 14 81 15 8 16 80 17 2 18 1 19 5 20 86 23 87 24 92 25 88 26
REMARK SMILES IDX 91 27 89 28 90 29 83 30 84 31 16 32 17 33 18 34 19 36 20 37
REMARK SMILES IDX 21 38 79 39 22 40 78 41 23 42 24 43 25 44 72 45 26 46 77 47
REMARK SMILES IDX 71 48 73 49 27 50 76 51 70 52 69 53 28 55 58 56 39 57 57 58
REMARK SMILES IDX 40 59 43 60 56 61 74 62 41 63 42 64 55 66 75 67 44 68 29 69
REMARK SMILES IDX 30 70 38 71 31 72 37 73 32 74 33 75 34 76 35 77 36 78 59 79
REMARK SMILES IDX 60 80 68 81 61 82 67 83 62 84 63 85 64 86 65 87 66 88 45 89
REMARK SMILES IDX 46 90 54 91 47 92 53 93 48 94 49 95 50 96 51 97 52 98
REMARK H PARENT 13 6 5 21 5 22 17 35 73 54 43 65
REMARK Flexibility Score: inf
ROOT
ATOM      1  C   UNL     1       8.203  -5.440   0.467  1.00  0.00     0.042 C 
ENDROOT
BRANCH   1   2
ATOM      2  C   UNL     1       9.113  -4.749  -0.551  1.00  0.00     0.117 C 
BRANCH   2   3
ATOM      3  N   UNL     1       8.407  -4.067  -1.624  1.00  0.00    -0.356 N 
ATOM      4  C   UNL     1       8.227  -2.741  -1.855  1.00  0.00     0.221 C 
ATOM      5  O   UNL     1       7.598  -2.380  -2.849  1.00  0.00    -0.275 OA
ATOM      6  H   UNL     1       7.992  -4.662  -2.289  1.00  0.00     0.163 HD
BRANCH   4   7
ATOM      7  C   UNL     1       8.801  -1.722  -0.903  1.00  0.00     0.125 C 
BRANCH   7   8
ATOM      8  C   UNL     1       8.108  -1.688   0.457  1.00  0.00     0.152 C 
ATOM      9  C   UNL     1       3.756   0.069   0.068  1.00  0.00     0.083 C 
ATOM     10  C   UNL     1       4.437  -1.062   0.319  1.00  0.00     0.126 C 
ATOM     11  C   UNL     1       4.433   1.402  -0.211  1.00  0.00     0.107 C 
ATOM     12  N   UNL     1       5.822  -0.979   0.405  1.00  0.00    -0.258 N 
ATOM     13  C   UNL     1       5.805   1.420   0.430  1.00  0.00     0.073 C 
ATOM     14  C   UNL     1       6.644  -2.093   0.403  1.00  0.00     0.247 C 
ATOM     15  C   UNL     1       6.428   0.245   0.616  1.00  0.00     0.099 C 
ATOM     16  O   UNL     1       6.253  -3.252   0.299  1.00  0.00    -0.273 OA
ATOM     17  S   UNL     1       8.083   0.040   1.086  1.00  0.00    -0.093 SA
BRANCH   9  18
ATOM     18  C   UNL     1       2.236   0.069   0.068  1.00  0.00     0.100 C 
ATOM     19  N   UNL     1       0.975   0.069   0.068  1.00  0.00    -0.193 NA
ENDBRANCH   9  18
BRANCH  10  20
ATOM     20  N   UNL     1       3.803  -2.263   0.488  1.00  0.00    -0.384 N 
ATOM     21  H   UNL     1       2.822  -2.314   0.426  1.00  0.00     0.158 HD
ATOM     22  H   UNL     1       4.328  -3.075   0.671  1.00  0.00     0.158 HD
ENDBRANCH  10  20
BRANCH  11  23
ATOM     23  C   UNL     1       4.476   1.704  -1.731  1.00  0.00    -0.034 A 
ATOM     24  C   UNL     1       5.679   1.752  -2.467  1.00  0.00     0.006 A 
ATOM     25  C   UNL     1       3.278   1.919  -2.440  1.00  0.00     0.006 A 
ATOM     26  C   UNL     1       5.684   2.002  -3.844  1.00  0.00     0.021 A 
ATOM     27  C   UNL     1       3.282   2.142  -3.823  1.00  0.00     0.021 A 
ATOM     28  C   UNL     1       4.485   2.187  -4.519  1.00  0.00     0.041 A 
ATOM     29  Cl  UNL     1       4.492   2.477  -6.214  1.00  0.00    -0.084 Cl
ENDBRANCH  11  23
BRANCH  13  30
ATOM     30  C   UNL     1       6.412   2.678   0.706  1.00  0.00     0.098 C 
ATOM     31  N   UNL     1       6.886   3.720   0.903  1.00  0.00    -0.193 NA
ENDBRANCH  13  30
ENDBRANCH   7   8
ENDBRANCH   4   7
ENDBRANCH   2   3
ENDBRANCH   1   2
BRANCH   1  32
ATOM     32  C   UNL     1       7.131  -6.328  -0.157  1.00  0.00     0.118 C 
BRANCH  32  33
ATOM     33  N   UNL     1       7.735  -7.535  -0.704  1.00  0.00    -0.352 N 
ATOM     34  C   UNL     1       7.647  -8.820  -0.229  1.00  0.00     0.251 C 
ATOM     35  H   UNL     1       8.275  -7.414  -1.518  1.00  0.00     0.163 HD
ATOM     36  O   UNL     1       8.505  -9.641  -0.538  1.00  0.00    -0.269 OA
BRANCH  34  37
ATOM     37  C   UNL     1       6.520  -9.207   0.650  1.00  0.00     0.039 A 
ATOM     38  C   UNL     1       6.760 -10.054   1.734  1.00  0.00     0.014 A 
ATOM     39  C   UNL     1       5.221  -8.765   0.380  1.00  0.00     0.014 A 
ATOM     40  C   UNL     1       5.704 -10.421   2.571  1.00  0.00     0.010 A 
ATOM     41  C   UNL     1       4.184  -9.073   1.258  1.00  0.00     0.010 A 
ATOM     42  C   UNL     1       4.412  -9.910   2.360  1.00  0.00    -0.014 A 
BRANCH  42  43
ATOM     43  C   UNL     1       3.292 -10.241   3.281  1.00  0.00     0.031 A 
ATOM     44  C   UNL     1       2.089 -10.994   2.778  1.00  0.00     0.074 A 
ATOM     45  C   UNL     1       3.340  -9.825   4.563  1.00  0.00     0.049 A 
ATOM     46  N   UNL     1       0.997 -11.325   3.419  1.00  0.00    -0.248 NA
ATOM     47  C   UNL     1       2.106 -11.416   1.367  1.00  0.00     0.031 C 
ATOM     48  C   UNL     1       4.438  -9.067   5.168  1.00  0.00     0.029 A 
ATOM     49  N   UNL     1       2.441  -9.977   5.590  1.00  0.00    -0.354 N 
ATOM     50  C   UNL     1       0.201 -11.993   2.495  1.00  0.00     0.074 A 
ATOM     51  C   UNL     1       0.906 -11.963   1.232  1.00  0.00     0.031 C 
ATOM     52  C   UNL     1       4.164  -8.851   6.465  1.00  0.00     0.029 A 
ATOM     53  C   UNL     1       2.848  -9.402   6.772  1.00  0.00     0.049 A 
ATOM     54  H   UNL     1       1.585 -10.454   5.490  1.00  0.00     0.167 HD
ATOM     55  C   UNL     1      -0.995 -12.601   2.684  1.00  0.00     0.031 A 
ATOM     56  C   UNL     1       2.228  -9.314   7.965  1.00  0.00     0.031 A 
ATOM     57  C   UNL     1      -1.700 -12.620   3.939  1.00  0.00     0.049 A 
ATOM     58  C   UNL     1       0.864  -9.934   8.128  1.00  0.00     0.074 A 
ATOM     59  C   UNL     1      -2.908 -13.226   4.237  1.00  0.00     0.029 A 
ATOM     60  N   UNL     1      -1.264 -12.006   5.104  1.00  0.00    -0.354 N 
ATOM     61  N   UNL     1       0.155 -10.609   7.255  1.00  0.00    -0.248 NA
ATOM     62  C   UNL     1       0.222  -9.789   9.441  1.00  0.00     0.031 C 
ATOM     63  C   UNL     1      -3.234 -12.923   5.562  1.00  0.00     0.029 A 
ATOM     64  C   UNL     1      -2.192 -12.197   6.114  1.00  0.00     0.049 A 
ATOM     65  H   UNL     1      -0.420 -11.509   5.198  1.00  0.00     0.167 HD
ATOM     66  C   UNL     1      -0.998 -11.002   7.927  1.00  0.00     0.074 A 
ATOM     67  C   UNL     1      -0.881 -10.506   9.283  1.00  0.00     0.031 C 
ATOM     68  C   UNL     1      -2.058 -11.709   7.465  1.00  0.00     0.031 A 
BRANCH  55  69
ATOM     69  C   UNL     1      -1.618 -13.304   1.504  1.00  0.00    -0.014 A 
ATOM     70  C   UNL     1      -1.039 -14.470   0.969  1.00  0.00     0.010 A 
ATOM     71  C   UNL     1      -2.828 -12.834   0.961  1.00  0.00     0.010 A 
ATOM     72  C   UNL     1      -1.637 -15.130  -0.106  1.00  0.00     0.020 A 
ATOM     73  C   UNL     1      -3.449 -13.512  -0.093  1.00  0.00     0.020 A 
ATOM     74  C   UNL     1      -2.841 -14.649  -0.628  1.00  0.00     0.054 A 
BRANCH  74  75
ATOM     75  S   UNL     1      -3.611 -15.554  -1.998  1.00  0.00     0.124 S 
ATOM     76  O   UNL     1      -2.675 -15.301  -3.091  1.00  0.00    -0.237 OA
ATOM     77  O   UNL     1      -3.637 -16.926  -1.498  1.00  0.00    -0.237 OA
ATOM     78  O   UNL     1      -4.920 -14.921  -2.143  1.00  0.00    -0.744 OA
ENDBRANCH  74  75
ENDBRANCH  55  69
BRANCH  56  79
ATOM     79  C   UNL     1       2.876  -8.602   9.104  1.00  0.00    -0.014 A 
ATOM     80  C   UNL     1       3.241  -9.297  10.272  1.00  0.00     0.010 A 
ATOM     81  C   UNL     1       3.100  -7.214   9.042  1.00  0.00     0.010 A 
ATOM     82  C   UNL     1       3.773  -8.613  11.369  1.00  0.00     0.020 A 
ATOM     83  C   UNL     1       3.669  -6.533  10.121  1.00  0.00     0.020 A 
ATOM     84  C   UNL     1       3.982  -7.234  11.286  1.00  0.00     0.054 A 
BRANCH  84  85
ATOM     85  S   UNL     1       4.683  -6.369  12.718  1.00  0.00     0.124 S 
ATOM     86  O   UNL     1       3.583  -6.425  13.675  1.00  0.00    -0.237 OA
ATOM     87  O   UNL     1       5.848  -7.190  13.041  1.00  0.00    -0.237 OA
ATOM     88  O   UNL     1       4.992  -5.039  12.196  1.00  0.00    -0.744 OA
ENDBRANCH  84  85
ENDBRANCH  56  79
BRANCH  68  89
ATOM     89  C   UNL     1      -3.157 -12.040   8.443  1.00  0.00    -0.014 A 
ATOM     90  C   UNL     1      -4.008 -11.047   8.959  1.00  0.00     0.010 A 
ATOM     91  C   UNL     1      -3.374 -13.383   8.806  1.00  0.00     0.010 A 
ATOM     92  C   UNL     1      -5.034 -11.387   9.845  1.00  0.00     0.020 A 
ATOM     93  C   UNL     1      -4.422 -13.731   9.661  1.00  0.00     0.020 A 
ATOM     94  C   UNL     1      -5.238 -12.728  10.186  1.00  0.00     0.054 A 
BRANCH  94  95
ATOM     95  S   UNL     1      -6.612 -13.145  11.294  1.00  0.00     0.124 S 
ATOM     96  O   UNL     1      -6.155 -12.595  12.567  1.00  0.00    -0.237 OA
ATOM     97  O   UNL     1      -7.739 -12.450  10.677  1.00  0.00    -0.237 OA
ATOM     98  O   UNL     1      -6.677 -14.603  11.234  1.00  0.00    -0.744 OA
ENDBRANCH  94  95
ENDBRANCH  68  89
ENDBRANCH  42  43
ENDBRANCH  34  37
ENDBRANCH  32  33
ENDBRANCH   1  32
TORSDOF 18
