REMARK SMILES C[C@@H]1[C@@H](C(=O)NCCCNC(=O)c2ccc(-c3c4nc(c(-c5ccc(S(=O)(=O)[O-])cc5)c5ccc([nH]5)c(-c5ccc(S(=O)(=O)[O-])cc5)c5nc(c(-c6ccc(S(=O)(=O)[O-])cc6)c6ccc3[nH]6)C=C5)C=C4)cc2)CCN1C(=O)N[C@@H](C)Cc1ccco1
REMARK SMILES IDX 7 1 6 2 4 3 5 4 3 6 1 7 2 8 75 9 73 10 74 11 76 12 77 13
REMARK SMILES IDX 78 14 79 16 80 17 81 18 82 19 83 20 86 21 84 22 85 23 8 24
REMARK SMILES IDX 9 25 10 26 11 27 12 29 13 30 14 31 72 32 15 33 71 34 16 35
REMARK SMILES IDX 17 36 18 37 65 38 19 39 70 40 64 41 66 42 20 43 69 44 63 45
REMARK SMILES IDX 62 46 21 48 51 49 32 50 50 51 33 52 36 53 49 54 67 55 34 56
REMARK SMILES IDX 35 57 48 59 68 60 37 61 22 62 23 63 31 64 24 65 30 66 25 67
REMARK SMILES IDX 26 68 27 69 28 70 29 71 52 72 53 73 61 74 54 75 60 76 55 77
REMARK SMILES IDX 56 78 57 79 58 80 59 81 38 82 39 83 47 84 40 85 46 86 41 87
REMARK SMILES IDX 42 88 43 89 44 90 45 91
REMARK H PARENT 6 5 78 15 10 28 66 47 36 58
REMARK Flexibility Score: inf
ROOT
ATOM      1  C   UNL     1      -2.829   2.768  -0.682  1.00  0.00     0.117 C 
ENDROOT
BRANCH   1   2
ATOM      2  N   UNL     1      -2.027   2.088  -1.677  1.00  0.00    -0.356 N 
ATOM      3  C   UNL     1      -0.874   1.389  -1.545  1.00  0.00     0.225 C 
ATOM      4  O   UNL     1      -0.282   1.123  -2.590  1.00  0.00    -0.275 OA
ATOM      5  H   UNL     1      -2.375   2.143  -2.596  1.00  0.00     0.163 HD
BRANCH   3   6
ATOM      6  C   UNL     1      -0.324   1.057  -0.164  1.00  0.00     0.102 C 
ATOM      7  C   UNL     1       1.842   0.213   0.828  1.00  0.00     0.032 C 
ATOM      8  C   UNL     1       0.798  -0.005  -0.273  1.00  0.00     0.096 C 
ATOM      9  N   UNL     1       0.110  -1.296  -0.111  1.00  0.00    -0.321 N 
ATOM     10  C   UNL     1      -1.319   0.366   0.770  1.00  0.00     0.037 C 
ATOM     11  C   UNL     1      -1.252  -1.083   0.341  1.00  0.00     0.122 C 
BRANCH   9  12
ATOM     12  C   UNL     1       0.464  -2.571  -0.411  1.00  0.00     0.317 C 
ATOM     13  O   UNL     1      -0.311  -3.515  -0.204  1.00  0.00    -0.249 OA
ATOM     14  N   UNL     1       1.649  -2.922  -0.930  1.00  0.00    -0.335 N 
ATOM     15  H   UNL     1       1.749  -3.900  -0.981  1.00  0.00     0.165 HD
BRANCH  14  16
ATOM     16  C   UNL     1       2.830  -2.230  -1.441  1.00  0.00     0.088 C 
ATOM     17  C   UNL     1       4.046  -2.703  -0.642  1.00  0.00     0.031 C 
BRANCH  16  18
ATOM     18  C   UNL     1       3.046  -2.489  -2.946  1.00  0.00     0.100 C 
BRANCH  18  19
ATOM     19  C   UNL     1       1.845  -2.190  -3.768  1.00  0.00     0.105 A 
ATOM     20  C   UNL     1       0.802  -2.967  -4.231  1.00  0.00     0.045 A 
ATOM     21  O   UNL     1       1.681  -0.900  -4.167  1.00  0.00    -0.469 OA
ATOM     22  C   UNL     1      -0.065  -2.094  -4.927  1.00  0.00     0.042 A 
ATOM     23  C   UNL     1       0.509  -0.847  -4.853  1.00  0.00     0.195 A 
ENDBRANCH  18  19
ENDBRANCH  16  18
ENDBRANCH  14  16
ENDBRANCH   9  12
ENDBRANCH   3   6
ENDBRANCH   1   2
BRANCH   1  24
ATOM     24  C   UNL     1      -3.106   4.208  -1.070  1.00  0.00     0.042 C 
BRANCH  24  25
ATOM     25  C   UNL     1      -3.779   4.367  -2.425  1.00  0.00     0.118 C 
BRANCH  25  26
ATOM     26  N   UNL     1      -5.091   3.736  -2.488  1.00  0.00    -0.352 N 
ATOM     27  C   UNL     1      -6.344   4.303  -2.533  1.00  0.00     0.251 C 
ATOM     28  H   UNL     1      -5.079   2.751  -2.502  1.00  0.00     0.163 HD
ATOM     29  O   UNL     1      -7.337   3.603  -2.395  1.00  0.00    -0.269 OA
BRANCH  27  30
ATOM     30  C   UNL     1      -6.478   5.766  -2.710  1.00  0.00     0.039 A 
ATOM     31  C   UNL     1      -7.391   6.467  -1.921  1.00  0.00     0.014 A 
ATOM     32  C   UNL     1      -5.682   6.446  -3.633  1.00  0.00     0.014 A 
ATOM     33  C   UNL     1      -7.437   7.861  -1.997  1.00  0.00     0.010 A 
ATOM     34  C   UNL     1      -5.642   7.834  -3.618  1.00  0.00     0.010 A 
ATOM     35  C   UNL     1      -6.527   8.559  -2.809  1.00  0.00    -0.014 A 
BRANCH  35  36
ATOM     36  C   UNL     1      -6.488  10.044  -2.841  1.00  0.00     0.031 A 
ATOM     37  C   UNL     1      -6.723  10.774  -4.139  1.00  0.00     0.074 A 
ATOM     38  C   UNL     1      -6.174  10.732  -1.725  1.00  0.00     0.049 A 
ATOM     39  N   UNL     1      -6.659  12.057  -4.386  1.00  0.00    -0.248 NA
ATOM     40  C   UNL     1      -7.040   9.953  -5.320  1.00  0.00     0.031 C 
ATOM     41  C   UNL     1      -5.878  10.142  -0.416  1.00  0.00     0.029 A 
ATOM     42  N   UNL     1      -6.046  12.082  -1.512  1.00  0.00    -0.354 N 
ATOM     43  C   UNL     1      -6.905  12.191  -5.748  1.00  0.00     0.074 A 
ATOM     44  C   UNL     1      -7.056  10.858  -6.285  1.00  0.00     0.031 C 
ATOM     45  C   UNL     1      -5.643  11.124   0.468  1.00  0.00     0.029 A 
ATOM     46  C   UNL     1      -5.722  12.411  -0.216  1.00  0.00     0.049 A 
ATOM     47  H   UNL     1      -6.175  12.754  -2.221  1.00  0.00     0.167 HD
ATOM     48  C   UNL     1      -7.024  13.323  -6.482  1.00  0.00     0.031 A 
ATOM     49  C   UNL     1      -5.505  13.611   0.357  1.00  0.00     0.031 A 
ATOM     50  C   UNL     1      -6.890  14.648  -5.941  1.00  0.00     0.049 A 
ATOM     51  C   UNL     1      -5.630  14.854  -0.482  1.00  0.00     0.074 A 
ATOM     52  C   UNL     1      -7.047  15.861  -6.588  1.00  0.00     0.029 A 
ATOM     53  N   UNL     1      -6.569  14.935  -4.622  1.00  0.00    -0.354 N 
ATOM     54  N   UNL     1      -5.928  14.962  -1.755  1.00  0.00    -0.248 NA
ATOM     55  C   UNL     1      -5.400  16.137   0.196  1.00  0.00     0.031 C 
ATOM     56  C   UNL     1      -6.765  16.881  -5.675  1.00  0.00     0.029 A 
ATOM     57  C   UNL     1      -6.499  16.306  -4.442  1.00  0.00     0.049 A 
ATOM     58  H   UNL     1      -6.415  14.264  -3.919  1.00  0.00     0.167 HD
ATOM     59  C   UNL     1      -5.952  16.326  -2.023  1.00  0.00     0.074 A 
ATOM     60  C   UNL     1      -5.653  17.002  -0.777  1.00  0.00     0.031 C 
ATOM     61  C   UNL     1      -6.201  16.962  -3.194  1.00  0.00     0.031 A 
BRANCH  48  62
ATOM     62  C   UNL     1      -7.314  13.171  -7.954  1.00  0.00    -0.014 A 
ATOM     63  C   UNL     1      -8.553  12.680  -8.405  1.00  0.00     0.010 A 
ATOM     64  C   UNL     1      -6.348  13.560  -8.900  1.00  0.00     0.010 A 
ATOM     65  C   UNL     1      -8.805  12.539  -9.771  1.00  0.00     0.020 A 
ATOM     66  C   UNL     1      -6.608  13.451 -10.270  1.00  0.00     0.020 A 
ATOM     67  C   UNL     1      -7.830  12.924 -10.696  1.00  0.00     0.054 A 
BRANCH  67  68
ATOM     68  S   UNL     1      -8.195  12.754 -12.464  1.00  0.00     0.124 S 
ATOM     69  O   UNL     1      -8.150  11.304 -12.642  1.00  0.00    -0.237 OA
ATOM     70  O   UNL     1      -9.520  13.358 -12.575  1.00  0.00    -0.237 OA
ATOM     71  O   UNL     1      -7.118  13.495 -13.115  1.00  0.00    -0.744 OA
ENDBRANCH  67  68
ENDBRANCH  48  62
BRANCH  49  72
ATOM     72  C   UNL     1      -5.168  13.696   1.806  1.00  0.00    -0.014 A 
ATOM     73  C   UNL     1      -6.087  14.238   2.722  1.00  0.00     0.010 A 
ATOM     74  C   UNL     1      -3.929  13.227   2.279  1.00  0.00     0.010 A 
ATOM     75  C   UNL     1      -5.766  14.328   4.080  1.00  0.00     0.020 A 
ATOM     76  C   UNL     1      -3.616  13.287   3.640  1.00  0.00     0.020 A 
ATOM     77  C   UNL     1      -4.533  13.849   4.531  1.00  0.00     0.054 A 
BRANCH  77  78
ATOM     78  S   UNL     1      -4.158  13.931   6.304  1.00  0.00     0.124 S 
ATOM     79  O   UNL     1      -3.938  15.360   6.502  1.00  0.00    -0.237 OA
ATOM     80  O   UNL     1      -5.372  13.387   6.908  1.00  0.00    -0.237 OA
ATOM     81  O   UNL     1      -2.972  13.089   6.442  1.00  0.00    -0.744 OA
ENDBRANCH  77  78
ENDBRANCH  49  72
BRANCH  61  82
ATOM     82  C   UNL     1      -6.203  18.468  -3.180  1.00  0.00    -0.014 A 
ATOM     83  C   UNL     1      -5.011  19.201  -3.038  1.00  0.00     0.010 A 
ATOM     84  C   UNL     1      -7.414  19.159  -3.373  1.00  0.00     0.010 A 
ATOM     85  C   UNL     1      -5.035  20.598  -3.057  1.00  0.00     0.020 A 
ATOM     86  C   UNL     1      -7.438  20.555  -3.424  1.00  0.00     0.020 A 
ATOM     87  C   UNL     1      -6.249  21.266  -3.251  1.00  0.00     0.054 A 
BRANCH  87  88
ATOM     88  S   UNL     1      -6.245  23.078  -3.317  1.00  0.00     0.124 S 
ATOM     89  O   UNL     1      -6.011  23.432  -1.920  1.00  0.00    -0.237 OA
ATOM     90  O   UNL     1      -5.143  23.362  -4.232  1.00  0.00    -0.237 OA
ATOM     91  O   UNL     1      -7.573  23.409  -3.829  1.00  0.00    -0.744 OA
ENDBRANCH  87  88
ENDBRANCH  61  82
ENDBRANCH  35  36
ENDBRANCH  27  30
ENDBRANCH  25  26
ENDBRANCH  24  25
ENDBRANCH   1  24
TORSDOF 17
