REMARK SMILES CC1=C(C)C[C@@H](C(=O)NCCCNC(=O)c2ccc(-c3c4nc(c(-c5ccc(S(=O)(=O)[O-])cc5)c5ccc([nH]5)c(-c5ccc(S(=O)(=O)[O-])cc5)c5nc(c(-c6ccc(S(=O)(=O)[O-])cc6)c6ccc3[nH]6)C=C5)C=C4)cc2)[C@@H](C(=O)N2CCN(c3cccc(C(F)(F)F)c3)CC2)C1
REMARK SMILES IDX 11 1 10 2 9 3 7 4 8 5 6 7 1 8 2 9 3 10 95 11 4 12 5 13 76 14
REMARK SMILES IDX 77 15 78 16 79 17 80 18 94 19 81 20 93 21 82 22 83 23 84 24
REMARK SMILES IDX 92 25 85 26 87 27 86 28 88 29 89 30 90 31 91 32 12 33 13 34
REMARK SMILES IDX 14 35 15 37 16 38 17 39 75 40 18 41 74 42 19 43 20 44 21 45
REMARK SMILES IDX 68 46 22 47 73 48 67 49 69 50 23 51 72 52 66 53 65 54 24 56
REMARK SMILES IDX 54 57 35 58 53 59 36 60 39 61 52 62 70 63 37 64 38 65 51 67
REMARK SMILES IDX 71 68 40 69 25 70 26 71 34 72 27 73 33 74 28 75 29 76 30 77
REMARK SMILES IDX 31 78 32 79 55 80 56 81 64 82 57 83 63 84 58 85 59 86 60 87
REMARK SMILES IDX 61 88 62 89 41 90 42 91 50 92 43 93 49 94 44 95 45 96 46 97
REMARK SMILES IDX 47 98 48 99
REMARK H PARENT 9 6 13 36 69 55 39 66
REMARK Flexibility Score: inf
ROOT
ATOM      1  C   UNL     1       3.622   0.169   3.163  1.00  0.00     0.042 C 
ENDROOT
BRANCH   1   2
ATOM      2  C   UNL     1       3.178  -1.252   3.479  1.00  0.00     0.117 C 
BRANCH   2   3
ATOM      3  N   UNL     1       2.446  -1.381   4.723  1.00  0.00    -0.356 N 
ATOM      4  C   UNL     1       1.122  -1.436   5.020  1.00  0.00     0.224 C 
ATOM      5  O   UNL     1       0.842  -1.886   6.140  1.00  0.00    -0.275 OA
ATOM      6  H   UNL     1       3.027  -1.440   5.515  1.00  0.00     0.163 HD
BRANCH   4   7
ATOM      7  C   UNL     1      -0.022  -1.049   4.066  1.00  0.00     0.095 C 
ATOM      8  C   UNL     1       0.837   0.006  -0.164  1.00  0.00     0.039 C 
ATOM      9  C   UNL     1       0.407  -0.447   1.212  1.00  0.00    -0.074 C 
ATOM     10  C   UNL     1       0.250  -1.730   1.581  1.00  0.00    -0.074 C 
ATOM     11  C   UNL     1       0.182   0.697   2.160  1.00  0.00     0.045 C 
ATOM     12  C   UNL     1       0.550  -2.915   0.700  1.00  0.00     0.039 C 
ATOM     13  C   UNL     1      -0.206  -2.102   2.969  1.00  0.00     0.045 C 
ATOM     14  C   UNL     1      -0.201   0.426   3.628  1.00  0.00     0.095 C 
BRANCH  14  15
ATOM     15  C   UNL     1       0.477   1.417   4.594  1.00  0.00     0.226 C 
ATOM     16  O   UNL     1       0.877   1.072   5.706  1.00  0.00    -0.275 OA
ATOM     17  N   UNL     1       0.681   2.714   4.191  1.00  0.00    -0.339 N 
ATOM     18  C   UNL     1       1.913   3.378   4.629  1.00  0.00     0.141 C 
ATOM     19  C   UNL     1      -0.202   3.550   3.360  1.00  0.00     0.141 C 
ATOM     20  C   UNL     1       2.703   3.821   3.393  1.00  0.00     0.138 C 
ATOM     21  C   UNL     1       0.531   4.166   2.145  1.00  0.00     0.138 C 
ATOM     22  N   UNL     1       1.842   4.646   2.557  1.00  0.00    -0.368 N 
BRANCH  22  23
ATOM     23  C   UNL     1       2.390   5.794   2.056  1.00  0.00     0.037 A 
ATOM     24  C   UNL     1       3.066   5.808   0.840  1.00  0.00     0.026 A 
ATOM     25  C   UNL     1       2.372   6.938   2.860  1.00  0.00     0.039 A 
ATOM     26  C   UNL     1       3.760   6.945   0.456  1.00  0.00     0.003 A 
ATOM     27  C   UNL     1       3.073   8.082   2.495  1.00  0.00     0.058 A 
ATOM     28  C   UNL     1       3.795   8.052   1.302  1.00  0.00     0.013 A 
BRANCH  27  29
ATOM     29  C   UNL     1       3.081   9.300   3.375  1.00  0.00     0.416 C 
ATOM     30  F   UNL     1       4.272   9.490   4.000  1.00  0.00    -0.166 F 
ATOM     31  F   UNL     1       2.820  10.447   2.689  1.00  0.00    -0.166 F 
ATOM     32  F   UNL     1       2.146   9.246   4.369  1.00  0.00    -0.166 F 
ENDBRANCH  27  29
ENDBRANCH  22  23
ENDBRANCH  14  15
ENDBRANCH   4   7
ENDBRANCH   2   3
ENDBRANCH   1   2
BRANCH   1  33
ATOM     33  C   UNL     1       4.747   0.720   4.040  1.00  0.00     0.118 C 
BRANCH  33  34
ATOM     34  N   UNL     1       6.051   0.227   3.638  1.00  0.00    -0.352 N 
ATOM     35  C   UNL     1       7.154   0.856   3.112  1.00  0.00     0.251 C 
ATOM     36  H   UNL     1       6.169  -0.742   3.766  1.00  0.00     0.163 HD
ATOM     37  O   UNL     1       8.053   0.139   2.670  1.00  0.00    -0.269 OA
BRANCH  35  38
ATOM     38  C   UNL     1       7.319   2.338   3.046  1.00  0.00     0.039 A 
ATOM     39  C   UNL     1       8.119   2.858   2.016  1.00  0.00     0.014 A 
ATOM     40  C   UNL     1       6.836   3.220   4.016  1.00  0.00     0.014 A 
ATOM     41  C   UNL     1       8.422   4.227   1.951  1.00  0.00     0.010 A 
ATOM     42  C   UNL     1       7.082   4.601   3.911  1.00  0.00     0.010 A 
ATOM     43  C   UNL     1       7.897   5.125   2.890  1.00  0.00    -0.014 A 
BRANCH  43  44
ATOM     44  C   UNL     1       8.232   6.585   2.857  1.00  0.00     0.031 A 
ATOM     45  C   UNL     1       8.972   7.223   4.012  1.00  0.00     0.074 A 
ATOM     46  C   UNL     1       7.875   7.364   1.812  1.00  0.00     0.049 A 
ATOM     47  N   UNL     1       9.261   8.486   4.212  1.00  0.00    -0.248 NA
ATOM     48  C   UNL     1       9.466   6.325   5.069  1.00  0.00     0.031 C 
ATOM     49  C   UNL     1       7.225   6.902   0.585  1.00  0.00     0.029 A 
ATOM     50  N   UNL     1       7.974   8.728   1.632  1.00  0.00    -0.354 N 
ATOM     51  C   UNL     1       9.995   8.530   5.392  1.00  0.00     0.074 A 
ATOM     52  C   UNL     1      10.039   7.178   5.908  1.00  0.00     0.031 C 
ATOM     53  C   UNL     1       6.935   7.963  -0.189  1.00  0.00     0.029 A 
ATOM     54  C   UNL     1       7.321   9.183   0.507  1.00  0.00     0.049 A 
ATOM     55  H   UNL     1       8.465   9.319   2.247  1.00  0.00     0.167 HD
ATOM     56  C   UNL     1      10.620   9.586   5.971  1.00  0.00     0.031 A 
ATOM     57  C   UNL     1       7.000  10.432   0.109  1.00  0.00     0.031 A 
ATOM     58  C   UNL     1      10.583  10.932   5.463  1.00  0.00     0.049 A 
ATOM     59  C   UNL     1       7.502  11.608   0.887  1.00  0.00     0.074 A 
ATOM     60  C   UNL     1      11.267  12.046   5.922  1.00  0.00     0.029 A 
ATOM     61  N   UNL     1       9.809  11.355   4.395  1.00  0.00    -0.354 N 
ATOM     62  N   UNL     1       8.219  11.620   1.982  1.00  0.00    -0.248 NA
ATOM     63  C   UNL     1       7.193  12.937   0.343  1.00  0.00     0.031 C 
ATOM     64  C   UNL     1      10.863  13.153   5.166  1.00  0.00     0.029 A 
ATOM     65  C   UNL     1       9.968  12.718   4.203  1.00  0.00     0.049 A 
ATOM     66  H   UNL     1       9.230  10.772   3.852  1.00  0.00     0.167 HD
ATOM     67  C   UNL     1       8.507  12.957   2.223  1.00  0.00     0.074 A 
ATOM     68  C   UNL     1       7.848  13.724   1.185  1.00  0.00     0.031 C 
ATOM     69  C   UNL     1       9.294  13.487   3.189  1.00  0.00     0.031 A 
BRANCH  56  70
ATOM     70  C   UNL     1      11.431   9.323   7.215  1.00  0.00    -0.014 A 
ATOM     71  C   UNL     1      12.648   8.620   7.142  1.00  0.00     0.010 A 
ATOM     72  C   UNL     1      11.012   9.836   8.455  1.00  0.00     0.010 A 
ATOM     73  C   UNL     1      13.410   8.399   8.293  1.00  0.00     0.020 A 
ATOM     74  C   UNL     1      11.783   9.637   9.605  1.00  0.00     0.020 A 
ATOM     75  C   UNL     1      12.969   8.905   9.519  1.00  0.00     0.054 A 
BRANCH  75  76
ATOM     76  S   UNL     1      13.989   8.620  10.992  1.00  0.00     0.124 S 
ATOM     77  O   UNL     1      13.740   7.206  11.261  1.00  0.00    -0.237 OA
ATOM     78  O   UNL     1      15.333   8.942  10.522  1.00  0.00    -0.237 OA
ATOM     79  O   UNL     1      13.439   9.547  11.979  1.00  0.00    -0.744 OA
ENDBRANCH  75  76
ENDBRANCH  56  70
BRANCH  57  80
ATOM     80  C   UNL     1       6.101  10.646  -1.060  1.00  0.00    -0.014 A 
ATOM     81  C   UNL     1       6.607  10.736  -2.364  1.00  0.00     0.010 A 
ATOM     82  C   UNL     1       4.712  10.760  -0.859  1.00  0.00     0.010 A 
ATOM     83  C   UNL     1       5.734  10.887  -3.449  1.00  0.00     0.020 A 
ATOM     84  C   UNL     1       3.835  10.866  -1.940  1.00  0.00     0.020 A 
ATOM     85  C   UNL     1       4.353  10.932  -3.232  1.00  0.00     0.054 A 
BRANCH  85  86
ATOM     86  S   UNL     1       3.221  11.014  -4.647  1.00  0.00     0.124 S 
ATOM     87  O   UNL     1       3.132  12.451  -4.883  1.00  0.00    -0.237 OA
ATOM     88  O   UNL     1       3.926  10.245  -5.670  1.00  0.00    -0.237 OA
ATOM     89  O   UNL     1       2.005  10.382  -4.138  1.00  0.00    -0.744 OA
ENDBRANCH  85  86
ENDBRANCH  57  80
BRANCH  69  90
ATOM     90  C   UNL     1       9.547  14.967   3.126  1.00  0.00    -0.014 A 
ATOM     91  C   UNL     1       8.565  15.898   3.505  1.00  0.00     0.010 A 
ATOM     92  C   UNL     1      10.802  15.429   2.687  1.00  0.00     0.010 A 
ATOM     93  C   UNL     1       8.825  17.269   3.416  1.00  0.00     0.020 A 
ATOM     94  C   UNL     1      11.073  16.796   2.620  1.00  0.00     0.020 A 
ATOM     95  C   UNL     1      10.077  17.709   2.971  1.00  0.00     0.054 A 
BRANCH  95  96
ATOM     96  S   UNL     1      10.404  19.491   2.893  1.00  0.00     0.124 S 
ATOM     97  O   UNL     1       9.675  19.881   1.689  1.00  0.00    -0.237 OA
ATOM     98  O   UNL     1       9.845  19.977   4.152  1.00  0.00    -0.237 OA
ATOM     99  O   UNL     1      11.860  19.571   2.794  1.00  0.00    -0.744 OA
ENDBRANCH  95  96
ENDBRANCH  69  90
ENDBRANCH  43  44
ENDBRANCH  35  38
ENDBRANCH  33  34
ENDBRANCH   1  33
TORSDOF 16
