REMARK SMILES Cc1oc2cc(OCC(=O)NCCCNC(=O)c3ccc(-c4c5nc(c(-c6ccc(S(=O)(=O)[O-])cc6)c6ccc([nH]6)c(-c6ccc(S(=O)(=O)[O-])cc6)c6nc(c(-c7ccc(S(=O)(=O)[O-])cc7)c7ccc4[nH]7)C=C6)C=C5)cc3)ccc2c(=O)c1Oc1ccc(Cl)cc1Cl
REMARK SMILES IDX 12 1 11 2 9 3 10 4 8 6 7 7 6 8 1 9 2 10 3 11 83 12 4 13
REMARK SMILES IDX 81 14 5 15 80 16 82 17 79 18 78 19 84 20 85 21 86 22 91 23
REMARK SMILES IDX 87 24 90 25 92 26 88 27 89 28 13 29 14 30 15 31 16 32 17 34
REMARK SMILES IDX 18 35 19 36 77 37 20 38 76 39 21 40 22 41 23 42 70 43 24 44
REMARK SMILES IDX 75 45 69 46 71 47 25 48 74 49 68 50 67 51 26 53 56 54 37 55
REMARK SMILES IDX 55 56 38 57 41 58 54 59 72 60 39 61 40 62 53 64 73 65 42 66
REMARK SMILES IDX 27 67 28 68 36 69 29 70 35 71 30 72 31 73 32 74 33 75 34 76
REMARK SMILES IDX 57 77 58 78 66 79 59 80 65 81 60 82 61 83 62 84 63 85 64 86
REMARK SMILES IDX 43 87 44 88 52 89 45 90 51 91 46 92 47 93 48 94 49 95 50 96
REMARK H PARENT 11 5 15 33 71 52 41 63
REMARK Flexibility Score: inf
ROOT
ATOM      1  C   UNL     1       5.227   3.200  -2.339  1.00  0.00     0.117 C 
ENDROOT
BRANCH   1   2
ATOM      2  N   UNL     1       4.003   3.945  -2.116  1.00  0.00    -0.353 N 
ATOM      3  C   UNL     1       3.302   4.077  -0.952  1.00  0.00     0.257 C 
ATOM      4  O   UNL     1       2.312   4.811  -0.934  1.00  0.00    -0.271 OA
ATOM      5  H   UNL     1       3.632   4.412  -2.899  1.00  0.00     0.163 HD
BRANCH   3   6
ATOM      6  C   UNL     1       3.784   3.343   0.306  1.00  0.00     0.329 C 
BRANCH   6   7
ATOM      7  O   UNL     1       3.873   1.927   0.200  1.00  0.00    -0.484 OA
BRANCH   7   8
ATOM      8  C   UNL     1       2.702   1.220   0.170  1.00  0.00     0.123 A 
ATOM      9  C   UNL     1      -3.213   1.786   0.511  1.00  0.00     0.092 C 
ATOM     10  C   UNL     1      -2.068   0.840   0.283  1.00  0.00     0.148 A 
ATOM     11  O   UNL     1      -0.899   1.581   0.228  1.00  0.00    -0.457 OA
ATOM     12  C   UNL     1      -2.108  -0.513   0.166  1.00  0.00     0.213 A 
ATOM     13  C   UNL     1       0.303   0.948   0.166  1.00  0.00     0.142 A 
ATOM     14  C   UNL     1      -0.793  -1.233   0.045  1.00  0.00     0.235 A 
ATOM     15  C   UNL     1       1.426   1.772   0.215  1.00  0.00     0.094 A 
ATOM     16  C   UNL     1       0.432  -0.424   0.071  1.00  0.00     0.069 A 
ATOM     17  O   UNL     1      -0.725  -2.455  -0.033  1.00  0.00    -0.285 OA
ATOM     18  C   UNL     1       1.706  -0.996   0.028  1.00  0.00     0.020 A 
ATOM     19  C   UNL     1       2.837  -0.170   0.078  1.00  0.00     0.047 A 
BRANCH  12  20
ATOM     20  O   UNL     1      -3.201  -1.375   0.175  1.00  0.00    -0.448 OA
BRANCH  20  21
ATOM     21  C   UNL     1      -4.484  -0.904   0.133  1.00  0.00     0.146 A 
ATOM     22  C   UNL     1      -5.223  -0.998   1.317  1.00  0.00     0.050 A 
ATOM     23  C   UNL     1      -5.067  -0.375  -1.024  1.00  0.00     0.085 A 
ATOM     24  C   UNL     1      -6.507  -0.458   1.375  1.00  0.00     0.024 A 
ATOM     25  C   UNL     1      -6.351   0.171  -0.962  1.00  0.00     0.045 A 
ATOM     26  Cl  UNL     1      -4.226  -0.330  -2.528  1.00  0.00    -0.080 Cl
ATOM     27  C   UNL     1      -7.055   0.144   0.242  1.00  0.00     0.042 A 
ATOM     28  Cl  UNL     1      -8.609   0.876   0.339  1.00  0.00    -0.084 Cl
ENDBRANCH  20  21
ENDBRANCH  12  20
ENDBRANCH   7   8
ENDBRANCH   6   7
ENDBRANCH   3   6
ENDBRANCH   1   2
BRANCH   1  29
ATOM     29  C   UNL     1       4.996   1.890  -3.080  1.00  0.00     0.042 C 
BRANCH  29  30
ATOM     30  C   UNL     1       4.428   2.056  -4.486  1.00  0.00     0.118 C 
BRANCH  30  31
ATOM     31  N   UNL     1       5.305   2.821  -5.365  1.00  0.00    -0.352 N 
ATOM     32  C   UNL     1       5.919   2.455  -6.538  1.00  0.00     0.251 C 
ATOM     33  H   UNL     1       5.486   3.743  -5.071  1.00  0.00     0.163 HD
ATOM     34  O   UNL     1       6.767   3.194  -7.034  1.00  0.00    -0.269 OA
BRANCH  32  35
ATOM     35  C   UNL     1       5.577   1.174  -7.192  1.00  0.00     0.039 A 
ATOM     36  C   UNL     1       6.605   0.371  -7.695  1.00  0.00     0.014 A 
ATOM     37  C   UNL     1       4.246   0.771  -7.321  1.00  0.00     0.014 A 
ATOM     38  C   UNL     1       6.302  -0.872  -8.258  1.00  0.00     0.010 A 
ATOM     39  C   UNL     1       3.953  -0.496  -7.814  1.00  0.00     0.010 A 
ATOM     40  C   UNL     1       4.976  -1.332  -8.287  1.00  0.00    -0.014 A 
BRANCH  40  41
ATOM     41  C   UNL     1       4.617  -2.673  -8.817  1.00  0.00     0.031 A 
ATOM     42  C   UNL     1       3.715  -2.779 -10.019  1.00  0.00     0.074 A 
ATOM     43  C   UNL     1       5.019  -3.786  -8.172  1.00  0.00     0.049 A 
ATOM     44  N   UNL     1       3.145  -3.838 -10.532  1.00  0.00    -0.248 NA
ATOM     45  C   UNL     1       3.394  -1.524 -10.719  1.00  0.00     0.031 C 
ATOM     46  C   UNL     1       5.885  -3.820  -6.990  1.00  0.00     0.029 A 
ATOM     47  N   UNL     1       4.735  -5.109  -8.409  1.00  0.00    -0.354 N 
ATOM     48  C   UNL     1       2.380  -3.376 -11.597  1.00  0.00     0.074 A 
ATOM     49  C   UNL     1       2.526  -1.938 -11.632  1.00  0.00     0.031 C 
ATOM     50  C   UNL     1       6.069  -5.096  -6.615  1.00  0.00     0.029 A 
ATOM     51  C   UNL     1       5.296  -5.968  -7.493  1.00  0.00     0.049 A 
ATOM     52  H   UNL     1       4.182  -5.413  -9.165  1.00  0.00     0.167 HD
ATOM     53  C   UNL     1       1.638  -4.087 -12.479  1.00  0.00     0.031 A 
ATOM     54  C   UNL     1       5.182  -7.305  -7.361  1.00  0.00     0.031 A 
ATOM     55  C   UNL     1       1.509  -5.519 -12.453  1.00  0.00     0.049 A 
ATOM     56  C   UNL     1       4.324  -8.068  -8.336  1.00  0.00     0.074 A 
ATOM     57  C   UNL     1       0.799  -6.334 -13.317  1.00  0.00     0.029 A 
ATOM     58  N   UNL     1       2.112  -6.351 -11.522  1.00  0.00    -0.354 N 
ATOM     59  N   UNL     1       3.627  -7.615  -9.351  1.00  0.00    -0.248 NA
ATOM     60  C   UNL     1       4.242  -9.525  -8.152  1.00  0.00     0.031 C 
ATOM     61  C   UNL     1       0.943  -7.656 -12.887  1.00  0.00     0.029 A 
ATOM     62  C   UNL     1       1.788  -7.669 -11.790  1.00  0.00     0.049 A 
ATOM     63  H   UNL     1       2.686  -6.048 -10.781  1.00  0.00     0.167 HD
ATOM     64  C   UNL     1       3.064  -8.736  -9.952  1.00  0.00     0.074 A 
ATOM     65  C   UNL     1       3.501  -9.887  -9.191  1.00  0.00     0.031 C 
ATOM     66  C   UNL     1       2.261  -8.806 -11.042  1.00  0.00     0.031 A 
BRANCH  53  67
ATOM     67  C   UNL     1       0.911  -3.326 -13.555  1.00  0.00    -0.014 A 
ATOM     68  C   UNL     1       1.615  -2.726 -14.614  1.00  0.00     0.010 A 
ATOM     69  C   UNL     1      -0.494  -3.262 -13.544  1.00  0.00     0.010 A 
ATOM     70  C   UNL     1       0.930  -2.049 -15.626  1.00  0.00     0.020 A 
ATOM     71  C   UNL     1      -1.185  -2.609 -14.569  1.00  0.00     0.020 A 
ATOM     72  C   UNL     1      -0.467  -1.995 -15.597  1.00  0.00     0.054 A 
BRANCH  72  73
ATOM     73  S   UNL     1      -1.329  -1.146 -16.947  1.00  0.00     0.124 S 
ATOM     74  O   UNL     1      -1.040   0.256 -16.654  1.00  0.00    -0.237 OA
ATOM     75  O   UNL     1      -0.675  -1.686 -18.136  1.00  0.00    -0.237 OA
ATOM     76  O   UNL     1      -2.724  -1.542 -16.773  1.00  0.00    -0.744 OA
ENDBRANCH  72  73
ENDBRANCH  53  67
BRANCH  54  77
ATOM     77  C   UNL     1       5.896  -8.019  -6.266  1.00  0.00    -0.014 A 
ATOM     78  C   UNL     1       6.961  -8.889  -6.562  1.00  0.00     0.010 A 
ATOM     79  C   UNL     1       5.500  -7.856  -4.927  1.00  0.00     0.010 A 
ATOM     80  C   UNL     1       7.590  -9.613  -5.544  1.00  0.00     0.020 A 
ATOM     81  C   UNL     1       6.146  -8.555  -3.902  1.00  0.00     0.020 A 
ATOM     82  C   UNL     1       7.174  -9.444  -4.220  1.00  0.00     0.054 A 
BRANCH  82  83
ATOM     83  S   UNL     1       8.012 -10.384  -2.913  1.00  0.00     0.124 S 
ATOM     84  O   UNL     1       7.465 -11.723  -3.105  1.00  0.00    -0.237 OA
ATOM     85  O   UNL     1       9.422 -10.220  -3.260  1.00  0.00    -0.237 OA
ATOM     86  O   UNL     1       7.598  -9.706  -1.687  1.00  0.00    -0.744 OA
ENDBRANCH  82  83
ENDBRANCH  54  77
BRANCH  66  87
ATOM     87  C   UNL     1       1.861 -10.170 -11.534  1.00  0.00    -0.014 A 
ATOM     88  C   UNL     1       0.905 -10.946 -10.857  1.00  0.00     0.010 A 
ATOM     89  C   UNL     1       2.396 -10.642 -12.748  1.00  0.00     0.010 A 
ATOM     90  C   UNL     1       0.502 -12.179 -11.379  1.00  0.00     0.020 A 
ATOM     91  C   UNL     1       1.976 -11.861 -13.285  1.00  0.00     0.020 A 
ATOM     92  C   UNL     1       1.037 -12.626 -12.592  1.00  0.00     0.054 A 
BRANCH  92  93
ATOM     93  S   UNL     1       0.443 -14.194 -13.284  1.00  0.00     0.124 S 
ATOM     94  O   UNL     1       1.087 -15.174 -12.414  1.00  0.00    -0.237 OA
ATOM     95  O   UNL     1      -1.006 -14.081 -13.139  1.00  0.00    -0.237 OA
ATOM     96  O   UNL     1       0.928 -14.171 -14.662  1.00  0.00    -0.744 OA
ENDBRANCH  92  93
ENDBRANCH  66  87
ENDBRANCH  40  41
ENDBRANCH  32  35
ENDBRANCH  30  31
ENDBRANCH  29  30
ENDBRANCH   1  29
TORSDOF 17
