REMARK SMILES O=C(NCCCNC(=O)c1ccc(-c2c3nc(c(-c4ccc(S(=O)(=O)[O-])cc4)c4ccc([nH]4)c(-c4ccc(S(=O)(=O)[O-])cc4)c4nc(c(-c5ccc(S(=O)(=O)[O-])cc5)c5ccc2[nH]5)C=C4)C=C3)cc1)C1=Cc2cc(Cl)ccc2O[C@@H]1C(F)(F)F
REMARK SMILES IDX 6 1 5 2 4 3 3 4 1 5 2 6 70 8 71 9 80 10 72 11 79 12 73 13
REMARK SMILES IDX 78 14 74 15 77 16 75 17 76 18 81 19 82 20 83 21 84 22 7 23
REMARK SMILES IDX 8 24 9 26 10 27 11 28 69 29 12 30 68 31 13 32 14 33 15 34
REMARK SMILES IDX 62 35 16 36 67 37 61 38 63 39 17 40 66 41 60 42 59 43 18 45
REMARK SMILES IDX 48 46 29 47 47 48 30 49 33 50 46 51 64 52 31 53 32 54 45 56
REMARK SMILES IDX 65 57 34 58 19 59 20 60 28 61 21 62 27 63 22 64 23 65 24 66
REMARK SMILES IDX 25 67 26 68 49 69 50 70 58 71 51 72 57 73 52 74 53 75 54 76
REMARK SMILES IDX 55 77 56 78 35 79 36 80 44 81 37 82 43 83 38 84 39 85 40 86
REMARK SMILES IDX 41 87 42 88
REMARK H PARENT 3 7 7 25 63 44 33 55
REMARK Flexibility Score: inf
ROOT
ATOM      1  C   UNL     1       4.070  -3.578   2.152  1.00  0.00     0.118 C 
ENDROOT
BRANCH   1   2
ATOM      2  C   UNL     1       4.123  -2.066   1.969  1.00  0.00     0.042 C 
BRANCH   2   3
ATOM      3  C   UNL     1       3.348  -1.594   0.745  1.00  0.00     0.118 C 
BRANCH   3   4
ATOM      4  N   UNL     1       2.361  -0.554   1.049  1.00  0.00    -0.352 N 
ATOM      5  O   UNL     1       1.207   1.373   0.746  1.00  0.00    -0.270 OA
ATOM      6  C   UNL     1       2.223   0.719   0.553  1.00  0.00     0.251 C 
ATOM      7  H   UNL     1       1.687  -0.810   1.719  1.00  0.00     0.163 HD
BRANCH   6   8
ATOM      8  C   UNL     1       3.309   1.232  -0.299  1.00  0.00     0.067 C 
ATOM      9  C   UNL     1       4.490   1.491   0.276  1.00  0.00     0.025 C 
ATOM     10  C   UNL     1       3.148   1.068  -1.777  1.00  0.00     0.314 C 
ATOM     11  C   UNL     1       5.601   0.836  -0.427  1.00  0.00     0.019 A 
ATOM     12  O   UNL     1       4.208   0.282  -2.373  1.00  0.00    -0.475 OA
ATOM     13  C   UNL     1       6.740   0.522   0.323  1.00  0.00     0.032 A 
ATOM     14  C   UNL     1       5.369   0.168  -1.647  1.00  0.00     0.128 A 
ATOM     15  C   UNL     1       7.581  -0.506  -0.098  1.00  0.00     0.041 A 
ATOM     16  C   UNL     1       6.240  -0.832  -2.079  1.00  0.00     0.048 A 
ATOM     17  Cl  UNL     1       8.869  -1.014   0.921  1.00  0.00    -0.084 Cl
ATOM     18  C   UNL     1       7.330  -1.191  -1.286  1.00  0.00     0.024 A 
BRANCH  10  19
ATOM     19  C   UNL     1       3.034   2.436  -2.469  1.00  0.00     0.429 C 
ATOM     20  F   UNL     1       2.736   2.294  -3.784  1.00  0.00    -0.167 F 
ATOM     21  F   UNL     1       2.053   3.198  -1.930  1.00  0.00    -0.167 F 
ATOM     22  F   UNL     1       4.183   3.150  -2.396  1.00  0.00    -0.167 F 
ENDBRANCH  10  19
ENDBRANCH   6   8
ENDBRANCH   3   4
ENDBRANCH   2   3
ENDBRANCH   1   2
BRANCH   1  23
ATOM     23  N   UNL     1       4.715  -4.336   1.086  1.00  0.00    -0.352 N 
ATOM     24  C   UNL     1       5.591  -5.405   1.151  1.00  0.00     0.251 C 
ATOM     25  H   UNL     1       4.492  -4.039   0.174  1.00  0.00     0.163 HD
ATOM     26  O   UNL     1       6.066  -5.852   0.122  1.00  0.00    -0.269 OA
BRANCH  24  27
ATOM     27  C   UNL     1       5.986  -5.969   2.467  1.00  0.00     0.039 A 
ATOM     28  C   UNL     1       7.314  -6.357   2.669  1.00  0.00     0.014 A 
ATOM     29  C   UNL     1       5.070  -6.084   3.510  1.00  0.00     0.014 A 
ATOM     30  C   UNL     1       7.735  -6.761   3.941  1.00  0.00     0.010 A 
ATOM     31  C   UNL     1       5.516  -6.350   4.798  1.00  0.00     0.010 A 
ATOM     32  C   UNL     1       6.852  -6.705   5.032  1.00  0.00    -0.014 A 
BRANCH  32  33
ATOM     33  C   UNL     1       7.287  -7.024   6.419  1.00  0.00     0.031 A 
ATOM     34  C   UNL     1       6.575  -8.099   7.204  1.00  0.00     0.074 A 
ATOM     35  C   UNL     1       8.260  -6.295   7.005  1.00  0.00     0.049 A 
ATOM     36  N   UNL     1       6.737  -8.456   8.453  1.00  0.00    -0.248 NA
ATOM     37  C   UNL     1       5.505  -8.836   6.510  1.00  0.00     0.031 C 
ATOM     38  C   UNL     1       8.980  -5.179   6.384  1.00  0.00     0.029 A 
ATOM     39  N   UNL     1       8.811  -6.382   8.259  1.00  0.00    -0.354 N 
ATOM     40  C   UNL     1       5.769  -9.424   8.698  1.00  0.00     0.074 A 
ATOM     41  C   UNL     1       4.979  -9.548   7.495  1.00  0.00     0.031 C 
ATOM     42  C   UNL     1       9.909  -4.721   7.239  1.00  0.00     0.029 A 
ATOM     43  C   UNL     1       9.823  -5.477   8.483  1.00  0.00     0.049 A 
ATOM     44  H   UNL     1       8.511  -7.032   8.935  1.00  0.00     0.167 HD
ATOM     45  C   UNL     1       5.572 -10.171   9.811  1.00  0.00     0.031 A 
ATOM     46  C   UNL     1      10.599  -5.281   9.567  1.00  0.00     0.031 A 
ATOM     47  C   UNL     1       6.392 -10.082  10.988  1.00  0.00     0.049 A 
ATOM     48  C   UNL     1      10.399  -6.158  10.773  1.00  0.00     0.074 A 
ATOM     49  C   UNL     1       6.330 -10.843  12.142  1.00  0.00     0.029 A 
ATOM     50  N   UNL     1       7.436  -9.184  11.155  1.00  0.00    -0.354 N 
ATOM     51  N   UNL     1       9.518  -7.112  10.961  1.00  0.00    -0.248 NA
ATOM     52  C   UNL     1      11.310  -5.944  11.905  1.00  0.00     0.031 C 
ATOM     53  C   UNL     1       7.313 -10.380  13.022  1.00  0.00     0.029 A 
ATOM     54  C   UNL     1       8.021  -9.366  12.396  1.00  0.00     0.049 A 
ATOM     55  H   UNL     1       7.719  -8.517  10.489  1.00  0.00     0.167 HD
ATOM     56  C   UNL     1       9.786  -7.630  12.222  1.00  0.00     0.074 A 
ATOM     57  C   UNL     1      10.923  -6.896  12.742  1.00  0.00     0.031 C 
ATOM     58  C   UNL     1       9.150  -8.623  12.893  1.00  0.00     0.031 A 
BRANCH  45  59
ATOM     59  C   UNL     1       4.434 -11.160   9.792  1.00  0.00    -0.014 A 
ATOM     60  C   UNL     1       4.470 -12.293   8.957  1.00  0.00     0.010 A 
ATOM     61  C   UNL     1       3.322 -10.967  10.631  1.00  0.00     0.010 A 
ATOM     62  C   UNL     1       3.393 -13.182   8.921  1.00  0.00     0.020 A 
ATOM     63  C   UNL     1       2.257 -11.873  10.623  1.00  0.00     0.020 A 
ATOM     64  C   UNL     1       2.291 -12.964   9.752  1.00  0.00     0.054 A 
BRANCH  64  65
ATOM     65  S   UNL     1       0.915 -14.144   9.696  1.00  0.00     0.124 S 
ATOM     66  O   UNL     1       0.280 -13.804   8.425  1.00  0.00    -0.237 OA
ATOM     67  O   UNL     1       1.598 -15.435   9.731  1.00  0.00    -0.237 OA
ATOM     68  O   UNL     1       0.134 -13.823  10.888  1.00  0.00    -0.744 OA
ENDBRANCH  64  65
ENDBRANCH  45  59
BRANCH  46  69
ATOM     69  C   UNL     1      11.665  -4.241   9.544  1.00  0.00    -0.014 A 
ATOM     70  C   UNL     1      13.020  -4.614   9.491  1.00  0.00     0.010 A 
ATOM     71  C   UNL     1      11.335  -2.874   9.562  1.00  0.00     0.010 A 
ATOM     72  C   UNL     1      14.025  -3.642   9.477  1.00  0.00     0.020 A 
ATOM     73  C   UNL     1      12.336  -1.898   9.520  1.00  0.00     0.020 A 
ATOM     74  C   UNL     1      13.676  -2.289   9.490  1.00  0.00     0.054 A 
BRANCH  74  75
ATOM     75  S   UNL     1      14.995  -1.044   9.422  1.00  0.00     0.124 S 
ATOM     76  O   UNL     1      15.545  -1.110  10.772  1.00  0.00    -0.237 OA
ATOM     77  O   UNL     1      15.858  -1.556   8.361  1.00  0.00    -0.237 OA
ATOM     78  O   UNL     1      14.283   0.189   9.094  1.00  0.00    -0.744 OA
ENDBRANCH  74  75
ENDBRANCH  46  69
BRANCH  58  79
ATOM     79  C   UNL     1       9.695  -8.997  14.244  1.00  0.00    -0.014 A 
ATOM     80  C   UNL     1       9.538  -8.149  15.354  1.00  0.00     0.010 A 
ATOM     81  C   UNL     1      10.346 -10.233  14.409  1.00  0.00     0.010 A 
ATOM     82  C   UNL     1      10.063  -8.510  16.597  1.00  0.00     0.020 A 
ATOM     83  C   UNL     1      10.846 -10.611  15.657  1.00  0.00     0.020 A 
ATOM     84  C   UNL     1      10.719  -9.738  16.739  1.00  0.00     0.054 A 
BRANCH  84  85
ATOM     85  S   UNL     1      11.375 -10.195  18.366  1.00  0.00     0.124 S 
ATOM     86  O   UNL     1      12.566  -9.355  18.458  1.00  0.00    -0.237 OA
ATOM     87  O   UNL     1      10.282  -9.836  19.266  1.00  0.00    -0.237 OA
ATOM     88  O   UNL     1      11.630 -11.628  18.246  1.00  0.00    -0.744 OA
ENDBRANCH  84  85
ENDBRANCH  58  79
ENDBRANCH  32  33
ENDBRANCH  24  27
ENDBRANCH   1  23
TORSDOF 14
