REMARK SMILES C[C@H](C(=O)NCCCNC(=O)c1ccc(-c2c3nc(c(-c4ccc(S(=O)(=O)[O-])cc4)c4ccc([nH]4)c(-c4ccc(S(=O)(=O)[O-])cc4)c4nc(c(-c5ccc(S(=O)(=O)[O-])cc5)c5ccc2[nH]5)C=C4)C=C3)cc1)N1CCCC[C@H](NC(=O)OC(C)(C)C)C1=O
REMARK SMILES IDX 3 1 4 2 5 3 2 5 1 6 72 7 73 8 74 9 75 10 76 11 86 13 87 14
REMARK SMILES IDX 77 15 78 17 79 18 80 20 81 21 82 22 83 23 84 24 85 25 6 26
REMARK SMILES IDX 7 27 8 28 9 29 10 30 11 32 12 33 13 34 71 35 14 36 70 37
REMARK SMILES IDX 15 38 16 39 17 40 64 41 18 42 69 43 63 44 65 45 19 46 68 47
REMARK SMILES IDX 62 48 61 49 20 51 50 52 31 53 49 54 32 55 35 56 48 57 66 58
REMARK SMILES IDX 33 59 34 60 47 62 67 63 36 64 21 65 22 66 30 67 23 68 29 69
REMARK SMILES IDX 24 70 25 71 26 72 27 73 28 74 51 75 52 76 60 77 53 78 59 79
REMARK SMILES IDX 54 80 55 81 56 82 57 83 58 84 37 85 38 86 46 87 39 88 45 89
REMARK SMILES IDX 40 90 41 91 42 92 43 93 44 94
REMARK H PARENT 5 4 78 19 9 31 65 50 35 61
REMARK Flexibility Score: 90.00
ROOT
ATOM      1  C   UNL     1       1.209   0.046  -0.107  1.00  0.00     0.242 C 
ATOM      2  O   UNL     1       1.716  -0.181   0.996  1.00  0.00    -0.273 OA
ATOM      3  N   UNL     1       1.326  -0.929  -1.056  1.00  0.00    -0.354 N 
ATOM      4  H   UNL     1       1.968  -1.645  -0.845  1.00  0.00     0.163 HD
ENDROOT
BRANCH   1   5
ATOM      5  C   UNL     1       0.411   1.353  -0.365  1.00  0.00     0.171 C 
ATOM      6  C   UNL     1       0.963   2.069  -1.608  1.00  0.00     0.042 C 
BRANCH   5   7
ATOM      7  N   UNL     1      -1.080   1.302  -0.329  1.00  0.00    -0.329 N 
BRANCH   7   8
ATOM      8  C   UNL     1      -1.777   0.036  -0.068  1.00  0.00     0.120 C 
BRANCH   8   9
ATOM      9  C   UNL     1      -2.662  -0.431  -1.226  1.00  0.00     0.022 C 
BRANCH   9  10
ATOM     10  C   UNL     1      -3.996   0.293  -1.345  1.00  0.00     0.004 C 
BRANCH  10  11
ATOM     11  C   UNL     1      -3.856   1.800  -1.521  1.00  0.00     0.035 CG0
ATOM     12  G   UNL     1      -3.304   2.477  -0.263  1.00  0.00     0.000 G0
ENDBRANCH  10  11
ENDBRANCH   9  10
ENDBRANCH   8   9
ENDBRANCH   7   8
BRANCH   7  13
ATOM     13  C   UNL     1      -1.760   2.529  -0.288  1.00  0.00     0.245 C 
ATOM     14  O   UNL     1      -1.161   3.607  -0.289  1.00  0.00    -0.272 OA
BRANCH  13  15
ATOM     15  C   UNL     1      -3.304   2.477  -0.263  1.00  0.00     0.175 CG0
ATOM     16  G   UNL     1      -3.856   1.800  -1.521  1.00  0.00     0.000 G0
BRANCH  15  17
ATOM     17  N   UNL     1      -3.873   3.816  -0.159  1.00  0.00    -0.310 N 
ATOM     18  C   UNL     1      -4.262   4.427   0.991  1.00  0.00     0.408 C 
ATOM     19  H   UNL     1      -3.985   4.322  -0.996  1.00  0.00     0.167 HD
ATOM     20  O   UNL     1      -4.888   5.480   0.968  1.00  0.00    -0.225 OA
BRANCH  18  21
ATOM     21  O   UNL     1      -3.926   3.723   2.094  1.00  0.00    -0.444 OA
BRANCH  21  22
ATOM     22  C   UNL     1      -4.445   4.064   3.403  1.00  0.00     0.106 C 
ATOM     23  C   UNL     1      -4.336   5.551   3.757  1.00  0.00     0.056 C 
ATOM     24  C   UNL     1      -5.890   3.566   3.490  1.00  0.00     0.056 C 
ATOM     25  C   UNL     1      -3.575   3.271   4.390  1.00  0.00     0.056 C 
ENDBRANCH  21  22
ENDBRANCH  18  21
ENDBRANCH  15  17
ENDBRANCH  13  15
ENDBRANCH   7  13
ENDBRANCH   5   7
ENDBRANCH   1   5
BRANCH   3  26
ATOM     26  C   UNL     1       0.646  -1.069  -2.328  1.00  0.00     0.117 C 
BRANCH  26  27
ATOM     27  C   UNL     1       1.525  -0.836  -3.544  1.00  0.00     0.042 C 
BRANCH  27  28
ATOM     28  C   UNL     1       2.728  -1.758  -3.640  1.00  0.00     0.118 C 
BRANCH  28  29
ATOM     29  N   UNL     1       2.366  -3.149  -3.870  1.00  0.00    -0.352 N 
ATOM     30  C   UNL     1       2.589  -3.960  -4.959  1.00  0.00     0.251 C 
ATOM     31  H   UNL     1       1.884  -3.579  -3.127  1.00  0.00     0.163 HD
ATOM     32  O   UNL     1       2.057  -5.066  -5.000  1.00  0.00    -0.269 OA
BRANCH  30  33
ATOM     33  C   UNL     1       3.425  -3.498  -6.092  1.00  0.00     0.039 A 
ATOM     34  C   UNL     1       3.000  -3.770  -7.395  1.00  0.00     0.014 A 
ATOM     35  C   UNL     1       4.616  -2.798  -5.885  1.00  0.00     0.014 A 
ATOM     36  C   UNL     1       3.715  -3.257  -8.482  1.00  0.00     0.010 A 
ATOM     37  C   UNL     1       5.274  -2.208  -6.963  1.00  0.00     0.010 A 
ATOM     38  C   UNL     1       4.826  -2.423  -8.274  1.00  0.00    -0.014 A 
BRANCH  38  39
ATOM     39  C   UNL     1       5.500  -1.737  -9.408  1.00  0.00     0.031 A 
ATOM     40  C   UNL     1       6.950  -2.006  -9.715  1.00  0.00     0.074 A 
ATOM     41  C   UNL     1       4.821  -0.813 -10.120  1.00  0.00     0.049 A 
ATOM     42  N   UNL     1       7.713  -1.455 -10.625  1.00  0.00    -0.248 NA
ATOM     43  C   UNL     1       7.639  -3.004  -8.882  1.00  0.00     0.031 C 
ATOM     44  C   UNL     1       3.426  -0.424  -9.894  1.00  0.00     0.029 A 
ATOM     45  N   UNL     1       5.213  -0.025 -11.175  1.00  0.00    -0.354 N 
ATOM     46  C   UNL     1       8.970  -2.025 -10.463  1.00  0.00     0.074 A 
ATOM     47  C   UNL     1       8.881  -2.935  -9.343  1.00  0.00     0.031 C 
ATOM     48  C   UNL     1       3.073   0.506 -10.796  1.00  0.00     0.029 A 
ATOM     49  C   UNL     1       4.226   0.817 -11.635  1.00  0.00     0.049 A 
ATOM     50  H   UNL     1       6.116  -0.059 -11.565  1.00  0.00     0.167 HD
ATOM     51  C   UNL     1      10.093  -1.821 -11.192  1.00  0.00     0.031 A 
ATOM     52  C   UNL     1       4.245   1.745 -12.611  1.00  0.00     0.031 A 
ATOM     53  C   UNL     1      10.176  -0.929 -12.319  1.00  0.00     0.049 A 
ATOM     54  C   UNL     1       5.513   1.960 -13.393  1.00  0.00     0.074 A 
ATOM     55  C   UNL     1      11.252  -0.713 -13.164  1.00  0.00     0.029 A 
ATOM     56  N   UNL     1       9.154  -0.103 -12.756  1.00  0.00    -0.354 N 
ATOM     57  N   UNL     1       6.665   1.345 -13.278  1.00  0.00    -0.248 NA
ATOM     58  C   UNL     1       5.479   2.989 -14.443  1.00  0.00     0.031 C 
ATOM     59  C   UNL     1      10.900   0.288 -14.073  1.00  0.00     0.029 A 
ATOM     60  C   UNL     1       9.584   0.651 -13.835  1.00  0.00     0.049 A 
ATOM     61  H   UNL     1       8.254  -0.058 -12.358  1.00  0.00     0.167 HD
ATOM     62  C   UNL     1       7.486   1.897 -14.255  1.00  0.00     0.074 A 
ATOM     63  C   UNL     1       6.691   2.876 -14.968  1.00  0.00     0.031 C 
ATOM     64  C   UNL     1       8.783   1.621 -14.536  1.00  0.00     0.031 A 
BRANCH  51  65
ATOM     65  C   UNL     1      11.338  -2.576 -10.803  1.00  0.00    -0.014 A 
ATOM     66  C   UNL     1      11.452  -3.958 -11.036  1.00  0.00     0.010 A 
ATOM     67  C   UNL     1      12.442  -1.876 -10.282  1.00  0.00     0.010 A 
ATOM     68  C   UNL     1      12.641  -4.629 -10.741  1.00  0.00     0.020 A 
ATOM     69  C   UNL     1      13.643  -2.539 -10.010  1.00  0.00     0.020 A 
ATOM     70  C   UNL     1      13.731  -3.914 -10.234  1.00  0.00     0.054 A 
BRANCH  70  71
ATOM     71  S   UNL     1      15.282  -4.802  -9.922  1.00  0.00     0.124 S 
ATOM     72  O   UNL     1      14.939  -5.605  -8.751  1.00  0.00    -0.237 OA
ATOM     73  O   UNL     1      15.476  -5.551 -11.162  1.00  0.00    -0.237 OA
ATOM     74  O   UNL     1      16.252  -3.736  -9.683  1.00  0.00    -0.744 OA
ENDBRANCH  70  71
ENDBRANCH  51  65
BRANCH  52  75
ATOM     75  C   UNL     1       3.031   2.558 -12.902  1.00  0.00    -0.014 A 
ATOM     76  C   UNL     1       2.341   2.407 -14.117  1.00  0.00     0.010 A 
ATOM     77  C   UNL     1       2.572   3.508 -11.971  1.00  0.00     0.010 A 
ATOM     78  C   UNL     1       1.238   3.215 -14.413  1.00  0.00     0.020 A 
ATOM     79  C   UNL     1       1.451   4.295 -12.248  1.00  0.00     0.020 A 
ATOM     80  C   UNL     1       0.802   4.157 -13.476  1.00  0.00     0.054 A 
BRANCH  80  81
ATOM     81  S   UNL     1      -0.641   5.182 -13.870  1.00  0.00     0.124 S 
ATOM     82  O   UNL     1      -0.090   6.119 -14.844  1.00  0.00    -0.237 OA
ATOM     83  O   UNL     1      -1.589   4.203 -14.398  1.00  0.00    -0.237 OA
ATOM     84  O   UNL     1      -1.010   5.761 -12.581  1.00  0.00    -0.744 OA
ENDBRANCH  80  81
ENDBRANCH  52  75
BRANCH  64  85
ATOM     85  C   UNL     1       9.420   2.367 -15.679  1.00  0.00    -0.014 A 
ATOM     86  C   UNL     1       9.731   3.734 -15.573  1.00  0.00     0.010 A 
ATOM     87  C   UNL     1       9.756   1.676 -16.858  1.00  0.00     0.010 A 
ATOM     88  C   UNL     1      10.336   4.405 -16.639  1.00  0.00     0.020 A 
ATOM     89  C   UNL     1      10.389   2.337 -17.914  1.00  0.00     0.020 A 
ATOM     90  C   UNL     1      10.662   3.701 -17.802  1.00  0.00     0.054 A 
BRANCH  90  91
ATOM     91  S   UNL     1      11.485   4.586 -19.154  1.00  0.00     0.124 S 
ATOM     92  O   UNL     1      10.398   5.400 -19.691  1.00  0.00    -0.237 OA
ATOM     93  O   UNL     1      12.538   5.323 -18.460  1.00  0.00    -0.237 OA
ATOM     94  O   UNL     1      11.956   3.518 -20.033  1.00  0.00    -0.744 OA
ENDBRANCH  90  91
ENDBRANCH  64  85
ENDBRANCH  38  39
ENDBRANCH  30  33
ENDBRANCH  28  29
ENDBRANCH  27  28
ENDBRANCH  26  27
ENDBRANCH   3  26
TORSDOF 17
