REMARK SMILES CCOC(=O)NC(=O)COc1csc(C(=O)NCCCNC(=O)c2ccc(-c3c4nc(c(-c5ccc(S(=O)(=O)[O-])cc5)c5ccc([nH]5)c(-c5ccc(S(=O)(=O)[O-])cc5)c5nc(c(-c6ccc(S(=O)(=O)[O-])cc6)c6ccc3[nH]6)C=C5)C=C4)cc2)c1
REMARK SMILES IDX 18 1 17 2 15 3 16 4 14 6 11 7 12 8 84 9 13 10 10 11 9 12
REMARK SMILES IDX 7 13 4 14 5 15 6 16 8 18 3 19 2 20 1 21 19 22 20 23 21 24
REMARK SMILES IDX 22 25 23 27 24 28 25 29 83 30 26 31 82 32 27 33 28 34 29 35
REMARK SMILES IDX 76 36 30 37 81 38 75 39 77 40 31 41 80 42 74 43 73 44 32 46
REMARK SMILES IDX 62 47 43 48 61 49 44 50 47 51 60 52 78 53 45 54 46 55 59 57
REMARK SMILES IDX 79 58 48 59 33 60 34 61 42 62 35 63 41 64 36 65 37 66 38 67
REMARK SMILES IDX 39 68 40 69 63 70 64 71 72 72 65 73 71 74 66 75 67 76 68 77
REMARK SMILES IDX 69 78 70 79 49 80 50 81 58 82 51 83 57 84 52 85 53 86 54 87
REMARK SMILES IDX 55 88 56 89
REMARK H PARENT 17 5 6 17 21 26 77 45 47 56
REMARK Flexibility Score: inf
ROOT
ATOM      1  C   UNL     1      -2.921   4.231   2.991  1.00  0.00     0.118 C 
ENDROOT
BRANCH   1   2
ATOM      2  N   UNL     1      -2.210   5.179   3.826  1.00  0.00    -0.351 N 
ATOM      3  C   UNL     1      -1.037   5.072   4.538  1.00  0.00     0.261 C 
ATOM      4  O   UNL     1      -0.657   6.111   5.083  1.00  0.00    -0.268 OA
ATOM      5  H   UNL     1      -2.646   6.059   3.898  1.00  0.00     0.163 HD
BRANCH   3   6
ATOM      6  C   UNL     1      -0.298   3.818   4.590  1.00  0.00     0.096 A 
ATOM      7  C   UNL     1       0.412   1.604   4.367  1.00  0.00     0.131 A 
ATOM      8  C   UNL     1       1.592   2.207   4.725  1.00  0.00     0.112 A 
ATOM      9  C   UNL     1      -0.677   2.510   4.362  1.00  0.00     0.072 A 
ATOM     10  S   UNL     1       1.373   3.879   5.020  1.00  0.00    -0.135 S 
BRANCH   7  11
ATOM     11  O   UNL     1       0.271   0.338   3.920  1.00  0.00    -0.483 OA
BRANCH  11  12
ATOM     12  C   UNL     1       0.739  -0.670   4.793  1.00  0.00     0.329 C 
BRANCH  12  13
ATOM     13  C   UNL     1       2.243  -0.927   4.796  1.00  0.00     0.267 C 
ATOM     14  C   UNL     1       2.561  -1.300   2.296  1.00  0.00     0.413 C 
ATOM     15  O   UNL     1       3.412  -1.455   1.431  1.00  0.00    -0.224 OA
ATOM     16  N   UNL     1       2.921  -1.166   3.621  1.00  0.00    -0.258 N 
ATOM     17  H   UNL     1       3.891  -1.264   3.759  1.00  0.00     0.176 HD
ATOM     18  O   UNL     1       2.884  -0.941   5.852  1.00  0.00    -0.271 OA
BRANCH  14  19
ATOM     19  O   UNL     1       1.229  -1.255   2.071  1.00  0.00    -0.450 OA
BRANCH  19  20
ATOM     20  C   UNL     1       0.802  -1.342   0.703  1.00  0.00     0.231 C 
ATOM     21  C   UNL     1       1.044  -0.041  -0.043  1.00  0.00     0.049 C 
ENDBRANCH  19  20
ENDBRANCH  14  19
ENDBRANCH  12  13
ENDBRANCH  11  12
ENDBRANCH   7  11
ENDBRANCH   3   6
ENDBRANCH   1   2
BRANCH   1  22
ATOM     22  C   UNL     1      -4.064   3.562   3.751  1.00  0.00     0.042 C 
BRANCH  22  23
ATOM     23  C   UNL     1      -5.275   4.474   3.927  1.00  0.00     0.118 C 
BRANCH  23  24
ATOM     24  N   UNL     1      -5.889   4.808   2.649  1.00  0.00    -0.352 N 
ATOM     25  C   UNL     1      -7.165   4.593   2.196  1.00  0.00     0.251 C 
ATOM     26  H   UNL     1      -5.293   5.259   2.008  1.00  0.00     0.163 HD
ATOM     27  O   UNL     1      -7.403   4.716   0.997  1.00  0.00    -0.269 OA
BRANCH  25  28
ATOM     28  C   UNL     1      -8.244   4.218   3.133  1.00  0.00     0.039 A 
ATOM     29  C   UNL     1      -9.216   3.307   2.712  1.00  0.00     0.014 A 
ATOM     30  C   UNL     1      -8.332   4.799   4.401  1.00  0.00     0.014 A 
ATOM     31  C   UNL     1     -10.249   2.947   3.579  1.00  0.00     0.010 A 
ATOM     32  C   UNL     1      -9.313   4.377   5.293  1.00  0.00     0.010 A 
ATOM     33  C   UNL     1     -10.291   3.458   4.887  1.00  0.00    -0.014 A 
BRANCH  33  34
ATOM     34  C   UNL     1     -11.354   3.047   5.838  1.00  0.00     0.031 A 
ATOM     35  C   UNL     1     -12.320   4.067   6.380  1.00  0.00     0.074 A 
ATOM     36  C   UNL     1     -11.413   1.767   6.253  1.00  0.00     0.049 A 
ATOM     37  N   UNL     1     -13.284   3.906   7.250  1.00  0.00    -0.248 NA
ATOM     38  C   UNL     1     -12.169   5.452   5.903  1.00  0.00     0.031 C 
ATOM     39  C   UNL     1     -10.505   0.697   5.831  1.00  0.00     0.029 A 
ATOM     40  N   UNL     1     -12.270   1.147   7.127  1.00  0.00    -0.354 N 
ATOM     41  C   UNL     1     -13.839   5.167   7.437  1.00  0.00     0.074 A 
ATOM     42  C   UNL     1     -13.072   6.091   6.633  1.00  0.00     0.031 C 
ATOM     43  C   UNL     1     -10.873  -0.451   6.421  1.00  0.00     0.029 A 
ATOM     44  C   UNL     1     -12.009  -0.192   7.298  1.00  0.00     0.049 A 
ATOM     45  H   UNL     1     -13.003   1.617   7.587  1.00  0.00     0.167 HD
ATOM     46  C   UNL     1     -14.904   5.520   8.197  1.00  0.00     0.031 A 
ATOM     47  C   UNL     1     -12.611  -1.109   8.081  1.00  0.00     0.031 A 
ATOM     48  C   UNL     1     -15.667   4.592   8.989  1.00  0.00     0.049 A 
ATOM     49  C   UNL     1     -13.785  -0.690   8.923  1.00  0.00     0.074 A 
ATOM     50  C   UNL     1     -16.798   4.838   9.748  1.00  0.00     0.029 A 
ATOM     51  N   UNL     1     -15.376   3.244   9.130  1.00  0.00    -0.354 N 
ATOM     52  N   UNL     1     -14.340   0.494   9.032  1.00  0.00    -0.248 NA
ATOM     53  C   UNL     1     -14.424  -1.734   9.734  1.00  0.00     0.031 C 
ATOM     54  C   UNL     1     -17.153   3.652  10.398  1.00  0.00     0.029 A 
ATOM     55  C   UNL     1     -16.288   2.650   9.986  1.00  0.00     0.049 A 
ATOM     56  H   UNL     1     -14.631   2.777   8.687  1.00  0.00     0.167 HD
ATOM     57  C   UNL     1     -15.412   0.330   9.902  1.00  0.00     0.074 A 
ATOM     58  C   UNL     1     -15.437  -1.070  10.274  1.00  0.00     0.031 C 
ATOM     59  C   UNL     1     -16.298   1.254  10.349  1.00  0.00     0.031 A 
BRANCH  46  60
ATOM     60  C   UNL     1     -15.300   6.975   8.216  1.00  0.00    -0.014 A 
ATOM     61  C   UNL     1     -15.839   7.602   7.077  1.00  0.00     0.010 A 
ATOM     62  C   UNL     1     -15.176   7.716   9.406  1.00  0.00     0.010 A 
ATOM     63  C   UNL     1     -16.207   8.949   7.116  1.00  0.00     0.020 A 
ATOM     64  C   UNL     1     -15.574   9.055   9.458  1.00  0.00     0.020 A 
ATOM     65  C   UNL     1     -16.072   9.668   8.307  1.00  0.00     0.054 A 
BRANCH  65  66
ATOM     66  S   UNL     1     -16.586  11.407   8.335  1.00  0.00     0.124 S 
ATOM     67  O   UNL     1     -15.550  12.040   7.522  1.00  0.00    -0.237 OA
ATOM     68  O   UNL     1     -17.915  11.356   7.730  1.00  0.00    -0.237 OA
ATOM     69  O   UNL     1     -16.563  11.754   9.753  1.00  0.00    -0.744 OA
ENDBRANCH  65  66
ENDBRANCH  46  60
BRANCH  47  70
ATOM     70  C   UNL     1     -12.117  -2.514   8.094  1.00  0.00    -0.014 A 
ATOM     71  C   UNL     1     -12.889  -3.552   7.545  1.00  0.00     0.010 A 
ATOM     72  C   UNL     1     -10.857  -2.818   8.642  1.00  0.00     0.010 A 
ATOM     73  C   UNL     1     -12.421  -4.870   7.562  1.00  0.00     0.020 A 
ATOM     74  C   UNL     1     -10.371  -4.128   8.632  1.00  0.00     0.020 A 
ATOM     75  C   UNL     1     -11.162  -5.148   8.102  1.00  0.00     0.054 A 
BRANCH  75  76
ATOM     76  S   UNL     1     -10.553  -6.857   8.065  1.00  0.00     0.124 S 
ATOM     77  O   UNL     1     -11.397  -7.502   9.065  1.00  0.00    -0.237 OA
ATOM     78  O   UNL     1     -10.800  -7.248   6.679  1.00  0.00    -0.237 OA
ATOM     79  O   UNL     1      -9.143  -6.725   8.424  1.00  0.00    -0.744 OA
ENDBRANCH  75  76
ENDBRANCH  47  70
BRANCH  59  80
ATOM     80  C   UNL     1     -17.398   0.776  11.261  1.00  0.00    -0.014 A 
ATOM     81  C   UNL     1     -17.134   0.365  12.579  1.00  0.00     0.010 A 
ATOM     82  C   UNL     1     -18.728   0.788  10.801  1.00  0.00     0.010 A 
ATOM     83  C   UNL     1     -18.175  -0.063  13.408  1.00  0.00     0.020 A 
ATOM     84  C   UNL     1     -19.776   0.394  11.637  1.00  0.00     0.020 A 
ATOM     85  C   UNL     1     -19.490  -0.045  12.931  1.00  0.00     0.054 A 
BRANCH  85  86
ATOM     86  S   UNL     1     -20.826  -0.570  14.038  1.00  0.00     0.124 S 
ATOM     87  O   UNL     1     -20.614  -2.013  14.107  1.00  0.00    -0.237 OA
ATOM     88  O   UNL     1     -20.533   0.168  15.264  1.00  0.00    -0.237 OA
ATOM     89  O   UNL     1     -22.040  -0.152  13.340  1.00  0.00    -0.744 OA
ENDBRANCH  85  86
ENDBRANCH  59  80
ENDBRANCH  33  34
ENDBRANCH  25  28
ENDBRANCH  23  24
ENDBRANCH  22  23
ENDBRANCH   1  22
TORSDOF 18
