REMARK SMILES Cc1ccc(NS(=O)(=O)c2cc(C(=O)NCCCNC(=O)c3ccc(-c4c5nc(c(-c6ccc(S(=O)(=O)[O-])cc6)c6ccc([nH]6)c(-c6ccc(S(=O)(=O)[O-])cc6)c6nc(c(-c7ccc(S(=O)(=O)[O-])cc7)c7ccc4[nH]7)C=C6)C=C5)cc3)ccc2Cl)nc1
REMARK SMILES IDX 17 1 16 2 15 3 13 4 14 5 12 7 10 8 11 9 84 10 83 11 85 12
REMARK SMILES IDX 82 13 7 14 8 15 9 16 6 17 5 19 1 20 2 21 3 22 87 23 4 24
REMARK SMILES IDX 86 25 18 26 19 27 20 28 21 30 22 31 23 32 81 33 24 34 80 35
REMARK SMILES IDX 25 36 26 37 27 38 74 39 28 40 79 41 73 42 75 43 29 44 78 45
REMARK SMILES IDX 72 46 71 47 30 49 60 50 41 51 59 52 42 53 45 54 58 55 76 56
REMARK SMILES IDX 43 57 44 58 57 60 77 61 46 62 31 63 32 64 40 65 33 66 39 67
REMARK SMILES IDX 34 68 35 69 36 70 37 71 38 72 61 73 62 74 70 75 63 76 69 77
REMARK SMILES IDX 64 78 65 79 66 80 67 81 68 82 47 83 48 84 56 85 49 86 55 87
REMARK SMILES IDX 50 88 51 89 52 90 53 91 54 92
REMARK H PARENT 15 6 6 18 19 29 75 48 45 59
REMARK Flexibility Score: inf
ROOT
ATOM      1  C   UNL     1      -0.149  -8.160   0.400  1.00  0.00     0.042 C 
ENDROOT
BRANCH   1   2
ATOM      2  C   UNL     1      -1.338  -7.906  -0.529  1.00  0.00     0.118 C 
BRANCH   2   3
ATOM      3  N   UNL     1      -2.483  -7.437   0.228  1.00  0.00    -0.352 N 
ATOM      4  C   UNL     1      -2.976  -6.197   0.538  1.00  0.00     0.251 C 
ATOM      5  O   UNL     1      -3.975  -6.169   1.260  1.00  0.00    -0.269 OA
ATOM      6  H   UNL     1      -3.024  -8.170   0.601  1.00  0.00     0.163 HD
BRANCH   4   7
ATOM      7  C   UNL     1      -2.449  -4.910  -0.010  1.00  0.00     0.041 A 
ATOM      8  C   UNL     1      -2.971  -2.572  -0.538  1.00  0.00     0.107 A 
ATOM      9  C   UNL     1      -3.292  -3.792   0.086  1.00  0.00     0.037 A 
ATOM     10  C   UNL     1      -1.848  -2.497  -1.353  1.00  0.00     0.061 A 
ATOM     11  C   UNL     1      -0.932  -3.553  -1.327  1.00  0.00     0.023 A 
ATOM     12  Cl  UNL     1      -1.526  -1.216  -2.463  1.00  0.00    -0.083 Cl
ATOM     13  C   UNL     1      -1.209  -4.729  -0.618  1.00  0.00     0.015 A 
BRANCH   8  14
ATOM     14  S   UNL     1      -3.988  -1.181  -0.124  1.00  0.00     0.264 S 
ATOM     15  O   UNL     1      -4.463  -1.370   1.237  1.00  0.00    -0.201 OA
ATOM     16  O   UNL     1      -4.940  -1.044  -1.203  1.00  0.00    -0.201 OA
BRANCH  14  17
ATOM     17  N   UNL     1      -3.097   0.223  -0.145  1.00  0.00    -0.263 N 
ATOM     18  H   UNL     1      -3.509   1.025  -0.540  1.00  0.00     0.182 HD
BRANCH  17  19
ATOM     19  C   UNL     1      -1.791   0.336   0.367  1.00  0.00     0.139 A 
ATOM     20  C   UNL     1       2.405   0.154   0.798  1.00  0.00     0.046 C 
ATOM     21  C   UNL     1       0.917   0.310   0.766  1.00  0.00    -0.033 A 
ATOM     22  C   UNL     1       0.322   1.436   0.201  1.00  0.00     0.009 A 
ATOM     23  C   UNL     1       0.075  -0.713   1.189  1.00  0.00     0.117 A 
ATOM     24  C   UNL     1      -1.057   1.460   0.015  1.00  0.00     0.048 A 
ATOM     25  N   UNL     1      -1.268  -0.716   1.010  1.00  0.00    -0.238 NA
ENDBRANCH  17  19
ENDBRANCH  14  17
ENDBRANCH   8  14
ENDBRANCH   4   7
ENDBRANCH   2   3
ENDBRANCH   1   2
BRANCH   1  26
ATOM     26  C   UNL     1      -0.195  -9.551   1.034  1.00  0.00     0.118 C 
BRANCH  26  27
ATOM     27  N   UNL     1       0.132 -10.582   0.058  1.00  0.00    -0.352 N 
ATOM     28  C   UNL     1       0.964 -11.665   0.167  1.00  0.00     0.251 C 
ATOM     29  H   UNL     1      -0.315 -10.485  -0.814  1.00  0.00     0.163 HD
ATOM     30  O   UNL     1       1.272 -12.279  -0.853  1.00  0.00    -0.269 OA
BRANCH  28  31
ATOM     31  C   UNL     1       1.499 -12.095   1.478  1.00  0.00     0.039 A 
ATOM     32  C   UNL     1       2.815 -12.568   1.534  1.00  0.00     0.014 A 
ATOM     33  C   UNL     1       0.704 -12.114   2.629  1.00  0.00     0.014 A 
ATOM     34  C   UNL     1       3.340 -13.032   2.741  1.00  0.00     0.010 A 
ATOM     35  C   UNL     1       1.245 -12.534   3.845  1.00  0.00     0.010 A 
ATOM     36  C   UNL     1       2.564 -13.008   3.910  1.00  0.00    -0.014 A 
BRANCH  36  37
ATOM     37  C   UNL     1       3.126 -13.489   5.197  1.00  0.00     0.031 A 
ATOM     38  C   UNL     1       2.614 -14.755   5.829  1.00  0.00     0.074 A 
ATOM     39  C   UNL     1       4.086 -12.770   5.809  1.00  0.00     0.049 A 
ATOM     40  N   UNL     1       2.993 -15.331   6.942  1.00  0.00    -0.248 NA
ATOM     41  C   UNL     1       1.524 -15.455   5.131  1.00  0.00     0.031 C 
ATOM     42  C   UNL     1       4.638 -11.505   5.320  1.00  0.00     0.029 A 
ATOM     43  N   UNL     1       4.769 -13.003   6.976  1.00  0.00    -0.354 N 
ATOM     44  C   UNL     1       2.180 -16.450   7.086  1.00  0.00     0.074 A 
ATOM     45  C   UNL     1       1.264 -16.451   5.965  1.00  0.00     0.031 C 
ATOM     46  C   UNL     1       5.594 -11.088   6.165  1.00  0.00     0.029 A 
ATOM     47  C   UNL     1       5.708 -12.041   7.264  1.00  0.00     0.049 A 
ATOM     48  H   UNL     1       4.604 -13.784   7.551  1.00  0.00     0.167 HD
ATOM     49  C   UNL     1       2.203 -17.399   8.053  1.00  0.00     0.031 A 
ATOM     50  C   UNL     1       6.570 -11.942   8.294  1.00  0.00     0.031 A 
ATOM     51  C   UNL     1       3.122 -17.406   9.161  1.00  0.00     0.049 A 
ATOM     52  C   UNL     1       6.601 -13.023   9.336  1.00  0.00     0.074 A 
ATOM     53  C   UNL     1       3.252 -18.346  10.168  1.00  0.00     0.029 A 
ATOM     54  N   UNL     1       4.072 -16.426   9.404  1.00  0.00    -0.354 N 
ATOM     55  N   UNL     1       5.858 -14.100   9.425  1.00  0.00    -0.248 NA
ATOM     56  C   UNL     1       7.599 -12.884  10.404  1.00  0.00     0.031 C 
ATOM     57  C   UNL     1       4.265 -17.920  11.037  1.00  0.00     0.029 A 
ATOM     58  C   UNL     1       4.788 -16.734  10.549  1.00  0.00     0.049 A 
ATOM     59  H   UNL     1       4.217 -15.629   8.845  1.00  0.00     0.167 HD
ATOM     60  C   UNL     1       6.312 -14.777  10.551  1.00  0.00     0.074 A 
ATOM     61  C   UNL     1       7.404 -13.996  11.098  1.00  0.00     0.031 C 
ATOM     62  C   UNL     1       5.865 -15.942  11.083  1.00  0.00     0.031 A 
BRANCH  49  63
ATOM     63  C   UNL     1       1.192 -18.509   7.952  1.00  0.00    -0.014 A 
ATOM     64  C   UNL     1       1.323 -19.518   6.980  1.00  0.00     0.010 A 
ATOM     65  C   UNL     1       0.110 -18.557   8.848  1.00  0.00     0.010 A 
ATOM     66  C   UNL     1       0.364 -20.530   6.877  1.00  0.00     0.020 A 
ATOM     67  C   UNL     1      -0.840 -19.580   8.762  1.00  0.00     0.020 A 
ATOM     68  C   UNL     1      -0.717 -20.549   7.763  1.00  0.00     0.054 A 
BRANCH  68  69
ATOM     69  S   UNL     1      -1.947 -21.873   7.613  1.00  0.00     0.124 S 
ATOM     70  O   UNL     1      -2.743 -21.416   6.477  1.00  0.00    -0.237 OA
ATOM     71  O   UNL     1      -1.124 -23.055   7.367  1.00  0.00    -0.237 OA
ATOM     72  O   UNL     1      -2.633 -21.855   8.903  1.00  0.00    -0.744 OA
ENDBRANCH  68  69
ENDBRANCH  49  63
BRANCH  50  73
ATOM     73  C   UNL     1       7.503 -10.787   8.363  1.00  0.00    -0.014 A 
ATOM     74  C   UNL     1       8.861 -10.953   8.040  1.00  0.00     0.010 A 
ATOM     75  C   UNL     1       7.032  -9.512   8.723  1.00  0.00     0.010 A 
ATOM     76  C   UNL     1       9.736  -9.865   8.086  1.00  0.00     0.020 A 
ATOM     77  C   UNL     1       7.901  -8.418   8.749  1.00  0.00     0.020 A 
ATOM     78  C   UNL     1       9.250  -8.603   8.439  1.00  0.00     0.054 A 
BRANCH  78  79
ATOM     79  S   UNL     1      10.384  -7.186   8.422  1.00  0.00     0.124 S 
ATOM     80  O   UNL     1      11.084  -7.343   9.693  1.00  0.00    -0.237 OA
ATOM     81  O   UNL     1      11.184  -7.431   7.224  1.00  0.00    -0.237 OA
ATOM     82  O   UNL     1       9.487  -6.036   8.335  1.00  0.00    -0.744 OA
ENDBRANCH  78  79
ENDBRANCH  50  73
BRANCH  62  83
ATOM     83  C   UNL     1       6.576 -16.446  12.308  1.00  0.00    -0.014 A 
ATOM     84  C   UNL     1       6.369 -15.849  13.564  1.00  0.00     0.010 A 
ATOM     85  C   UNL     1       7.451 -17.543  12.202  1.00  0.00     0.010 A 
ATOM     86  C   UNL     1       7.058 -16.313  14.687  1.00  0.00     0.020 A 
ATOM     87  C   UNL     1       8.125 -18.022  13.328  1.00  0.00     0.020 A 
ATOM     88  C   UNL     1       7.939 -17.391  14.560  1.00  0.00     0.054 A 
BRANCH  88  89
ATOM     89  S   UNL     1       8.815 -17.991  16.031  1.00  0.00     0.124 S 
ATOM     90  O   UNL     1       9.910 -17.032  16.143  1.00  0.00    -0.237 OA
ATOM     91  O   UNL     1       7.795 -17.905  17.075  1.00  0.00    -0.237 OA
ATOM     92  O   UNL     1       9.209 -19.350  15.666  1.00  0.00    -0.744 OA
ENDBRANCH  88  89
ENDBRANCH  62  83
ENDBRANCH  36  37
ENDBRANCH  28  31
ENDBRANCH  26  27
ENDBRANCH   1  26
TORSDOF 16
