REMARK SMILES CC(C)C[N@@H+](C[C@@H](C)C(=O)NCCCNC(=O)c1ccc(-c2c3nc(c(-c4ccc(S(=O)(=O)[O-])cc4)c4ccc([nH]4)c(-c4ccc(S(=O)(=O)[O-])cc4)c4nc(c(-c5ccc(S(=O)(=O)[O-])cc5)c5ccc2[nH]5)C=C4)C=C3)cc1)C1CCCC1
REMARK SMILES IDX 12 1 11 2 9 3 10 4 7 6 8 7 6 8 5 9 4 11 2 12 1 13 3 14 78 15
REMARK SMILES IDX 79 16 82 17 80 18 81 19 13 20 14 21 15 22 16 23 17 25 18 26
REMARK SMILES IDX 19 27 77 28 20 29 76 30 21 31 22 32 23 33 70 34 24 35 75 36
REMARK SMILES IDX 69 37 71 38 25 39 74 40 68 41 67 42 26 44 56 45 37 46 55 47
REMARK SMILES IDX 38 48 41 49 54 50 72 51 39 52 40 53 53 55 73 56 42 57 27 58
REMARK SMILES IDX 28 59 36 60 29 61 35 62 30 63 31 64 32 65 33 66 34 67 57 68
REMARK SMILES IDX 58 69 66 70 59 71 65 72 60 73 61 74 62 75 63 76 64 77 43 78
REMARK SMILES IDX 44 79 52 80 45 81 51 82 46 83 47 84 48 85 49 86 50 87
REMARK H PARENT 11 5 5 10 15 24 71 43 41 54
REMARK Flexibility Score: inf
ROOT
ATOM      1  C   UNL     1      -5.387  -0.279   2.267  1.00  0.00     0.117 C 
ENDROOT
BRANCH   1   2
ATOM      2  N   UNL     1      -5.897   0.257   1.018  1.00  0.00    -0.356 N 
ATOM      3  C   UNL     1      -5.260   0.628  -0.124  1.00  0.00     0.228 C 
ATOM      4  O   UNL     1      -5.926   1.221  -0.977  1.00  0.00    -0.275 OA
ATOM      5  H   UNL     1      -6.874   0.373   0.994  1.00  0.00     0.163 HD
BRANCH   3   6
ATOM      6  C   UNL     1      -3.823   0.206  -0.422  1.00  0.00     0.130 C 
ATOM      7  C   UNL     1      -3.874  -1.305  -0.638  1.00  0.00     0.024 C 
BRANCH   6   8
ATOM      8  C   UNL     1      -2.780   0.857   0.543  1.00  0.00     0.275 C 
BRANCH   8   9
ATOM      9  N   UNL     1      -1.321   0.559   0.487  1.00  0.00    -0.332 N 
ATOM     10  H   UNL     1      -0.817   1.336   0.914  1.00  0.00     0.348 HD
BRANCH   9  11
ATOM     11  C   UNL     1      -0.751   0.648  -0.865  1.00  0.00     0.265 C 
BRANCH  11  12
ATOM     12  C   UNL     1       0.491   1.571  -1.111  1.00  0.00     0.038 C 
ATOM     13  C   UNL     1       1.857   1.054  -0.659  1.00  0.00     0.013 C 
ATOM     14  C   UNL     1       0.601   1.840  -2.623  1.00  0.00     0.013 C 
ENDBRANCH  11  12
ENDBRANCH   9  11
BRANCH   9  15
ATOM     15  C   UNL     1      -0.889  -0.503   1.416  1.00  0.00     0.184 C 
ATOM     16  C   UNL     1      -1.521  -1.882   1.247  1.00  0.00     0.065 C 
ATOM     17  C   UNL     1       0.596  -0.866   1.446  1.00  0.00     0.065 C 
ATOM     18  C   UNL     1      -0.676  -2.840   2.069  1.00  0.00     0.006 C 
ATOM     19  C   UNL     1       0.722  -2.257   2.057  1.00  0.00     0.006 C 
ENDBRANCH   9  15
ENDBRANCH   8   9
ENDBRANCH   6   8
ENDBRANCH   3   6
ENDBRANCH   1   2
BRANCH   1  20
ATOM     20  C   UNL     1      -5.447   0.781   3.362  1.00  0.00     0.042 C 
BRANCH  20  21
ATOM     21  C   UNL     1      -6.872   1.077   3.817  1.00  0.00     0.118 C 
BRANCH  21  22
ATOM     22  N   UNL     1      -7.487  -0.071   4.469  1.00  0.00    -0.352 N 
ATOM     23  C   UNL     1      -8.194  -0.128   5.640  1.00  0.00     0.251 C 
ATOM     24  H   UNL     1      -7.380  -0.929   4.000  1.00  0.00     0.163 HD
ATOM     25  O   UNL     1      -8.463  -1.226   6.131  1.00  0.00    -0.269 OA
BRANCH  23  26
ATOM     26  C   UNL     1      -8.609   1.115   6.319  1.00  0.00     0.039 A 
ATOM     27  C   UNL     1      -8.506   1.186   7.709  1.00  0.00     0.014 A 
ATOM     28  C   UNL     1      -9.104   2.202   5.593  1.00  0.00     0.014 A 
ATOM     29  C   UNL     1      -8.856   2.366   8.364  1.00  0.00     0.010 A 
ATOM     30  C   UNL     1      -9.367   3.406   6.239  1.00  0.00     0.010 A 
ATOM     31  C   UNL     1      -9.256   3.498   7.633  1.00  0.00    -0.014 A 
BRANCH  31  32
ATOM     32  C   UNL     1      -9.547   4.778   8.325  1.00  0.00     0.031 A 
ATOM     33  C   UNL     1     -10.925   5.379   8.281  1.00  0.00     0.074 A 
ATOM     34  C   UNL     1      -8.550   5.410   8.976  1.00  0.00     0.049 A 
ATOM     35  N   UNL     1     -11.368   6.462   8.867  1.00  0.00    -0.248 NA
ATOM     36  C   UNL     1     -11.932   4.692   7.456  1.00  0.00     0.031 C 
ATOM     37  C   UNL     1      -7.157   4.957   9.036  1.00  0.00     0.029 A 
ATOM     38  N   UNL     1      -8.555   6.560   9.723  1.00  0.00    -0.354 N 
ATOM     39  C   UNL     1     -12.697   6.589   8.478  1.00  0.00     0.074 A 
ATOM     40  C   UNL     1     -12.971   5.508   7.557  1.00  0.00     0.031 C 
ATOM     41  C   UNL     1      -6.457   5.790   9.821  1.00  0.00     0.029 A 
ATOM     42  C   UNL     1      -7.336   6.856  10.287  1.00  0.00     0.049 A 
ATOM     43  H   UNL     1      -9.355   7.121   9.844  1.00  0.00     0.167 HD
ATOM     44  C   UNL     1     -13.613   7.507   8.870  1.00  0.00     0.031 A 
ATOM     45  C   UNL     1      -6.968   7.867  11.096  1.00  0.00     0.031 A 
ATOM     46  C   UNL     1     -13.331   8.580   9.787  1.00  0.00     0.049 A 
ATOM     47  C   UNL     1      -8.005   8.868  11.524  1.00  0.00     0.074 A 
ATOM     48  C   UNL     1     -14.200   9.533  10.290  1.00  0.00     0.029 A 
ATOM     49  N   UNL     1     -12.085   8.847  10.337  1.00  0.00    -0.354 N 
ATOM     50  N   UNL     1      -9.277   8.926  11.206  1.00  0.00    -0.248 NA
ATOM     51  C   UNL     1      -7.561   9.927  12.438  1.00  0.00     0.031 C 
ATOM     52  C   UNL     1     -13.467  10.411  11.097  1.00  0.00     0.029 A 
ATOM     53  C   UNL     1     -12.157   9.963  11.154  1.00  0.00     0.049 A 
ATOM     54  H   UNL     1     -11.271   8.320  10.170  1.00  0.00     0.167 HD
ATOM     55  C   UNL     1      -9.792  10.013  11.904  1.00  0.00     0.074 A 
ATOM     56  C   UNL     1      -8.698  10.564  12.679  1.00  0.00     0.031 C 
ATOM     57  C   UNL     1     -11.055  10.509  11.906  1.00  0.00     0.031 A 
BRANCH  44  58
ATOM     58  C   UNL     1     -15.005   7.392   8.301  1.00  0.00    -0.014 A 
ATOM     59  C   UNL     1     -15.847   6.317   8.646  1.00  0.00     0.010 A 
ATOM     60  C   UNL     1     -15.496   8.392   7.442  1.00  0.00     0.010 A 
ATOM     61  C   UNL     1     -17.135   6.224   8.111  1.00  0.00     0.020 A 
ATOM     62  C   UNL     1     -16.795   8.320   6.931  1.00  0.00     0.020 A 
ATOM     63  C   UNL     1     -17.601   7.227   7.256  1.00  0.00     0.054 A 
BRANCH  63  64
ATOM     64  S   UNL     1     -19.287   7.095   6.601  1.00  0.00     0.124 S 
ATOM     65  O   UNL     1     -19.157   5.989   5.655  1.00  0.00    -0.237 OA
ATOM     66  O   UNL     1     -20.073   6.806   7.798  1.00  0.00    -0.237 OA
ATOM     67  O   UNL     1     -19.531   8.403   6.000  1.00  0.00    -0.744 OA
ENDBRANCH  63  64
ENDBRANCH  44  58
BRANCH  45  68
ATOM     68  C   UNL     1      -5.562   7.962  11.576  1.00  0.00    -0.014 A 
ATOM     69  C   UNL     1      -5.248   7.737  12.928  1.00  0.00     0.010 A 
ATOM     70  C   UNL     1      -4.524   8.264  10.676  1.00  0.00     0.010 A 
ATOM     71  C   UNL     1      -3.927   7.835  13.376  1.00  0.00     0.020 A 
ATOM     72  C   UNL     1      -3.198   8.331  11.113  1.00  0.00     0.020 A 
ATOM     73  C   UNL     1      -2.910   8.129  12.463  1.00  0.00     0.054 A 
BRANCH  73  74
ATOM     74  S   UNL     1      -1.197   8.203  13.057  1.00  0.00     0.124 S 
ATOM     75  O   UNL     1      -1.192   9.450  13.815  1.00  0.00    -0.237 OA
ATOM     76  O   UNL     1      -1.084   6.980  13.847  1.00  0.00    -0.237 OA
ATOM     77  O   UNL     1      -0.409   8.214  11.826  1.00  0.00    -0.744 OA
ENDBRANCH  73  74
ENDBRANCH  45  68
BRANCH  57  78
ATOM     78  C   UNL     1     -11.324  11.689  12.805  1.00  0.00    -0.014 A 
ATOM     79  C   UNL     1     -10.767  12.954  12.544  1.00  0.00     0.010 A 
ATOM     80  C   UNL     1     -12.155  11.526  13.928  1.00  0.00     0.010 A 
ATOM     81  C   UNL     1     -10.983  14.017  13.426  1.00  0.00     0.020 A 
ATOM     82  C   UNL     1     -12.403  12.595  14.792  1.00  0.00     0.020 A 
ATOM     83  C   UNL     1     -11.793  13.827  14.549  1.00  0.00     0.054 A 
BRANCH  83  84
ATOM     84  S   UNL     1     -12.052  15.218  15.684  1.00  0.00     0.124 S 
ATOM     85  O   UNL     1     -10.763  15.296  16.365  1.00  0.00    -0.237 OA
ATOM     86  O   UNL     1     -12.352  16.322  14.775  1.00  0.00    -0.237 OA
ATOM     87  O   UNL     1     -13.171  14.782  16.516  1.00  0.00    -0.744 OA
ENDBRANCH  83  84
ENDBRANCH  57  78
ENDBRANCH  31  32
ENDBRANCH  23  26
ENDBRANCH  21  22
ENDBRANCH  20  21
ENDBRANCH   1  20
TORSDOF 18
