REMARK SMILES CN(C)c1cccc(C(=O)CCCC(=O)NCCCNC(=O)c2ccc(-c3c4nc(c(-c5ccc(S(=O)(=O)[O-])cc5)c5ccc([nH]5)c(-c5ccc(S(=O)(=O)[O-])cc5)c5nc(c(-c6ccc(S(=O)(=O)[O-])cc6)c6ccc3[nH]6)C=C5)C=C4)cc2)c1
REMARK SMILES IDX 17 1 16 2 14 3 15 4 13 6 12 7 11 8 9 9 10 10 8 11 4 12 5 13
REMARK SMILES IDX 83 14 6 15 7 16 2 17 1 18 3 19 18 20 19 21 20 22 21 23 22 25
REMARK SMILES IDX 23 26 24 27 82 28 25 29 81 30 26 31 27 32 28 33 75 34 29 35
REMARK SMILES IDX 80 36 74 37 76 38 30 39 79 40 73 41 72 42 31 44 61 45 42 46
REMARK SMILES IDX 60 47 43 48 46 49 59 50 77 51 44 52 45 53 58 55 78 56 47 57
REMARK SMILES IDX 32 58 33 59 41 60 34 61 40 62 35 63 36 64 37 65 38 66 39 67
REMARK SMILES IDX 62 68 63 69 71 70 64 71 70 72 65 73 66 74 67 75 68 76 69 77
REMARK SMILES IDX 48 78 49 79 57 80 50 81 56 82 51 83 52 84 53 85 54 86 55 87
REMARK H PARENT 16 5 20 24 76 43 46 54
REMARK Flexibility Score: inf
ROOT
ATOM      1  C   UNL     1       3.953  -3.016  -0.980  1.00  0.00     0.117 C 
ENDROOT
BRANCH   1   2
ATOM      2  N   UNL     1       4.409  -1.911  -0.165  1.00  0.00    -0.356 N 
ATOM      3  C   UNL     1       4.617  -0.596  -0.390  1.00  0.00     0.220 C 
ATOM      4  O   UNL     1       5.004   0.045   0.597  1.00  0.00    -0.275 OA
ATOM      5  H   UNL     1       4.612  -2.178   0.761  1.00  0.00     0.163 HD
BRANCH   3   6
ATOM      6  C   UNL     1       4.277   0.174  -1.665  1.00  0.00     0.100 C 
BRANCH   6   7
ATOM      7  C   UNL     1       4.792  -0.142  -3.071  1.00  0.00     0.018 C 
BRANCH   7   8
ATOM      8  C   UNL     1       4.442  -1.399  -3.865  1.00  0.00     0.081 C 
BRANCH   8   9
ATOM      9  C   UNL     1       3.127  -1.541  -4.645  1.00  0.00     0.162 C 
ATOM     10  O   UNL     1       3.123  -1.423  -5.872  1.00  0.00    -0.294 OA
BRANCH   9  11
ATOM     11  C   UNL     1       1.851  -1.984  -4.002  1.00  0.00     0.020 A 
ATOM     12  C   UNL     1       0.251  -1.915  -2.122  1.00  0.00     0.037 A 
ATOM     13  C   UNL     1      -0.553  -2.814  -2.828  1.00  0.00     0.026 A 
ATOM     14  C   UNL     1       1.428  -1.502  -2.763  1.00  0.00     0.037 A 
ATOM     15  C   UNL     1      -0.184  -3.282  -4.096  1.00  0.00     0.003 A 
ATOM     16  C   UNL     1       1.018  -2.876  -4.678  1.00  0.00     0.012 A 
BRANCH  12  17
ATOM     17  N   UNL     1      -0.094  -1.451  -0.856  1.00  0.00    -0.378 N 
ATOM     18  C   UNL     1       0.481  -0.221  -0.320  1.00  0.00     0.143 C 
ATOM     19  C   UNL     1      -0.615  -2.410   0.113  1.00  0.00     0.143 C 
ENDBRANCH  12  17
ENDBRANCH   9  11
ENDBRANCH   8   9
ENDBRANCH   7   8
ENDBRANCH   6   7
ENDBRANCH   3   6
ENDBRANCH   1   2
BRANCH   1  20
ATOM     20  C   UNL     1       5.114  -3.893  -1.434  1.00  0.00     0.042 C 
BRANCH  20  21
ATOM     21  C   UNL     1       5.459  -4.974  -0.426  1.00  0.00     0.118 C 
BRANCH  21  22
ATOM     22  N   UNL     1       4.537  -6.103  -0.496  1.00  0.00    -0.352 N 
ATOM     23  C   UNL     1       4.816  -7.444  -0.633  1.00  0.00     0.251 C 
ATOM     24  H   UNL     1       3.581  -5.874  -0.436  1.00  0.00     0.163 HD
ATOM     25  O   UNL     1       3.904  -8.238  -0.847  1.00  0.00    -0.269 OA
BRANCH  23  26
ATOM     26  C   UNL     1       6.217  -7.916  -0.556  1.00  0.00     0.039 A 
ATOM     27  C   UNL     1       6.668  -8.879  -1.463  1.00  0.00     0.014 A 
ATOM     28  C   UNL     1       7.093  -7.386   0.393  1.00  0.00     0.014 A 
ATOM     29  C   UNL     1       8.015  -9.252  -1.463  1.00  0.00     0.010 A 
ATOM     30  C   UNL     1       8.450  -7.675   0.319  1.00  0.00     0.010 A 
ATOM     31  C   UNL     1       8.926  -8.623  -0.599  1.00  0.00    -0.014 A 
BRANCH  31  32
ATOM     32  C   UNL     1      10.375  -8.952  -0.609  1.00  0.00     0.031 A 
ATOM     33  C   UNL     1      11.029  -9.487   0.638  1.00  0.00     0.074 A 
ATOM     34  C   UNL     1      11.118  -8.691  -1.703  1.00  0.00     0.049 A 
ATOM     35  N   UNL     1      12.291  -9.742   0.866  1.00  0.00    -0.248 NA
ATOM     36  C   UNL     1      10.151  -9.729   1.797  1.00  0.00     0.031 C 
ATOM     37  C   UNL     1      10.618  -8.117  -2.954  1.00  0.00     0.029 A 
ATOM     38  N   UNL     1      12.460  -8.867  -1.934  1.00  0.00    -0.354 N 
ATOM     39  C   UNL     1      12.361 -10.141   2.196  1.00  0.00     0.074 A 
ATOM     40  C   UNL     1      11.027 -10.033   2.741  1.00  0.00     0.031 C 
ATOM     41  C   UNL     1      11.631  -8.018  -3.830  1.00  0.00     0.029 A 
ATOM     42  C   UNL     1      12.859  -8.481  -3.192  1.00  0.00     0.049 A 
ATOM     43  H   UNL     1      13.078  -9.235  -1.262  1.00  0.00     0.167 HD
ATOM     44  C   UNL     1      13.432 -10.585   2.897  1.00  0.00     0.031 A 
ATOM     45  C   UNL     1      14.077  -8.495  -3.768  1.00  0.00     0.031 A 
ATOM     46  C   UNL     1      14.752 -10.718   2.342  1.00  0.00     0.049 A 
ATOM     47  C   UNL     1      15.249  -9.017  -2.984  1.00  0.00     0.074 A 
ATOM     48  C   UNL     1      15.893 -11.218   2.943  1.00  0.00     0.029 A 
ATOM     49  N   UNL     1      15.105 -10.352   1.052  1.00  0.00    -0.354 N 
ATOM     50  N   UNL     1      15.284  -9.452  -1.746  1.00  0.00    -0.248 NA
ATOM     51  C   UNL     1      16.544  -9.064  -3.677  1.00  0.00     0.031 C 
ATOM     52  C   UNL     1      16.947 -11.115   2.029  1.00  0.00     0.029 A 
ATOM     53  C   UNL     1      16.450 -10.600   0.841  1.00  0.00     0.049 A 
ATOM     54  H   UNL     1      14.490  -9.972   0.384  1.00  0.00     0.167 HD
ATOM     55  C   UNL     1      16.598  -9.845  -1.519  1.00  0.00     0.074 A 
ATOM     56  C   UNL     1      17.322  -9.611  -2.753  1.00  0.00     0.031 C 
ATOM     57  C   UNL     1      17.154 -10.356  -0.393  1.00  0.00     0.031 A 
BRANCH  44  58
ATOM     58  C   UNL     1      13.206 -10.957   4.340  1.00  0.00    -0.014 A 
ATOM     59  C   UNL     1      12.423 -12.073   4.689  1.00  0.00     0.010 A 
ATOM     60  C   UNL     1      13.778 -10.178   5.362  1.00  0.00     0.010 A 
ATOM     61  C   UNL     1      12.163 -12.366   6.030  1.00  0.00     0.020 A 
ATOM     62  C   UNL     1      13.547 -10.488   6.707  1.00  0.00     0.020 A 
ATOM     63  C   UNL     1      12.720 -11.565   7.031  1.00  0.00     0.054 A 
BRANCH  63  64
ATOM     64  S   UNL     1      12.357 -11.960   8.763  1.00  0.00     0.124 S 
ATOM     65  O   UNL     1      10.979 -11.494   8.895  1.00  0.00    -0.237 OA
ATOM     66  O   UNL     1      12.536 -13.409   8.807  1.00  0.00    -0.237 OA
ATOM     67  O   UNL     1      13.350 -11.191   9.509  1.00  0.00    -0.744 OA
ENDBRANCH  63  64
ENDBRANCH  44  58
BRANCH  45  68
ATOM     68  C   UNL     1      14.234  -8.027  -5.172  1.00  0.00    -0.014 A 
ATOM     69  C   UNL     1      14.454  -8.951  -6.209  1.00  0.00     0.010 A 
ATOM     70  C   UNL     1      14.120  -6.661  -5.487  1.00  0.00     0.010 A 
ATOM     71  C   UNL     1      14.563  -8.517  -7.534  1.00  0.00     0.020 A 
ATOM     72  C   UNL     1      14.202  -6.226  -6.813  1.00  0.00     0.020 A 
ATOM     73  C   UNL     1      14.430  -7.157  -7.828  1.00  0.00     0.054 A 
BRANCH  73  74
ATOM     74  S   UNL     1      14.498  -6.627  -9.563  1.00  0.00     0.124 S 
ATOM     75  O   UNL     1      15.920  -6.752  -9.864  1.00  0.00    -0.237 OA
ATOM     76  O   UNL     1      13.623  -7.593 -10.222  1.00  0.00    -0.237 OA
ATOM     77  O   UNL     1      13.982  -5.260  -9.522  1.00  0.00    -0.744 OA
ENDBRANCH  73  74
ENDBRANCH  45  68
BRANCH  57  78
ATOM     78  C   UNL     1      18.612 -10.723  -0.447  1.00  0.00    -0.014 A 
ATOM     79  C   UNL     1      19.611  -9.734  -0.455  1.00  0.00     0.010 A 
ATOM     80  C   UNL     1      18.986 -12.079  -0.424  1.00  0.00     0.010 A 
ATOM     81  C   UNL     1      20.961 -10.097  -0.469  1.00  0.00     0.020 A 
ATOM     82  C   UNL     1      20.334 -12.445  -0.411  1.00  0.00     0.020 A 
ATOM     83  C   UNL     1      21.313 -11.450  -0.447  1.00  0.00     0.054 A 
BRANCH  83  84
ATOM     84  S   UNL     1      23.071 -11.894  -0.416  1.00  0.00     0.124 S 
ATOM     85  O   UNL     1      23.477 -11.621  -1.792  1.00  0.00    -0.237 OA
ATOM     86  O   UNL     1      23.614 -10.986   0.591  1.00  0.00    -0.237 OA
ATOM     87  O   UNL     1      23.066 -13.305  -0.036  1.00  0.00    -0.744 OA
ENDBRANCH  83  84
ENDBRANCH  57  78
ENDBRANCH  31  32
ENDBRANCH  23  26
ENDBRANCH  21  22
ENDBRANCH  20  21
ENDBRANCH   1  20
TORSDOF 18
