REMARK SMILES COc1ccc(CCNc2ncnc3sc(C(=O)NCCCNC(=O)c4ccc(-c5c6nc(c(-c7ccc(S(=O)(=O)[O-])cc7)c7ccc([nH]7)c(-c7ccc(S(=O)(=O)[O-])cc7)c7nc(c(-c8ccc(S(=O)(=O)[O-])cc8)c8ccc5[nH]8)C=C7)C=C6)cc4)c(C)c23)cc1OC
REMARK SMILES IDX 20 1 19 2 17 3 18 4 16 6 10 7 11 8 88 9 12 10 14 11 86 12
REMARK SMILES IDX 13 13 15 14 87 15 9 16 8 18 7 19 6 20 3 21 4 22 90 23 5 24
REMARK SMILES IDX 89 25 2 26 1 27 91 28 92 29 21 30 22 31 23 32 24 33 25 35
REMARK SMILES IDX 26 36 27 37 85 38 28 39 84 40 29 41 30 42 31 43 78 44 32 45
REMARK SMILES IDX 83 46 77 47 79 48 33 49 82 50 76 51 75 52 34 54 64 55 45 56
REMARK SMILES IDX 63 57 46 58 49 59 62 60 80 61 47 62 48 63 61 65 81 66 50 67
REMARK SMILES IDX 35 68 36 69 44 70 37 71 43 72 38 73 39 74 40 75 41 76 42 77
REMARK SMILES IDX 65 78 66 79 74 80 67 81 73 82 68 83 69 84 70 85 71 86 72 87
REMARK SMILES IDX 51 88 52 89 60 90 53 91 59 92 54 93 55 94 56 95 57 96 58 97
REMARK H PARENT 19 5 9 17 23 34 79 53 49 64
REMARK Flexibility Score: inf
ROOT
ATOM      1  C   UNL     1      -6.002  -1.791 -10.119  1.00  0.00     0.118 C 
ENDROOT
BRANCH   1   2
ATOM      2  N   UNL     1      -5.805  -1.421  -8.732  1.00  0.00    -0.351 N 
ATOM      3  C   UNL     1      -4.894  -1.818  -7.786  1.00  0.00     0.261 C 
ATOM      4  O   UNL     1      -5.078  -1.313  -6.675  1.00  0.00    -0.268 OA
ATOM      5  H   UNL     1      -6.452  -0.755  -8.405  1.00  0.00     0.163 HD
BRANCH   3   6
ATOM      6  C   UNL     1      -3.757  -2.699  -8.071  1.00  0.00     0.098 A 
ATOM      7  C   UNL     1      -0.225  -3.965  -7.742  1.00  0.00     0.138 A 
ATOM      8  N   UNL     1       0.446  -4.717  -8.641  1.00  0.00    -0.219 NA
ATOM      9  C   UNL     1      -1.583  -3.651  -7.996  1.00  0.00     0.057 A 
ATOM     10  C   UNL     1      -0.226  -5.226  -9.684  1.00  0.00     0.225 A 
ATOM     11  C   UNL     1      -2.136  -4.257  -9.106  1.00  0.00     0.129 A 
ATOM     12  C   UNL     1      -2.550  -2.752  -7.370  1.00  0.00    -0.014 A 
ATOM     13  N   UNL     1      -1.518  -5.070  -9.977  1.00  0.00    -0.225 NA
ATOM     14  S   UNL     1      -3.775  -3.900  -9.288  1.00  0.00    -0.110 S 
ATOM     15  C   UNL     1      -2.228  -1.919  -6.174  1.00  0.00     0.047 C 
BRANCH   7  16
ATOM     16  N   UNL     1       0.419  -3.537  -6.607  1.00  0.00    -0.369 N 
ATOM     17  H   UNL     1      -0.114  -3.421  -5.787  1.00  0.00     0.162 HD
BRANCH  16  18
ATOM     18  C   UNL     1       1.838  -3.248  -6.544  1.00  0.00     0.119 C 
BRANCH  18  19
ATOM     19  C   UNL     1       2.075  -1.814  -6.019  1.00  0.00     0.057 C 
BRANCH  19  20
ATOM     20  C   UNL     1       1.855  -1.607  -4.532  1.00  0.00    -0.042 A 
ATOM     21  C   UNL     1       1.429  -1.185  -1.768  1.00  0.00     0.160 A 
ATOM     22  C   UNL     1       0.368  -1.533  -2.599  1.00  0.00     0.051 A 
ATOM     23  C   UNL     1       2.715  -1.044  -2.307  1.00  0.00     0.160 A 
ATOM     24  C   UNL     1       0.587  -1.718  -3.961  1.00  0.00     0.008 A 
ATOM     25  C   UNL     1       2.913  -1.257  -3.685  1.00  0.00     0.054 A 
BRANCH  21  26
ATOM     26  O   UNL     1       1.199  -1.085  -0.423  1.00  0.00    -0.493 OA
ATOM     27  C   UNL     1       0.304  -0.019  -0.098  1.00  0.00     0.278 C 
ENDBRANCH  21  26
BRANCH  23  28
ATOM     28  O   UNL     1       3.870  -0.716  -1.646  1.00  0.00    -0.493 OA
ATOM     29  C   UNL     1       3.745  -0.206  -0.326  1.00  0.00     0.278 C 
ENDBRANCH  23  28
ENDBRANCH  19  20
ENDBRANCH  18  19
ENDBRANCH  16  18
ENDBRANCH   7  16
ENDBRANCH   3   6
ENDBRANCH   1   2
BRANCH   1  30
ATOM     30  C   UNL     1      -6.900  -3.027 -10.242  1.00  0.00     0.042 C 
BRANCH  30  31
ATOM     31  C   UNL     1      -8.370  -2.673 -10.107  1.00  0.00     0.118 C 
BRANCH  31  32
ATOM     32  N   UNL     1      -8.843  -1.884 -11.245  1.00  0.00    -0.352 N 
ATOM     33  C   UNL     1     -10.066  -1.266 -11.428  1.00  0.00     0.251 C 
ATOM     34  H   UNL     1      -8.200  -1.779 -11.983  1.00  0.00     0.163 HD
ATOM     35  O   UNL     1     -10.428  -0.926 -12.538  1.00  0.00    -0.269 OA
BRANCH  33  36
ATOM     36  C   UNL     1     -10.920  -1.043 -10.248  1.00  0.00     0.039 A 
ATOM     37  C   UNL     1     -12.295  -1.287 -10.298  1.00  0.00     0.014 A 
ATOM     38  C   UNL     1     -10.308  -0.635  -9.068  1.00  0.00     0.014 A 
ATOM     39  C   UNL     1     -13.034  -1.203  -9.120  1.00  0.00     0.010 A 
ATOM     40  C   UNL     1     -10.998  -0.723  -7.888  1.00  0.00     0.010 A 
ATOM     41  C   UNL     1     -12.371  -0.943  -7.912  1.00  0.00    -0.014 A 
BRANCH  41  42
ATOM     42  C   UNL     1     -13.076  -0.990  -6.636  1.00  0.00     0.031 A 
ATOM     43  C   UNL     1     -13.766  -2.275  -6.342  1.00  0.00     0.074 A 
ATOM     44  C   UNL     1     -12.900  -0.052  -5.680  1.00  0.00     0.049 A 
ATOM     45  N   UNL     1     -15.037  -2.498  -6.285  1.00  0.00    -0.248 NA
ATOM     46  C   UNL     1     -12.945  -3.493  -6.232  1.00  0.00     0.031 C 
ATOM     47  C   UNL     1     -11.986   1.099  -5.697  1.00  0.00     0.029 A 
ATOM     48  N   UNL     1     -13.401  -0.012  -4.418  1.00  0.00    -0.354 N 
ATOM     49  C   UNL     1     -15.175  -3.828  -5.898  1.00  0.00     0.074 A 
ATOM     50  C   UNL     1     -13.881  -4.433  -6.087  1.00  0.00     0.031 C 
ATOM     51  C   UNL     1     -11.805   1.550  -4.437  1.00  0.00     0.029 A 
ATOM     52  C   UNL     1     -12.731   0.856  -3.564  1.00  0.00     0.049 A 
ATOM     53  H   UNL     1     -14.174  -0.552  -4.133  1.00  0.00     0.167 HD
ATOM     54  C   UNL     1     -16.267  -4.261  -5.202  1.00  0.00     0.031 A 
ATOM     55  C   UNL     1     -12.903   0.976  -2.225  1.00  0.00     0.031 A 
ATOM     56  C   UNL     1     -17.313  -3.268  -5.193  1.00  0.00     0.049 A 
ATOM     57  C   UNL     1     -14.235   0.407  -1.911  1.00  0.00     0.074 A 
ATOM     58  C   UNL     1     -18.059  -2.622  -6.158  1.00  0.00     0.029 A 
ATOM     59  N   UNL     1     -17.434  -2.514  -4.049  1.00  0.00    -0.354 N 
ATOM     60  N   UNL     1     -15.353   0.925  -2.339  1.00  0.00    -0.248 NA
ATOM     61  C   UNL     1     -14.313  -0.988  -1.506  1.00  0.00     0.031 C 
ATOM     62  C   UNL     1     -18.194  -1.284  -5.681  1.00  0.00     0.029 A 
ATOM     63  C   UNL     1     -17.589  -1.205  -4.424  1.00  0.00     0.049 A 
ATOM     64  H   UNL     1     -17.414  -2.853  -3.125  1.00  0.00     0.167 HD
ATOM     65  C   UNL     1     -16.145  -0.164  -2.675  1.00  0.00     0.074 A 
ATOM     66  C   UNL     1     -15.500  -1.308  -2.032  1.00  0.00     0.031 C 
ATOM     67  C   UNL     1     -17.080  -0.077  -3.669  1.00  0.00     0.031 A 
BRANCH  54  68
ATOM     68  C   UNL     1     -16.236  -5.373  -4.176  1.00  0.00    -0.014 A 
ATOM     69  C   UNL     1     -17.438  -5.721  -3.522  1.00  0.00     0.010 A 
ATOM     70  C   UNL     1     -15.044  -5.883  -3.623  1.00  0.00     0.010 A 
ATOM     71  C   UNL     1     -17.435  -6.449  -2.325  1.00  0.00     0.020 A 
ATOM     72  C   UNL     1     -15.032  -6.649  -2.455  1.00  0.00     0.020 A 
ATOM     73  C   UNL     1     -16.226  -6.890  -1.790  1.00  0.00     0.054 A 
BRANCH  73  74
ATOM     74  S   UNL     1     -16.215  -7.709  -0.177  1.00  0.00     0.124 S 
ATOM     75  O   UNL     1     -16.620  -6.624   0.711  1.00  0.00    -0.237 OA
ATOM     76  O   UNL     1     -17.194  -8.776  -0.365  1.00  0.00    -0.237 OA
ATOM     77  O   UNL     1     -14.832  -8.157  -0.031  1.00  0.00    -0.744 OA
ENDBRANCH  73  74
ENDBRANCH  54  68
BRANCH  55  78
ATOM     78  C   UNL     1     -11.883   1.287  -1.194  1.00  0.00    -0.014 A 
ATOM     79  C   UNL     1     -12.257   1.663   0.109  1.00  0.00     0.010 A 
ATOM     80  C   UNL     1     -10.531   0.948  -1.416  1.00  0.00     0.010 A 
ATOM     81  C   UNL     1     -11.327   1.639   1.163  1.00  0.00     0.020 A 
ATOM     82  C   UNL     1      -9.598   0.927  -0.372  1.00  0.00     0.020 A 
ATOM     83  C   UNL     1     -10.007   1.250   0.919  1.00  0.00     0.054 A 
BRANCH  83  84
ATOM     84  S   UNL     1      -8.859   1.047   2.315  1.00  0.00     0.124 S 
ATOM     85  O   UNL     1      -8.632   2.427   2.735  1.00  0.00    -0.237 OA
ATOM     86  O   UNL     1      -9.629   0.222   3.243  1.00  0.00    -0.237 OA
ATOM     87  O   UNL     1      -7.701   0.384   1.718  1.00  0.00    -0.744 OA
ENDBRANCH  83  84
ENDBRANCH  55  78
BRANCH  67  88
ATOM     88  C   UNL     1     -17.450   1.294  -4.191  1.00  0.00    -0.014 A 
ATOM     89  C   UNL     1     -16.542   2.161  -4.833  1.00  0.00     0.010 A 
ATOM     90  C   UNL     1     -18.809   1.649  -4.168  1.00  0.00     0.010 A 
ATOM     91  C   UNL     1     -16.984   3.361  -5.414  1.00  0.00     0.020 A 
ATOM     92  C   UNL     1     -19.258   2.832  -4.760  1.00  0.00     0.020 A 
ATOM     93  C   UNL     1     -18.342   3.688  -5.373  1.00  0.00     0.054 A 
BRANCH  93  94
ATOM     94  S   UNL     1     -18.919   5.216  -6.165  1.00  0.00     0.124 S 
ATOM     95  O   UNL     1     -18.357   6.253  -5.304  1.00  0.00    -0.237 OA
ATOM     96  O   UNL     1     -18.341   5.128  -7.504  1.00  0.00    -0.237 OA
ATOM     97  O   UNL     1     -20.377   5.102  -6.122  1.00  0.00    -0.744 OA
ENDBRANCH  93  94
ENDBRANCH  67  88
ENDBRANCH  41  42
ENDBRANCH  33  36
ENDBRANCH  31  32
ENDBRANCH  30  31
ENDBRANCH   1  30
TORSDOF 19
