REMARK SMILES C[C@H]1CCC[C@@H]1n1c(SCC(=O)NCCCNC(=O)c2ccc(-c3c4nc(c(-c5ccc(S(=O)(=O)[O-])cc5)c5ccc([nH]5)c(-c5ccc(S(=O)(=O)[O-])cc5)c5nc(c(-c6ccc(S(=O)(=O)[O-])cc6)c6ccc3[nH]6)C=C5)C=C4)cc2)nc2cnccc21
REMARK SMILES IDX 15 1 14 2 13 3 11 4 12 5 10 7 9 8 8 9 7 10 86 11 80 12 81 13
REMARK SMILES IDX 85 14 82 15 84 16 83 17 6 18 1 19 2 20 3 21 4 22 5 23 16 24
REMARK SMILES IDX 17 25 18 26 19 28 20 29 21 30 79 31 22 32 78 33 23 34 24 35
REMARK SMILES IDX 25 36 72 37 26 38 77 39 71 40 73 41 27 42 76 43 70 44 69 45
REMARK SMILES IDX 28 47 58 48 39 49 57 50 40 51 43 52 56 53 74 54 41 55 42 56
REMARK SMILES IDX 55 58 75 59 44 60 29 61 30 62 38 63 31 64 37 65 32 66 33 67
REMARK SMILES IDX 34 68 35 69 36 70 59 71 60 72 68 73 61 74 67 75 62 76 63 77
REMARK SMILES IDX 64 78 65 79 66 80 45 81 46 82 54 83 47 84 53 85 48 86 49 87
REMARK SMILES IDX 50 88 51 89 52 90
REMARK H PARENT 13 6 17 27 73 46 43 57
REMARK Flexibility Score: inf
ROOT
ATOM      1  C   UNL     1      -0.891   4.585  -4.198  1.00  0.00     0.042 C 
ENDROOT
BRANCH   1   2
ATOM      2  C   UNL     1      -2.230   4.016  -3.755  1.00  0.00     0.117 C 
BRANCH   2   3
ATOM      3  N   UNL     1      -2.137   2.637  -3.338  1.00  0.00    -0.355 N 
ATOM      4  C   UNL     1      -2.561   2.058  -2.193  1.00  0.00     0.230 C 
ATOM      5  O   UNL     1      -2.786   0.843  -2.263  1.00  0.00    -0.274 OA
ATOM      6  H   UNL     1      -1.702   2.031  -3.981  1.00  0.00     0.163 HD
BRANCH   4   7
ATOM      7  C   UNL     1      -2.893   2.828  -0.941  1.00  0.00     0.178 C 
BRANCH   7   8
ATOM      8  S   UNL     1      -1.691   3.693   0.044  1.00  0.00    -0.078 SA
BRANCH   8   9
ATOM      9  C   UNL     1      -0.009   3.285   0.015  1.00  0.00     0.169 A 
ATOM     10  N   UNL     1       0.676   2.095   0.294  1.00  0.00    -0.315 N 
ATOM     11  C   UNL     1       2.036   2.434   0.359  1.00  0.00     0.072 A 
ATOM     12  N   UNL     1       0.812   4.315   0.108  1.00  0.00    -0.221 NA
ATOM     13  C   UNL     1       2.047   3.826   0.400  1.00  0.00     0.108 A 
ATOM     14  C   UNL     1       3.247   1.736   0.457  1.00  0.00     0.049 A 
ATOM     15  C   UNL     1       3.231   4.509   0.712  1.00  0.00     0.141 A 
ATOM     16  C   UNL     1       4.377   2.493   0.746  1.00  0.00     0.113 A 
ATOM     17  N   UNL     1       4.390   3.829   0.907  1.00  0.00    -0.262 NA
BRANCH  10  18
ATOM     18  C   UNL     1       0.094   0.831   0.759  1.00  0.00     0.093 C 
ATOM     19  C   UNL     1       1.798  -0.444   2.257  1.00  0.00     0.010 C 
ATOM     20  C   UNL     1       1.006  -0.409   0.953  1.00  0.00     0.009 C 
ATOM     21  C   UNL     1       0.045  -1.599   0.891  1.00  0.00     0.005 C 
ATOM     22  C   UNL     1      -0.912  -1.232  -0.215  1.00  0.00     0.002 C 
ATOM     23  C   UNL     1      -0.939   0.286  -0.220  1.00  0.00     0.026 C 
ENDBRANCH  10  18
ENDBRANCH   8   9
ENDBRANCH   7   8
ENDBRANCH   4   7
ENDBRANCH   2   3
ENDBRANCH   1   2
BRANCH   1  24
ATOM     24  C   UNL     1      -0.105   3.736  -5.204  1.00  0.00     0.118 C 
BRANCH  24  25
ATOM     25  N   UNL     1      -0.825   3.285  -6.383  1.00  0.00    -0.352 N 
ATOM     26  C   UNL     1      -1.118   3.832  -7.603  1.00  0.00     0.251 C 
ATOM     27  H   UNL     1      -1.185   2.375  -6.280  1.00  0.00     0.163 HD
ATOM     28  O   UNL     1      -1.568   3.054  -8.450  1.00  0.00    -0.269 OA
BRANCH  26  29
ATOM     29  C   UNL     1      -1.015   5.277  -7.937  1.00  0.00     0.039 A 
ATOM     30  C   UNL     1      -0.410   6.244  -7.139  1.00  0.00     0.014 A 
ATOM     31  C   UNL     1      -1.656   5.688  -9.122  1.00  0.00     0.014 A 
ATOM     32  C   UNL     1      -0.582   7.594  -7.419  1.00  0.00     0.010 A 
ATOM     33  C   UNL     1      -1.791   7.037  -9.433  1.00  0.00     0.010 A 
ATOM     34  C   UNL     1      -1.314   7.991  -8.540  1.00  0.00    -0.014 A 
BRANCH  34  35
ATOM     35  C   UNL     1      -1.520   9.422  -8.741  1.00  0.00     0.031 A 
ATOM     36  C   UNL     1      -0.290  10.246  -8.935  1.00  0.00     0.074 A 
ATOM     37  C   UNL     1      -2.741   9.983  -8.834  1.00  0.00     0.049 A 
ATOM     38  N   UNL     1       0.135  11.242  -8.226  1.00  0.00    -0.248 NA
ATOM     39  C   UNL     1       0.620   9.855 -10.021  1.00  0.00     0.031 C 
ATOM     40  C   UNL     1      -4.042   9.322  -8.974  1.00  0.00     0.029 A 
ATOM     41  N   UNL     1      -3.055  11.303  -8.941  1.00  0.00    -0.354 N 
ATOM     42  C   UNL     1       1.297  11.702  -8.847  1.00  0.00     0.074 A 
ATOM     43  C   UNL     1       1.598  10.751  -9.889  1.00  0.00     0.031 C 
ATOM     44  C   UNL     1      -4.953  10.226  -9.402  1.00  0.00     0.029 A 
ATOM     45  C   UNL     1      -4.339  11.543  -9.409  1.00  0.00     0.049 A 
ATOM     46  H   UNL     1      -2.427  12.024  -8.707  1.00  0.00     0.167 HD
ATOM     47  C   UNL     1       1.873  12.902  -8.550  1.00  0.00     0.031 A 
ATOM     48  C   UNL     1      -4.817  12.728  -9.863  1.00  0.00     0.031 A 
ATOM     49  C   UNL     1       1.388  13.442  -7.311  1.00  0.00     0.049 A 
ATOM     50  C   UNL     1      -3.948  13.797  -9.311  1.00  0.00     0.074 A 
ATOM     51  C   UNL     1       1.454  13.043  -5.991  1.00  0.00     0.029 A 
ATOM     52  N   UNL     1       0.420  14.415  -7.363  1.00  0.00    -0.354 N 
ATOM     53  N   UNL     1      -3.877  14.097  -8.044  1.00  0.00    -0.248 NA
ATOM     54  C   UNL     1      -2.841  14.268 -10.129  1.00  0.00     0.031 C 
ATOM     55  C   UNL     1       0.201  13.424  -5.433  1.00  0.00     0.029 A 
ATOM     56  C   UNL     1      -0.527  14.076  -6.431  1.00  0.00     0.049 A 
ATOM     57  H   UNL     1       0.409  15.202  -7.954  1.00  0.00     0.167 HD
ATOM     58  C   UNL     1      -2.546  14.424  -7.830  1.00  0.00     0.074 A 
ATOM     59  C   UNL     1      -1.979  14.601  -9.165  1.00  0.00     0.031 C 
ATOM     60  C   UNL     1      -1.954  14.261  -6.610  1.00  0.00     0.031 A 
BRANCH  47  61
ATOM     61  C   UNL     1       2.702  13.723  -9.507  1.00  0.00    -0.014 A 
ATOM     62  C   UNL     1       2.722  13.495 -10.896  1.00  0.00     0.010 A 
ATOM     63  C   UNL     1       3.300  14.919  -9.050  1.00  0.00     0.010 A 
ATOM     64  C   UNL     1       3.305  14.401 -11.788  1.00  0.00     0.020 A 
ATOM     65  C   UNL     1       3.847  15.856  -9.940  1.00  0.00     0.020 A 
ATOM     66  C   UNL     1       3.845  15.588 -11.306  1.00  0.00     0.054 A 
BRANCH  66  67
ATOM     67  S   UNL     1       4.450  16.802 -12.506  1.00  0.00     0.124 S 
ATOM     68  O   UNL     1       5.648  16.145 -13.021  1.00  0.00    -0.237 OA
ATOM     69  O   UNL     1       3.333  16.899 -13.442  1.00  0.00    -0.237 OA
ATOM     70  O   UNL     1       4.688  17.994 -11.697  1.00  0.00    -0.744 OA
ENDBRANCH  66  67
ENDBRANCH  47  61
BRANCH  48  71
ATOM     71  C   UNL     1      -5.624  12.934 -11.094  1.00  0.00    -0.014 A 
ATOM     72  C   UNL     1      -5.577  11.986 -12.137  1.00  0.00     0.010 A 
ATOM     73  C   UNL     1      -6.166  14.201 -11.380  1.00  0.00     0.010 A 
ATOM     74  C   UNL     1      -5.960  12.319 -13.439  1.00  0.00     0.020 A 
ATOM     75  C   UNL     1      -6.547  14.545 -12.688  1.00  0.00     0.020 A 
ATOM     76  C   UNL     1      -6.399  13.612 -13.716  1.00  0.00     0.054 A 
BRANCH  76  77
ATOM     77  S   UNL     1      -6.658  14.079 -15.451  1.00  0.00     0.124 S 
ATOM     78  O   UNL     1      -5.297  14.003 -15.987  1.00  0.00    -0.237 OA
ATOM     79  O   UNL     1      -7.569  13.033 -15.923  1.00  0.00    -0.237 OA
ATOM     80  O   UNL     1      -7.229  15.411 -15.374  1.00  0.00    -0.744 OA
ENDBRANCH  76  77
ENDBRANCH  48  71
BRANCH  60  81
ATOM     81  C   UNL     1      -2.810  13.948  -5.401  1.00  0.00    -0.014 A 
ATOM     82  C   UNL     1      -2.587  14.703  -4.233  1.00  0.00     0.010 A 
ATOM     83  C   UNL     1      -3.635  12.809  -5.313  1.00  0.00     0.010 A 
ATOM     84  C   UNL     1      -3.128  14.310  -3.007  1.00  0.00     0.020 A 
ATOM     85  C   UNL     1      -4.204  12.424  -4.089  1.00  0.00     0.020 A 
ATOM     86  C   UNL     1      -3.921  13.162  -2.938  1.00  0.00     0.054 A 
BRANCH  86  87
ATOM     87  S   UNL     1      -4.534  12.641  -1.312  1.00  0.00     0.124 S 
ATOM     88  O   UNL     1      -3.316  12.169  -0.658  1.00  0.00    -0.237 OA
ATOM     89  O   UNL     1      -5.094  13.876  -0.767  1.00  0.00    -0.237 OA
ATOM     90  O   UNL     1      -5.515  11.602  -1.619  1.00  0.00    -0.744 OA
ENDBRANCH  86  87
ENDBRANCH  60  81
ENDBRANCH  34  35
ENDBRANCH  26  29
ENDBRANCH  24  25
ENDBRANCH   1  24
TORSDOF 16
