REMARK SMILES CS(=O)(=O)Nc1ccc(-c2cc(Cl)cc3c2O[C@H](C(F)(F)F)C(C(=O)NCCCNC(=O)c2ccc(-c4c5nc(c(-c6ccc(S(=O)(=O)[O-])cc6)c6ccc([nH]6)c(-c6ccc(S(=O)(=O)[O-])cc6)c6nc(c(-c7ccc(S(=O)(=O)[O-])cc7)c7ccc4[nH]7)C=C6)C=C5)cc2)=C3)cc1
REMARK SMILES IDX 28 1 27 2 26 3 24 4 25 5 23 7 10 8 11 9 16 10 12 11 15 12
REMARK SMILES IDX 17 13 13 14 14 15 93 16 18 17 9 18 6 19 7 20 95 21 8 22
REMARK SMILES IDX 94 23 5 24 2 26 1 27 3 28 4 29 19 30 20 31 21 32 22 33 29 34
REMARK SMILES IDX 30 35 31 36 32 38 33 39 34 40 92 41 35 42 91 43 36 44 37 45
REMARK SMILES IDX 38 46 85 47 39 48 90 49 84 50 86 51 40 52 89 53 83 54 82 55
REMARK SMILES IDX 41 57 71 58 52 59 70 60 53 61 56 62 69 63 87 64 54 65 55 66
REMARK SMILES IDX 68 68 88 69 57 70 42 71 43 72 51 73 44 74 50 75 45 76 46 77
REMARK SMILES IDX 47 78 48 79 49 80 72 81 73 82 81 83 74 84 80 85 75 86 76 87
REMARK SMILES IDX 77 88 78 89 79 90 58 91 59 92 67 93 60 94 66 95 61 96 62 97
REMARK SMILES IDX 63 98 64 99 65 100
REMARK H PARENT 26 6 5 25 30 37 86 56 56 67
REMARK Flexibility Score: inf
ROOT
ATOM      1  C   UNL     1      11.203  -0.352  10.768  1.00  0.00     0.042 C 
ENDROOT
BRANCH   1   2
ATOM      2  C   UNL     1      10.745  -1.174   9.561  1.00  0.00     0.118 C 
BRANCH   2   3
ATOM      3  N   UNL     1       9.310  -1.380   9.612  1.00  0.00    -0.352 N 
ATOM      4  C   UNL     1       8.386  -0.947   8.719  1.00  0.00     0.251 C 
ATOM      5  O   UNL     1       7.299  -0.545   9.117  1.00  0.00    -0.270 OA
ATOM      6  H   UNL     1       8.969  -1.891  10.380  1.00  0.00     0.163 HD
BRANCH   4   7
ATOM      7  C   UNL     1       8.696  -1.137   7.272  1.00  0.00     0.067 C 
ATOM      8  C   UNL     1       5.146   0.049   5.669  1.00  0.00     0.026 A 
ATOM      9  C   UNL     1       4.129  -0.583   6.439  1.00  0.00     0.033 A 
ATOM     10  C   UNL     1       6.451  -0.442   5.855  1.00  0.00     0.135 A 
ATOM     11  C   UNL     1       4.355  -1.720   7.210  1.00  0.00     0.042 A 
ATOM     12  C   UNL     1       6.635  -1.672   6.542  1.00  0.00     0.019 A 
ATOM     13  O   UNL     1       7.593   0.243   5.459  1.00  0.00    -0.475 OA
ATOM     14  Cl  UNL     1       3.076  -2.390   8.141  1.00  0.00    -0.084 Cl
ATOM     15  C   UNL     1       5.597  -2.318   7.206  1.00  0.00     0.032 A 
ATOM     16  C   UNL     1       8.017  -2.165   6.728  1.00  0.00     0.025 C 
ATOM     17  C   UNL     1       8.730   0.132   6.432  1.00  0.00     0.314 C 
BRANCH   8  18
ATOM     18  C   UNL     1       4.627   1.002   4.642  1.00  0.00    -0.014 A 
ATOM     19  C   UNL     1       2.640   1.839   2.768  1.00  0.00     0.048 A 
ATOM     20  C   UNL     1       2.631   2.309   4.084  1.00  0.00     0.027 A 
ATOM     21  C   UNL     1       3.735   1.086   2.351  1.00  0.00     0.027 A 
ATOM     22  C   UNL     1       3.630   1.931   4.996  1.00  0.00     0.011 A 
ATOM     23  C   UNL     1       4.724   0.678   3.276  1.00  0.00     0.011 A 
BRANCH  19  24
ATOM     24  N   UNL     1       1.411   1.958   2.049  1.00  0.00    -0.284 N 
ATOM     25  H   UNL     1       0.628   2.249   2.571  1.00  0.00     0.180 HD
BRANCH  24  26
ATOM     26  S   UNL     1       1.150   1.664   0.435  1.00  0.00     0.229 S 
ATOM     27  C   UNL     1       1.117  -0.116   0.322  1.00  0.00     0.183 C 
ATOM     28  O   UNL     1       2.259   2.170  -0.346  1.00  0.00    -0.207 OA
ATOM     29  O   UNL     1      -0.202   2.121   0.188  1.00  0.00    -0.207 OA
ENDBRANCH  24  26
ENDBRANCH  19  24
ENDBRANCH   8  18
BRANCH  17  30
ATOM     30  C   UNL     1      10.106   0.188   5.726  1.00  0.00     0.429 C 
ATOM     31  F   UNL     1      10.008   0.063   4.383  1.00  0.00    -0.167 F 
ATOM     32  F   UNL     1      10.746   1.351   5.987  1.00  0.00    -0.167 F 
ATOM     33  F   UNL     1      10.943  -0.803   6.139  1.00  0.00    -0.167 F 
ENDBRANCH  17  30
ENDBRANCH   4   7
ENDBRANCH   2   3
ENDBRANCH   1   2
BRANCH   1  34
ATOM     34  C   UNL     1      10.907  -0.985  12.126  1.00  0.00     0.118 C 
BRANCH  34  35
ATOM     35  N   UNL     1      11.540  -2.282  12.302  1.00  0.00    -0.352 N 
ATOM     36  C   UNL     1      12.342  -2.731  13.323  1.00  0.00     0.251 C 
ATOM     37  H   UNL     1      11.368  -2.934  11.585  1.00  0.00     0.163 HD
ATOM     38  O   UNL     1      12.915  -3.811  13.212  1.00  0.00    -0.269 OA
BRANCH  36  39
ATOM     39  C   UNL     1      12.536  -1.906  14.536  1.00  0.00     0.039 A 
ATOM     40  C   UNL     1      13.820  -1.792  15.072  1.00  0.00     0.014 A 
ATOM     41  C   UNL     1      11.462  -1.253  15.147  1.00  0.00     0.014 A 
ATOM     42  C   UNL     1      14.034  -0.980  16.188  1.00  0.00     0.010 A 
ATOM     43  C   UNL     1      11.694  -0.372  16.201  1.00  0.00     0.010 A 
ATOM     44  C   UNL     1      12.979  -0.237  16.744  1.00  0.00    -0.014 A 
BRANCH  44  45
ATOM     45  C   UNL     1      13.213   0.673  17.897  1.00  0.00     0.031 A 
ATOM     46  C   UNL     1      12.517   0.437  19.212  1.00  0.00     0.074 A 
ATOM     47  C   UNL     1      14.025   1.740  17.748  1.00  0.00     0.049 A 
ATOM     48  N   UNL     1      12.614   1.113  20.329  1.00  0.00    -0.248 NA
ATOM     49  C   UNL     1      11.566  -0.684  19.273  1.00  0.00     0.031 C 
ATOM     50  C   UNL     1      14.707   2.118  16.507  1.00  0.00     0.029 A 
ATOM     51  N   UNL     1      14.417   2.700  18.647  1.00  0.00    -0.354 N 
ATOM     52  C   UNL     1      11.726   0.512  21.215  1.00  0.00     0.074 A 
ATOM     53  C   UNL     1      11.056  -0.543  20.488  1.00  0.00     0.031 C 
ATOM     54  C   UNL     1      15.462   3.204  16.734  1.00  0.00     0.029 A 
ATOM     55  C   UNL     1      15.291   3.623  18.122  1.00  0.00     0.049 A 
ATOM     56  H   UNL     1      14.102   2.726  19.579  1.00  0.00     0.167 HD
ATOM     57  C   UNL     1      11.502   0.797  22.520  1.00  0.00     0.031 A 
ATOM     58  C   UNL     1      15.891   4.687  18.690  1.00  0.00     0.031 A 
ATOM     59  C   UNL     1      12.176   1.845  23.241  1.00  0.00     0.049 A 
ATOM     60  C   UNL     1      15.650   4.969  20.147  1.00  0.00     0.074 A 
ATOM     61  C   UNL     1      12.075   2.169  24.583  1.00  0.00     0.029 A 
ATOM     62  N   UNL     1      13.069   2.745  22.679  1.00  0.00    -0.354 N 
ATOM     63  N   UNL     1      14.874   4.332  20.993  1.00  0.00    -0.248 NA
ATOM     64  C   UNL     1      16.384   6.098  20.731  1.00  0.00     0.031 C 
ATOM     65  C   UNL     1      12.857   3.306  24.817  1.00  0.00     0.029 A 
ATOM     66  C   UNL     1      13.504   3.645  23.639  1.00  0.00     0.049 A 
ATOM     67  H   UNL     1      13.353   2.745  21.736  1.00  0.00     0.167 HD
ATOM     68  C   UNL     1      15.044   4.971  22.216  1.00  0.00     0.074 A 
ATOM     69  C   UNL     1      16.015   6.026  22.003  1.00  0.00     0.031 C 
ATOM     70  C   UNL     1      14.453   4.706  23.409  1.00  0.00     0.031 A 
BRANCH  57  71
ATOM     71  C   UNL     1      10.467  -0.029  23.244  1.00  0.00    -0.014 A 
ATOM     72  C   UNL     1      10.666  -1.400  23.497  1.00  0.00     0.010 A 
ATOM     73  C   UNL     1       9.281   0.579  23.693  1.00  0.00     0.010 A 
ATOM     74  C   UNL     1       9.675  -2.157  24.129  1.00  0.00     0.020 A 
ATOM     75  C   UNL     1       8.302  -0.166  24.358  1.00  0.00     0.020 A 
ATOM     76  C   UNL     1       8.497  -1.535  24.552  1.00  0.00     0.054 A 
BRANCH  76  77
ATOM     77  S   UNL     1       7.230  -2.540  25.372  1.00  0.00     0.124 S 
ATOM     78  O   UNL     1       6.706  -3.330  24.260  1.00  0.00    -0.237 OA
ATOM     79  O   UNL     1       8.004  -3.286  26.361  1.00  0.00    -0.237 OA
ATOM     80  O   UNL     1       6.305  -1.553  25.923  1.00  0.00    -0.744 OA
ENDBRANCH  76  77
ENDBRANCH  57  71
BRANCH  58  81
ATOM     81  C   UNL     1      16.799   5.542  17.876  1.00  0.00    -0.014 A 
ATOM     82  C   UNL     1      18.189   5.525  18.087  1.00  0.00     0.010 A 
ATOM     83  C   UNL     1      16.274   6.353  16.852  1.00  0.00     0.010 A 
ATOM     84  C   UNL     1      19.036   6.306  17.295  1.00  0.00     0.020 A 
ATOM     85  C   UNL     1      17.120   7.112  16.038  1.00  0.00     0.020 A 
ATOM     86  C   UNL     1      18.496   7.088  16.270  1.00  0.00     0.054 A 
BRANCH  86  87
ATOM     87  S   UNL     1      19.622   8.030  15.203  1.00  0.00     0.124 S 
ATOM     88  O   UNL     1      20.069   9.094  16.096  1.00  0.00    -0.237 OA
ATOM     89  O   UNL     1      20.629   7.032  14.850  1.00  0.00    -0.237 OA
ATOM     90  O   UNL     1      18.767   8.458  14.097  1.00  0.00    -0.744 OA
ENDBRANCH  86  87
ENDBRANCH  58  81
BRANCH  70  91
ATOM     91  C   UNL     1      14.863   5.559  24.583  1.00  0.00    -0.014 A 
ATOM     92  C   UNL     1      14.522   6.922  24.657  1.00  0.00     0.010 A 
ATOM     93  C   UNL     1      15.591   4.979  25.638  1.00  0.00     0.010 A 
ATOM     94  C   UNL     1      14.956   7.702  25.733  1.00  0.00     0.020 A 
ATOM     95  C   UNL     1      15.995   5.747  26.733  1.00  0.00     0.020 A 
ATOM     96  C   UNL     1      15.696   7.110  26.760  1.00  0.00     0.054 A 
BRANCH  96  97
ATOM     97  S   UNL     1      16.252   8.143  28.143  1.00  0.00     0.124 S 
ATOM     98  O   UNL     1      17.322   8.922  27.528  1.00  0.00    -0.237 OA
ATOM     99  O   UNL     1      15.046   8.892  28.488  1.00  0.00    -0.237 OA
ATOM    100  O   UNL     1      16.685   7.173  29.147  1.00  0.00    -0.744 OA
ENDBRANCH  96  97
ENDBRANCH  70  91
ENDBRANCH  44  45
ENDBRANCH  36  39
ENDBRANCH  34  35
ENDBRANCH   1  34
TORSDOF 17
