REMARK SMILES CC(C)c1ccc(NC(=O)C[C@H]2SC[C@@H](C(=O)NCCCNC(=O)c3ccc(-c4c5nc(c(-c6ccc(S(=O)(=O)[O-])cc6)c6ccc([nH]6)c(-c6ccc(S(=O)(=O)[O-])cc6)c6nc(c(-c7ccc(S(=O)(=O)[O-])cc7)c7ccc4[nH]7)C=C6)C=C5)cc3)NC2=O)cc1
REMARK SMILES IDX 19 1 18 2 16 3 17 4 15 6 12 7 13 8 86 9 14 10 85 11 87 12
REMARK SMILES IDX 11 14 9 15 8 16 10 18 7 19 4 20 5 21 89 22 6 23 88 24 2 25
REMARK SMILES IDX 1 26 3 27 20 28 21 29 22 30 23 31 24 33 25 34 26 35 84 36
REMARK SMILES IDX 27 37 83 38 28 39 29 40 30 41 77 42 31 43 82 44 76 45 78 46
REMARK SMILES IDX 32 47 81 48 75 49 74 50 33 52 63 53 44 54 62 55 45 56 48 57
REMARK SMILES IDX 61 58 79 59 46 60 47 61 60 63 80 64 49 65 34 66 35 67 43 68
REMARK SMILES IDX 36 69 42 70 37 71 38 72 39 73 40 74 41 75 64 76 65 77 73 78
REMARK SMILES IDX 66 79 72 80 67 81 68 82 69 83 70 84 71 85 50 86 51 87 59 88
REMARK SMILES IDX 52 89 58 90 53 91 54 92 55 93 56 94 57 95
REMARK H PARENT 18 5 85 13 8 17 22 32 78 51 48 62
REMARK Flexibility Score: inf
ROOT
ATOM      1  C   UNL     1       1.092   1.578  -0.923  1.00  0.00     0.117 C 
ENDROOT
BRANCH   1   2
ATOM      2  N   UNL     1       0.462   2.149   0.250  1.00  0.00    -0.354 N 
ATOM      3  C   UNL     1      -0.532   3.088   0.307  1.00  0.00     0.243 C 
ATOM      4  O   UNL     1      -0.623   3.753   1.337  1.00  0.00    -0.273 OA
ATOM      5  H   UNL     1       0.791   1.820   1.117  1.00  0.00     0.163 HD
BRANCH   3   6
ATOM      6  C   UNL     1      -1.621   3.063  -0.785  1.00  0.00     0.181 C 
ATOM      7  C   UNL     1      -4.279   3.343   0.714  1.00  0.00     0.145 C 
ATOM      8  S   UNL     1      -3.432   4.934   0.327  1.00  0.00    -0.145 SA
ATOM      9  C   UNL     1      -3.326   2.141   0.728  1.00  0.00     0.234 C 
ATOM     10  C   UNL     1      -2.325   4.394  -1.008  1.00  0.00     0.105 C 
ATOM     11  N   UNL     1      -2.495   1.979  -0.355  1.00  0.00    -0.343 N 
ATOM     12  O   UNL     1      -3.331   1.231   1.552  1.00  0.00    -0.274 OA
ATOM     13  H   UNL     1      -2.490   1.124  -0.844  1.00  0.00     0.164 HD
BRANCH   7  14
ATOM     14  C   UNL     1      -5.164   3.579   1.948  1.00  0.00     0.124 C 
BRANCH  14  15
ATOM     15  C   UNL     1      -5.399   2.465   2.947  1.00  0.00     0.226 C 
ATOM     16  N   UNL     1      -5.886   1.240   2.619  1.00  0.00    -0.326 N 
ATOM     17  H   UNL     1      -5.955   0.624   3.384  1.00  0.00     0.169 HD
ATOM     18  O   UNL     1      -5.161   2.666   4.145  1.00  0.00    -0.275 OA
BRANCH  16  19
ATOM     19  C   UNL     1      -6.309   0.681   1.409  1.00  0.00     0.041 A 
ATOM     20  C   UNL     1      -6.923  -0.595  -1.027  1.00  0.00    -0.045 A 
ATOM     21  C   UNL     1      -7.196   0.767  -0.837  1.00  0.00     0.006 A 
ATOM     22  C   UNL     1      -6.390  -1.323   0.043  1.00  0.00     0.006 A 
ATOM     23  C   UNL     1      -6.899   1.398   0.375  1.00  0.00     0.026 A 
ATOM     24  C   UNL     1      -6.099  -0.692   1.252  1.00  0.00     0.026 A 
BRANCH  20  25
ATOM     25  C   UNL     1      -7.242  -1.251  -2.356  1.00  0.00     0.013 C 
ATOM     26  C   UNL     1      -6.053  -2.028  -2.929  1.00  0.00     0.012 C 
ATOM     27  C   UNL     1      -8.470  -2.153  -2.221  1.00  0.00     0.012 C 
ENDBRANCH  20  25
ENDBRANCH  16  19
ENDBRANCH  14  15
ENDBRANCH   7  14
ENDBRANCH   3   6
ENDBRANCH   1   2
BRANCH   1  28
ATOM     28  C   UNL     1       2.218   2.489  -1.406  1.00  0.00     0.042 C 
BRANCH  28  29
ATOM     29  C   UNL     1       3.290   2.739  -0.345  1.00  0.00     0.118 C 
BRANCH  29  30
ATOM     30  N   UNL     1       3.976   1.516   0.048  1.00  0.00    -0.352 N 
ATOM     31  C   UNL     1       5.310   1.209  -0.015  1.00  0.00     0.251 C 
ATOM     32  H   UNL     1       3.397   0.807   0.412  1.00  0.00     0.163 HD
ATOM     33  O   UNL     1       5.676   0.046   0.168  1.00  0.00    -0.269 OA
BRANCH  31  34
ATOM     34  C   UNL     1       6.299   2.260  -0.323  1.00  0.00     0.039 A 
ATOM     35  C   UNL     1       7.308   1.989  -1.250  1.00  0.00     0.014 A 
ATOM     36  C   UNL     1       6.237   3.508   0.305  1.00  0.00     0.014 A 
ATOM     37  C   UNL     1       8.216   2.991  -1.597  1.00  0.00     0.010 A 
ATOM     38  C   UNL     1       7.099   4.526  -0.092  1.00  0.00     0.010 A 
ATOM     39  C   UNL     1       8.096   4.279  -1.048  1.00  0.00    -0.014 A 
BRANCH  39  40
ATOM     40  C   UNL     1       8.997   5.382  -1.466  1.00  0.00     0.031 A 
ATOM     41  C   UNL     1       9.937   6.010  -0.473  1.00  0.00     0.074 A 
ATOM     42  C   UNL     1       8.921   5.862  -2.724  1.00  0.00     0.049 A 
ATOM     43  N   UNL     1      10.738   7.033  -0.631  1.00  0.00    -0.248 NA
ATOM     44  C   UNL     1       9.964   5.428   0.878  1.00  0.00     0.031 C 
ATOM     45  C   UNL     1       8.028   5.360  -3.771  1.00  0.00     0.029 A 
ATOM     46  N   UNL     1       9.601   6.886  -3.333  1.00  0.00    -0.354 N 
ATOM     47  C   UNL     1      11.352   7.226   0.601  1.00  0.00     0.074 A 
ATOM     48  C   UNL     1      10.799   6.244   1.508  1.00  0.00     0.031 C 
ATOM     49  C   UNL     1       8.231   6.063  -4.897  1.00  0.00     0.029 A 
ATOM     50  C   UNL     1       9.235   7.091  -4.642  1.00  0.00     0.049 A 
ATOM     51  H   UNL     1      10.288   7.424  -2.876  1.00  0.00     0.167 HD
ATOM     52  C   UNL     1      12.303   8.128   0.943  1.00  0.00     0.031 A 
ATOM     53  C   UNL     1       9.650   8.010  -5.536  1.00  0.00     0.031 A 
ATOM     54  C   UNL     1      12.860   9.097   0.037  1.00  0.00     0.049 A 
ATOM     55  C   UNL     1      10.695   9.012  -5.126  1.00  0.00     0.074 A 
ATOM     56  C   UNL     1      13.861  10.023   0.277  1.00  0.00     0.029 A 
ATOM     57  N   UNL     1      12.466   9.267  -1.282  1.00  0.00    -0.354 N 
ATOM     58  N   UNL     1      11.299   9.144  -3.970  1.00  0.00    -0.248 NA
ATOM     59  C   UNL     1      11.118   9.982  -6.145  1.00  0.00     0.031 C 
ATOM     60  C   UNL     1      14.041  10.782  -0.884  1.00  0.00     0.029 A 
ATOM     61  C   UNL     1      13.190  10.294  -1.863  1.00  0.00     0.049 A 
ATOM     62  H   UNL     1      11.774   8.735  -1.737  1.00  0.00     0.167 HD
ATOM     63  C   UNL     1      12.193  10.198  -4.130  1.00  0.00     0.074 A 
ATOM     64  C   UNL     1      12.060  10.655  -5.498  1.00  0.00     0.031 C 
ATOM     65  C   UNL     1      13.046  10.737  -3.226  1.00  0.00     0.031 A 
BRANCH  52  66
ATOM     66  C   UNL     1      12.804   8.107   2.363  1.00  0.00    -0.014 A 
ATOM     67  C   UNL     1      13.618   7.058   2.827  1.00  0.00     0.010 A 
ATOM     68  C   UNL     1      12.498   9.172   3.230  1.00  0.00     0.010 A 
ATOM     69  C   UNL     1      14.086   7.056   4.143  1.00  0.00     0.020 A 
ATOM     70  C   UNL     1      12.986   9.186   4.540  1.00  0.00     0.020 A 
ATOM     71  C   UNL     1      13.765   8.119   4.992  1.00  0.00     0.054 A 
BRANCH  71  72
ATOM     72  S   UNL     1      14.413   8.104   6.687  1.00  0.00     0.124 S 
ATOM     73  O   UNL     1      13.582   7.080   7.316  1.00  0.00    -0.237 OA
ATOM     74  O   UNL     1      15.815   7.741   6.492  1.00  0.00    -0.237 OA
ATOM     75  O   UNL     1      14.185   9.467   7.158  1.00  0.00    -0.744 OA
ENDBRANCH  71  72
ENDBRANCH  52  66
BRANCH  53  76
ATOM     76  C   UNL     1       9.082   8.023  -6.911  1.00  0.00    -0.014 A 
ATOM     77  C   UNL     1       9.866   7.630  -8.010  1.00  0.00     0.010 A 
ATOM     78  C   UNL     1       7.752   8.427  -7.128  1.00  0.00     0.010 A 
ATOM     79  C   UNL     1       9.338   7.662  -9.304  1.00  0.00     0.020 A 
ATOM     80  C   UNL     1       7.212   8.434  -8.417  1.00  0.00     0.020 A 
ATOM     81  C   UNL     1       8.014   8.065  -9.499  1.00  0.00     0.054 A 
BRANCH  81  82
ATOM     82  S   UNL     1       7.333   8.056 -11.181  1.00  0.00     0.124 S 
ATOM     83  O   UNL     1       7.946   9.246 -11.762  1.00  0.00    -0.237 OA
ATOM     84  O   UNL     1       7.805   6.778 -11.707  1.00  0.00    -0.237 OA
ATOM     85  O   UNL     1       5.890   8.135 -10.964  1.00  0.00    -0.744 OA
ENDBRANCH  81  82
ENDBRANCH  53  76
BRANCH  65  86
ATOM     86  C   UNL     1      13.928  11.863  -3.695  1.00  0.00    -0.014 A 
ATOM     87  C   UNL     1      13.406  13.148  -3.926  1.00  0.00     0.010 A 
ATOM     88  C   UNL     1      15.307  11.642  -3.858  1.00  0.00     0.010 A 
ATOM     89  C   UNL     1      14.245  14.185  -4.343  1.00  0.00     0.020 A 
ATOM     90  C   UNL     1      16.153  12.682  -4.250  1.00  0.00     0.020 A 
ATOM     91  C   UNL     1      15.613  13.945  -4.504  1.00  0.00     0.054 A 
BRANCH  91  92
ATOM     92  S   UNL     1      16.688  15.317  -5.005  1.00  0.00     0.124 S 
ATOM     93  O   UNL     1      16.369  15.449  -6.424  1.00  0.00    -0.237 OA
ATOM     94  O   UNL     1      16.230  16.413  -4.154  1.00  0.00    -0.237 OA
ATOM     95  O   UNL     1      18.033  14.829  -4.711  1.00  0.00    -0.744 OA
ENDBRANCH  91  92
ENDBRANCH  65  86
ENDBRANCH  39  40
ENDBRANCH  31  34
ENDBRANCH  29  30
ENDBRANCH  28  29
ENDBRANCH   1  28
TORSDOF 17
