REMARK SMILES COc1c(Cl)cc(C(=O)NCCCNC(=O)c2ccc(-c3c4nc(c(-c5ccc(S(=O)(=O)[O-])cc5)c5ccc([nH]5)c(-c5ccc(S(=O)(=O)[O-])cc5)c5nc(c(-c6ccc(S(=O)(=O)[O-])cc6)c6ccc3[nH]6)C=C5)C=C4)cc2)cc1NC(=S)NC(=O)c1cccc(C)c1OC
REMARK SMILES IDX 11 1 10 2 8 3 9 4 7 6 3 7 4 8 78 9 5 10 6 11 77 12 2 13 1 14
REMARK SMILES IDX 79 15 80 17 81 18 82 19 83 20 84 22 85 23 86 24 91 25 87 26
REMARK SMILES IDX 89 27 88 28 90 29 92 30 93 31 12 32 13 33 14 34 15 35 16 37
REMARK SMILES IDX 17 38 18 39 76 40 19 41 75 42 20 43 21 44 22 45 69 46 23 47
REMARK SMILES IDX 74 48 68 49 70 50 24 51 73 52 67 53 66 54 25 56 55 57 36 58
REMARK SMILES IDX 54 59 37 60 40 61 53 62 71 63 38 64 39 65 52 67 72 68 41 69
REMARK SMILES IDX 26 70 27 71 35 72 28 73 34 74 29 75 30 76 31 77 32 78 33 79
REMARK SMILES IDX 56 80 57 81 65 82 58 83 64 84 59 85 60 86 61 87 62 88 63 89
REMARK SMILES IDX 42 90 43 91 51 92 44 93 50 94 45 95 46 96 47 97 48 98 49 99
REMARK H PARENT 10 5 79 16 82 21 14 36 70 55 40 66
REMARK Flexibility Score: inf
ROOT
ATOM      1  C   UNL     1      -0.246   5.220   5.817  1.00  0.00     0.118 C 
ENDROOT
BRANCH   1   2
ATOM      2  N   UNL     1       1.050   4.719   5.309  1.00  0.00    -0.352 N 
ATOM      3  C   UNL     1       1.808   3.900   4.319  1.00  0.00     0.251 C 
ATOM      4  O   UNL     1       2.890   4.328   4.880  1.00  0.00    -0.269 OA
ATOM      5  H   UNL     1       1.732   5.110   5.901  1.00  0.00     0.163 HD
BRANCH   3   6
ATOM      6  C   UNL     1       1.390   2.554   2.701  1.00  0.00     0.043 A 
ATOM      7  C   UNL     1       0.483   0.463   0.561  1.00  0.00     0.160 A 
ATOM      8  C   UNL     1       1.804   0.546   0.975  1.00  0.00     0.086 A 
ATOM      9  C   UNL     1      -0.361   1.351   1.170  1.00  0.00     0.085 A 
ATOM     10  Cl  UNL     1       3.090  -0.368   0.262  1.00  0.00    -0.080 Cl
ATOM     11  C   UNL     1       2.194   1.464   2.024  1.00  0.00     0.038 A 
ATOM     12  C   UNL     1       0.172   2.411   1.879  1.00  0.00     0.044 A 
BRANCH   7  13
ATOM     13  O   UNL     1      -0.082  -0.255  -0.446  1.00  0.00    -0.493 OA
ATOM     14  C   UNL     1       0.352  -1.590  -0.634  1.00  0.00     0.278 C 
ENDBRANCH   7  13
BRANCH   9  15
ATOM     15  N   UNL     1      -1.762   1.328   1.076  1.00  0.00    -0.329 N 
ATOM     16  H   UNL     1      -2.124   0.770   0.350  1.00  0.00     0.169 HD
BRANCH  15  17
ATOM     17  C   UNL     1      -2.697   1.964   1.839  1.00  0.00     0.177 C 
ATOM     18  S   UNL     1      -4.274   2.000   1.271  1.00  0.00    -0.040 S 
BRANCH  17  19
ATOM     19  N   UNL     1      -2.476   2.517   3.100  1.00  0.00    -0.299 N 
ATOM     20  C   UNL     1      -1.524   2.528   4.145  1.00  0.00     0.261 C 
ATOM     21  H   UNL     1      -3.237   3.092   3.344  1.00  0.00     0.172 HD
ATOM     22  O   UNL     1      -1.820   1.957   5.197  1.00  0.00    -0.269 OA
BRANCH  20  23
ATOM     23  C   UNL     1      -0.148   3.147   4.056  1.00  0.00     0.082 A 
ATOM     24  C   UNL     1       1.092   2.010   4.761  1.00  0.00     0.018 A 
ATOM     25  C   UNL     1       0.423   4.505   2.929  1.00  0.00     0.134 A 
ATOM     26  C   UNL     1       2.837   2.124   4.295  1.00  0.00     0.001 A 
ATOM     27  C   UNL     1       2.160   4.540   2.382  1.00  0.00    -0.008 A 
ATOM     28  C   UNL     1       3.371   3.366   3.050  1.00  0.00     0.007 A 
ATOM     29  C   UNL     1       2.503   5.200   1.077  1.00  0.00     0.048 C 
BRANCH  25  30
ATOM     30  O   UNL     1      -0.360   5.322   2.140  1.00  0.00    -0.496 OA
ATOM     31  C   UNL     1      -1.611   5.758   2.634  1.00  0.00     0.278 C 
ENDBRANCH  25  30
ENDBRANCH  20  23
ENDBRANCH  17  19
ENDBRANCH  15  17
ENDBRANCH   9  15
ENDBRANCH   3   6
ENDBRANCH   1   2
BRANCH   1  32
ATOM     32  C   UNL     1      -0.961   4.276   6.774  1.00  0.00     0.042 C 
BRANCH  32  33
ATOM     33  C   UNL     1      -1.136   4.786   8.191  1.00  0.00     0.118 C 
BRANCH  33  34
ATOM     34  N   UNL     1      -1.964   5.979   8.263  1.00  0.00    -0.352 N 
ATOM     35  C   UNL     1      -3.188   6.208   8.839  1.00  0.00     0.251 C 
ATOM     36  H   UNL     1      -1.576   6.765   7.816  1.00  0.00     0.163 HD
ATOM     37  O   UNL     1      -3.755   7.270   8.579  1.00  0.00    -0.269 OA
BRANCH  35  38
ATOM     38  C   UNL     1      -3.841   5.235   9.753  1.00  0.00     0.039 A 
ATOM     39  C   UNL     1      -5.237   5.263   9.865  1.00  0.00     0.014 A 
ATOM     40  C   UNL     1      -3.118   4.364  10.571  1.00  0.00     0.014 A 
ATOM     41  C   UNL     1      -5.891   4.431  10.780  1.00  0.00     0.010 A 
ATOM     42  C   UNL     1      -3.775   3.448  11.390  1.00  0.00     0.010 A 
ATOM     43  C   UNL     1      -5.164   3.510  11.549  1.00  0.00    -0.014 A 
BRANCH  43  44
ATOM     44  C   UNL     1      -5.827   2.676  12.586  1.00  0.00     0.031 A 
ATOM     45  C   UNL     1      -5.439   2.831  14.037  1.00  0.00     0.074 A 
ATOM     46  C   UNL     1      -6.751   1.764  12.229  1.00  0.00     0.049 A 
ATOM     47  N   UNL     1      -5.897   2.199  15.089  1.00  0.00    -0.248 NA
ATOM     48  C   UNL     1      -4.374   3.801  14.346  1.00  0.00     0.031 C 
ATOM     49  C   UNL     1      -7.174   1.480  10.856  1.00  0.00     0.029 A 
ATOM     50  N   UNL     1      -7.504   0.907  12.992  1.00  0.00    -0.354 N 
ATOM     51  C   UNL     1      -5.157   2.671  16.168  1.00  0.00     0.074 A 
ATOM     52  C   UNL     1      -4.180   3.594  15.639  1.00  0.00     0.031 C 
ATOM     53  C   UNL     1      -8.136   0.544  10.878  1.00  0.00     0.029 A 
ATOM     54  C   UNL     1      -8.372   0.135  12.259  1.00  0.00     0.049 A 
ATOM     55  H   UNL     1      -7.428   0.851  13.972  1.00  0.00     0.167 HD
ATOM     56  C   UNL     1      -5.291   2.385  17.486  1.00  0.00     0.031 A 
ATOM     57  C   UNL     1      -9.263  -0.796  12.653  1.00  0.00     0.031 A 
ATOM     58  C   UNL     1      -6.280   1.480  18.009  1.00  0.00     0.049 A 
ATOM     59  C   UNL     1      -9.425  -1.075  14.122  1.00  0.00     0.074 A 
ATOM     60  C   UNL     1      -6.551   1.169  19.329  1.00  0.00     0.029 A 
ATOM     61  N   UNL     1      -7.161   0.740  17.234  1.00  0.00    -0.354 N 
ATOM     62  N   UNL     1      -8.767  -0.562  15.136  1.00  0.00    -0.248 NA
ATOM     63  C   UNL     1     -10.466  -2.037  14.502  1.00  0.00     0.031 C 
ATOM     64  C   UNL     1      -7.558   0.197  19.350  1.00  0.00     0.029 A 
ATOM     65  C   UNL     1      -7.963  -0.044  18.046  1.00  0.00     0.049 A 
ATOM     66  H   UNL     1      -7.209   0.769  16.251  1.00  0.00     0.167 HD
ATOM     67  C   UNL     1      -9.335  -1.118  16.277  1.00  0.00     0.074 A 
ATOM     68  C   UNL     1     -10.400  -1.993  15.826  1.00  0.00     0.031 C 
ATOM     69  C   UNL     1      -9.011  -0.917  17.579  1.00  0.00     0.031 A 
BRANCH  56  70
ATOM     70  C   UNL     1      -4.331   3.048  18.444  1.00  0.00    -0.014 A 
ATOM     71  C   UNL     1      -4.350   4.439  18.660  1.00  0.00     0.010 A 
ATOM     72  C   UNL     1      -3.395   2.266  19.144  1.00  0.00     0.010 A 
ATOM     73  C   UNL     1      -3.412   5.041  19.504  1.00  0.00     0.020 A 
ATOM     74  C   UNL     1      -2.477   2.859  20.017  1.00  0.00     0.020 A 
ATOM     75  C   UNL     1      -2.475   4.246  20.171  1.00  0.00     0.054 A 
BRANCH  75  76
ATOM     76  S   UNL     1      -1.264   5.053  21.255  1.00  0.00     0.124 S 
ATOM     77  O   UNL     1      -0.374   5.690  20.288  1.00  0.00    -0.237 OA
ATOM     78  O   UNL     1      -2.093   5.964  22.040  1.00  0.00    -0.237 OA
ATOM     79  O   UNL     1      -0.678   3.945  22.006  1.00  0.00    -0.744 OA
ENDBRANCH  75  76
ENDBRANCH  56  70
BRANCH  57  80
ATOM     80  C   UNL     1     -10.093  -1.495  11.634  1.00  0.00    -0.014 A 
ATOM     81  C   UNL     1     -11.464  -1.210  11.505  1.00  0.00     0.010 A 
ATOM     82  C   UNL     1      -9.502  -2.415  10.749  1.00  0.00     0.010 A 
ATOM     83  C   UNL     1     -12.229  -1.836  10.516  1.00  0.00     0.020 A 
ATOM     84  C   UNL     1     -10.256  -3.021   9.740  1.00  0.00     0.020 A 
ATOM     85  C   UNL     1     -11.618  -2.732   9.634  1.00  0.00     0.054 A 
BRANCH  85  86
ATOM     86  S   UNL     1     -12.613  -3.469   8.307  1.00  0.00     0.124 S 
ATOM     87  O   UNL     1     -13.454  -4.407   9.043  1.00  0.00    -0.237 OA
ATOM     88  O   UNL     1     -13.300  -2.308   7.747  1.00  0.00    -0.237 OA
ATOM     89  O   UNL     1     -11.616  -4.077   7.429  1.00  0.00    -0.744 OA
ENDBRANCH  85  86
ENDBRANCH  57  80
BRANCH  69  90
ATOM     90  C   UNL     1      -9.846  -1.625  18.614  1.00  0.00    -0.014 A 
ATOM     91  C   UNL     1      -9.779  -3.019  18.788  1.00  0.00     0.010 A 
ATOM     92  C   UNL     1     -10.690  -0.871  19.451  1.00  0.00     0.010 A 
ATOM     93  C   UNL     1     -10.580  -3.651  19.743  1.00  0.00     0.020 A 
ATOM     94  C   UNL     1     -11.467  -1.494  20.429  1.00  0.00     0.020 A 
ATOM     95  C   UNL     1     -11.423  -2.884  20.554  1.00  0.00     0.054 A 
BRANCH  95  96
ATOM     96  S   UNL     1     -12.445  -3.724  21.794  1.00  0.00     0.124 S 
ATOM     97  O   UNL     1     -13.471  -4.352  20.966  1.00  0.00    -0.237 OA
ATOM     98  O   UNL     1     -11.497  -4.640  22.424  1.00  0.00    -0.237 OA
ATOM     99  O   UNL     1     -12.915  -2.637  22.651  1.00  0.00    -0.744 OA
ENDBRANCH  95  96
ENDBRANCH  69  90
ENDBRANCH  43  44
ENDBRANCH  35  38
ENDBRANCH  33  34
ENDBRANCH  32  33
ENDBRANCH   1  32
TORSDOF 19
