REMARK SMILES C/C(=N/OCC(=O)NCCCNC(=O)c1ccc(-c2c3nc(c(-c4ccc(S(=O)(=O)[O-])cc4)c4ccc([nH]4)c(-c4ccc(S(=O)(=O)[O-])cc4)c4nc(c(-c5ccc(S(=O)(=O)[O-])cc5)c5ccc2[nH]5)C=C4)C=C3)cc1)c1ccc(C)cc1
REMARK SMILES IDX 10 1 9 2 8 3 6 4 7 5 5 7 4 8 3 9 1 10 2 11 75 12 76 13 81 14
REMARK SMILES IDX 77 15 80 16 78 17 79 18 11 19 12 20 13 21 14 23 15 24 16 25
REMARK SMILES IDX 74 26 17 27 73 28 18 29 19 30 20 31 67 32 21 33 72 34 66 35
REMARK SMILES IDX 68 36 22 37 71 38 65 39 64 40 23 42 53 43 34 44 52 45 35 46
REMARK SMILES IDX 38 47 51 48 69 49 36 50 37 51 50 53 70 54 39 55 24 56 25 57
REMARK SMILES IDX 33 58 26 59 32 60 27 61 28 62 29 63 30 64 31 65 54 66 55 67
REMARK SMILES IDX 63 68 56 69 62 70 57 71 58 72 59 73 60 74 61 75 40 76 41 77
REMARK SMILES IDX 49 78 42 79 48 80 43 81 44 82 45 83 46 84 47 85
REMARK H PARENT 8 6 12 22 68 41 38 52
REMARK Flexibility Score: inf
ROOT
ATOM      1  C   UNL     1       2.154  -0.859   5.087  1.00  0.00     0.042 C 
ENDROOT
BRANCH   1   2
ATOM      2  C   UNL     1       0.809  -0.768   5.802  1.00  0.00     0.117 C 
BRANCH   2   3
ATOM      3  N   UNL     1       0.197   0.542   5.678  1.00  0.00    -0.353 N 
ATOM      4  C   UNL     1      -0.869   0.920   4.908  1.00  0.00     0.260 C 
ATOM      5  O   UNL     1      -1.263   2.086   4.993  1.00  0.00    -0.271 OA
ATOM      6  H   UNL     1       0.604   1.256   6.221  1.00  0.00     0.163 HD
BRANCH   4   7
ATOM      7  C   UNL     1      -1.606  -0.120   4.069  1.00  0.00     0.363 C 
BRANCH   7   8
ATOM      8  O   UNL     1      -0.776  -0.891   3.219  1.00  0.00    -0.385 OA
BRANCH   8   9
ATOM      9  N   UNL     1      -0.423  -0.139   2.093  1.00  0.00    -0.091 NA
ATOM     10  C   UNL     1       0.868  -0.043   0.069  1.00  0.00     0.071 C 
ATOM     11  C   UNL     1       0.352  -0.794   1.277  1.00  0.00     0.084 C 
BRANCH  11  12
ATOM     12  C   UNL     1       0.781  -2.215   1.420  1.00  0.00    -0.001 A 
ATOM     13  C   UNL     1      -0.158  -3.206   1.727  1.00  0.00     0.010 A 
ATOM     14  C   UNL     1       2.122  -2.567   1.235  1.00  0.00     0.010 A 
ATOM     15  C   UNL     1       0.247  -4.532   1.888  1.00  0.00     0.004 A 
ATOM     16  C   UNL     1       2.522  -3.898   1.385  1.00  0.00     0.004 A 
ATOM     17  C   UNL     1       1.590  -4.888   1.720  1.00  0.00    -0.051 A 
ATOM     18  C   UNL     1       2.018  -6.314   1.910  1.00  0.00     0.044 C 
ENDBRANCH  11  12
ENDBRANCH   8   9
ENDBRANCH   7   8
ENDBRANCH   4   7
ENDBRANCH   2   3
ENDBRANCH   1   2
BRANCH   1  19
ATOM     19  C   UNL     1       3.223   0.091   5.625  1.00  0.00     0.118 C 
BRANCH  19  20
ATOM     20  N   UNL     1       3.552  -0.149   7.026  1.00  0.00    -0.352 N 
ATOM     21  C   UNL     1       4.747  -0.471   7.621  1.00  0.00     0.251 C 
ATOM     22  H   UNL     1       2.792  -0.067   7.647  1.00  0.00     0.163 HD
ATOM     23  O   UNL     1       4.765  -0.780   8.811  1.00  0.00    -0.269 OA
BRANCH  21  24
ATOM     24  C   UNL     1       6.004  -0.481   6.840  1.00  0.00     0.039 A 
ATOM     25  C   UNL     1       6.886  -1.554   7.001  1.00  0.00     0.014 A 
ATOM     26  C   UNL     1       6.321   0.556   5.960  1.00  0.00     0.014 A 
ATOM     27  C   UNL     1       8.034  -1.637   6.208  1.00  0.00     0.010 A 
ATOM     28  C   UNL     1       7.431   0.441   5.124  1.00  0.00     0.010 A 
ATOM     29  C   UNL     1       8.285  -0.668   5.222  1.00  0.00    -0.014 A 
BRANCH  29  30
ATOM     30  C   UNL     1       9.383  -0.836   4.234  1.00  0.00     0.031 A 
ATOM     31  C   UNL     1      10.523   0.142   4.177  1.00  0.00     0.074 A 
ATOM     32  C   UNL     1       9.297  -1.825   3.321  1.00  0.00     0.049 A 
ATOM     33  N   UNL     1      11.504   0.212   3.313  1.00  0.00    -0.248 NA
ATOM     34  C   UNL     1      10.558   1.185   5.213  1.00  0.00     0.031 C 
ATOM     35  C   UNL     1       8.227  -2.824   3.254  1.00  0.00     0.029 A 
ATOM     36  N   UNL     1      10.113  -2.145   2.264  1.00  0.00    -0.354 N 
ATOM     37  C   UNL     1      12.265   1.311   3.691  1.00  0.00     0.074 A 
ATOM     38  C   UNL     1      11.611   1.900   4.841  1.00  0.00     0.031 C 
ATOM     39  C   UNL     1       8.460  -3.651   2.223  1.00  0.00     0.029 A 
ATOM     40  C   UNL     1       9.662  -3.211   1.522  1.00  0.00     0.049 A 
ATOM     41  H   UNL     1      10.943  -1.658   2.058  1.00  0.00     0.167 HD
ATOM     42  C   UNL     1      13.409   1.780   3.136  1.00  0.00     0.031 A 
ATOM     43  C   UNL     1      10.140  -3.760   0.388  1.00  0.00     0.031 A 
ATOM     44  C   UNL     1      14.052   1.194   1.988  1.00  0.00     0.049 A 
ATOM     45  C   UNL     1      11.379  -3.185  -0.241  1.00  0.00     0.074 A 
ATOM     46  C   UNL     1      15.243   1.566   1.388  1.00  0.00     0.029 A 
ATOM     47  N   UNL     1      13.554   0.127   1.256  1.00  0.00    -0.354 N 
ATOM     48  N   UNL     1      12.124  -2.189   0.173  1.00  0.00    -0.248 NA
ATOM     49  C   UNL     1      11.839  -3.805  -1.491  1.00  0.00     0.031 C 
ATOM     50  C   UNL     1      15.430   0.767   0.255  1.00  0.00     0.029 A 
ATOM     51  C   UNL     1      14.389  -0.145   0.185  1.00  0.00     0.049 A 
ATOM     52  H   UNL     1      12.727  -0.365   1.467  1.00  0.00     0.167 HD
ATOM     53  C   UNL     1      13.148  -2.071  -0.759  1.00  0.00     0.074 A 
ATOM     54  C   UNL     1      12.941  -3.112  -1.744  1.00  0.00     0.031 C 
ATOM     55  C   UNL     1      14.166  -1.176  -0.797  1.00  0.00     0.031 A 
BRANCH  42  56
ATOM     56  C   UNL     1      14.037   3.003   3.755  1.00  0.00    -0.014 A 
ATOM     57  C   UNL     1      14.648   2.947   5.021  1.00  0.00     0.010 A 
ATOM     58  C   UNL     1      14.066   4.213   3.036  1.00  0.00     0.010 A 
ATOM     59  C   UNL     1      15.240   4.086   5.572  1.00  0.00     0.020 A 
ATOM     60  C   UNL     1      14.683   5.347   3.572  1.00  0.00     0.020 A 
ATOM     61  C   UNL     1      15.252   5.280   4.845  1.00  0.00     0.054 A 
BRANCH  61  62
ATOM     62  S   UNL     1      16.050   6.735   5.579  1.00  0.00     0.124 S 
ATOM     63  O   UNL     1      15.110   7.090   6.640  1.00  0.00    -0.237 OA
ATOM     64  O   UNL     1      17.333   6.202   6.029  1.00  0.00    -0.237 OA
ATOM     65  O   UNL     1      16.126   7.685   4.472  1.00  0.00    -0.744 OA
ENDBRANCH  61  62
ENDBRANCH  42  56
BRANCH  43  66
ATOM     66  C   UNL     1       9.429  -4.909  -0.237  1.00  0.00    -0.014 A 
ATOM     67  C   UNL     1      10.005  -6.191  -0.240  1.00  0.00     0.010 A 
ATOM     68  C   UNL     1       8.160  -4.729  -0.819  1.00  0.00     0.010 A 
ATOM     69  C   UNL     1       9.332  -7.269  -0.822  1.00  0.00     0.020 A 
ATOM     70  C   UNL     1       7.470  -5.810  -1.375  1.00  0.00     0.020 A 
ATOM     71  C   UNL     1       8.066  -7.072  -1.381  1.00  0.00     0.054 A 
BRANCH  71  72
ATOM     72  S   UNL     1       7.183  -8.498  -2.072  1.00  0.00     0.124 S 
ATOM     73  O   UNL     1       7.922  -8.745  -3.305  1.00  0.00    -0.237 OA
ATOM     74  O   UNL     1       7.341  -9.504  -1.024  1.00  0.00    -0.237 OA
ATOM     75  O   UNL     1       5.819  -8.002  -2.245  1.00  0.00    -0.744 OA
ENDBRANCH  71  72
ENDBRANCH  43  66
BRANCH  55  76
ATOM     76  C   UNL     1      15.139  -1.279  -1.941  1.00  0.00    -0.014 A 
ATOM     77  C   UNL     1      14.769  -0.893  -3.242  1.00  0.00     0.010 A 
ATOM     78  C   UNL     1      16.460  -1.701  -1.702  1.00  0.00     0.010 A 
ATOM     79  C   UNL     1      15.697  -0.943  -4.285  1.00  0.00     0.020 A 
ATOM     80  C   UNL     1      17.399  -1.725  -2.737  1.00  0.00     0.020 A 
ATOM     81  C   UNL     1      17.008  -1.354  -4.025  1.00  0.00     0.054 A 
BRANCH  81  82
ATOM     82  S   UNL     1      18.208  -1.345  -5.385  1.00  0.00     0.124 S 
ATOM     83  O   UNL     1      17.756  -2.470  -6.198  1.00  0.00    -0.237 OA
ATOM     84  O   UNL     1      18.012  -0.023  -5.975  1.00  0.00    -0.237 OA
ATOM     85  O   UNL     1      19.493  -1.537  -4.716  1.00  0.00    -0.744 OA
ENDBRANCH  81  82
ENDBRANCH  55  76
ENDBRANCH  29  30
ENDBRANCH  21  24
ENDBRANCH  19  20
ENDBRANCH   1  19
TORSDOF 16
