REMARK SMILES Cc1cccc2[nH]cc(C[C@H](NC(=O)OC(C)(C)C)C(=O)NCCCNC(=O)c3ccc(-c4c5nc(c(-c6ccc(S(=O)(=O)[O-])cc6)c6ccc([nH]6)c(-c6ccc(S(=O)(=O)[O-])cc6)c6nc(c(-c7ccc(S(=O)(=O)[O-])cc7)c7ccc4[nH]7)C=C6)C=C5)cc3)c12
REMARK SMILES IDX 24 1 23 2 22 3 20 4 21 5 11 7 10 8 9 9 1 10 2 11 3 12 89 13
REMARK SMILES IDX 4 14 6 15 5 16 7 17 8 18 12 20 13 21 14 23 15 24 16 25 17 26
REMARK SMILES IDX 18 27 19 28 25 29 26 30 27 31 28 33 29 34 30 35 88 36 31 37
REMARK SMILES IDX 87 38 32 39 33 40 34 41 81 42 35 43 86 44 80 45 82 46 36 47
REMARK SMILES IDX 85 48 79 49 78 50 37 52 67 53 48 54 66 55 49 56 52 57 65 58
REMARK SMILES IDX 83 59 50 60 51 61 64 63 84 64 53 65 38 66 39 67 47 68 40 69
REMARK SMILES IDX 46 70 41 71 42 72 43 73 44 74 45 75 68 76 69 77 77 78 70 79
REMARK SMILES IDX 76 80 71 81 72 82 73 83 74 84 75 85 54 86 55 87 63 88 56 89
REMARK SMILES IDX 62 90 57 91 58 92 59 93 60 94 61 95
REMARK H PARENT 22 6 7 19 12 22 26 32 82 51 52 62
REMARK Flexibility Score: inf
ROOT
ATOM      1  C   UNL     1      -3.715  -3.445   1.537  1.00  0.00     0.042 C 
ENDROOT
BRANCH   1   2
ATOM      2  C   UNL     1      -3.015  -3.543   2.886  1.00  0.00     0.117 C 
BRANCH   2   3
ATOM      3  N   UNL     1      -1.725  -4.214   2.851  1.00  0.00    -0.354 N 
ATOM      4  C   UNL     1      -0.473  -3.715   3.083  1.00  0.00     0.243 C 
ATOM      5  O   UNL     1       0.452  -4.518   3.237  1.00  0.00    -0.273 OA
ATOM      6  H   UNL     1      -1.758  -5.172   2.626  1.00  0.00     0.163 HD
BRANCH   4   7
ATOM      7  C   UNL     1      -0.259  -2.208   3.329  1.00  0.00     0.179 C 
BRANCH   7   8
ATOM      8  C   UNL     1      -0.803  -1.948   4.754  1.00  0.00     0.073 C 
BRANCH   8   9
ATOM      9  C   UNL     1      -0.325  -0.711   5.441  1.00  0.00    -0.020 A 
ATOM     10  C   UNL     1      -3.432   0.403   4.704  1.00  0.00     0.045 C 
ATOM     11  C   UNL     1      -2.350   1.027   5.547  1.00  0.00    -0.041 A 
ATOM     12  C   UNL     1      -2.695   2.253   6.169  1.00  0.00     0.004 A 
ATOM     13  C   UNL     1      -1.047   0.495   5.788  1.00  0.00     0.006 A 
ATOM     14  C   UNL     1      -1.806   2.947   6.979  1.00  0.00     0.002 A 
ATOM     15  C   UNL     1      -0.181   1.238   6.603  1.00  0.00     0.046 A 
ATOM     16  C   UNL     1      -0.529   2.452   7.205  1.00  0.00     0.027 A 
ATOM     17  N   UNL     1       1.006   0.551   6.699  1.00  0.00    -0.361 N 
ATOM     18  C   UNL     1       0.931  -0.619   6.011  1.00  0.00     0.087 A 
ATOM     19  H   UNL     1       1.797   0.862   7.195  1.00  0.00     0.166 HD
ENDBRANCH   8   9
ENDBRANCH   7   8
BRANCH   7  20
ATOM     20  N   UNL     1      -0.888  -1.398   2.282  1.00  0.00    -0.309 N 
ATOM     21  C   UNL     1      -0.653  -1.523   0.938  1.00  0.00     0.408 C 
ATOM     22  H   UNL     1      -1.530  -0.708   2.568  1.00  0.00     0.167 HD
ATOM     23  O   UNL     1      -1.159  -0.736   0.142  1.00  0.00    -0.225 OA
BRANCH  21  24
ATOM     24  O   UNL     1       0.100  -2.599   0.616  1.00  0.00    -0.444 OA
BRANCH  24  25
ATOM     25  C   UNL     1       0.307  -3.019  -0.764  1.00  0.00     0.106 C 
ATOM     26  C   UNL     1      -1.012  -3.458  -1.413  1.00  0.00     0.056 C 
ATOM     27  C   UNL     1       1.011  -1.940  -1.592  1.00  0.00     0.056 C 
ATOM     28  C   UNL     1       1.230  -4.247  -0.682  1.00  0.00     0.056 C 
ENDBRANCH  24  25
ENDBRANCH  21  24
ENDBRANCH   7  20
ENDBRANCH   4   7
ENDBRANCH   2   3
ENDBRANCH   1   2
BRANCH   1  29
ATOM     29  C   UNL     1      -4.100  -4.805   1.004  1.00  0.00     0.118 C 
BRANCH  29  30
ATOM     30  N   UNL     1      -5.109  -5.458   1.832  1.00  0.00    -0.352 N 
ATOM     31  C   UNL     1      -5.832  -6.594   1.549  1.00  0.00     0.251 C 
ATOM     32  H   UNL     1      -5.295  -5.033   2.700  1.00  0.00     0.163 HD
ATOM     33  O   UNL     1      -6.866  -6.827   2.166  1.00  0.00    -0.269 OA
BRANCH  31  34
ATOM     34  C   UNL     1      -5.340  -7.524   0.515  1.00  0.00     0.039 A 
ATOM     35  C   UNL     1      -6.235  -8.244  -0.278  1.00  0.00     0.014 A 
ATOM     36  C   UNL     1      -3.962  -7.705   0.369  1.00  0.00     0.014 A 
ATOM     37  C   UNL     1      -5.727  -9.120  -1.232  1.00  0.00     0.010 A 
ATOM     38  C   UNL     1      -3.459  -8.460  -0.658  1.00  0.00     0.010 A 
ATOM     39  C   UNL     1      -4.337  -9.217  -1.412  1.00  0.00    -0.014 A 
BRANCH  39  40
ATOM     40  C   UNL     1      -3.771 -10.000  -2.494  1.00  0.00     0.031 A 
ATOM     41  C   UNL     1      -4.176  -9.503  -3.827  1.00  0.00     0.074 A 
ATOM     42  C   UNL     1      -2.836 -10.959  -2.329  1.00  0.00     0.049 A 
ATOM     43  N   UNL     1      -5.128  -9.977  -4.558  1.00  0.00    -0.248 NA
ATOM     44  C   UNL     1      -3.629  -8.225  -4.312  1.00  0.00     0.031 C 
ATOM     45  C   UNL     1      -2.131 -11.366  -1.109  1.00  0.00     0.029 A 
ATOM     46  N   UNL     1      -2.267 -11.752  -3.275  1.00  0.00    -0.354 N 
ATOM     47  C   UNL     1      -5.115  -9.224  -5.720  1.00  0.00     0.074 A 
ATOM     48  C   UNL     1      -4.348  -8.040  -5.423  1.00  0.00     0.031 C 
ATOM     49  C   UNL     1      -1.099 -12.186  -1.429  1.00  0.00     0.029 A 
ATOM     50  C   UNL     1      -1.169 -12.494  -2.846  1.00  0.00     0.049 A 
ATOM     51  H   UNL     1      -2.607 -11.798  -4.198  1.00  0.00     0.167 HD
ATOM     52  C   UNL     1      -5.480  -9.777  -6.908  1.00  0.00     0.031 A 
ATOM     53  C   UNL     1      -0.404 -13.322  -3.608  1.00  0.00     0.031 A 
ATOM     54  C   UNL     1      -6.125 -11.055  -6.719  1.00  0.00     0.049 A 
ATOM     55  C   UNL     1      -1.262 -13.724  -4.752  1.00  0.00     0.074 A 
ATOM     56  C   UNL     1      -7.258 -11.485  -6.058  1.00  0.00     0.029 A 
ATOM     57  N   UNL     1      -5.330 -12.167  -6.881  1.00  0.00    -0.354 N 
ATOM     58  N   UNL     1      -2.346 -14.436  -4.616  1.00  0.00    -0.248 NA
ATOM     59  C   UNL     1      -1.169 -12.947  -5.976  1.00  0.00     0.031 C 
ATOM     60  C   UNL     1      -6.885 -12.722  -5.454  1.00  0.00     0.029 A 
ATOM     61  C   UNL     1      -5.577 -13.025  -5.841  1.00  0.00     0.049 A 
ATOM     62  H   UNL     1      -4.694 -12.320  -7.617  1.00  0.00     0.167 HD
ATOM     63  C   UNL     1      -3.251 -13.867  -5.500  1.00  0.00     0.074 A 
ATOM     64  C   UNL     1      -2.443 -13.014  -6.372  1.00  0.00     0.031 C 
ATOM     65  C   UNL     1      -4.595 -13.923  -5.268  1.00  0.00     0.031 A 
BRANCH  52  66
ATOM     66  C   UNL     1      -4.862  -9.387  -8.224  1.00  0.00    -0.014 A 
ATOM     67  C   UNL     1      -5.386  -9.935  -9.409  1.00  0.00     0.010 A 
ATOM     68  C   UNL     1      -3.621  -8.722  -8.316  1.00  0.00     0.010 A 
ATOM     69  C   UNL     1      -4.681  -9.858 -10.617  1.00  0.00     0.020 A 
ATOM     70  C   UNL     1      -2.930  -8.602  -9.521  1.00  0.00     0.020 A 
ATOM     71  C   UNL     1      -3.455  -9.192 -10.662  1.00  0.00     0.054 A 
BRANCH  71  72
ATOM     72  S   UNL     1      -2.516  -9.173 -12.207  1.00  0.00     0.124 S 
ATOM     73  O   UNL     1      -2.368 -10.597 -12.492  1.00  0.00    -0.237 OA
ATOM     74  O   UNL     1      -3.412  -8.438 -13.096  1.00  0.00    -0.237 OA
ATOM     75  O   UNL     1      -1.284  -8.474 -11.851  1.00  0.00    -0.744 OA
ENDBRANCH  71  72
ENDBRANCH  52  66
BRANCH  53  76
ATOM     76  C   UNL     1       1.078 -13.484  -3.641  1.00  0.00    -0.014 A 
ATOM     77  C   UNL     1       1.673 -14.412  -4.526  1.00  0.00     0.010 A 
ATOM     78  C   UNL     1       1.922 -12.520  -3.056  1.00  0.00     0.010 A 
ATOM     79  C   UNL     1       3.027 -14.312  -4.894  1.00  0.00     0.020 A 
ATOM     80  C   UNL     1       3.278 -12.421  -3.411  1.00  0.00     0.020 A 
ATOM     81  C   UNL     1       3.814 -13.292  -4.359  1.00  0.00     0.054 A 
BRANCH  81  82
ATOM     82  S   UNL     1       5.505 -13.048  -4.987  1.00  0.00     0.124 S 
ATOM     83  O   UNL     1       6.141 -14.329  -4.694  1.00  0.00    -0.237 OA
ATOM     84  O   UNL     1       5.274 -12.766  -6.401  1.00  0.00    -0.237 OA
ATOM     85  O   UNL     1       6.004 -11.918  -4.205  1.00  0.00    -0.744 OA
ENDBRANCH  81  82
ENDBRANCH  53  76
BRANCH  65  86
ATOM     86  C   UNL     1      -5.104 -14.854  -4.189  1.00  0.00    -0.014 A 
ATOM     87  C   UNL     1      -4.931 -14.630  -2.808  1.00  0.00     0.010 A 
ATOM     88  C   UNL     1      -5.972 -15.880  -4.600  1.00  0.00     0.010 A 
ATOM     89  C   UNL     1      -5.630 -15.406  -1.865  1.00  0.00     0.020 A 
ATOM     90  C   UNL     1      -6.679 -16.643  -3.669  1.00  0.00     0.020 A 
ATOM     91  C   UNL     1      -6.515 -16.398  -2.306  1.00  0.00     0.054 A 
BRANCH  91  92
ATOM     92  S   UNL     1      -7.492 -17.336  -1.095  1.00  0.00     0.124 S 
ATOM     93  O   UNL     1      -6.466 -17.956  -0.261  1.00  0.00    -0.237 OA
ATOM     94  O   UNL     1      -8.284 -16.294  -0.447  1.00  0.00    -0.237 OA
ATOM     95  O   UNL     1      -8.263 -18.269  -1.916  1.00  0.00    -0.744 OA
ENDBRANCH  91  92
ENDBRANCH  65  86
ENDBRANCH  39  40
ENDBRANCH  31  34
ENDBRANCH  29  30
ENDBRANCH   1  29
TORSDOF 18
