REMARK SMILES O=C(NCCCNC(=O)c1cccnc1Nc1cccc(C(F)(F)F)c1)c1ccc(-c2c3nc(c(-c4ccc(S(=O)(=O)[O-])cc4)c4ccc([nH]4)c(-c4ccc(S(=O)(=O)[O-])cc4)c4nc(c(-c5ccc(S(=O)(=O)[O-])cc5)c5ccc2[nH]5)C=C4)C=C3)cc1
REMARK SMILES IDX 5 1 4 2 3 3 1 4 2 5 27 7 28 8 86 9 29 10 85 11 30 12 31 13
REMARK SMILES IDX 32 14 79 15 33 16 84 17 78 18 80 19 34 20 83 21 77 22 76 23
REMARK SMILES IDX 35 25 65 26 46 27 64 28 47 29 50 30 63 31 81 32 48 33 49 34
REMARK SMILES IDX 62 36 82 37 51 38 36 39 37 40 45 41 38 42 44 43 39 44 40 45
REMARK SMILES IDX 41 46 42 47 43 48 66 49 67 50 75 51 68 52 74 53 69 54 70 55
REMARK SMILES IDX 71 56 72 57 73 58 52 59 53 60 61 61 54 62 60 63 55 64 56 65
REMARK SMILES IDX 57 66 58 67 59 68 6 69 7 70 8 71 9 73 10 74 11 75 15 76
REMARK SMILES IDX 12 77 14 78 13 79 16 80 17 82 18 83 26 84 19 85 21 86 20 87
REMARK SMILES IDX 22 88 23 89 24 90 25 91
REMARK H PARENT 3 6 80 24 50 35 7 72 16 81
REMARK Flexibility Score: inf
ROOT
ATOM      1  C   UNL     1       4.982   2.328   1.039  1.00  0.00     0.042 C 
ENDROOT
BRANCH   1   2
ATOM      2  C   UNL     1       4.595   0.863   1.170  1.00  0.00     0.118 C 
BRANCH   2   3
ATOM      3  N   UNL     1       3.159   0.656   1.036  1.00  0.00    -0.352 N 
ATOM      4  O   UNL     1       1.229   0.164  -0.009  1.00  0.00    -0.269 OA
ATOM      5  C   UNL     1       2.453   0.040   0.033  1.00  0.00     0.251 C 
ATOM      6  H   UNL     1       2.614   1.010   1.775  1.00  0.00     0.163 HD
BRANCH   5   7
ATOM      7  C   UNL     1       3.158  -0.757  -0.992  1.00  0.00     0.039 A 
ATOM      8  C   UNL     1       4.204  -1.609  -0.630  1.00  0.00     0.014 A 
ATOM      9  C   UNL     1       2.742  -0.688  -2.325  1.00  0.00     0.014 A 
ATOM     10  C   UNL     1       4.920  -2.285  -1.608  1.00  0.00     0.010 A 
ATOM     11  C   UNL     1       3.398  -1.449  -3.296  1.00  0.00     0.010 A 
ATOM     12  C   UNL     1       4.499  -2.246  -2.946  1.00  0.00    -0.014 A 
BRANCH  12  13
ATOM     13  C   UNL     1       5.134  -3.157  -3.928  1.00  0.00     0.031 A 
ATOM     14  C   UNL     1       5.904  -2.632  -5.105  1.00  0.00     0.074 A 
ATOM     15  C   UNL     1       4.991  -4.485  -3.738  1.00  0.00     0.049 A 
ATOM     16  N   UNL     1       6.490  -3.304  -6.061  1.00  0.00    -0.248 NA
ATOM     17  C   UNL     1       6.030  -1.171  -5.235  1.00  0.00     0.031 C 
ATOM     18  C   UNL     1       4.249  -5.104  -2.632  1.00  0.00     0.029 A 
ATOM     19  N   UNL     1       5.456  -5.555  -4.458  1.00  0.00    -0.354 N 
ATOM     20  C   UNL     1       7.030  -2.356  -6.921  1.00  0.00     0.074 A 
ATOM     21  C   UNL     1       6.698  -1.056  -6.377  1.00  0.00     0.031 C 
ATOM     22  C   UNL     1       4.333  -6.437  -2.734  1.00  0.00     0.029 A 
ATOM     23  C   UNL     1       5.064  -6.770  -3.949  1.00  0.00     0.049 A 
ATOM     24  H   UNL     1       6.016  -5.462  -5.263  1.00  0.00     0.167 HD
ATOM     25  C   UNL     1       7.732  -2.559  -8.061  1.00  0.00     0.031 A 
ATOM     26  C   UNL     1       5.231  -8.018  -4.425  1.00  0.00     0.031 A 
ATOM     27  C   UNL     1       8.062  -3.861  -8.582  1.00  0.00     0.049 A 
ATOM     28  C   UNL     1       5.976  -8.203  -5.714  1.00  0.00     0.074 A 
ATOM     29  C   UNL     1       8.834  -4.169  -9.690  1.00  0.00     0.029 A 
ATOM     30  N   UNL     1       7.627  -5.066  -8.052  1.00  0.00    -0.354 N 
ATOM     31  N   UNL     1       6.553  -7.296  -6.465  1.00  0.00    -0.248 NA
ATOM     32  C   UNL     1       6.088  -9.575  -6.226  1.00  0.00     0.031 C 
ATOM     33  C   UNL     1       8.803  -5.554  -9.872  1.00  0.00     0.029 A 
ATOM     34  C   UNL     1       8.068  -6.115  -8.841  1.00  0.00     0.049 A 
ATOM     35  H   UNL     1       7.085  -5.161  -7.236  1.00  0.00     0.167 HD
ATOM     36  C   UNL     1       7.102  -7.989  -7.536  1.00  0.00     0.074 A 
ATOM     37  C   UNL     1       6.817  -9.393  -7.318  1.00  0.00     0.031 C 
ATOM     38  C   UNL     1       7.772  -7.506  -8.610  1.00  0.00     0.031 A 
BRANCH  25  39
ATOM     39  C   UNL     1       8.174  -1.360  -8.858  1.00  0.00    -0.014 A 
ATOM     40  C   UNL     1       9.239  -0.547  -8.433  1.00  0.00     0.010 A 
ATOM     41  C   UNL     1       7.586  -1.116 -10.114  1.00  0.00     0.010 A 
ATOM     42  C   UNL     1       9.702   0.492  -9.247  1.00  0.00     0.020 A 
ATOM     43  C   UNL     1       8.060  -0.093 -10.940  1.00  0.00     0.020 A 
ATOM     44  C   UNL     1       9.114   0.709 -10.498  1.00  0.00     0.054 A 
BRANCH  44  45
ATOM     45  S   UNL     1       9.783   2.019 -11.560  1.00  0.00     0.124 S 
ATOM     46  O   UNL     1       9.354   3.225 -10.857  1.00  0.00    -0.237 OA
ATOM     47  O   UNL     1      11.219   1.752 -11.529  1.00  0.00    -0.237 OA
ATOM     48  O   UNL     1       9.136   1.787 -12.849  1.00  0.00    -0.744 OA
ENDBRANCH  44  45
ENDBRANCH  25  39
BRANCH  26  49
ATOM     49  C   UNL     1       4.618  -9.174  -3.716  1.00  0.00    -0.014 A 
ATOM     50  C   UNL     1       5.416 -10.160  -3.115  1.00  0.00     0.010 A 
ATOM     51  C   UNL     1       3.216  -9.293  -3.649  1.00  0.00     0.010 A 
ATOM     52  C   UNL     1       4.825 -11.262  -2.489  1.00  0.00     0.020 A 
ATOM     53  C   UNL     1       2.621 -10.372  -2.994  1.00  0.00     0.020 A 
ATOM     54  C   UNL     1       3.431 -11.361  -2.436  1.00  0.00     0.054 A 
BRANCH  54  55
ATOM     55  S   UNL     1       2.684 -12.792  -1.609  1.00  0.00     0.124 S 
ATOM     56  O   UNL     1       2.920 -13.857  -2.578  1.00  0.00    -0.237 OA
ATOM     57  O   UNL     1       3.455 -12.879  -0.371  1.00  0.00    -0.237 OA
ATOM     58  O   UNL     1       1.288 -12.397  -1.438  1.00  0.00    -0.744 OA
ENDBRANCH  54  55
ENDBRANCH  26  49
BRANCH  38  59
ATOM     59  C   UNL     1       8.250  -8.503  -9.629  1.00  0.00    -0.014 A 
ATOM     60  C   UNL     1       7.345  -9.136 -10.499  1.00  0.00     0.010 A 
ATOM     61  C   UNL     1       9.627  -8.759  -9.763  1.00  0.00     0.010 A 
ATOM     62  C   UNL     1       7.807 -10.021 -11.475  1.00  0.00     0.020 A 
ATOM     63  C   UNL     1      10.095  -9.621 -10.757  1.00  0.00     0.020 A 
ATOM     64  C   UNL     1       9.180 -10.253 -11.602  1.00  0.00     0.054 A 
BRANCH  64  65
ATOM     65  S   UNL     1       9.757 -11.352 -12.924  1.00  0.00     0.124 S 
ATOM     66  O   UNL     1       9.341 -12.663 -12.433  1.00  0.00    -0.237 OA
ATOM     67  O   UNL     1       9.030 -10.857 -14.090  1.00  0.00    -0.237 OA
ATOM     68  O   UNL     1      11.200 -11.128 -12.956  1.00  0.00    -0.744 OA
ENDBRANCH  64  65
ENDBRANCH  38  59
ENDBRANCH  12  13
ENDBRANCH   5   7
ENDBRANCH   2   3
ENDBRANCH   1   2
BRANCH   1  69
ATOM     69  C   UNL     1       4.419   3.205   2.146  1.00  0.00     0.118 C 
BRANCH  69  70
ATOM     70  N   UNL     1       4.961   2.853   3.452  1.00  0.00    -0.352 N 
ATOM     71  C   UNL     1       5.877   3.526   4.221  1.00  0.00     0.255 C 
ATOM     72  H   UNL     1       4.622   2.012   3.837  1.00  0.00     0.163 HD
ATOM     73  O   UNL     1       6.435   2.953   5.154  1.00  0.00    -0.269 OA
BRANCH  71  74
ATOM     74  C   UNL     1       6.205   4.933   3.927  1.00  0.00     0.082 A 
ATOM     75  C   UNL     1       5.174   5.854   3.692  1.00  0.00     0.019 A 
ATOM     76  C   UNL     1       7.532   5.374   3.937  1.00  0.00     0.143 A 
ATOM     77  C   UNL     1       5.487   7.158   3.342  1.00  0.00     0.021 A 
ATOM     78  N   UNL     1       7.827   6.658   3.601  1.00  0.00    -0.238 NA
ATOM     79  C   UNL     1       6.821   7.506   3.296  1.00  0.00     0.113 A 
BRANCH  76  80
ATOM     80  N   UNL     1       8.599   4.491   4.201  1.00  0.00    -0.340 N 
ATOM     81  H   UNL     1       8.383   3.531   4.204  1.00  0.00     0.168 HD
BRANCH  80  82
ATOM     82  C   UNL     1       9.936   4.834   4.462  1.00  0.00     0.040 A 
ATOM     83  C   UNL     1      10.969   4.053   3.937  1.00  0.00     0.026 A 
ATOM     84  C   UNL     1      10.265   5.917   5.287  1.00  0.00     0.039 A 
ATOM     85  C   UNL     1      12.305   4.388   4.175  1.00  0.00     0.003 A 
ATOM     86  C   UNL     1      11.600   6.254   5.555  1.00  0.00     0.058 A 
ATOM     87  C   UNL     1      12.619   5.486   4.976  1.00  0.00     0.013 A 
BRANCH  86  88
ATOM     88  C   UNL     1      11.933   7.426   6.439  1.00  0.00     0.416 C 
ATOM     89  F   UNL     1      12.757   7.082   7.470  1.00  0.00    -0.166 F 
ATOM     90  F   UNL     1      12.578   8.424   5.771  1.00  0.00    -0.166 F 
ATOM     91  F   UNL     1      10.847   8.011   7.021  1.00  0.00    -0.166 F 
ENDBRANCH  86  88
ENDBRANCH  80  82
ENDBRANCH  76  80
ENDBRANCH  71  74
ENDBRANCH  69  70
ENDBRANCH   1  69
TORSDOF 16
