REMARK SMILES CCN(CC(C)(C)O)C(=O)[C@H]1CC=CC[C@H]1C(=O)NCCCNC(=O)c1ccc(-c2c3nc(c(-c4ccc(S(=O)(=O)[O-])cc4)c4ccc([nH]4)c(-c4ccc(S(=O)(=O)[O-])cc4)c4nc(c(-c5ccc(S(=O)(=O)[O-])cc5)c5ccc2[nH]5)C=C4)C=C3)cc1
REMARK SMILES IDX 20 1 19 2 17 3 18 4 16 6 11 7 12 8 13 9 15 10 14 11 9 12
REMARK SMILES IDX 10 13 3 14 2 15 1 16 4 17 5 18 6 19 7 20 8 21 21 23 22 24
REMARK SMILES IDX 23 25 24 26 25 28 26 29 27 30 85 31 28 32 84 33 29 34 30 35
REMARK SMILES IDX 31 36 78 37 32 38 83 39 77 40 79 41 33 42 82 43 76 44 75 45
REMARK SMILES IDX 34 47 64 48 45 49 63 50 46 51 49 52 62 53 80 54 47 55 48 56
REMARK SMILES IDX 61 58 81 59 50 60 35 61 36 62 44 63 37 64 43 65 38 66 39 67
REMARK SMILES IDX 40 68 41 69 42 70 65 71 66 72 74 73 67 74 73 75 68 76 69 77
REMARK SMILES IDX 70 78 71 79 72 80 51 81 52 82 60 83 53 84 59 85 54 86 55 87
REMARK SMILES IDX 56 88 57 89 58 90
REMARK H PARENT 19 5 8 22 23 27 79 46 49 57
REMARK Flexibility Score: inf
ROOT
ATOM      1  C   UNL     1      -0.563   1.288  -2.420  1.00  0.00     0.117 C 
ENDROOT
BRANCH   1   2
ATOM      2  N   UNL     1      -0.209   2.297  -3.422  1.00  0.00    -0.356 N 
ATOM      3  C   UNL     1       0.934   2.861  -3.881  1.00  0.00     0.224 C 
ATOM      4  O   UNL     1       0.752   3.869  -4.583  1.00  0.00    -0.275 OA
ATOM      5  H   UNL     1      -1.004   2.655  -3.878  1.00  0.00     0.163 HD
BRANCH   3   6
ATOM      6  C   UNL     1       2.380   2.431  -3.613  1.00  0.00     0.095 C 
ATOM      7  C   UNL     1       3.226   3.247  -2.595  1.00  0.00     0.095 C 
ATOM      8  C   UNL     1       4.715   3.143  -3.041  1.00  0.00     0.041 C 
ATOM      9  C   UNL     1       5.117   1.744  -3.454  1.00  0.00    -0.030 C 
ATOM     10  C   UNL     1       2.734   0.948  -3.630  1.00  0.00     0.041 C 
ATOM     11  C   UNL     1       4.234   0.756  -3.684  1.00  0.00    -0.030 C 
BRANCH   7  12
ATOM     12  C   UNL     1       3.152   2.768  -1.133  1.00  0.00     0.226 C 
ATOM     13  O   UNL     1       4.091   2.146  -0.629  1.00  0.00    -0.275 OA
BRANCH  12  14
ATOM     14  N   UNL     1       2.015   3.027  -0.388  1.00  0.00    -0.340 N 
BRANCH  14  15
ATOM     15  C   UNL     1       1.858   2.303   0.887  1.00  0.00     0.116 C 
ATOM     16  C   UNL     1       1.906   0.778   0.720  1.00  0.00     0.027 C 
ENDBRANCH  14  15
BRANCH  14  17
ATOM     17  C   UNL     1       0.965   3.973  -0.759  1.00  0.00     0.154 C 
BRANCH  17  18
ATOM     18  C   UNL     1       0.947   5.421  -0.233  1.00  0.00     0.077 C 
ATOM     19  C   UNL     1       2.226   6.197  -0.509  1.00  0.00     0.043 C 
ATOM     20  C   UNL     1      -0.246   6.116  -0.922  1.00  0.00     0.043 C 
BRANCH  18  21
ATOM     21  O   UNL     1       0.690   5.403   1.171  1.00  0.00    -0.389 OA
ATOM     22  H   UNL     1       1.427   4.970   1.629  1.00  0.00     0.211 HD
ENDBRANCH  18  21
ENDBRANCH  17  18
ENDBRANCH  14  17
ENDBRANCH  12  14
ENDBRANCH   7  12
ENDBRANCH   3   6
ENDBRANCH   1   2
BRANCH   1  23
ATOM     23  C   UNL     1      -1.454   1.894  -1.307  1.00  0.00     0.042 C 
BRANCH  23  24
ATOM     24  C   UNL     1      -2.892   1.401  -1.174  1.00  0.00     0.118 C 
BRANCH  24  25
ATOM     25  N   UNL     1      -2.990   0.083  -0.588  1.00  0.00    -0.352 N 
ATOM     26  C   UNL     1      -3.103  -0.445   0.672  1.00  0.00     0.251 C 
ATOM     27  H   UNL     1      -2.972  -0.621  -1.276  1.00  0.00     0.163 HD
ATOM     28  O   UNL     1      -3.136  -1.682   0.692  1.00  0.00    -0.269 OA
BRANCH  26  29
ATOM     29  C   UNL     1      -3.191   0.282   1.987  1.00  0.00     0.039 A 
ATOM     30  C   UNL     1      -3.109  -0.534   3.135  1.00  0.00     0.014 A 
ATOM     31  C   UNL     1      -3.408   1.644   2.201  1.00  0.00     0.014 A 
ATOM     32  C   UNL     1      -3.275  -0.027   4.434  1.00  0.00     0.010 A 
ATOM     33  C   UNL     1      -3.534   2.165   3.516  1.00  0.00     0.010 A 
ATOM     34  C   UNL     1      -3.494   1.337   4.651  1.00  0.00    -0.014 A 
BRANCH  34  35
ATOM     35  C   UNL     1      -3.710   1.854   6.045  1.00  0.00     0.031 A 
ATOM     36  C   UNL     1      -5.031   2.474   6.452  1.00  0.00     0.074 A 
ATOM     37  C   UNL     1      -2.737   1.748   6.977  1.00  0.00     0.049 A 
ATOM     38  N   UNL     1      -5.403   2.948   7.618  1.00  0.00    -0.248 NA
ATOM     39  C   UNL     1      -6.059   2.595   5.409  1.00  0.00     0.031 C 
ATOM     40  C   UNL     1      -1.400   1.200   6.746  1.00  0.00     0.029 A 
ATOM     41  N   UNL     1      -2.726   2.086   8.313  1.00  0.00    -0.354 N 
ATOM     42  C   UNL     1      -6.691   3.447   7.441  1.00  0.00     0.074 A 
ATOM     43  C   UNL     1      -7.020   3.252   6.045  1.00  0.00     0.031 C 
ATOM     44  C   UNL     1      -0.715   1.202   7.902  1.00  0.00     0.029 A 
ATOM     45  C   UNL     1      -1.547   1.779   8.955  1.00  0.00     0.049 A 
ATOM     46  H   UNL     1      -3.490   2.508   8.767  1.00  0.00     0.167 HD
ATOM     47  C   UNL     1      -7.535   4.000   8.349  1.00  0.00     0.031 A 
ATOM     48  C   UNL     1      -1.170   1.930  10.242  1.00  0.00     0.031 A 
ATOM     49  C   UNL     1      -7.238   4.167   9.750  1.00  0.00     0.049 A 
ATOM     50  C   UNL     1      -2.136   2.509  11.242  1.00  0.00     0.074 A 
ATOM     51  C   UNL     1      -8.055   4.670  10.750  1.00  0.00     0.029 A 
ATOM     52  N   UNL     1      -6.039   3.825  10.354  1.00  0.00    -0.354 N 
ATOM     53  N   UNL     1      -3.361   2.935  11.054  1.00  0.00    -0.248 NA
ATOM     54  C   UNL     1      -1.671   2.609  12.635  1.00  0.00     0.031 C 
ATOM     55  C   UNL     1      -7.338   4.662  11.952  1.00  0.00     0.029 A 
ATOM     56  C   UNL     1      -6.091   4.111  11.709  1.00  0.00     0.049 A 
ATOM     57  H   UNL     1      -5.263   3.437   9.888  1.00  0.00     0.167 HD
ATOM     58  C   UNL     1      -3.821   3.331  12.306  1.00  0.00     0.074 A 
ATOM     59  C   UNL     1      -2.750   3.077  13.247  1.00  0.00     0.031 C 
ATOM     60  C   UNL     1      -5.024   3.857  12.643  1.00  0.00     0.031 A 
BRANCH  47  61
ATOM     61  C   UNL     1      -8.879   4.475   7.852  1.00  0.00    -0.014 A 
ATOM     62  C   UNL     1      -9.874   3.561   7.460  1.00  0.00     0.010 A 
ATOM     63  C   UNL     1      -9.166   5.853   7.810  1.00  0.00     0.010 A 
ATOM     64  C   UNL     1     -11.107   4.015   6.981  1.00  0.00     0.020 A 
ATOM     65  C   UNL     1     -10.408   6.311   7.360  1.00  0.00     0.020 A 
ATOM     66  C   UNL     1     -11.363   5.388   6.925  1.00  0.00     0.054 A 
BRANCH  66  67
ATOM     67  S   UNL     1     -12.969   5.952   6.298  1.00  0.00     0.124 S 
ATOM     68  O   UNL     1     -12.816   5.749   4.859  1.00  0.00    -0.237 OA
ATOM     69  O   UNL     1     -13.909   5.051   6.961  1.00  0.00    -0.237 OA
ATOM     70  O   UNL     1     -13.039   7.346   6.726  1.00  0.00    -0.744 OA
ENDBRANCH  66  67
ENDBRANCH  47  61
BRANCH  48  71
ATOM     71  C   UNL     1       0.188   1.494  10.677  1.00  0.00    -0.014 A 
ATOM     72  C   UNL     1       0.348   0.349  11.479  1.00  0.00     0.010 A 
ATOM     73  C   UNL     1       1.329   2.219  10.290  1.00  0.00     0.010 A 
ATOM     74  C   UNL     1       1.620  -0.054  11.896  1.00  0.00     0.020 A 
ATOM     75  C   UNL     1       2.606   1.804  10.683  1.00  0.00     0.020 A 
ATOM     76  C   UNL     1       2.742   0.675  11.494  1.00  0.00     0.054 A 
BRANCH  76  77
ATOM     77  S   UNL     1       4.390   0.102  11.994  1.00  0.00     0.124 S 
ATOM     78  O   UNL     1       4.440   0.512  13.396  1.00  0.00    -0.237 OA
ATOM     79  O   UNL     1       4.307  -1.340  11.763  1.00  0.00    -0.237 OA
ATOM     80  O   UNL     1       5.288   0.818  11.099  1.00  0.00    -0.744 OA
ENDBRANCH  76  77
ENDBRANCH  48  71
BRANCH  60  81
ATOM     81  C   UNL     1      -5.264   4.165  14.098  1.00  0.00    -0.014 A 
ATOM     82  C   UNL     1      -4.634   5.253  14.729  1.00  0.00     0.010 A 
ATOM     83  C   UNL     1      -6.155   3.367  14.840  1.00  0.00     0.010 A 
ATOM     84  C   UNL     1      -4.859   5.513  16.084  1.00  0.00     0.020 A 
ATOM     85  C   UNL     1      -6.401   3.638  16.189  1.00  0.00     0.020 A 
ATOM     86  C   UNL     1      -5.737   4.699  16.808  1.00  0.00     0.054 A 
BRANCH  86  87
ATOM     87  S   UNL     1      -6.030   5.065  18.561  1.00  0.00     0.124 S 
ATOM     88  O   UNL     1      -4.818   4.545  19.186  1.00  0.00    -0.237 OA
ATOM     89  O   UNL     1      -6.167   6.520  18.568  1.00  0.00    -0.237 OA
ATOM     90  O   UNL     1      -7.255   4.330  18.867  1.00  0.00    -0.744 OA
ENDBRANCH  86  87
ENDBRANCH  60  81
ENDBRANCH  34  35
ENDBRANCH  26  29
ENDBRANCH  24  25
ENDBRANCH  23  24
ENDBRANCH   1  23
TORSDOF 19
