REMARK SMILES O=C(NCCCNC(=O)[C@]12CCC[NH2+][C@@H]1CCN(C(=O)Cc1c(F)cccc1Cl)C2)c1ccc(-c2c3nc(c(-c4ccc(S(=O)(=O)[O-])cc4)c4ccc([nH]4)c(-c4ccc(S(=O)(=O)[O-])cc4)c4nc(c(-c5ccc(S(=O)(=O)[O-])cc5)c5ccc2[nH]5)C=C4)C=C3)cc1
REMARK SMILES IDX 5 1 4 2 3 3 1 4 2 5 31 7 32 8 90 9 33 10 89 11 34 12 35 13
REMARK SMILES IDX 36 14 83 15 37 16 88 17 82 18 84 19 38 20 87 21 81 22 80 23
REMARK SMILES IDX 39 25 69 26 50 27 68 28 51 29 54 30 67 31 85 32 52 33 53 34
REMARK SMILES IDX 66 36 86 37 55 38 40 39 41 40 49 41 42 42 48 43 43 44 44 45
REMARK SMILES IDX 45 46 46 47 47 48 70 49 71 50 79 51 72 52 78 53 73 54 74 55
REMARK SMILES IDX 75 56 76 57 77 58 56 59 57 60 65 61 58 62 64 63 59 64 60 65
REMARK SMILES IDX 61 66 62 67 63 68 6 69 7 70 8 71 9 73 10 74 11 75 15 76
REMARK SMILES IDX 30 77 12 78 14 79 16 80 18 81 13 82 17 85 19 86 20 87 21 88
REMARK SMILES IDX 22 89 23 90 28 91 24 92 25 93 27 94 29 95 26 96
REMARK H PARENT 3 6 84 24 54 35 7 72 14 83 14 84
REMARK Flexibility Score: inf
ROOT
ATOM      1  C   UNL     1       5.235  -0.662   1.277  1.00  0.00     0.042 C 
ENDROOT
BRANCH   1   2
ATOM      2  C   UNL     1       4.881  -1.518   0.064  1.00  0.00     0.118 C 
BRANCH   2   3
ATOM      3  N   UNL     1       3.450  -1.593  -0.183  1.00  0.00    -0.352 N 
ATOM      4  O   UNL     1       1.401  -0.919  -0.810  1.00  0.00    -0.269 OA
ATOM      5  C   UNL     1       2.618  -0.766  -0.898  1.00  0.00     0.251 C 
ATOM      6  H   UNL     1       3.002  -2.365   0.232  1.00  0.00     0.163 HD
BRANCH   5   7
ATOM      7  C   UNL     1       3.165   0.345  -1.710  1.00  0.00     0.039 A 
ATOM      8  C   UNL     1       4.329   0.200  -2.463  1.00  0.00     0.014 A 
ATOM      9  C   UNL     1       2.470   1.559  -1.744  1.00  0.00     0.014 A 
ATOM     10  C   UNL     1       4.901   1.302  -3.083  1.00  0.00     0.010 A 
ATOM     11  C   UNL     1       2.993   2.649  -2.442  1.00  0.00     0.010 A 
ATOM     12  C   UNL     1       4.226   2.530  -3.095  1.00  0.00    -0.014 A 
BRANCH  12  13
ATOM     13  C   UNL     1       4.737   3.608  -3.967  1.00  0.00     0.031 A 
ATOM     14  C   UNL     1       5.343   4.855  -3.408  1.00  0.00     0.074 A 
ATOM     15  C   UNL     1       4.646   3.410  -5.295  1.00  0.00     0.049 A 
ATOM     16  N   UNL     1       5.872   5.863  -4.051  1.00  0.00    -0.248 NA
ATOM     17  C   UNL     1       5.356   4.998  -1.944  1.00  0.00     0.031 C 
ATOM     18  C   UNL     1       4.054   2.224  -5.924  1.00  0.00     0.029 A 
ATOM     19  N   UNL     1       5.055   4.178  -6.350  1.00  0.00    -0.354 N 
ATOM     20  C   UNL     1       6.269   6.770  -3.078  1.00  0.00     0.074 A 
ATOM     21  C   UNL     1       5.908   6.197  -1.797  1.00  0.00     0.031 C 
ATOM     22  C   UNL     1       4.168   2.329  -7.253  1.00  0.00     0.029 A 
ATOM     23  C   UNL     1       4.785   3.611  -7.571  1.00  0.00     0.049 A 
ATOM     24  H   UNL     1       5.498   5.051  -6.245  1.00  0.00     0.167 HD
ATOM     25  C   UNL     1       6.873   7.971  -3.249  1.00  0.00     0.031 A 
ATOM     26  C   UNL     1       4.989   4.076  -8.816  1.00  0.00     0.031 A 
ATOM     27  C   UNL     1       7.200   8.525  -4.538  1.00  0.00     0.049 A 
ATOM     28  C   UNL     1       5.647   5.408  -8.980  1.00  0.00     0.074 A 
ATOM     29  C   UNL     1       7.840   9.718  -4.827  1.00  0.00     0.029 A 
ATOM     30  N   UNL     1       6.899   7.929  -5.756  1.00  0.00    -0.354 N 
ATOM     31  N   UNL     1       6.061   6.232  -8.046  1.00  0.00    -0.248 NA
ATOM     32  C   UNL     1       5.871   5.875 -10.351  1.00  0.00     0.031 C 
ATOM     33  C   UNL     1       7.881   9.864  -6.219  1.00  0.00     0.029 A 
ATOM     34  C   UNL     1       7.312   8.741  -6.799  1.00  0.00     0.049 A 
ATOM     35  H   UNL     1       6.456   7.056  -5.862  1.00  0.00     0.167 HD
ATOM     36  C   UNL     1       6.604   7.318  -8.716  1.00  0.00     0.074 A 
ATOM     37  C   UNL     1       6.475   7.037 -10.135  1.00  0.00     0.031 C 
ATOM     38  C   UNL     1       7.159   8.443  -8.203  1.00  0.00     0.031 A 
BRANCH  25  39
ATOM     39  C   UNL     1       7.169   8.783  -2.015  1.00  0.00    -0.014 A 
ATOM     40  C   UNL     1       8.195   8.420  -1.125  1.00  0.00     0.010 A 
ATOM     41  C   UNL     1       6.417   9.943  -1.752  1.00  0.00     0.010 A 
ATOM     42  C   UNL     1       8.431   9.172   0.031  1.00  0.00     0.020 A 
ATOM     43  C   UNL     1       6.663  10.710  -0.609  1.00  0.00     0.020 A 
ATOM     44  C   UNL     1       7.654  10.306   0.288  1.00  0.00     0.054 A 
BRANCH  44  45
ATOM     45  S   UNL     1       7.965  11.260   1.800  1.00  0.00     0.124 S 
ATOM     46  O   UNL     1       7.328  10.425   2.816  1.00  0.00    -0.237 OA
ATOM     47  O   UNL     1       9.424  11.313   1.857  1.00  0.00    -0.237 OA
ATOM     48  O   UNL     1       7.308  12.539   1.544  1.00  0.00    -0.744 OA
ENDBRANCH  44  45
ENDBRANCH  25  39
BRANCH  26  49
ATOM     49  C   UNL     1       4.541   3.246  -9.963  1.00  0.00    -0.014 A 
ATOM     50  C   UNL     1       5.464   2.493 -10.706  1.00  0.00     0.010 A 
ATOM     51  C   UNL     1       3.163   3.083 -10.207  1.00  0.00     0.010 A 
ATOM     52  C   UNL     1       5.016   1.570 -11.655  1.00  0.00     0.020 A 
ATOM     53  C   UNL     1       2.712   2.145 -11.138  1.00  0.00     0.020 A 
ATOM     54  C   UNL     1       3.643   1.391 -11.855  1.00  0.00     0.054 A 
BRANCH  54  55
ATOM     55  S   UNL     1       3.080   0.086 -12.984  1.00  0.00     0.124 S 
ATOM     56  O   UNL     1       3.280   0.708 -14.289  1.00  0.00    -0.237 OA
ATOM     57  O   UNL     1       3.978  -1.021 -12.665  1.00  0.00    -0.237 OA
ATOM     58  O   UNL     1       1.687  -0.123 -12.594  1.00  0.00    -0.744 OA
ENDBRANCH  54  55
ENDBRANCH  26  49
BRANCH  38  59
ATOM     59  C   UNL     1       7.678   9.453  -9.185  1.00  0.00    -0.014 A 
ATOM     60  C   UNL     1       6.800  10.312  -9.866  1.00  0.00     0.010 A 
ATOM     61  C   UNL     1       9.065   9.588  -9.372  1.00  0.00     0.010 A 
ATOM     62  C   UNL     1       7.302  11.286 -10.732  1.00  0.00     0.020 A 
ATOM     63  C   UNL     1       9.571  10.573 -10.223  1.00  0.00     0.020 A 
ATOM     64  C   UNL     1       8.684  11.411 -10.903  1.00  0.00     0.054 A 
BRANCH  64  65
ATOM     65  S   UNL     1       9.317  12.728 -11.979  1.00  0.00     0.124 S 
ATOM     66  O   UNL     1       9.070  12.177 -13.308  1.00  0.00    -0.237 OA
ATOM     67  O   UNL     1       8.488  13.873 -11.608  1.00  0.00    -0.237 OA
ATOM     68  O   UNL     1      10.724  12.837 -11.599  1.00  0.00    -0.744 OA
ENDBRANCH  64  65
ENDBRANCH  38  59
ENDBRANCH  12  13
ENDBRANCH   5   7
ENDBRANCH   2   3
ENDBRANCH   1   2
BRANCH   1  69
ATOM     69  C   UNL     1       5.056  -1.414   2.593  1.00  0.00     0.117 C 
BRANCH  69  70
ATOM     70  N   UNL     1       6.001  -2.514   2.671  1.00  0.00    -0.355 N 
ATOM     71  C   UNL     1       6.811  -2.925   3.667  1.00  0.00     0.234 C 
ATOM     72  H   UNL     1       6.061  -3.055   1.851  1.00  0.00     0.163 HD
ATOM     73  O   UNL     1       7.920  -3.288   3.252  1.00  0.00    -0.274 OA
BRANCH  71  74
ATOM     74  C   UNL     1       6.427  -3.038   5.164  1.00  0.00     0.118 C 
ATOM     75  C   UNL     1       7.639  -3.757   5.856  1.00  0.00     0.031 C 
ATOM     76  C   UNL     1       5.226  -3.957   5.484  1.00  0.00     0.201 C 
ATOM     77  C   UNL     1       6.244  -1.642   5.793  1.00  0.00     0.142 C 
ATOM     78  C   UNL     1       7.784  -5.229   5.410  1.00  0.00     0.063 C 
ATOM     79  N   UNL     1       5.327  -5.275   4.843  1.00  0.00    -0.343 N 
ATOM     80  C   UNL     1       3.867  -3.312   5.268  1.00  0.00     0.087 C 
ATOM     81  N   UNL     1       4.868  -1.106   5.801  1.00  0.00    -0.341 N 
ATOM     82  C   UNL     1       6.466  -6.009   5.408  1.00  0.00     0.260 C 
ATOM     83  H   UNL     1       4.468  -5.800   5.008  1.00  0.00     0.346 HD
ATOM     84  H   UNL     1       5.465  -5.155   3.839  1.00  0.00     0.346 HD
ATOM     85  C   UNL     1       3.794  -2.044   6.106  1.00  0.00     0.125 C 
BRANCH  81  86
ATOM     86  C   UNL     1       4.738   0.284   5.858  1.00  0.00     0.227 C 
ATOM     87  O   UNL     1       5.743   1.000   5.908  1.00  0.00    -0.275 OA
BRANCH  86  88
ATOM     88  C   UNL     1       3.356   0.935   5.801  1.00  0.00     0.140 C 
BRANCH  88  89
ATOM     89  C   UNL     1       2.986   1.382   4.404  1.00  0.00     0.016 A 
ATOM     90  C   UNL     1       3.621   2.521   3.884  1.00  0.00     0.128 A 
ATOM     91  C   UNL     1       2.060   0.729   3.577  1.00  0.00     0.047 A 
ATOM     92  F   UNL     1       4.484   3.206   4.645  1.00  0.00    -0.207 F 
ATOM     93  C   UNL     1       3.370   2.990   2.599  1.00  0.00     0.039 A 
ATOM     94  C   UNL     1       1.804   1.193   2.280  1.00  0.00     0.021 A 
ATOM     95  Cl  UNL     1       1.158  -0.649   4.091  1.00  0.00    -0.084 Cl
ATOM     96  C   UNL     1       2.455   2.325   1.795  1.00  0.00     0.005 A 
ENDBRANCH  88  89
ENDBRANCH  86  88
ENDBRANCH  81  86
ENDBRANCH  71  74
ENDBRANCH  69  70
ENDBRANCH   1  69
TORSDOF 16
