REMARK SMILES Cc1nc2scc(C)n2c1CNc1ccc(C(=O)NCCCNC(=O)c2ccc(-c3c4nc(c(-c5ccc(S(=O)(=O)[O-])cc5)c5ccc([nH]5)c(-c5ccc(S(=O)(=O)[O-])cc5)c5nc(c(-c6ccc(S(=O)(=O)[O-])cc6)c6ccc3[nH]6)C=C5)C=C4)cc2)cc1
REMARK SMILES IDX 21 1 20 2 19 3 17 4 18 5 16 7 13 8 14 9 87 10 15 11 86 12
REMARK SMILES IDX 12 13 11 15 10 16 1 17 2 18 3 19 4 20 9 21 5 22 7 23 6 24
REMARK SMILES IDX 8 25 22 26 23 27 24 28 25 30 26 31 27 32 85 33 28 34 84 35
REMARK SMILES IDX 29 36 30 37 31 38 78 39 32 40 83 41 77 42 79 43 33 44 82 45
REMARK SMILES IDX 76 46 75 47 34 49 64 50 45 51 63 52 46 53 49 54 62 55 80 56
REMARK SMILES IDX 47 57 48 58 61 60 81 61 50 62 35 63 36 64 44 65 37 66 43 67
REMARK SMILES IDX 38 68 39 69 40 70 41 71 42 72 65 73 66 74 74 75 67 76 73 77
REMARK SMILES IDX 68 78 69 79 70 80 71 81 72 82 51 83 52 84 60 85 53 86 59 87
REMARK SMILES IDX 54 88 55 89 56 90 57 91 58 92
REMARK H PARENT 19 6 12 14 23 29 79 48 49 59
REMARK Flexibility Score: inf
ROOT
ATOM      1  C   UNL     1      -9.045   0.227   0.228  1.00  0.00     0.042 C 
ENDROOT
BRANCH   1   2
ATOM      2  C   UNL     1      -8.728   1.726   0.128  1.00  0.00     0.118 C 
BRANCH   2   3
ATOM      3  N   UNL     1      -8.861   2.414   1.403  1.00  0.00    -0.352 N 
ATOM      4  C   UNL     1      -7.950   2.728   2.385  1.00  0.00     0.251 C 
ATOM      5  O   UNL     1      -8.330   3.455   3.303  1.00  0.00    -0.269 OA
ATOM      6  H   UNL     1      -9.778   2.711   1.601  1.00  0.00     0.163 HD
BRANCH   4   7
ATOM      7  C   UNL     1      -6.526   2.289   2.358  1.00  0.00     0.039 A 
ATOM      8  C   UNL     1      -3.760   1.711   2.209  1.00  0.00     0.034 A 
ATOM      9  C   UNL     1      -4.228   2.750   3.017  1.00  0.00     0.026 A 
ATOM     10  C   UNL     1      -4.697   0.901   1.573  1.00  0.00     0.026 A 
ATOM     11  C   UNL     1      -5.595   3.050   3.077  1.00  0.00     0.016 A 
ATOM     12  C   UNL     1      -6.062   1.169   1.673  1.00  0.00     0.016 A 
BRANCH   8  13
ATOM     13  N   UNL     1      -2.409   1.605   1.941  1.00  0.00    -0.379 N 
ATOM     14  H   UNL     1      -1.753   1.673   2.672  1.00  0.00     0.160 HD
BRANCH  13  15
ATOM     15  C   UNL     1      -1.961   1.393   0.579  1.00  0.00     0.169 C 
BRANCH  15  16
ATOM     16  C   UNL     1      -0.700   2.106   0.272  1.00  0.00     0.066 A 
ATOM     17  C   UNL     1       0.999   0.178  -0.051  1.00  0.00     0.069 C 
ATOM     18  C   UNL     1       0.572   1.596   0.017  1.00  0.00     0.062 A 
ATOM     19  N   UNL     1       1.488   2.606  -0.191  1.00  0.00    -0.224 NA
ATOM     20  C   UNL     1       0.775   3.689  -0.068  1.00  0.00     0.194 A 
ATOM     21  N   UNL     1      -0.555   3.472   0.176  1.00  0.00    -0.290 N 
ATOM     22  S   UNL     1       1.148   5.378  -0.187  1.00  0.00    -0.105 S 
ATOM     23  C   UNL     1      -1.322   4.633   0.249  1.00  0.00     0.032 A 
ATOM     24  C   UNL     1      -0.557   5.732   0.075  1.00  0.00     0.090 A 
ATOM     25  C   UNL     1      -2.793   4.688   0.450  1.00  0.00     0.066 C 
ENDBRANCH  15  16
ENDBRANCH  13  15
ENDBRANCH   8  13
ENDBRANCH   4   7
ENDBRANCH   2   3
ENDBRANCH   1   2
BRANCH   1  26
ATOM     26  C   UNL     1     -10.529  -0.084   0.162  1.00  0.00     0.118 C 
BRANCH  26  27
ATOM     27  N   UNL     1     -11.096   0.137  -1.172  1.00  0.00    -0.352 N 
ATOM     28  C   UNL     1     -12.430   0.159  -1.556  1.00  0.00     0.251 C 
ATOM     29  H   UNL     1     -10.443   0.291  -1.892  1.00  0.00     0.163 HD
ATOM     30  O   UNL     1     -12.744  -0.025  -2.718  1.00  0.00    -0.269 OA
BRANCH  28  31
ATOM     31  C   UNL     1     -13.450   0.405  -0.518  1.00  0.00     0.039 A 
ATOM     32  C   UNL     1     -14.671  -0.275  -0.489  1.00  0.00     0.014 A 
ATOM     33  C   UNL     1     -13.112   1.296   0.488  1.00  0.00     0.014 A 
ATOM     34  C   UNL     1     -15.498  -0.116   0.625  1.00  0.00     0.010 A 
ATOM     35  C   UNL     1     -13.796   1.254   1.669  1.00  0.00     0.010 A 
ATOM     36  C   UNL     1     -15.037   0.634   1.717  1.00  0.00    -0.014 A 
BRANCH  36  37
ATOM     37  C   UNL     1     -15.778   0.748   2.967  1.00  0.00     0.031 A 
ATOM     38  C   UNL     1     -16.162  -0.538   3.594  1.00  0.00     0.074 A 
ATOM     39  C   UNL     1     -15.889   1.915   3.641  1.00  0.00     0.049 A 
ATOM     40  N   UNL     1     -17.332  -1.083   3.605  1.00  0.00    -0.248 NA
ATOM     41  C   UNL     1     -15.099  -1.393   4.147  1.00  0.00     0.031 C 
ATOM     42  C   UNL     1     -15.301   3.222   3.300  1.00  0.00     0.029 A 
ATOM     43  N   UNL     1     -16.454   2.155   4.853  1.00  0.00    -0.354 N 
ATOM     44  C   UNL     1     -17.208  -2.218   4.397  1.00  0.00     0.074 A 
ATOM     45  C   UNL     1     -15.794  -2.478   4.500  1.00  0.00     0.031 C 
ATOM     46  C   UNL     1     -15.328   4.033   4.380  1.00  0.00     0.029 A 
ATOM     47  C   UNL     1     -16.123   3.388   5.404  1.00  0.00     0.049 A 
ATOM     48  H   UNL     1     -17.047   1.511   5.302  1.00  0.00     0.167 HD
ATOM     49  C   UNL     1     -18.250  -2.668   5.153  1.00  0.00     0.031 A 
ATOM     50  C   UNL     1     -16.500   3.865   6.613  1.00  0.00     0.031 A 
ATOM     51  C   UNL     1     -19.471  -1.969   4.833  1.00  0.00     0.049 A 
ATOM     52  C   UNL     1     -17.738   3.143   6.979  1.00  0.00     0.074 A 
ATOM     53  C   UNL     1     -20.279  -1.842   3.723  1.00  0.00     0.029 A 
ATOM     54  N   UNL     1     -19.781  -0.922   5.670  1.00  0.00    -0.354 N 
ATOM     55  N   UNL     1     -18.848   3.246   6.301  1.00  0.00    -0.248 NA
ATOM     56  C   UNL     1     -17.656   1.993   7.865  1.00  0.00     0.031 C 
ATOM     57  C   UNL     1     -20.776  -0.504   3.769  1.00  0.00     0.029 A 
ATOM     58  C   UNL     1     -20.297   0.110   4.929  1.00  0.00     0.049 A 
ATOM     59  H   UNL     1     -19.653  -0.914   6.646  1.00  0.00     0.167 HD
ATOM     60  C   UNL     1     -19.396   1.974   6.330  1.00  0.00     0.074 A 
ATOM     61  C   UNL     1     -18.713   1.299   7.429  1.00  0.00     0.031 C 
ATOM     62  C   UNL     1     -20.140   1.509   5.283  1.00  0.00     0.031 A 
BRANCH  49  63
ATOM     63  C   UNL     1     -18.093  -3.374   6.483  1.00  0.00    -0.014 A 
ATOM     64  C   UNL     1     -19.252  -3.838   7.140  1.00  0.00     0.010 A 
ATOM     65  C   UNL     1     -16.903  -3.343   7.238  1.00  0.00     0.010 A 
ATOM     66  C   UNL     1     -19.234  -4.177   8.500  1.00  0.00     0.020 A 
ATOM     67  C   UNL     1     -16.863  -3.722   8.581  1.00  0.00     0.020 A 
ATOM     68  C   UNL     1     -18.039  -4.100   9.214  1.00  0.00     0.054 A 
BRANCH  68  69
ATOM     69  S   UNL     1     -18.045  -4.423  10.994  1.00  0.00     0.124 S 
ATOM     70  O   UNL     1     -18.834  -3.304  11.498  1.00  0.00    -0.237 OA
ATOM     71  O   UNL     1     -18.683  -5.735  11.068  1.00  0.00    -0.237 OA
ATOM     72  O   UNL     1     -16.628  -4.404  11.350  1.00  0.00    -0.744 OA
ENDBRANCH  68  69
ENDBRANCH  49  63
BRANCH  50  73
ATOM     73  C   UNL     1     -15.745   4.717   7.558  1.00  0.00    -0.014 A 
ATOM     74  C   UNL     1     -16.398   5.369   8.618  1.00  0.00     0.010 A 
ATOM     75  C   UNL     1     -14.337   4.639   7.596  1.00  0.00     0.010 A 
ATOM     76  C   UNL     1     -15.676   5.851   9.722  1.00  0.00     0.020 A 
ATOM     77  C   UNL     1     -13.611   5.121   8.693  1.00  0.00     0.020 A 
ATOM     78  C   UNL     1     -14.288   5.699   9.765  1.00  0.00     0.054 A 
BRANCH  78  79
ATOM     79  S   UNL     1     -13.393   6.140  11.285  1.00  0.00     0.124 S 
ATOM     80  O   UNL     1     -13.469   7.598  11.279  1.00  0.00    -0.237 OA
ATOM     81  O   UNL     1     -14.178   5.472  12.320  1.00  0.00    -0.237 OA
ATOM     82  O   UNL     1     -12.057   5.586  11.072  1.00  0.00    -0.744 OA
ENDBRANCH  78  79
ENDBRANCH  50  73
BRANCH  62  83
ATOM     83  C   UNL     1     -20.675   2.523   4.296  1.00  0.00    -0.014 A 
ATOM     84  C   UNL     1     -19.863   3.302   3.447  1.00  0.00     0.010 A 
ATOM     85  C   UNL     1     -22.070   2.601   4.144  1.00  0.00     0.010 A 
ATOM     86  C   UNL     1     -20.436   4.151   2.487  1.00  0.00     0.020 A 
ATOM     87  C   UNL     1     -22.646   3.432   3.180  1.00  0.00     0.020 A 
ATOM     88  C   UNL     1     -21.828   4.209   2.360  1.00  0.00     0.054 A 
BRANCH  88  89
ATOM     89  S   UNL     1     -22.567   5.271   1.086  1.00  0.00     0.124 S 
ATOM     90  O   UNL     1     -22.285   6.613   1.586  1.00  0.00    -0.237 OA
ATOM     91  O   UNL     1     -21.839   4.885  -0.122  1.00  0.00    -0.237 OA
ATOM     92  O   UNL     1     -23.979   4.892   1.093  1.00  0.00    -0.744 OA
ENDBRANCH  88  89
ENDBRANCH  62  83
ENDBRANCH  36  37
ENDBRANCH  28  31
ENDBRANCH  26  27
ENDBRANCH   1  26
TORSDOF 16
