REMARK SMILES C[C@@H](c1ccccc1)[C@@H]1[NH2+][C@@H](C(=O)NCCCNC(=O)c2ccc(-c3c4nc(c(-c5ccc(S(=O)(=O)[O-])cc5)c5ccc([nH]5)c(-c5ccc(S(=O)(=O)[O-])cc5)c5nc(c(-c6ccc(S(=O)(=O)[O-])cc6)c6ccc3[nH]6)C=C5)C=C4)cc2)CS1
REMARK SMILES IDX 16 1 15 2 14 3 12 4 13 5 11 7 9 8 10 9 82 10 81 13 2 14 1 15
REMARK SMILES IDX 3 16 4 17 8 18 5 19 7 20 6 21 17 22 18 23 19 24 20 26 21 27
REMARK SMILES IDX 22 28 80 29 23 30 79 31 24 32 25 33 26 34 73 35 27 36 78 37
REMARK SMILES IDX 72 38 74 39 28 40 77 41 71 42 70 43 29 45 59 46 40 47 58 48
REMARK SMILES IDX 41 49 44 50 57 51 75 52 42 53 43 54 56 56 76 57 45 58 30 59
REMARK SMILES IDX 31 60 39 61 32 62 38 63 33 64 34 65 35 66 36 67 37 68 60 69
REMARK SMILES IDX 61 70 69 71 62 72 68 73 63 74 64 75 65 76 66 77 67 78 46 79
REMARK SMILES IDX 47 80 55 81 48 82 54 83 49 84 50 85 51 86 52 87 53 88
REMARK H PARENT 14 6 10 11 10 12 18 25 74 44 44 55
REMARK Flexibility Score: inf
ROOT
ATOM      1  C   UNL     1      -1.383  -6.973   1.166  1.00  0.00     0.042 C 
ENDROOT
BRANCH   1   2
ATOM      2  C   UNL     1      -1.288  -6.251  -0.173  1.00  0.00     0.118 C 
BRANCH   2   3
ATOM      3  N   UNL     1      -2.485  -5.481  -0.459  1.00  0.00    -0.351 N 
ATOM      4  C   UNL     1      -2.678  -4.137  -0.530  1.00  0.00     0.279 C 
ATOM      5  O   UNL     1      -3.837  -3.733  -0.663  1.00  0.00    -0.268 OA
ATOM      6  H   UNL     1      -3.290  -6.022  -0.630  1.00  0.00     0.163 HD
BRANCH   4   7
ATOM      7  C   UNL     1      -1.498  -3.156  -0.433  1.00  0.00     0.283 C 
ATOM      8  C   UNL     1      -1.016  -1.076   0.664  1.00  0.00     0.249 C 
ATOM      9  N   UNL     1      -1.595  -2.418   0.859  1.00  0.00    -0.324 N 
ATOM     10  S   UNL     1      -1.683  -0.545  -0.942  1.00  0.00    -0.092 SA
ATOM     11  H   UNL     1      -2.572  -2.336   1.138  1.00  0.00     0.347 HD
ATOM     12  H   UNL     1      -1.089  -2.918   1.590  1.00  0.00     0.347 HD
ATOM     13  C   UNL     1      -1.554  -2.204  -1.636  1.00  0.00     0.151 C 
BRANCH   8  14
ATOM     14  C   UNL     1       0.546  -1.065   0.765  1.00  0.00     0.085 C 
ATOM     15  C   UNL     1       1.210   0.122   0.042  1.00  0.00     0.020 C 
BRANCH  14  16
ATOM     16  C   UNL     1       0.984  -1.139   2.229  1.00  0.00    -0.038 A 
ATOM     17  C   UNL     1       1.162  -2.394   2.833  1.00  0.00     0.004 A 
ATOM     18  C   UNL     1       1.187   0.010   3.011  1.00  0.00     0.004 A 
ATOM     19  C   UNL     1       1.547  -2.497   4.171  1.00  0.00     0.000 A 
ATOM     20  C   UNL     1       1.578  -0.094   4.348  1.00  0.00     0.000 A 
ATOM     21  C   UNL     1       1.758  -1.347   4.927  1.00  0.00     0.000 A 
ENDBRANCH  14  16
ENDBRANCH   8  14
ENDBRANCH   4   7
ENDBRANCH   2   3
ENDBRANCH   1   2
BRANCH   1  22
ATOM     22  C   UNL     1      -2.510  -7.999   1.250  1.00  0.00     0.118 C 
BRANCH  22  23
ATOM     23  N   UNL     1      -2.380  -9.069   0.270  1.00  0.00    -0.352 N 
ATOM     24  C   UNL     1      -2.293 -10.427   0.447  1.00  0.00     0.251 C 
ATOM     25  H   UNL     1      -2.349  -8.770  -0.668  1.00  0.00     0.163 HD
ATOM     26  O   UNL     1      -2.008 -11.140  -0.516  1.00  0.00    -0.269 OA
BRANCH  24  27
ATOM     27  C   UNL     1      -2.515 -11.034   1.777  1.00  0.00     0.039 A 
ATOM     28  C   UNL     1      -1.683 -12.078   2.189  1.00  0.00     0.014 A 
ATOM     29  C   UNL     1      -3.550 -10.599   2.609  1.00  0.00     0.014 A 
ATOM     30  C   UNL     1      -1.845 -12.636   3.460  1.00  0.00     0.010 A 
ATOM     31  C   UNL     1      -3.657 -11.098   3.905  1.00  0.00     0.010 A 
ATOM     32  C   UNL     1      -2.809 -12.125   4.345  1.00  0.00    -0.014 A 
BRANCH  32  33
ATOM     33  C   UNL     1      -2.938 -12.648   5.730  1.00  0.00     0.031 A 
ATOM     34  C   UNL     1      -4.212 -13.313   6.179  1.00  0.00     0.074 A 
ATOM     35  C   UNL     1      -1.927 -12.471   6.605  1.00  0.00     0.049 A 
ATOM     36  N   UNL     1      -4.524 -13.786   7.359  1.00  0.00    -0.248 NA
ATOM     37  C   UNL     1      -5.285 -13.443   5.179  1.00  0.00     0.031 C 
ATOM     38  C   UNL     1      -0.655 -11.806   6.308  1.00  0.00     0.029 A 
ATOM     39  N   UNL     1      -1.810 -12.831   7.925  1.00  0.00    -0.354 N 
ATOM     40  C   UNL     1      -5.829 -14.253   7.248  1.00  0.00     0.074 A 
ATOM     41  C   UNL     1      -6.269 -13.960   5.902  1.00  0.00     0.031 C 
ATOM     42  C   UNL     1       0.122 -11.833   7.402  1.00  0.00     0.029 A 
ATOM     43  C   UNL     1      -0.609 -12.473   8.491  1.00  0.00     0.049 A 
ATOM     44  H   UNL     1      -2.520 -13.301   8.420  1.00  0.00     0.167 HD
ATOM     45  C   UNL     1      -6.587 -14.886   8.175  1.00  0.00     0.031 A 
ATOM     46  C   UNL     1      -0.147 -12.633   9.747  1.00  0.00     0.031 A 
ATOM     47  C   UNL     1      -6.144 -15.182   9.513  1.00  0.00     0.049 A 
ATOM     48  C   UNL     1      -1.013 -13.325  10.764  1.00  0.00     0.074 A 
ATOM     49  C   UNL     1      -6.818 -15.867  10.509  1.00  0.00     0.029 A 
ATOM     50  N   UNL     1      -4.920 -14.807  10.045  1.00  0.00    -0.354 N 
ATOM     51  N   UNL     1      -2.219 -13.820  10.619  1.00  0.00    -0.248 NA
ATOM     52  C   UNL     1      -0.450 -13.492  12.111  1.00  0.00     0.031 C 
ATOM     53  C   UNL     1      -6.025 -15.854  11.662  1.00  0.00     0.029 A 
ATOM     54  C   UNL     1      -4.829 -15.222  11.363  1.00  0.00     0.049 A 
ATOM     55  H   UNL     1      -4.218 -14.318   9.557  1.00  0.00     0.167 HD
ATOM     56  C   UNL     1      -2.547 -14.384  11.847  1.00  0.00     0.074 A 
ATOM     57  C   UNL     1      -1.406 -14.182  12.717  1.00  0.00     0.031 C 
ATOM     58  C   UNL     1      -3.688 -15.014  12.220  1.00  0.00     0.031 A 
BRANCH  45  59
ATOM     59  C   UNL     1      -7.982 -15.296   7.776  1.00  0.00    -0.014 A 
ATOM     60  C   UNL     1      -8.200 -16.317   6.832  1.00  0.00     0.010 A 
ATOM     61  C   UNL     1      -9.092 -14.684   8.386  1.00  0.00     0.010 A 
ATOM     62  C   UNL     1      -9.499 -16.686   6.474  1.00  0.00     0.020 A 
ATOM     63  C   UNL     1     -10.394 -15.072   8.055  1.00  0.00     0.020 A 
ATOM     64  C   UNL     1     -10.588 -16.060   7.087  1.00  0.00     0.054 A 
BRANCH  64  65
ATOM     65  S   UNL     1     -12.263 -16.577   6.619  1.00  0.00     0.124 S 
ATOM     66  O   UNL     1     -12.381 -16.028   5.270  1.00  0.00    -0.237 OA
ATOM     67  O   UNL     1     -12.182 -18.033   6.699  1.00  0.00    -0.237 OA
ATOM     68  O   UNL     1     -13.115 -15.947   7.624  1.00  0.00    -0.744 OA
ENDBRANCH  64  65
ENDBRANCH  45  59
BRANCH  46  69
ATOM     69  C   UNL     1       1.211 -12.138  10.108  1.00  0.00    -0.014 A 
ATOM     70  C   UNL     1       2.251 -13.042  10.391  1.00  0.00     0.010 A 
ATOM     71  C   UNL     1       1.474 -10.757  10.162  1.00  0.00     0.010 A 
ATOM     72  C   UNL     1       3.522 -12.574  10.739  1.00  0.00     0.020 A 
ATOM     73  C   UNL     1       2.751 -10.286  10.478  1.00  0.00     0.020 A 
ATOM     74  C   UNL     1       3.765 -11.198  10.776  1.00  0.00     0.054 A 
BRANCH  74  75
ATOM     75  S   UNL     1       5.435 -10.616  11.180  1.00  0.00     0.124 S 
ATOM     76  O   UNL     1       5.521 -10.904  12.607  1.00  0.00    -0.237 OA
ATOM     77  O   UNL     1       6.274 -11.442  10.314  1.00  0.00    -0.237 OA
ATOM     78  O   UNL     1       5.397  -9.198  10.828  1.00  0.00    -0.744 OA
ENDBRANCH  74  75
ENDBRANCH  46  69
BRANCH  58  79
ATOM     79  C   UNL     1      -3.750 -15.569  13.620  1.00  0.00    -0.014 A 
ATOM     80  C   UNL     1      -3.837 -14.725  14.741  1.00  0.00     0.010 A 
ATOM     81  C   UNL     1      -3.769 -16.963  13.810  1.00  0.00     0.010 A 
ATOM     82  C   UNL     1      -3.904 -15.265  16.028  1.00  0.00     0.020 A 
ATOM     83  C   UNL     1      -3.869 -17.507  15.092  1.00  0.00     0.020 A 
ATOM     84  C   UNL     1      -3.920 -16.653  16.196  1.00  0.00     0.054 A 
BRANCH  84  85
ATOM     85  S   UNL     1      -4.045 -17.329  17.874  1.00  0.00     0.124 S 
ATOM     86  O   UNL     1      -2.717 -17.050  18.414  1.00  0.00    -0.237 OA
ATOM     87  O   UNL     1      -5.135 -16.548  18.453  1.00  0.00    -0.237 OA
ATOM     88  O   UNL     1      -4.345 -18.742  17.658  1.00  0.00    -0.744 OA
ENDBRANCH  84  85
ENDBRANCH  58  79
ENDBRANCH  32  33
ENDBRANCH  24  27
ENDBRANCH  22  23
ENDBRANCH   1  22
TORSDOF 15
