REMARK SMILES CCCn1c(N2CCC[C@@H](C)C2)c(/C=C2/SC(=S)N(CC(=O)NCCCNC(=O)c3ccc(-c4c5nc(c(-c6ccc(S(=O)(=O)[O-])cc6)c6ccc([nH]6)c(-c6ccc(S(=O)(=O)[O-])cc6)c6nc(c(-c7ccc(S(=O)(=O)[O-])cc7)c7ccc4[nH]7)C=C6)C=C5)cc3)C2=O)c(C)c(C#N)c1=O
REMARK SMILES IDX 24 1 23 2 21 3 22 4 20 6 19 7 14 8 15 9 16 10 90 11 17 12
REMARK SMILES IDX 91 13 18 14 13 15 4 16 5 17 97 18 94 19 98 20 92 21 93 22
REMARK SMILES IDX 3 23 2 24 1 25 6 26 7 27 12 28 8 29 10 30 9 31 11 32 95 33
REMARK SMILES IDX 96 34 25 35 26 36 27 37 28 38 29 40 30 41 31 42 89 43 32 44
REMARK SMILES IDX 88 45 33 46 34 47 35 48 82 49 36 50 87 51 81 52 83 53 37 54
REMARK SMILES IDX 86 55 80 56 79 57 38 59 68 60 49 61 67 62 50 63 53 64 66 65
REMARK SMILES IDX 84 66 51 67 52 68 65 70 85 71 54 72 39 73 40 74 48 75 41 76
REMARK SMILES IDX 47 77 42 78 43 79 44 80 45 81 46 82 69 83 70 84 78 85 71 86
REMARK SMILES IDX 77 87 72 88 73 89 74 90 75 91 76 92 55 93 56 94 64 95 57 96
REMARK SMILES IDX 63 97 58 98 59 99 60 100 61 101 62 102
REMARK H PARENT 23 5 27 39 83 58 53 69
REMARK Flexibility Score: inf
ROOT
ATOM      1  C   UNL     1      -1.051   8.354  -3.176  1.00  0.00     0.117 C 
ENDROOT
BRANCH   1   2
ATOM      2  N   UNL     1       0.249   7.921  -2.704  1.00  0.00    -0.354 N 
ATOM      3  C   UNL     1       0.966   6.804  -3.017  1.00  0.00     0.240 C 
ATOM      4  O   UNL     1       2.159   6.798  -2.706  1.00  0.00    -0.273 OA
ATOM      5  H   UNL     1       0.681   8.526  -2.059  1.00  0.00     0.163 HD
BRANCH   3   6
ATOM      6  C   UNL     1       0.354   5.659  -3.836  1.00  0.00     0.227 C 
BRANCH   6   7
ATOM      7  N   UNL     1      -0.828   5.071  -3.201  1.00  0.00    -0.283 N 
ATOM      8  C   UNL     1      -2.142   3.491  -0.191  1.00  0.00     0.033 C 
ATOM      9  C   UNL     1      -1.940   3.981  -1.426  1.00  0.00     0.081 C 
ATOM     10  S   UNL     1      -3.186   4.238  -2.582  1.00  0.00    -0.054 SA
ATOM     11  C   UNL     1      -0.634   4.405  -2.006  1.00  0.00     0.266 C 
ATOM     12  C   UNL     1      -2.081   4.951  -3.755  1.00  0.00     0.148 C 
ATOM     13  O   UNL     1       0.460   4.171  -1.509  1.00  0.00    -0.268 OA
ATOM     14  S   UNL     1      -2.572   5.352  -5.298  1.00  0.00    -0.052 S 
BRANCH   8  15
ATOM     15  C   UNL     1      -1.075   3.287   0.800  1.00  0.00     0.021 A 
ATOM     16  N   UNL     1       0.467   1.874   1.962  1.00  0.00    -0.293 N 
ATOM     17  C   UNL     1      -0.675   2.017   1.137  1.00  0.00     0.119 A 
ATOM     18  C   UNL     1       1.226   2.967   2.424  1.00  0.00     0.270 A 
ATOM     19  C   UNL     1       0.725   4.316   2.100  1.00  0.00     0.121 A 
ATOM     20  O   UNL     1       2.247   2.861   3.104  1.00  0.00    -0.268 OA
ATOM     21  C   UNL     1      -0.402   4.463   1.383  1.00  0.00    -0.017 A 
ATOM     22  C   UNL     1      -1.023   5.824   1.132  1.00  0.00     0.047 C 
BRANCH  16  23
ATOM     23  C   UNL     1       0.944   0.553   2.397  1.00  0.00     0.127 C 
BRANCH  23  24
ATOM     24  C   UNL     1       1.327  -0.474   1.327  1.00  0.00     0.019 C 
ATOM     25  C   UNL     1       2.108   0.060   0.143  1.00  0.00     0.006 C 
ENDBRANCH  23  24
ENDBRANCH  16  23
BRANCH  17  26
ATOM     26  N   UNL     1      -1.340   0.866   0.638  1.00  0.00    -0.357 N 
ATOM     27  C   UNL     1      -2.296   0.123   1.481  1.00  0.00     0.118 C 
ATOM     28  C   UNL     1      -1.569   0.672  -0.806  1.00  0.00     0.121 C 
ATOM     29  C   UNL     1      -2.317  -1.369   1.127  1.00  0.00     0.022 C 
ATOM     30  C   UNL     1      -1.454  -0.801  -1.194  1.00  0.00     0.005 C 
ATOM     31  C   UNL     1      -2.438  -1.641  -0.374  1.00  0.00     0.007 C 
ATOM     32  C   UNL     1      -1.697  -0.967  -2.695  1.00  0.00     0.009 C 
ENDBRANCH  17  26
BRANCH  19  33
ATOM     33  C   UNL     1       1.455   5.553   2.599  1.00  0.00     0.105 C 
ATOM     34  N   UNL     1       2.060   6.579   3.012  1.00  0.00    -0.192 NA
ENDBRANCH  19  33
ENDBRANCH   8  15
ENDBRANCH   6   7
ENDBRANCH   3   6
ENDBRANCH   1   2
BRANCH   1  35
ATOM     35  C   UNL     1      -2.090   8.389  -2.062  1.00  0.00     0.042 C 
BRANCH  35  36
ATOM     36  C   UNL     1      -1.831   9.486  -1.031  1.00  0.00     0.118 C 
BRANCH  36  37
ATOM     37  N   UNL     1      -2.001  10.818  -1.595  1.00  0.00    -0.352 N 
ATOM     38  C   UNL     1      -2.951  11.769  -1.313  1.00  0.00     0.251 C 
ATOM     39  H   UNL     1      -1.339  11.074  -2.277  1.00  0.00     0.163 HD
ATOM     40  O   UNL     1      -3.075  12.748  -2.043  1.00  0.00    -0.269 OA
BRANCH  38  41
ATOM     41  C   UNL     1      -3.827  11.600  -0.138  1.00  0.00     0.039 A 
ATOM     42  C   UNL     1      -5.206  11.769  -0.285  1.00  0.00     0.014 A 
ATOM     43  C   UNL     1      -3.280  11.285   1.111  1.00  0.00     0.014 A 
ATOM     44  C   UNL     1      -6.045  11.565   0.812  1.00  0.00     0.010 A 
ATOM     45  C   UNL     1      -4.122  11.026   2.188  1.00  0.00     0.010 A 
ATOM     46  C   UNL     1      -5.510  11.170   2.049  1.00  0.00    -0.014 A 
BRANCH  46  47
ATOM     47  C   UNL     1      -6.386  10.943   3.223  1.00  0.00     0.031 A 
ATOM     48  C   UNL     1      -6.338  11.901   4.381  1.00  0.00     0.074 A 
ATOM     49  C   UNL     1      -7.205   9.873   3.256  1.00  0.00     0.049 A 
ATOM     50  N   UNL     1      -7.000  11.858   5.507  1.00  0.00    -0.248 NA
ATOM     51  C   UNL     1      -5.423  13.050   4.264  1.00  0.00     0.031 C 
ATOM     52  C   UNL     1      -7.343   8.877   2.192  1.00  0.00     0.029 A 
ATOM     53  N   UNL     1      -8.085   9.450   4.221  1.00  0.00    -0.354 N 
ATOM     54  C   UNL     1      -6.589  12.973   6.227  1.00  0.00     0.074 A 
ATOM     55  C   UNL     1      -5.585  13.648   5.436  1.00  0.00     0.031 C 
ATOM     56  C   UNL     1      -8.280   7.982   2.546  1.00  0.00     0.029 A 
ATOM     57  C   UNL     1      -8.783   8.317   3.876  1.00  0.00     0.049 A 
ATOM     58  H   UNL     1      -8.205   9.915   5.081  1.00  0.00     0.167 HD
ATOM     59  C   UNL     1      -7.030  13.411   7.428  1.00  0.00     0.031 A 
ATOM     60  C   UNL     1      -9.726   7.630   4.551  1.00  0.00     0.031 A 
ATOM     61  C   UNL     1      -8.039  12.750   8.207  1.00  0.00     0.049 A 
ATOM     62  C   UNL     1     -10.150   8.104   5.914  1.00  0.00     0.074 A 
ATOM     63  C   UNL     1      -8.564  13.136   9.428  1.00  0.00     0.029 A 
ATOM     64  N   UNL     1      -8.681  11.578   7.844  1.00  0.00    -0.354 N 
ATOM     65  N   UNL     1      -9.755   9.167   6.572  1.00  0.00    -0.248 NA
ATOM     66  C   UNL     1     -11.146   7.290   6.625  1.00  0.00     0.031 C 
ATOM     67  C   UNL     1      -9.495  12.173   9.824  1.00  0.00     0.029 A 
ATOM     68  C   UNL     1      -9.586  11.217   8.825  1.00  0.00     0.049 A 
ATOM     69  H   UNL     1      -8.518  11.078   7.012  1.00  0.00     0.167 HD
ATOM     70  C   UNL     1     -10.476   9.165   7.761  1.00  0.00     0.074 A 
ATOM     71  C   UNL     1     -11.331   7.997   7.733  1.00  0.00     0.031 C 
ATOM     72  C   UNL     1     -10.435  10.056   8.780  1.00  0.00     0.031 A 
BRANCH  59  73
ATOM     73  C   UNL     1      -6.450  14.683   7.975  1.00  0.00    -0.014 A 
ATOM     74  C   UNL     1      -6.864  15.927   7.468  1.00  0.00     0.010 A 
ATOM     75  C   UNL     1      -5.586  14.641   9.083  1.00  0.00     0.010 A 
ATOM     76  C   UNL     1      -6.428  17.111   8.066  1.00  0.00     0.020 A 
ATOM     77  C   UNL     1      -5.163  15.823   9.696  1.00  0.00     0.020 A 
ATOM     78  C   UNL     1      -5.593  17.050   9.186  1.00  0.00     0.054 A 
BRANCH  78  79
ATOM     79  S   UNL     1      -5.110  18.606   9.983  1.00  0.00     0.124 S 
ATOM     80  O   UNL     1      -4.431  19.309   8.897  1.00  0.00    -0.237 OA
ATOM     81  O   UNL     1      -6.398  19.164  10.385  1.00  0.00    -0.237 OA
ATOM     82  O   UNL     1      -4.244  18.181  11.081  1.00  0.00    -0.744 OA
ENDBRANCH  78  79
ENDBRANCH  59  73
BRANCH  60  83
ATOM     83  C   UNL     1     -10.358   6.433   3.934  1.00  0.00    -0.014 A 
ATOM     84  C   UNL     1     -11.685   6.494   3.474  1.00  0.00     0.010 A 
ATOM     85  C   UNL     1      -9.637   5.234   3.789  1.00  0.00     0.010 A 
ATOM     86  C   UNL     1     -12.283   5.376   2.886  1.00  0.00     0.020 A 
ATOM     87  C   UNL     1     -10.224   4.121   3.181  1.00  0.00     0.020 A 
ATOM     88  C   UNL     1     -11.545   4.199   2.735  1.00  0.00     0.054 A 
BRANCH  88  89
ATOM     89  S   UNL     1     -12.334   2.775   1.935  1.00  0.00     0.124 S 
ATOM     90  O   UNL     1     -13.469   2.515   2.815  1.00  0.00    -0.237 OA
ATOM     91  O   UNL     1     -12.663   3.309   0.616  1.00  0.00    -0.237 OA
ATOM     92  O   UNL     1     -11.290   1.752   1.945  1.00  0.00    -0.744 OA
ENDBRANCH  88  89
ENDBRANCH  60  83
BRANCH  72  93
ATOM     93  C   UNL     1     -11.354   9.840   9.950  1.00  0.00    -0.014 A 
ATOM     94  C   UNL     1     -11.059   8.876  10.929  1.00  0.00     0.010 A 
ATOM     95  C   UNL     1     -12.450  10.702  10.137  1.00  0.00     0.010 A 
ATOM     96  C   UNL     1     -11.848   8.779  12.077  1.00  0.00     0.020 A 
ATOM     97  C   UNL     1     -13.227  10.623  11.294  1.00  0.00     0.020 A 
ATOM     98  C   UNL     1     -12.919   9.661  12.258  1.00  0.00     0.054 A 
BRANCH  98  99
ATOM     99  S   UNL     1     -13.882   9.550  13.792  1.00  0.00     0.124 S 
ATOM    100  O   UNL     1     -14.399   8.185  13.733  1.00  0.00    -0.237 OA
ATOM    101  O   UNL     1     -12.869   9.795  14.815  1.00  0.00    -0.237 OA
ATOM    102  O   UNL     1     -14.888  10.600  13.649  1.00  0.00    -0.744 OA
ENDBRANCH  98  99
ENDBRANCH  72  93
ENDBRANCH  46  47
ENDBRANCH  38  41
ENDBRANCH  36  37
ENDBRANCH  35  36
ENDBRANCH   1  35
TORSDOF 19
