REMARK SMILES NC(=O)[C@@H]1CCC[N@H+]1[C@H](C(=O)NCCCNC(=O)c1ccc(-c2c3nc(c(-c4ccc(S(=O)(=O)[O-])cc4)c4ccc([nH]4)c(-c4ccc(S(=O)(=O)[O-])cc4)c4nc(c(-c5ccc(S(=O)(=O)[O-])cc5)c5ccc2[nH]5)C=C4)C=C3)cc1)c1c[nH]c2cc(NC(=O)c3ccccc3)ccc12
REMARK SMILES IDX 14 1 13 2 12 3 10 4 11 5 9 7 8 8 4 9 5 10 6 11 7 12 2 14
REMARK SMILES IDX 1 15 3 18 79 19 80 20 96 21 81 22 82 23 95 24 83 26 94 27
REMARK SMILES IDX 84 28 85 29 86 30 87 32 88 33 89 34 93 35 90 36 92 37 91 38
REMARK SMILES IDX 15 39 16 40 17 41 18 43 19 44 20 45 78 46 21 47 77 48 22 49
REMARK SMILES IDX 23 50 24 51 71 52 25 53 76 54 70 55 72 56 26 57 75 58 69 59
REMARK SMILES IDX 68 60 27 62 57 63 38 64 56 65 39 66 42 67 55 68 73 69 40 70
REMARK SMILES IDX 41 71 54 73 74 74 43 75 28 76 29 77 37 78 30 79 36 80 31 81
REMARK SMILES IDX 32 82 33 83 34 84 35 85 58 86 59 87 67 88 60 89 66 90 61 91
REMARK SMILES IDX 62 92 63 93 64 94 65 95 44 96 45 97 53 98 46 99 52 100
REMARK SMILES IDX 47 101 48 102 49 103 50 104 51 105
REMARK H PARENT 12 6 8 13 1 16 1 17 81 25 85 31 16 42 72 61 42 72
REMARK Flexibility Score: inf
ROOT
ATOM      1  C   UNL     1       0.575  -5.573  -0.156  1.00  0.00     0.042 C 
ENDROOT
BRANCH   1   2
ATOM      2  C   UNL     1       1.941  -4.915  -0.091  1.00  0.00     0.118 C 
BRANCH   2   3
ATOM      3  N   UNL     1       1.900  -3.476  -0.194  1.00  0.00    -0.351 N 
ATOM      4  C   UNL     1       2.250  -2.492   0.679  1.00  0.00     0.283 C 
ATOM      5  O   UNL     1       2.189  -1.339   0.220  1.00  0.00    -0.268 OA
ATOM      6  H   UNL     1       1.556  -3.145  -1.055  1.00  0.00     0.163 HD
BRANCH   4   7
ATOM      7  C   UNL     1       2.667  -2.706   2.166  1.00  0.00     0.308 C 
BRANCH   7   8
ATOM      8  N   UNL     1       1.555  -2.940   3.065  1.00  0.00    -0.311 N 
ATOM      9  C   UNL     1       0.698  -4.109   3.135  1.00  0.00     0.275 C 
ATOM     10  C   UNL     1       0.410  -4.271   4.634  1.00  0.00     0.081 C 
ATOM     11  C   UNL     1       1.147  -3.134   5.328  1.00  0.00     0.068 C 
ATOM     12  C   UNL     1       1.398  -2.114   4.241  1.00  0.00     0.264 C 
ATOM     13  H   UNL     1       1.285  -2.657   2.123  1.00  0.00     0.349 HD
BRANCH   9  14
ATOM     14  C   UNL     1      -0.645  -3.942   2.391  1.00  0.00     0.275 C 
ATOM     15  N   UNL     1      -0.802  -2.860   1.582  1.00  0.00    -0.365 N 
ATOM     16  H   UNL     1      -1.648  -2.728   1.095  1.00  0.00     0.159 HD
ATOM     17  H   UNL     1      -0.070  -2.209   1.483  1.00  0.00     0.159 HD
ATOM     18  O   UNL     1      -1.548  -4.773   2.469  1.00  0.00    -0.268 OA
ENDBRANCH   9  14
ENDBRANCH   7   8
BRANCH   7  19
ATOM     19  C   UNL     1       3.981  -3.461   2.299  1.00  0.00     0.044 A 
ATOM     20  C   UNL     1       5.190  -2.796   2.099  1.00  0.00     0.094 A 
ATOM     21  C   UNL     1       4.326  -4.859   2.250  1.00  0.00     0.009 A 
ATOM     22  N   UNL     1       6.032  -3.672   1.471  1.00  0.00    -0.361 N 
ATOM     23  C   UNL     1       5.426  -4.900   1.391  1.00  0.00     0.048 A 
ATOM     24  C   UNL     1       3.743  -6.099   2.589  1.00  0.00     0.013 A 
ATOM     25  H   UNL     1       6.930  -3.456   1.131  1.00  0.00     0.166 HD
ATOM     26  C   UNL     1       5.735  -6.015   0.603  1.00  0.00     0.052 A 
ATOM     27  C   UNL     1       4.098  -7.252   1.857  1.00  0.00     0.027 A 
ATOM     28  C   UNL     1       4.962  -7.162   0.763  1.00  0.00     0.043 A 
BRANCH  28  29
ATOM     29  N   UNL     1       5.049  -8.253  -0.122  1.00  0.00    -0.322 N 
ATOM     30  C   UNL     1       5.265  -8.282  -1.490  1.00  0.00     0.255 C 
ATOM     31  H   UNL     1       4.938  -9.137   0.298  1.00  0.00     0.170 HD
ATOM     32  O   UNL     1       5.619  -9.312  -2.061  1.00  0.00    -0.269 OA
BRANCH  30  33
ATOM     33  C   UNL     1       4.820  -7.149  -2.339  1.00  0.00     0.040 A 
ATOM     34  C   UNL     1       3.548  -7.224  -2.921  1.00  0.00     0.014 A 
ATOM     35  C   UNL     1       5.658  -6.083  -2.662  1.00  0.00     0.014 A 
ATOM     36  C   UNL     1       3.069  -6.180  -3.716  1.00  0.00     0.001 A 
ATOM     37  C   UNL     1       5.173  -5.030  -3.445  1.00  0.00     0.001 A 
ATOM     38  C   UNL     1       3.874  -5.069  -3.954  1.00  0.00     0.000 A 
ENDBRANCH  30  33
ENDBRANCH  28  29
ENDBRANCH   7  19
ENDBRANCH   4   7
ENDBRANCH   2   3
ENDBRANCH   1   2
BRANCH   1  39
ATOM     39  C   UNL     1       0.559  -6.909  -0.871  1.00  0.00     0.118 C 
BRANCH  39  40
ATOM     40  N   UNL     1       1.550  -7.874  -0.418  1.00  0.00    -0.352 N 
ATOM     41  C   UNL     1       1.534  -9.255  -0.505  1.00  0.00     0.251 C 
ATOM     42  H   UNL     1       2.347  -7.489   0.013  1.00  0.00     0.163 HD
ATOM     43  O   UNL     1       2.462  -9.906  -0.053  1.00  0.00    -0.269 OA
BRANCH  41  44
ATOM     44  C   UNL     1       0.341  -9.920  -1.086  1.00  0.00     0.039 A 
ATOM     45  C   UNL     1      -0.208 -11.010  -0.411  1.00  0.00     0.014 A 
ATOM     46  C   UNL     1      -0.314  -9.380  -2.193  1.00  0.00     0.014 A 
ATOM     47  C   UNL     1      -1.493 -11.443  -0.743  1.00  0.00     0.010 A 
ATOM     48  C   UNL     1      -1.638  -9.718  -2.431  1.00  0.00     0.010 A 
ATOM     49  C   UNL     1      -2.252 -10.734  -1.689  1.00  0.00    -0.014 A 
BRANCH  49  50
ATOM     50  C   UNL     1      -3.707 -10.982  -1.854  1.00  0.00     0.031 A 
ATOM     51  C   UNL     1      -4.272 -11.355  -3.196  1.00  0.00     0.074 A 
ATOM     52  C   UNL     1      -4.529 -10.753  -0.808  1.00  0.00     0.049 A 
ATOM     53  N   UNL     1      -5.518 -11.561  -3.534  1.00  0.00    -0.248 NA
ATOM     54  C   UNL     1      -3.321 -11.460  -4.315  1.00  0.00     0.031 C 
ATOM     55  C   UNL     1      -4.111 -10.263   0.510  1.00  0.00     0.029 A 
ATOM     56  N   UNL     1      -5.888 -10.895  -0.687  1.00  0.00    -0.354 N 
ATOM     57  C   UNL     1      -5.504 -11.777  -4.907  1.00  0.00     0.074 A 
ATOM     58  C   UNL     1      -4.136 -11.623  -5.347  1.00  0.00     0.031 C 
ATOM     59  C   UNL     1      -5.180 -10.199   1.319  1.00  0.00     0.029 A 
ATOM     60  C   UNL     1      -6.363 -10.608   0.573  1.00  0.00     0.049 A 
ATOM     61  H   UNL     1      -6.469 -11.176  -1.430  1.00  0.00     0.167 HD
ATOM     62  C   UNL     1      -6.534 -12.101  -5.725  1.00  0.00     0.031 A 
ATOM     63  C   UNL     1      -7.610 -10.681   1.076  1.00  0.00     0.031 A 
ATOM     64  C   UNL     1      -7.882 -12.295  -5.267  1.00  0.00     0.049 A 
ATOM     65  C   UNL     1      -8.719 -11.159   0.183  1.00  0.00     0.074 A 
ATOM     66  C   UNL     1      -8.986 -12.717  -5.985  1.00  0.00     0.029 A 
ATOM     67  N   UNL     1      -8.306 -12.086  -3.962  1.00  0.00    -0.354 N 
ATOM     68  N   UNL     1      -8.669 -11.466  -1.093  1.00  0.00    -0.248 NA
ATOM     69  C   UNL     1     -10.043 -11.322   0.794  1.00  0.00     0.031 C 
ATOM     70  C   UNL     1     -10.085 -12.739  -5.118  1.00  0.00     0.029 A 
ATOM     71  C   UNL     1      -9.657 -12.366  -3.853  1.00  0.00     0.049 A 
ATOM     72  H   UNL     1      -7.731 -11.784  -3.223  1.00  0.00     0.167 HD
ATOM     73  C   UNL     1      -9.952 -11.873  -1.433  1.00  0.00     0.074 A 
ATOM     74  C   UNL     1     -10.751 -11.791  -0.226  1.00  0.00     0.031 C 
ATOM     75  C   UNL     1     -10.426 -12.277  -2.637  1.00  0.00     0.031 A 
BRANCH  62  76
ATOM     76  C   UNL     1      -6.223 -12.265  -7.189  1.00  0.00    -0.014 A 
ATOM     77  C   UNL     1      -5.436 -13.338  -7.650  1.00  0.00     0.010 A 
ATOM     78  C   UNL     1      -6.699 -11.321  -8.116  1.00  0.00     0.010 A 
ATOM     79  C   UNL     1      -5.070 -13.422  -8.995  1.00  0.00     0.020 A 
ATOM     80  C   UNL     1      -6.360 -11.419  -9.469  1.00  0.00     0.020 A 
ATOM     81  C   UNL     1      -5.522 -12.452  -9.894  1.00  0.00     0.054 A 
BRANCH  81  82
ATOM     82  S   UNL     1      -5.010 -12.564 -11.631  1.00  0.00     0.124 S 
ATOM     83  O   UNL     1      -3.647 -12.040 -11.574  1.00  0.00    -0.237 OA
ATOM     84  O   UNL     1      -5.121 -13.993 -11.912  1.00  0.00    -0.237 OA
ATOM     85  O   UNL     1      -5.974 -11.718 -12.330  1.00  0.00    -0.744 OA
ENDBRANCH  81  82
ENDBRANCH  62  76
BRANCH  63  86
ATOM     86  C   UNL     1      -7.847 -10.354   2.508  1.00  0.00    -0.014 A 
ATOM     87  C   UNL     1      -8.052 -11.382   3.446  1.00  0.00     0.010 A 
ATOM     88  C   UNL     1      -7.804  -9.021   2.956  1.00  0.00     0.010 A 
ATOM     89  C   UNL     1      -8.215 -11.084   4.802  1.00  0.00     0.020 A 
ATOM     90  C   UNL     1      -7.945  -8.721   4.315  1.00  0.00     0.020 A 
ATOM     91  C   UNL     1      -8.155  -9.755   5.230  1.00  0.00     0.054 A 
BRANCH  91  92
ATOM     92  S   UNL     1      -8.288  -9.399   7.005  1.00  0.00     0.124 S 
ATOM     93  O   UNL     1      -9.717  -9.573   7.244  1.00  0.00    -0.237 OA
ATOM     94  O   UNL     1      -7.420 -10.414   7.598  1.00  0.00    -0.237 OA
ATOM     95  O   UNL     1      -7.796  -8.028   7.118  1.00  0.00    -0.744 OA
ENDBRANCH  91  92
ENDBRANCH  63  86
BRANCH  75  96
ATOM     96  C   UNL     1     -11.872 -12.680  -2.705  1.00  0.00    -0.014 A 
ATOM     97  C   UNL     1     -12.891 -11.713  -2.708  1.00  0.00     0.010 A 
ATOM     98  C   UNL     1     -12.207 -14.039  -2.841  1.00  0.00     0.010 A 
ATOM     99  C   UNL     1     -14.227 -12.101  -2.827  1.00  0.00     0.020 A 
ATOM    100  C   UNL     1     -13.540 -14.428  -2.980  1.00  0.00     0.020 A 
ATOM    101  C   UNL     1     -14.543 -13.457  -2.962  1.00  0.00     0.054 A 
BRANCH 101 102
ATOM    102  S   UNL     1     -16.280 -13.933  -3.177  1.00  0.00     0.124 S 
ATOM    103  O   UNL     1     -16.795 -13.825  -1.815  1.00  0.00    -0.237 OA
ATOM    104  O   UNL     1     -16.776 -12.931  -4.118  1.00  0.00    -0.237 OA
ATOM    105  O   UNL     1     -16.202 -15.291  -3.710  1.00  0.00    -0.744 OA
ENDBRANCH 101 102
ENDBRANCH  75  96
ENDBRANCH  49  50
ENDBRANCH  41  44
ENDBRANCH  39  40
ENDBRANCH   1  39
TORSDOF 18
