REMARK SMILES O=C(NC1(C(=O)NCCCNC(=O)c2ccc(-c3c4nc(c(-c5ccc(S(=O)(=O)[O-])cc5)c5ccc([nH]5)c(-c5ccc(S(=O)(=O)[O-])cc5)c5nc(c(-c6ccc(S(=O)(=O)[O-])cc6)c6ccc3[nH]6)C=C5)C=C4)cc2)Cc2ccccc2C1)OCC1c2ccccc2-c2ccccc21
REMARK SMILES IDX 8 1 7 2 5 3 6 4 4 6 74 7 81 8 75 9 80 10 76 11 79 12 77 13
REMARK SMILES IDX 78 14 3 15 1 16 2 17 82 19 83 20 84 21 85 22 96 23 86 24
REMARK SMILES IDX 90 25 91 26 95 27 87 28 89 29 92 30 94 31 88 32 93 33 9 34
REMARK SMILES IDX 10 35 11 36 12 37 13 39 14 40 15 41 73 42 16 43 72 44 17 45
REMARK SMILES IDX 18 46 19 47 66 48 20 49 71 50 65 51 67 52 21 53 70 54 64 55
REMARK SMILES IDX 63 56 22 58 52 59 33 60 51 61 34 62 37 63 50 64 68 65 35 66
REMARK SMILES IDX 36 67 49 69 69 70 38 71 23 72 24 73 32 74 25 75 31 76 26 77
REMARK SMILES IDX 27 78 28 79 29 80 30 81 53 82 54 83 62 84 55 85 61 86 56 87
REMARK SMILES IDX 57 88 58 89 59 90 60 91 39 92 40 93 48 94 41 95 47 96 42 97
REMARK SMILES IDX 43 98 44 99 45 100 46 101
REMARK H PARENT 7 5 3 18 11 38 67 57 37 68
REMARK Flexibility Score: inf
ROOT
ATOM      1  C   UNL     1       7.476  -0.212  -0.977  1.00  0.00     0.117 C 
ENDROOT
BRANCH   1   2
ATOM      2  N   UNL     1       6.214   0.270  -1.470  1.00  0.00    -0.354 N 
ATOM      3  C   UNL     1       4.981  -0.269  -1.495  1.00  0.00     0.246 C 
ATOM      4  O   UNL     1       4.153   0.416  -2.121  1.00  0.00    -0.272 OA
ATOM      5  H   UNL     1       6.261   1.169  -1.867  1.00  0.00     0.163 HD
BRANCH   3   6
ATOM      6  C   UNL     1       4.557  -1.666  -0.918  1.00  0.00     0.130 C 
ATOM      7  C   UNL     1       5.164  -2.289   0.357  1.00  0.00     0.075 C 
ATOM      8  C   UNL     1       4.883  -2.697  -2.041  1.00  0.00     0.075 C 
ATOM      9  C   UNL     1       6.236  -3.186  -0.141  1.00  0.00    -0.042 A 
ATOM     10  C   UNL     1       6.158  -3.317  -1.526  1.00  0.00    -0.042 A 
ATOM     11  C   UNL     1       7.298  -3.668   0.607  1.00  0.00     0.004 A 
ATOM     12  C   UNL     1       7.224  -3.868  -2.212  1.00  0.00     0.004 A 
ATOM     13  C   UNL     1       8.376  -4.207  -0.079  1.00  0.00     0.000 A 
ATOM     14  C   UNL     1       8.348  -4.286  -1.480  1.00  0.00     0.000 A 
BRANCH   6  15
ATOM     15  N   UNL     1       3.121  -1.417  -0.642  1.00  0.00    -0.306 N 
ATOM     16  O   UNL     1       1.599  -0.064   0.395  1.00  0.00    -0.225 OA
ATOM     17  C   UNL     1       2.718  -0.575   0.374  1.00  0.00     0.408 C 
ATOM     18  H   UNL     1       2.441  -1.863  -1.197  1.00  0.00     0.168 HD
BRANCH  17  19
ATOM     19  O   UNL     1       3.688  -0.307   1.303  1.00  0.00    -0.449 OA
BRANCH  19  20
ATOM     20  C   UNL     1       3.975   1.088   1.409  1.00  0.00     0.248 C 
BRANCH  20  21
ATOM     21  C   UNL     1       5.056   1.499   2.453  1.00  0.00     0.088 C 
ATOM     22  C   UNL     1       6.453   0.863   2.404  1.00  0.00    -0.029 A 
ATOM     23  C   UNL     1       5.403   2.954   2.085  1.00  0.00    -0.029 A 
ATOM     24  C   UNL     1       6.872  -0.388   2.837  1.00  0.00     0.005 A 
ATOM     25  C   UNL     1       7.410   1.805   1.959  1.00  0.00    -0.014 A 
ATOM     26  C   UNL     1       6.738   3.039   1.642  1.00  0.00    -0.014 A 
ATOM     27  C   UNL     1       4.536   4.029   1.971  1.00  0.00     0.005 A 
ATOM     28  C   UNL     1       8.235  -0.712   2.755  1.00  0.00     0.000 A 
ATOM     29  C   UNL     1       8.768   1.505   1.929  1.00  0.00     0.009 A 
ATOM     30  C   UNL     1       7.180   4.152   0.950  1.00  0.00     0.009 A 
ATOM     31  C   UNL     1       4.988   5.162   1.296  1.00  0.00     0.000 A 
ATOM     32  C   UNL     1       9.176   0.225   2.303  1.00  0.00     0.001 A 
ATOM     33  C   UNL     1       6.285   5.209   0.758  1.00  0.00     0.001 A 
ENDBRANCH  20  21
ENDBRANCH  19  20
ENDBRANCH  17  19
ENDBRANCH   6  15
ENDBRANCH   3   6
ENDBRANCH   1   2
BRANCH   1  34
ATOM     34  C   UNL     1       8.468  -0.445  -2.100  1.00  0.00     0.042 C 
BRANCH  34  35
ATOM     35  C   UNL     1       9.121   0.860  -2.535  1.00  0.00     0.118 C 
BRANCH  35  36
ATOM     36  N   UNL     1       9.984   1.406  -1.488  1.00  0.00    -0.352 N 
ATOM     37  C   UNL     1      11.345   1.572  -1.465  1.00  0.00     0.251 C 
ATOM     38  H   UNL     1       9.515   1.700  -0.673  1.00  0.00     0.163 HD
ATOM     39  O   UNL     1      11.921   1.797  -0.406  1.00  0.00    -0.269 OA
BRANCH  37  40
ATOM     40  C   UNL     1      12.096   1.466  -2.729  1.00  0.00     0.039 A 
ATOM     41  C   UNL     1      13.294   0.750  -2.764  1.00  0.00     0.014 A 
ATOM     42  C   UNL     1      11.582   2.049  -3.889  1.00  0.00     0.014 A 
ATOM     43  C   UNL     1      13.934   0.553  -3.988  1.00  0.00     0.010 A 
ATOM     44  C   UNL     1      12.158   1.758  -5.114  1.00  0.00     0.010 A 
ATOM     45  C   UNL     1      13.345   1.016  -5.177  1.00  0.00    -0.014 A 
BRANCH  45  46
ATOM     46  C   UNL     1      13.947   0.747  -6.505  1.00  0.00     0.031 A 
ATOM     47  C   UNL     1      14.358   1.899  -7.382  1.00  0.00     0.074 A 
ATOM     48  C   UNL     1      14.033  -0.521  -6.953  1.00  0.00     0.049 A 
ATOM     49  N   UNL     1      14.805   1.880  -8.610  1.00  0.00    -0.248 NA
ATOM     50  C   UNL     1      14.212   3.253  -6.819  1.00  0.00     0.031 C 
ATOM     51  C   UNL     1      13.616  -1.715  -6.211  1.00  0.00     0.029 A 
ATOM     52  N   UNL     1      14.491  -1.018  -8.146  1.00  0.00    -0.354 N 
ATOM     53  C   UNL     1      14.968   3.212  -8.972  1.00  0.00     0.074 A 
ATOM     54  C   UNL     1      14.516   4.014  -7.859  1.00  0.00     0.031 C 
ATOM     55  C   UNL     1      13.869  -2.805  -6.953  1.00  0.00     0.029 A 
ATOM     56  C   UNL     1      14.416  -2.388  -8.239  1.00  0.00     0.049 A 
ATOM     57  H   UNL     1      14.840  -0.448  -8.869  1.00  0.00     0.167 HD
ATOM     58  C   UNL     1      15.471   3.721 -10.121  1.00  0.00     0.031 A 
ATOM     59  C   UNL     1      14.743  -3.215  -9.252  1.00  0.00     0.031 A 
ATOM     60  C   UNL     1      15.937   2.913 -11.215  1.00  0.00     0.049 A 
ATOM     61  C   UNL     1      15.298  -2.625 -10.519  1.00  0.00     0.074 A 
ATOM     62  C   UNL     1      16.527   3.324 -12.396  1.00  0.00     0.029 A 
ATOM     63  N   UNL     1      15.863   1.529 -11.262  1.00  0.00    -0.354 N 
ATOM     64  N   UNL     1      15.516  -1.365 -10.814  1.00  0.00    -0.248 NA
ATOM     65  C   UNL     1      15.661  -3.567 -11.586  1.00  0.00     0.031 C 
ATOM     66  C   UNL     1      16.757   2.192 -13.183  1.00  0.00     0.029 A 
ATOM     67  C   UNL     1      16.373   1.070 -12.464  1.00  0.00     0.049 A 
ATOM     68  H   UNL     1      15.502   0.957 -10.546  1.00  0.00     0.167 HD
ATOM     69  C   UNL     1      16.069  -1.365 -12.090  1.00  0.00     0.074 A 
ATOM     70  C   UNL     1      16.166  -2.751 -12.502  1.00  0.00     0.031 C 
ATOM     71  C   UNL     1      16.462  -0.315 -12.852  1.00  0.00     0.031 A 
BRANCH  58  72
ATOM     72  C   UNL     1      15.539   5.221 -10.250  1.00  0.00    -0.014 A 
ATOM     73  C   UNL     1      16.420   5.982  -9.460  1.00  0.00     0.010 A 
ATOM     74  C   UNL     1      14.737   5.877 -11.202  1.00  0.00     0.010 A 
ATOM     75  C   UNL     1      16.466   7.372  -9.588  1.00  0.00     0.020 A 
ATOM     76  C   UNL     1      14.804   7.264 -11.356  1.00  0.00     0.020 A 
ATOM     77  C   UNL     1      15.657   8.005 -10.535  1.00  0.00     0.054 A 
BRANCH  77  78
ATOM     78  S   UNL     1      15.760   9.808 -10.698  1.00  0.00     0.124 S 
ATOM     79  O   UNL     1      15.108  10.258  -9.470  1.00  0.00    -0.237 OA
ATOM     80  O   UNL     1      17.201  10.040 -10.765  1.00  0.00    -0.237 OA
ATOM     81  O   UNL     1      15.028  10.089 -11.930  1.00  0.00    -0.744 OA
ENDBRANCH  77  78
ENDBRANCH  58  72
BRANCH  59  82
ATOM     82  C   UNL     1      14.569  -4.686  -9.101  1.00  0.00    -0.014 A 
ATOM     83  C   UNL     1      15.689  -5.532  -9.015  1.00  0.00     0.010 A 
ATOM     84  C   UNL     1      13.282  -5.250  -9.030  1.00  0.00     0.010 A 
ATOM     85  C   UNL     1      15.526  -6.915  -8.885  1.00  0.00     0.020 A 
ATOM     86  C   UNL     1      13.114  -6.628  -8.869  1.00  0.00     0.020 A 
ATOM     87  C   UNL     1      14.238  -7.454  -8.810  1.00  0.00     0.054 A 
BRANCH  87  88
ATOM     88  S   UNL     1      14.052  -9.246  -8.596  1.00  0.00     0.124 S 
ATOM     89  O   UNL     1      14.439  -9.750  -9.910  1.00  0.00    -0.237 OA
ATOM     90  O   UNL     1      14.983  -9.530  -7.508  1.00  0.00    -0.237 OA
ATOM     91  O   UNL     1      12.640  -9.403  -8.254  1.00  0.00    -0.744 OA
ENDBRANCH  87  88
ENDBRANCH  59  82
BRANCH  71  92
ATOM     92  C   UNL     1      17.069  -0.621 -14.195  1.00  0.00    -0.014 A 
ATOM     93  C   UNL     1      16.283  -1.091 -15.262  1.00  0.00     0.010 A 
ATOM     94  C   UNL     1      18.437  -0.369 -14.408  1.00  0.00     0.010 A 
ATOM     95  C   UNL     1      16.861  -1.330 -16.511  1.00  0.00     0.020 A 
ATOM     96  C   UNL     1      19.012  -0.577 -15.663  1.00  0.00     0.020 A 
ATOM     97  C   UNL     1      18.222  -1.068 -16.704  1.00  0.00     0.054 A 
BRANCH  97  98
ATOM     98  S   UNL     1      18.935  -1.336 -18.349  1.00  0.00     0.124 S 
ATOM     99  O   UNL     1      18.967  -2.793 -18.433  1.00  0.00    -0.237 OA
ATOM    100  O   UNL     1      17.971  -0.676 -19.227  1.00  0.00    -0.237 OA
ATOM    101  O   UNL     1      20.242  -0.688 -18.270  1.00  0.00    -0.744 OA
ENDBRANCH  97  98
ENDBRANCH  71  92
ENDBRANCH  45  46
ENDBRANCH  37  40
ENDBRANCH  35  36
ENDBRANCH  34  35
ENDBRANCH   1  34
TORSDOF 17
