REMARK SMILES O=C(NCCCNC(=O)[C@@H]1C=C[C@H](NC(=O)[C@@H]2Cc3ccccc3O2)C1)c1ccc(-c2c3nc(c(-c4ccc(S(=O)(=O)[O-])cc4)c4ccc([nH]4)c(-c4ccc(S(=O)(=O)[O-])cc4)c4nc(c(-c5ccc(S(=O)(=O)[O-])cc5)c5ccc2[nH]5)C=C4)C=C3)cc1
REMARK SMILES IDX 4 1 3 2 1 3 2 4 27 6 28 7 86 8 29 9 85 10 30 11 31 12 32 13
REMARK SMILES IDX 79 14 33 15 84 16 78 17 80 18 34 19 83 20 77 21 76 22 35 24
REMARK SMILES IDX 65 25 46 26 64 27 47 28 50 29 63 30 81 31 48 32 49 33 62 35
REMARK SMILES IDX 82 36 51 37 36 38 37 39 45 40 38 41 44 42 39 43 40 44 41 45
REMARK SMILES IDX 42 46 43 47 66 48 67 49 75 50 68 51 74 52 69 53 70 54 71 55
REMARK SMILES IDX 72 56 73 57 52 58 53 59 61 60 54 61 60 62 55 63 56 64 57 65
REMARK SMILES IDX 58 66 59 67 5 68 6 69 7 70 8 71 9 73 10 74 11 75 26 76 12 77
REMARK SMILES IDX 13 78 14 79 15 80 16 82 17 83 18 84 25 85 19 86 24 87 20 88
REMARK SMILES IDX 23 89 21 90 22 91
REMARK H PARENT 3 5 80 23 50 34 7 72 14 81
REMARK Flexibility Score: inf
ROOT
ATOM      1  C   UNL     1       3.393  -5.374   6.634  1.00  0.00     0.118 C 
ENDROOT
BRANCH   1   2
ATOM      2  N   UNL     1       4.662  -4.790   6.225  1.00  0.00    -0.352 N 
ATOM      3  O   UNL     1       6.884  -4.572   5.971  1.00  0.00    -0.269 OA
ATOM      4  C   UNL     1       5.942  -5.298   6.262  1.00  0.00     0.251 C 
ATOM      5  H   UNL     1       4.594  -3.878   5.860  1.00  0.00     0.163 HD
BRANCH   4   6
ATOM      6  C   UNL     1       6.191  -6.691   6.700  1.00  0.00     0.039 A 
ATOM      7  C   UNL     1       5.405  -7.750   6.251  1.00  0.00     0.014 A 
ATOM      8  C   UNL     1       7.261  -6.942   7.565  1.00  0.00     0.014 A 
ATOM      9  C   UNL     1       5.556  -9.016   6.809  1.00  0.00     0.010 A 
ATOM     10  C   UNL     1       7.483  -8.238   8.041  1.00  0.00     0.010 A 
ATOM     11  C   UNL     1       6.603  -9.278   7.703  1.00  0.00    -0.014 A 
BRANCH  11  12
ATOM     12  C   UNL     1       6.797 -10.651   8.239  1.00  0.00     0.031 A 
ATOM     13  C   UNL     1       6.717 -10.921   9.716  1.00  0.00     0.074 A 
ATOM     14  C   UNL     1       7.058 -11.659   7.383  1.00  0.00     0.049 A 
ATOM     15  N   UNL     1       6.923 -12.042  10.360  1.00  0.00    -0.248 NA
ATOM     16  C   UNL     1       6.370  -9.786  10.585  1.00  0.00     0.031 C 
ATOM     17  C   UNL     1       7.162 -11.524   5.928  1.00  0.00     0.029 A 
ATOM     18  N   UNL     1       7.289 -12.992   7.609  1.00  0.00    -0.354 N 
ATOM     19  C   UNL     1       6.769 -11.741  11.709  1.00  0.00     0.074 A 
ATOM     20  C   UNL     1       6.466 -10.328  11.791  1.00  0.00     0.031 C 
ATOM     21  C   UNL     1       7.413 -12.725   5.391  1.00  0.00     0.029 A 
ATOM     22  C   UNL     1       7.563 -13.701   6.465  1.00  0.00     0.049 A 
ATOM     23  H   UNL     1       7.261 -13.400   8.505  1.00  0.00     0.167 HD
ATOM     24  C   UNL     1       6.874 -12.566  12.779  1.00  0.00     0.031 A 
ATOM     25  C   UNL     1       7.935 -14.983   6.290  1.00  0.00     0.031 A 
ATOM     26  C   UNL     1       7.178 -13.970  12.688  1.00  0.00     0.049 A 
ATOM     27  C   UNL     1       8.074 -15.874   7.487  1.00  0.00     0.074 A 
ATOM     28  C   UNL     1       7.268 -14.899  13.709  1.00  0.00     0.029 A 
ATOM     29  N   UNL     1       7.453 -14.646  11.507  1.00  0.00    -0.354 N 
ATOM     30  N   UNL     1       7.890 -15.579   8.752  1.00  0.00    -0.248 NA
ATOM     31  C   UNL     1       8.469 -17.266   7.240  1.00  0.00     0.031 C 
ATOM     32  C   UNL     1       7.651 -16.125  13.153  1.00  0.00     0.029 A 
ATOM     33  C   UNL     1       7.741 -15.973  11.777  1.00  0.00     0.049 A 
ATOM     34  H   UNL     1       7.445 -14.242  10.610  1.00  0.00     0.167 HD
ATOM     35  C   UNL     1       8.130 -16.753   9.453  1.00  0.00     0.074 A 
ATOM     36  C   UNL     1       8.465 -17.766   8.470  1.00  0.00     0.031 C 
ATOM     37  C   UNL     1       8.073 -16.971  10.789  1.00  0.00     0.031 A 
BRANCH  24  38
ATOM     38  C   UNL     1       6.709 -11.952  14.146  1.00  0.00    -0.014 A 
ATOM     39  C   UNL     1       5.459 -11.496  14.602  1.00  0.00     0.010 A 
ATOM     40  C   UNL     1       7.828 -11.834  14.991  1.00  0.00     0.010 A 
ATOM     41  C   UNL     1       5.345 -10.872  15.848  1.00  0.00     0.020 A 
ATOM     42  C   UNL     1       7.713 -11.236  16.250  1.00  0.00     0.020 A 
ATOM     43  C   UNL     1       6.477 -10.734  16.658  1.00  0.00     0.054 A 
BRANCH  43  44
ATOM     44  S   UNL     1       6.310  -9.889  18.255  1.00  0.00     0.124 S 
ATOM     45  O   UNL     1       6.206  -8.491  17.843  1.00  0.00    -0.237 OA
ATOM     46  O   UNL     1       5.089 -10.473  18.803  1.00  0.00    -0.237 OA
ATOM     47  O   UNL     1       7.538 -10.239  18.963  1.00  0.00    -0.744 OA
ENDBRANCH  43  44
ENDBRANCH  24  38
BRANCH  25  48
ATOM     48  C   UNL     1       8.227 -15.462   4.913  1.00  0.00    -0.014 A 
ATOM     49  C   UNL     1       7.323 -16.296   4.236  1.00  0.00     0.010 A 
ATOM     50  C   UNL     1       9.369 -14.992   4.235  1.00  0.00     0.010 A 
ATOM     51  C   UNL     1       7.546 -16.639   2.899  1.00  0.00     0.020 A 
ATOM     52  C   UNL     1       9.581 -15.311   2.892  1.00  0.00     0.020 A 
ATOM     53  C   UNL     1       8.668 -16.134   2.232  1.00  0.00     0.054 A 
BRANCH  53  54
ATOM     54  S   UNL     1       8.874 -16.497   0.466  1.00  0.00     0.124 S 
ATOM     55  O   UNL     1       9.309 -17.890   0.492  1.00  0.00    -0.237 OA
ATOM     56  O   UNL     1       7.533 -16.261  -0.063  1.00  0.00    -0.237 OA
ATOM     57  O   UNL     1       9.883 -15.532   0.035  1.00  0.00    -0.744 OA
ENDBRANCH  53  54
ENDBRANCH  25  48
BRANCH  37  58
ATOM     58  C   UNL     1       8.349 -18.365  11.281  1.00  0.00    -0.014 A 
ATOM     59  C   UNL     1       9.659 -18.869  11.342  1.00  0.00     0.010 A 
ATOM     60  C   UNL     1       7.287 -19.142  11.780  1.00  0.00     0.010 A 
ATOM     61  C   UNL     1       9.903 -20.131  11.892  1.00  0.00     0.020 A 
ATOM     62  C   UNL     1       7.530 -20.393  12.350  1.00  0.00     0.020 A 
ATOM     63  C   UNL     1       8.837 -20.881  12.399  1.00  0.00     0.054 A 
BRANCH  63  64
ATOM     64  S   UNL     1       9.189 -22.476  13.190  1.00  0.00     0.124 S 
ATOM     65  O   UNL     1       9.482 -23.327  12.040  1.00  0.00    -0.237 OA
ATOM     66  O   UNL     1      10.329 -22.163  14.048  1.00  0.00    -0.237 OA
ATOM     67  O   UNL     1       7.952 -22.791  13.900  1.00  0.00    -0.744 OA
ENDBRANCH  63  64
ENDBRANCH  37  58
ENDBRANCH  11  12
ENDBRANCH   4   6
ENDBRANCH   1   2
BRANCH   1  68
ATOM     68  C   UNL     1       3.003  -5.063   8.081  1.00  0.00     0.042 C 
BRANCH  68  69
ATOM     69  C   UNL     1       2.299  -3.718   8.220  1.00  0.00     0.117 C 
BRANCH  69  70
ATOM     70  N   UNL     1       1.030  -3.681   7.506  1.00  0.00    -0.356 N 
ATOM     71  C   UNL     1       0.066  -2.727   7.409  1.00  0.00     0.227 C 
ATOM     72  H   UNL     1       0.833  -4.501   6.998  1.00  0.00     0.163 HD
ATOM     73  O   UNL     1      -0.844  -2.964   6.608  1.00  0.00    -0.274 OA
BRANCH  71  74
ATOM     74  C   UNL     1       0.035  -1.484   8.314  1.00  0.00     0.103 C 
ATOM     75  C   UNL     1      -0.815  -0.406   7.684  1.00  0.00    -0.016 C 
ATOM     76  C   UNL     1       1.351  -0.745   8.588  1.00  0.00     0.047 C 
ATOM     77  C   UNL     1      -0.183   0.767   7.566  1.00  0.00    -0.006 C 
ATOM     78  C   UNL     1       1.184   0.706   8.128  1.00  0.00     0.106 C 
BRANCH  78  79
ATOM     79  N   UNL     1       2.213   1.168   7.209  1.00  0.00    -0.347 N 
ATOM     80  C   UNL     1       2.570   0.854   5.927  1.00  0.00     0.261 C 
ATOM     81  H   UNL     1       2.783   1.869   7.600  1.00  0.00     0.164 HD
ATOM     82  O   UNL     1       3.613   1.363   5.504  1.00  0.00    -0.271 OA
BRANCH  80  83
ATOM     83  C   UNL     1       1.721  -0.077   5.064  1.00  0.00     0.266 C 
ATOM     84  C   UNL     1       2.349  -1.467   4.979  1.00  0.00     0.095 C 
ATOM     85  O   UNL     1       1.554   0.374   3.694  1.00  0.00    -0.480 OA
ATOM     86  C   UNL     1       1.616  -1.927   3.778  1.00  0.00    -0.002 A 
ATOM     87  C   UNL     1       1.238  -0.803   3.052  1.00  0.00     0.123 A 
ATOM     88  C   UNL     1       1.293  -3.199   3.347  1.00  0.00     0.008 A 
ATOM     89  C   UNL     1       0.574  -0.900   1.850  1.00  0.00     0.047 A 
ATOM     90  C   UNL     1       0.579  -3.319   2.152  1.00  0.00     0.001 A 
ATOM     91  C   UNL     1       0.234  -2.179   1.402  1.00  0.00     0.004 A 
ENDBRANCH  80  83
ENDBRANCH  78  79
ENDBRANCH  71  74
ENDBRANCH  69  70
ENDBRANCH  68  69
ENDBRANCH   1  68
TORSDOF 15
