REMARK SMILES O=C(NCCCNC(=O)c1ccn(CC(F)(F)F)c1)c1ccc(-c2c3nc(c(-c4ccc(S(=O)(=O)[O-])cc4)c4ccc([nH]4)c(-c4ccc(S(=O)(=O)[O-])cc4)c4nc(c(-c5ccc(S(=O)(=O)[O-])cc5)c5ccc2[nH]5)C=C4)C=C3)cc1
REMARK SMILES IDX 4 1 3 2 1 3 2 4 20 6 21 7 79 8 22 9 78 10 23 11 24 12 25 13
REMARK SMILES IDX 72 14 26 15 77 16 71 17 73 18 27 19 76 20 70 21 69 22 28 24
REMARK SMILES IDX 58 25 39 26 57 27 40 28 43 29 56 30 74 31 41 32 42 33 55 35
REMARK SMILES IDX 75 36 44 37 29 38 30 39 38 40 31 41 37 42 32 43 33 44 34 45
REMARK SMILES IDX 35 46 36 47 59 48 60 49 68 50 61 51 67 52 62 53 63 54 64 55
REMARK SMILES IDX 65 56 66 57 45 58 46 59 54 60 47 61 53 62 48 63 49 64 50 65
REMARK SMILES IDX 51 66 52 67 5 68 6 69 7 70 8 71 9 73 10 74 11 75 19 76 12 77
REMARK SMILES IDX 13 78 14 79 15 80 16 81 17 82 18 83
REMARK H PARENT 3 5 73 23 43 34 7 72
REMARK Flexibility Score: inf
ROOT
ATOM      1  C   UNL     1       4.673  -0.526  -1.254  1.00  0.00     0.118 C 
ENDROOT
BRANCH   1   2
ATOM      2  N   UNL     1       3.278  -0.133  -1.159  1.00  0.00    -0.352 N 
ATOM      3  O   UNL     1       1.343   0.558  -0.299  1.00  0.00    -0.269 OA
ATOM      4  C   UNL     1       2.393  -0.056  -0.113  1.00  0.00     0.251 C 
ATOM      5  H   UNL     1       2.886   0.133  -2.022  1.00  0.00     0.163 HD
BRANCH   4   6
ATOM      6  C   UNL     1       2.596  -0.781   1.165  1.00  0.00     0.039 A 
ATOM      7  C   UNL     1       3.846  -1.050   1.722  1.00  0.00     0.014 A 
ATOM      8  C   UNL     1       1.440  -1.261   1.805  1.00  0.00     0.014 A 
ATOM      9  C   UNL     1       3.956  -1.919   2.798  1.00  0.00     0.010 A 
ATOM     10  C   UNL     1       1.538  -2.103   2.910  1.00  0.00     0.010 A 
ATOM     11  C   UNL     1       2.803  -2.453   3.385  1.00  0.00    -0.014 A 
BRANCH  11  12
ATOM     12  C   UNL     1       2.971  -3.144   4.681  1.00  0.00     0.031 A 
ATOM     13  C   UNL     1       3.144  -2.084   5.806  1.00  0.00     0.074 A 
ATOM     14  C   UNL     1       3.050  -4.517   4.649  1.00  0.00     0.049 A 
ATOM     15  N   UNL     1       3.784  -2.171   6.928  1.00  0.00    -0.248 NA
ATOM     16  C   UNL     1       2.614  -0.695   5.627  1.00  0.00     0.031 C 
ATOM     17  C   UNL     1       2.831  -5.361   3.444  1.00  0.00     0.029 A 
ATOM     18  N   UNL     1       3.329  -5.494   5.588  1.00  0.00    -0.354 N 
ATOM     19  C   UNL     1       3.571  -0.974   7.658  1.00  0.00     0.074 A 
ATOM     20  C   UNL     1       2.934  -0.064   6.761  1.00  0.00     0.031 C 
ATOM     21  C   UNL     1       3.083  -6.670   3.700  1.00  0.00     0.029 A 
ATOM     22  C   UNL     1       3.461  -6.830   5.092  1.00  0.00     0.049 A 
ATOM     23  H   UNL     1       3.430  -5.282   6.544  1.00  0.00     0.167 HD
ATOM     24  C   UNL     1       3.821  -0.874   8.998  1.00  0.00     0.031 A 
ATOM     25  C   UNL     1       3.882  -7.961   5.754  1.00  0.00     0.031 A 
ATOM     26  C   UNL     1       4.390  -2.094   9.457  1.00  0.00     0.049 A 
ATOM     27  C   UNL     1       3.973  -7.547   7.162  1.00  0.00     0.074 A 
ATOM     28  C   UNL     1       5.612  -2.671   9.236  1.00  0.00     0.029 A 
ATOM     29  N   UNL     1       3.490  -3.049   9.871  1.00  0.00    -0.354 N 
ATOM     30  N   UNL     1       2.958  -7.305   7.932  1.00  0.00    -0.248 NA
ATOM     31  C   UNL     1       5.303  -7.316   7.742  1.00  0.00     0.031 C 
ATOM     32  C   UNL     1       5.262  -4.010   8.973  1.00  0.00     0.029 A 
ATOM     33  C   UNL     1       3.933  -4.237   9.356  1.00  0.00     0.049 A 
ATOM     34  H   UNL     1       2.689  -2.906  10.425  1.00  0.00     0.167 HD
ATOM     35  C   UNL     1       3.522  -6.518   8.901  1.00  0.00     0.074 A 
ATOM     36  C   UNL     1       4.935  -6.846   8.931  1.00  0.00     0.031 C 
ATOM     37  C   UNL     1       2.981  -5.300   9.165  1.00  0.00     0.031 A 
BRANCH  24  38
ATOM     38  C   UNL     1       3.392   0.098  10.065  1.00  0.00    -0.014 A 
ATOM     39  C   UNL     1       4.033  -0.030  11.328  1.00  0.00     0.010 A 
ATOM     40  C   UNL     1       2.194   0.822  10.020  1.00  0.00     0.010 A 
ATOM     41  C   UNL     1       3.427   0.389  12.511  1.00  0.00     0.020 A 
ATOM     42  C   UNL     1       1.598   1.289  11.208  1.00  0.00     0.020 A 
ATOM     43  C   UNL     1       2.191   1.019  12.446  1.00  0.00     0.054 A 
BRANCH  43  44
ATOM     44  S   UNL     1       1.353   1.401  14.010  1.00  0.00     0.124 S 
ATOM     45  O   UNL     1       1.013   0.072  14.511  1.00  0.00    -0.237 OA
ATOM     46  O   UNL     1       2.394   2.102  14.760  1.00  0.00    -0.237 OA
ATOM     47  O   UNL     1       0.224   2.231  13.602  1.00  0.00    -0.744 OA
ENDBRANCH  43  44
ENDBRANCH  24  38
BRANCH  25  48
ATOM     48  C   UNL     1       4.358  -9.391   5.499  1.00  0.00    -0.014 A 
ATOM     49  C   UNL     1       4.431 -10.058   4.271  1.00  0.00     0.010 A 
ATOM     50  C   UNL     1       4.944 -10.098   6.598  1.00  0.00     0.010 A 
ATOM     51  C   UNL     1       5.196 -11.253   4.129  1.00  0.00     0.020 A 
ATOM     52  C   UNL     1       5.753 -11.232   6.464  1.00  0.00     0.020 A 
ATOM     53  C   UNL     1       5.908 -11.789   5.212  1.00  0.00     0.054 A 
BRANCH  53  54
ATOM     54  S   UNL     1       7.154 -13.097   4.976  1.00  0.00     0.124 S 
ATOM     55  O   UNL     1       6.339 -14.306   4.907  1.00  0.00    -0.237 OA
ATOM     56  O   UNL     1       7.803 -12.699   3.729  1.00  0.00    -0.237 OA
ATOM     57  O   UNL     1       8.001 -12.985   6.163  1.00  0.00    -0.744 OA
ENDBRANCH  53  54
ENDBRANCH  25  48
BRANCH  37  58
ATOM     58  C   UNL     1       1.495  -5.134   8.866  1.00  0.00    -0.014 A 
ATOM     59  C   UNL     1       0.575  -6.014   9.466  1.00  0.00     0.010 A 
ATOM     60  C   UNL     1       0.968  -4.176   7.973  1.00  0.00     0.010 A 
ATOM     61  C   UNL     1      -0.802  -5.940   9.204  1.00  0.00     0.020 A 
ATOM     62  C   UNL     1      -0.414  -4.095   7.697  1.00  0.00     0.020 A 
ATOM     63  C   UNL     1      -1.294  -4.975   8.326  1.00  0.00     0.054 A 
BRANCH  63  64
ATOM     64  S   UNL     1      -3.090  -4.890   8.047  1.00  0.00     0.124 S 
ATOM     65  O   UNL     1      -3.403  -6.222   7.535  1.00  0.00    -0.237 OA
ATOM     66  O   UNL     1      -3.602  -4.600   9.384  1.00  0.00    -0.237 OA
ATOM     67  O   UNL     1      -3.245  -3.807   7.076  1.00  0.00    -0.744 OA
ENDBRANCH  63  64
ENDBRANCH  37  58
ENDBRANCH  11  12
ENDBRANCH   4   6
ENDBRANCH   1   2
BRANCH   1  68
ATOM     68  C   UNL     1       4.967  -2.025  -1.203  1.00  0.00     0.042 C 
BRANCH  68  69
ATOM     69  C   UNL     1       4.394  -2.827  -2.368  1.00  0.00     0.118 C 
BRANCH  69  70
ATOM     70  N   UNL     1       4.915  -2.374  -3.650  1.00  0.00    -0.352 N 
ATOM     71  C   UNL     1       5.833  -2.952  -4.474  1.00  0.00     0.252 C 
ATOM     72  H   UNL     1       4.547  -1.518  -3.970  1.00  0.00     0.163 HD
ATOM     73  O   UNL     1       6.346  -2.252  -5.367  1.00  0.00    -0.269 OA
BRANCH  71  74
ATOM     74  C   UNL     1       6.193  -4.347  -4.302  1.00  0.00     0.057 A 
ATOM     75  C   UNL     1       5.353  -5.470  -4.037  1.00  0.00     0.033 A 
ATOM     76  C   UNL     1       7.472  -4.859  -4.456  1.00  0.00     0.099 A 
ATOM     77  C   UNL     1       6.146  -6.595  -3.985  1.00  0.00     0.087 A 
ATOM     78  N   UNL     1       7.438  -6.206  -4.211  1.00  0.00    -0.344 N 
BRANCH  78  79
ATOM     79  C   UNL     1       8.582  -7.095  -4.258  1.00  0.00     0.236 C 
BRANCH  79  80
ATOM     80  C   UNL     1       8.951  -7.670  -2.910  1.00  0.00     0.406 C 
ATOM     81  F   UNL     1       7.980  -8.464  -2.414  1.00  0.00    -0.169 F 
ATOM     82  F   UNL     1      10.067  -8.431  -3.031  1.00  0.00    -0.169 F 
ATOM     83  F   UNL     1       9.223  -6.706  -2.005  1.00  0.00    -0.169 F 
ENDBRANCH  79  80
ENDBRANCH  78  79
ENDBRANCH  71  74
ENDBRANCH  69  70
ENDBRANCH  68  69
ENDBRANCH   1  68
TORSDOF 15
