REMARK SMILES Cc1ccccc1/C=C1\SC(=O)N(CC(=O)Nc2ccccc2C(=O)NCCCNC(=O)c2ccc(-c3c4nc(c(-c5ccc(S(=O)(=O)[O-])cc5)c5ccc([nH]5)c(-c5ccc(S(=O)(=O)[O-])cc5)c5nc(c(-c6ccc(S(=O)(=O)[O-])cc6)c6ccc3[nH]6)C=C5)C=C4)cc2)C1=O
REMARK SMILES IDX 27 1 26 2 24 3 25 4 23 6 18 7 19 8 20 9 22 10 21 11 17 12
REMARK SMILES IDX 15 13 16 14 14 16 13 17 8 18 9 19 10 20 93 21 11 22 94 23
REMARK SMILES IDX 12 24 7 25 1 26 2 27 3 28 4 29 6 30 5 31 28 32 29 33 30 34
REMARK SMILES IDX 31 35 32 37 33 38 34 39 92 40 35 41 91 42 36 43 37 44 38 45
REMARK SMILES IDX 85 46 39 47 90 48 84 49 86 50 40 51 89 52 83 53 82 54 41 56
REMARK SMILES IDX 71 57 52 58 70 59 53 60 56 61 69 62 87 63 54 64 55 65 68 67
REMARK SMILES IDX 88 68 57 69 42 70 43 71 51 72 44 73 50 74 45 75 46 76 47 77
REMARK SMILES IDX 48 78 49 79 72 80 73 81 81 82 74 83 80 84 75 85 76 86 77 87
REMARK SMILES IDX 78 88 79 89 58 90 59 91 67 92 60 93 66 94 61 95 62 96 63 97
REMARK SMILES IDX 64 98 65 99
REMARK H PARENT 26 5 17 15 30 36 86 55 56 66
REMARK Flexibility Score: inf
ROOT
ATOM      1  C   UNL     1       1.755   0.990  -3.917  1.00  0.00     0.118 C 
ENDROOT
BRANCH   1   2
ATOM      2  N   UNL     1       1.640   2.255  -3.175  1.00  0.00    -0.352 N 
ATOM      3  C   UNL     1       1.639   3.610  -3.432  1.00  0.00     0.253 C 
ATOM      4  O   UNL     1       1.260   4.360  -2.532  1.00  0.00    -0.269 OA
ATOM      5  H   UNL     1       1.533   2.084  -2.211  1.00  0.00     0.163 HD
BRANCH   3   6
ATOM      6  C   UNL     1       2.044   4.245  -4.706  1.00  0.00     0.063 A 
ATOM      7  C   UNL     1       2.507   5.584  -4.806  1.00  0.00     0.054 A 
ATOM      8  C   UNL     1       2.626   6.157  -6.094  1.00  0.00     0.027 A 
ATOM      9  C   UNL     1       2.313   5.454  -7.255  1.00  0.00     0.002 A 
ATOM     10  C   UNL     1       1.667   3.589  -5.893  1.00  0.00     0.016 A 
ATOM     11  C   UNL     1       1.817   4.169  -7.152  1.00  0.00     0.001 A 
BRANCH   7  12
ATOM     12  N   UNL     1       2.634   6.563  -3.796  1.00  0.00    -0.324 N 
ATOM     13  C   UNL     1       3.292   6.731  -2.620  1.00  0.00     0.244 C 
ATOM     14  O   UNL     1       3.122   7.833  -2.074  1.00  0.00    -0.273 OA
ATOM     15  H   UNL     1       2.084   7.352  -4.004  1.00  0.00     0.170 HD
BRANCH  13  16
ATOM     16  C   UNL     1       4.351   5.796  -2.072  1.00  0.00     0.230 C 
BRANCH  16  17
ATOM     17  N   UNL     1       3.865   4.648  -1.362  1.00  0.00    -0.259 N 
ATOM     18  C   UNL     1       1.242   3.111   0.325  1.00  0.00     0.029 C 
ATOM     19  C   UNL     1       2.545   3.318   0.040  1.00  0.00     0.083 C 
ATOM     20  S   UNL     1       3.762   2.261  -0.540  1.00  0.00    -0.022 SA
ATOM     21  C   UNL     1       3.011   4.716  -0.273  1.00  0.00     0.268 C 
ATOM     22  C   UNL     1       4.397   3.425  -1.651  1.00  0.00     0.294 C 
ATOM     23  O   UNL     1       2.649   5.723   0.317  1.00  0.00    -0.268 OA
ATOM     24  O   UNL     1       5.193   3.142  -2.522  1.00  0.00    -0.261 OA
BRANCH  18  25
ATOM     25  C   UNL     1       0.302   1.972   0.043  1.00  0.00    -0.021 A 
ATOM     26  C   UNL     1       1.841  -0.110   0.058  1.00  0.00     0.045 C 
ATOM     27  C   UNL     1       0.593   0.631  -0.234  1.00  0.00    -0.044 A 
ATOM     28  C   UNL     1      -0.366  -0.208  -0.836  1.00  0.00     0.004 A 
ATOM     29  C   UNL     1      -1.669   0.191  -1.033  1.00  0.00     0.000 A 
ATOM     30  C   UNL     1      -1.054   2.342  -0.123  1.00  0.00     0.008 A 
ATOM     31  C   UNL     1      -2.027   1.462  -0.631  1.00  0.00     0.001 A 
ENDBRANCH  18  25
ENDBRANCH  16  17
ENDBRANCH  13  16
ENDBRANCH   7  12
ENDBRANCH   3   6
ENDBRANCH   1   2
BRANCH   1  32
ATOM     32  C   UNL     1       3.163   0.458  -4.177  1.00  0.00     0.042 C 
BRANCH  32  33
ATOM     33  C   UNL     1       3.693  -0.530  -3.136  1.00  0.00     0.118 C 
BRANCH  33  34
ATOM     34  N   UNL     1       3.045  -1.841  -3.103  1.00  0.00    -0.352 N 
ATOM     35  C   UNL     1       3.301  -2.951  -2.308  1.00  0.00     0.251 C 
ATOM     36  H   UNL     1       2.309  -1.954  -3.748  1.00  0.00     0.163 HD
ATOM     37  O   UNL     1       2.973  -4.065  -2.706  1.00  0.00    -0.269 OA
BRANCH  35  38
ATOM     38  C   UNL     1       3.850  -2.786  -0.939  1.00  0.00     0.039 A 
ATOM     39  C   UNL     1       3.244  -3.494   0.116  1.00  0.00     0.014 A 
ATOM     40  C   UNL     1       4.778  -1.791  -0.664  1.00  0.00     0.014 A 
ATOM     41  C   UNL     1       3.397  -3.049   1.429  1.00  0.00     0.010 A 
ATOM     42  C   UNL     1       4.827  -1.273   0.608  1.00  0.00     0.010 A 
ATOM     43  C   UNL     1       4.086  -1.864   1.642  1.00  0.00    -0.014 A 
BRANCH  43  44
ATOM     44  C   UNL     1       4.252  -1.194   2.921  1.00  0.00     0.031 A 
ATOM     45  C   UNL     1       5.557  -1.439   3.569  1.00  0.00     0.074 A 
ATOM     46  C   UNL     1       3.381  -0.221   3.291  1.00  0.00     0.049 A 
ATOM     47  N   UNL     1       5.896  -0.988   4.717  1.00  0.00    -0.248 NA
ATOM     48  C   UNL     1       6.600  -2.277   2.959  1.00  0.00     0.031 C 
ATOM     49  C   UNL     1       3.575   0.898   4.209  1.00  0.00     0.029 A 
ATOM     50  N   UNL     1       2.008  -0.171   3.023  1.00  0.00    -0.354 N 
ATOM     51  C   UNL     1       7.247  -1.216   4.868  1.00  0.00     0.074 A 
ATOM     52  C   UNL     1       7.620  -2.101   3.800  1.00  0.00     0.031 C 
ATOM     53  C   UNL     1       2.370   1.322   4.645  1.00  0.00     0.029 A 
ATOM     54  C   UNL     1       1.384   0.366   4.152  1.00  0.00     0.049 A 
ATOM     55  H   UNL     1       1.564  -0.460   2.193  1.00  0.00     0.167 HD
ATOM     56  C   UNL     1       7.907  -0.500   5.815  1.00  0.00     0.031 A 
ATOM     57  C   UNL     1       0.559  -0.418   4.902  1.00  0.00     0.031 A 
ATOM     58  C   UNL     1       6.940   0.212   6.645  1.00  0.00     0.049 A 
ATOM     59  C   UNL     1       1.141  -0.535   6.282  1.00  0.00     0.074 A 
ATOM     60  C   UNL     1       6.436   1.499   6.587  1.00  0.00     0.029 A 
ATOM     61  N   UNL     1       6.048  -0.537   7.404  1.00  0.00    -0.354 N 
ATOM     62  N   UNL     1       2.423  -0.556   6.531  1.00  0.00    -0.248 NA
ATOM     63  C   UNL     1       0.317  -0.515   7.484  1.00  0.00     0.031 C 
ATOM     64  C   UNL     1       5.160   1.482   7.218  1.00  0.00     0.029 A 
ATOM     65  C   UNL     1       4.918   0.202   7.694  1.00  0.00     0.049 A 
ATOM     66  H   UNL     1       6.200  -1.465   7.694  1.00  0.00     0.167 HD
ATOM     67  C   UNL     1       2.608  -0.474   7.881  1.00  0.00     0.074 A 
ATOM     68  C   UNL     1       1.263  -0.473   8.435  1.00  0.00     0.031 C 
ATOM     69  C   UNL     1       3.835  -0.390   8.468  1.00  0.00     0.031 A 
BRANCH  56  70
ATOM     70  C   UNL     1       9.392  -0.243   5.854  1.00  0.00    -0.014 A 
ATOM     71  C   UNL     1       9.870   0.736   6.749  1.00  0.00     0.010 A 
ATOM     72  C   UNL     1      10.351  -0.827   5.001  1.00  0.00     0.010 A 
ATOM     73  C   UNL     1      11.212   1.138   6.768  1.00  0.00     0.020 A 
ATOM     74  C   UNL     1      11.702  -0.441   5.016  1.00  0.00     0.020 A 
ATOM     75  C   UNL     1      12.122   0.551   5.895  1.00  0.00     0.054 A 
BRANCH  75  76
ATOM     76  S   UNL     1      13.844   1.107   5.923  1.00  0.00     0.124 S 
ATOM     77  O   UNL     1      13.726   2.509   5.530  1.00  0.00    -0.237 OA
ATOM     78  O   UNL     1      14.229   0.871   7.311  1.00  0.00    -0.237 OA
ATOM     79  O   UNL     1      14.504   0.245   4.943  1.00  0.00    -0.744 OA
ENDBRANCH  75  76
ENDBRANCH  56  70
BRANCH  57  80
ATOM     80  C   UNL     1      -0.081  -1.532   4.122  1.00  0.00    -0.014 A 
ATOM     81  C   UNL     1      -1.080  -1.224   3.168  1.00  0.00     0.010 A 
ATOM     82  C   UNL     1       0.551  -2.785   4.032  1.00  0.00     0.010 A 
ATOM     83  C   UNL     1      -1.350  -2.088   2.092  1.00  0.00     0.020 A 
ATOM     84  C   UNL     1       0.277  -3.652   2.960  1.00  0.00     0.020 A 
ATOM     85  C   UNL     1      -0.631  -3.277   1.968  1.00  0.00     0.054 A 
BRANCH  85  86
ATOM     86  S   UNL     1      -0.818  -4.286   0.460  1.00  0.00     0.124 S 
ATOM     87  O   UNL     1      -2.256  -4.534   0.422  1.00  0.00    -0.237 OA
ATOM     88  O   UNL     1      -0.314  -3.403  -0.587  1.00  0.00    -0.237 OA
ATOM     89  O   UNL     1       0.015  -5.456   0.723  1.00  0.00    -0.744 OA
ENDBRANCH  85  86
ENDBRANCH  57  80
BRANCH  69  90
ATOM     90  C   UNL     1       4.096  -0.821   9.885  1.00  0.00    -0.014 A 
ATOM     91  C   UNL     1       3.195  -1.606  10.621  1.00  0.00     0.010 A 
ATOM     92  C   UNL     1       5.361  -0.577  10.468  1.00  0.00     0.010 A 
ATOM     93  C   UNL     1       3.488  -2.028  11.916  1.00  0.00     0.020 A 
ATOM     94  C   UNL     1       5.695  -1.060  11.732  1.00  0.00     0.020 A 
ATOM     95  C   UNL     1       4.736  -1.746  12.466  1.00  0.00     0.054 A 
BRANCH  95  96
ATOM     96  S   UNL     1       5.091  -2.316  14.139  1.00  0.00     0.124 S 
ATOM     97  O   UNL     1       4.389  -1.319  14.944  1.00  0.00    -0.237 OA
ATOM     98  O   UNL     1       4.509  -3.656  14.153  1.00  0.00    -0.237 OA
ATOM     99  O   UNL     1       6.548  -2.273  14.217  1.00  0.00    -0.744 OA
ENDBRANCH  95  96
ENDBRANCH  69  90
ENDBRANCH  43  44
ENDBRANCH  35  38
ENDBRANCH  33  34
ENDBRANCH  32  33
ENDBRANCH   1  32
TORSDOF 17
