REMARK SMILES COc1cccc([C@@H]2CN(C(=O)CCSC)C[C@H]2C(=O)NCCCNC(=O)c2ccc(-c3c4nc(c(-c5ccc(S(=O)(=O)[O-])cc5)c5ccc([nH]5)c(-c5ccc(S(=O)(=O)[O-])cc5)c5nc(c(-c6ccc(S(=O)(=O)[O-])cc6)c6ccc3[nH]6)C=C5)C=C4)cc2)c1OC
REMARK SMILES IDX 22 1 21 2 19 3 20 4 18 6 8 7 9 8 10 9 17 10 7 11 3 12 4 13
REMARK SMILES IDX 88 14 5 15 6 16 2 17 1 18 89 19 90 20 11 21 12 22 13 23
REMARK SMILES IDX 14 24 15 25 16 26 23 27 24 28 25 29 26 30 27 32 28 33 29 34
REMARK SMILES IDX 87 35 30 36 86 37 31 38 32 39 33 40 80 41 34 42 85 43 79 44
REMARK SMILES IDX 81 45 35 46 84 47 78 48 77 49 36 51 66 52 47 53 65 54 48 55
REMARK SMILES IDX 51 56 64 57 82 58 49 59 50 60 63 62 83 63 52 64 37 65 38 66
REMARK SMILES IDX 46 67 39 68 45 69 40 70 41 71 42 72 43 73 44 74 67 75 68 76
REMARK SMILES IDX 76 77 69 78 75 79 70 80 71 81 72 82 73 83 74 84 53 85 54 86
REMARK SMILES IDX 62 87 55 88 61 89 56 90 57 91 58 92 59 93 60 94
REMARK H PARENT 21 5 25 31 81 50 51 61
REMARK Flexibility Score: inf
ROOT
ATOM      1  C   UNL     1       5.931  -2.779   6.182  1.00  0.00     0.117 C 
ENDROOT
BRANCH   1   2
ATOM      2  N   UNL     1       5.131  -3.632   5.319  1.00  0.00    -0.356 N 
ATOM      3  C   UNL     1       4.533  -3.398   4.122  1.00  0.00     0.225 C 
ATOM      4  O   UNL     1       3.934  -4.343   3.600  1.00  0.00    -0.275 OA
ATOM      5  H   UNL     1       4.997  -4.544   5.665  1.00  0.00     0.163 HD
BRANCH   3   6
ATOM      6  C   UNL     1       4.572  -2.047   3.433  1.00  0.00     0.107 C 
ATOM      7  C   UNL     1       3.869  -0.937   4.234  1.00  0.00     0.057 C 
ATOM      8  C   UNL     1       4.847   0.239   4.270  1.00  0.00     0.128 C 
ATOM      9  N   UNL     1       6.121  -0.264   3.789  1.00  0.00    -0.341 N 
ATOM     10  C   UNL     1       5.992  -1.569   3.165  1.00  0.00     0.133 C 
BRANCH   7  11
ATOM     11  C   UNL     1       2.495  -0.508   3.741  1.00  0.00     0.004 A 
ATOM     12  C   UNL     1       0.971   0.353   2.052  1.00  0.00     0.161 A 
ATOM     13  C   UNL     1      -0.056   0.410   3.001  1.00  0.00     0.050 A 
ATOM     14  C   UNL     1       2.253  -0.093   2.412  1.00  0.00     0.164 A 
ATOM     15  C   UNL     1       0.179  -0.001   4.310  1.00  0.00     0.004 A 
ATOM     16  C   UNL     1       1.443  -0.459   4.676  1.00  0.00     0.008 A 
BRANCH  12  17
ATOM     17  O   UNL     1       0.729   0.864   0.803  1.00  0.00    -0.493 OA
ATOM     18  C   UNL     1      -0.131   0.013   0.047  1.00  0.00     0.278 C 
ENDBRANCH  12  17
BRANCH  14  19
ATOM     19  O   UNL     1       3.351  -0.083   1.590  1.00  0.00    -0.493 OA
ATOM     20  C   UNL     1       3.136  -0.378   0.217  1.00  0.00     0.278 C 
ENDBRANCH  14  19
ENDBRANCH   7  11
BRANCH   9  21
ATOM     21  C   UNL     1       7.319   0.412   3.765  1.00  0.00     0.223 C 
ATOM     22  O   UNL     1       8.344  -0.109   3.321  1.00  0.00    -0.275 OA
BRANCH  21  23
ATOM     23  C   UNL     1       7.346   1.843   4.258  1.00  0.00     0.111 C 
BRANCH  23  24
ATOM     24  C   UNL     1       7.529   2.822   3.103  1.00  0.00     0.079 C 
BRANCH  24  25
ATOM     25  S   UNL     1       5.975   3.244   2.236  1.00  0.00    -0.165 SA
ATOM     26  C   UNL     1       5.943   1.936   0.985  1.00  0.00     0.085 C 
ENDBRANCH  24  25
ENDBRANCH  23  24
ENDBRANCH  21  23
ENDBRANCH   9  21
ENDBRANCH   3   6
ENDBRANCH   1   2
BRANCH   1  27
ATOM     27  C   UNL     1       5.210  -2.402   7.467  1.00  0.00     0.042 C 
BRANCH  27  28
ATOM     28  C   UNL     1       4.863  -3.599   8.336  1.00  0.00     0.118 C 
BRANCH  28  29
ATOM     29  N   UNL     1       6.051  -4.320   8.771  1.00  0.00    -0.352 N 
ATOM     30  C   UNL     1       6.591  -4.443  10.024  1.00  0.00     0.251 C 
ATOM     31  H   UNL     1       6.538  -4.791   8.057  1.00  0.00     0.163 HD
ATOM     32  O   UNL     1       7.739  -4.874  10.149  1.00  0.00    -0.269 OA
BRANCH  30  33
ATOM     33  C   UNL     1       5.809  -4.053  11.214  1.00  0.00     0.039 A 
ATOM     34  C   UNL     1       6.454  -3.412  12.273  1.00  0.00     0.014 A 
ATOM     35  C   UNL     1       4.443  -4.338  11.294  1.00  0.00     0.014 A 
ATOM     36  C   UNL     1       5.716  -3.012  13.388  1.00  0.00     0.010 A 
ATOM     37  C   UNL     1       3.693  -3.843  12.353  1.00  0.00     0.010 A 
ATOM     38  C   UNL     1       4.324  -3.196  13.423  1.00  0.00    -0.014 A 
BRANCH  38  39
ATOM     39  C   UNL     1       3.516  -2.741  14.581  1.00  0.00     0.031 A 
ATOM     40  C   UNL     1       2.742  -3.740  15.400  1.00  0.00     0.074 A 
ATOM     41  C   UNL     1       3.435  -1.425  14.859  1.00  0.00     0.049 A 
ATOM     42  N   UNL     1       1.958  -3.533  16.427  1.00  0.00    -0.248 NA
ATOM     43  C   UNL     1       2.834  -5.154  14.995  1.00  0.00     0.031 C 
ATOM     44  C   UNL     1       4.092  -0.356  14.101  1.00  0.00     0.029 A 
ATOM     45  N   UNL     1       2.764  -0.760  15.853  1.00  0.00    -0.354 N 
ATOM     46  C   UNL     1       1.452  -4.780  16.774  1.00  0.00     0.074 A 
ATOM     47  C   UNL     1       1.968  -5.729  15.814  1.00  0.00     0.031 C 
ATOM     48  C   UNL     1       3.821   0.824  14.680  1.00  0.00     0.029 A 
ATOM     49  C   UNL     1       2.941   0.603  15.822  1.00  0.00     0.049 A 
ATOM     50  H   UNL     1       2.208  -1.216  16.526  1.00  0.00     0.167 HD
ATOM     51  C   UNL     1       0.650  -5.112  17.814  1.00  0.00     0.031 A 
ATOM     52  C   UNL     1       2.448   1.567  16.623  1.00  0.00     0.031 A 
ATOM     53  C   UNL     1       0.154  -4.164  18.776  1.00  0.00     0.049 A 
ATOM     54  C   UNL     1       1.571   1.175  17.779  1.00  0.00     0.074 A 
ATOM     55  C   UNL     1      -0.610  -4.402  19.904  1.00  0.00     0.029 A 
ATOM     56  N   UNL     1       0.371  -2.795  18.721  1.00  0.00    -0.354 N 
ATOM     57  N   UNL     1       1.168  -0.021  18.138  1.00  0.00    -0.248 NA
ATOM     58  C   UNL     1       1.097   2.260  18.648  1.00  0.00     0.031 C 
ATOM     59  C   UNL     1      -0.902  -3.171  20.500  1.00  0.00     0.029 A 
ATOM     60  C   UNL     1      -0.266  -2.172  19.780  1.00  0.00     0.049 A 
ATOM     61  H   UNL     1       0.901  -2.334  18.030  1.00  0.00     0.167 HD
ATOM     62  C   UNL     1       0.411   0.165  19.290  1.00  0.00     0.074 A 
ATOM     63  C   UNL     1       0.433   1.586  19.577  1.00  0.00     0.031 C 
ATOM     64  C   UNL     1      -0.241  -0.755  20.043  1.00  0.00     0.031 A 
BRANCH  51  65
ATOM     65  C   UNL     1       0.256  -6.560  17.957  1.00  0.00    -0.014 A 
ATOM     66  C   UNL     1       1.203  -7.543  18.300  1.00  0.00     0.010 A 
ATOM     67  C   UNL     1      -1.086  -6.940  17.774  1.00  0.00     0.010 A 
ATOM     68  C   UNL     1       0.825  -8.884  18.410  1.00  0.00     0.020 A 
ATOM     69  C   UNL     1      -1.474  -8.276  17.914  1.00  0.00     0.020 A 
ATOM     70  C   UNL     1      -0.512  -9.242  18.212  1.00  0.00     0.054 A 
BRANCH  70  71
ATOM     71  S   UNL     1      -0.977 -10.987  18.378  1.00  0.00     0.124 S 
ATOM     72  O   UNL     1      -0.399 -11.569  17.170  1.00  0.00    -0.237 OA
ATOM     73  O   UNL     1      -0.333 -11.373  19.631  1.00  0.00    -0.237 OA
ATOM     74  O   UNL     1      -2.437 -10.956  18.416  1.00  0.00    -0.744 OA
ENDBRANCH  70  71
ENDBRANCH  51  65
BRANCH  52  75
ATOM     75  C   UNL     1       2.793   2.992  16.365  1.00  0.00    -0.014 A 
ATOM     76  C   UNL     1       3.647   3.692  17.236  1.00  0.00     0.010 A 
ATOM     77  C   UNL     1       2.286   3.651  15.230  1.00  0.00     0.010 A 
ATOM     78  C   UNL     1       3.973   5.029  16.987  1.00  0.00     0.020 A 
ATOM     79  C   UNL     1       2.634   4.978  14.961  1.00  0.00     0.020 A 
ATOM     80  C   UNL     1       3.466   5.662  15.849  1.00  0.00     0.054 A 
BRANCH  80  81
ATOM     81  S   UNL     1       3.947   7.380  15.516  1.00  0.00     0.124 S 
ATOM     82  O   UNL     1       3.183   8.109  16.522  1.00  0.00    -0.237 OA
ATOM     83  O   UNL     1       5.393   7.346  15.719  1.00  0.00    -0.237 OA
ATOM     84  O   UNL     1       3.525   7.590  14.133  1.00  0.00    -0.744 OA
ENDBRANCH  80  81
ENDBRANCH  52  75
BRANCH  64  85
ATOM     85  C   UNL     1      -0.963  -0.255  21.267  1.00  0.00    -0.014 A 
ATOM     86  C   UNL     1      -2.136   0.512  21.160  1.00  0.00     0.010 A 
ATOM     87  C   UNL     1      -0.478  -0.594  22.543  1.00  0.00     0.010 A 
ATOM     88  C   UNL     1      -2.787   0.970  22.309  1.00  0.00     0.020 A 
ATOM     89  C   UNL     1      -1.144  -0.165  23.694  1.00  0.00     0.020 A 
ATOM     90  C   UNL     1      -2.284   0.630  23.569  1.00  0.00     0.054 A 
BRANCH  90  91
ATOM     91  S   UNL     1      -3.160   1.215  25.044  1.00  0.00     0.124 S 
ATOM     92  O   UNL     1      -2.813   2.634  25.060  1.00  0.00    -0.237 OA
ATOM     93  O   UNL     1      -4.554   0.912  24.731  1.00  0.00    -0.237 OA
ATOM     94  O   UNL     1      -2.584   0.421  26.127  1.00  0.00    -0.744 OA
ENDBRANCH  90  91
ENDBRANCH  64  85
ENDBRANCH  38  39
ENDBRANCH  30  33
ENDBRANCH  28  29
ENDBRANCH  27  28
ENDBRANCH   1  27
TORSDOF 20
