REMARK SMILES C[C@@H](C(=O)NCCCNC(=O)c1ccc(-c2c3nc(c(-c4ccc(S(=O)(=O)[O-])cc4)c4ccc([nH]4)c(-c4ccc(S(=O)(=O)[O-])cc4)c4nc(c(-c5ccc(S(=O)(=O)[O-])cc5)c5ccc2[nH]5)C=C4)C=C3)cc1)c1ccc(-c2ccn(C(F)F)c(=O)c2)cc1
REMARK SMILES IDX 7 1 6 2 5 3 3 4 4 5 2 7 1 8 72 9 73 10 87 11 74 12 86 13
REMARK SMILES IDX 75 14 76 15 77 16 85 17 78 18 83 19 79 20 84 21 80 22 81 23
REMARK SMILES IDX 82 24 8 25 9 26 10 27 11 29 12 30 13 31 71 32 14 33 70 34
REMARK SMILES IDX 15 35 16 36 17 37 64 38 18 39 69 40 63 41 65 42 19 43 68 44
REMARK SMILES IDX 62 45 61 46 20 48 50 49 31 50 49 51 32 52 35 53 48 54 66 55
REMARK SMILES IDX 33 56 34 57 47 59 67 60 36 61 21 62 22 63 30 64 23 65 29 66
REMARK SMILES IDX 24 67 25 68 26 69 27 70 28 71 51 72 52 73 60 74 53 75 59 76
REMARK SMILES IDX 54 77 55 78 56 79 57 80 58 81 37 82 38 83 46 84 39 85 45 86
REMARK SMILES IDX 40 87 41 88 42 89 43 90 44 91
REMARK H PARENT 5 6 9 28 65 47 35 58
REMARK Flexibility Score: inf
ROOT
ATOM      1  C   UNL     1       4.312   0.694   1.133  1.00  0.00     0.042 C 
ENDROOT
BRANCH   1   2
ATOM      2  C   UNL     1       3.433  -0.137   2.064  1.00  0.00     0.117 C 
BRANCH   2   3
ATOM      3  N   UNL     1       2.414   0.669   2.708  1.00  0.00    -0.356 N 
ATOM      4  C   UNL     1       1.077   0.780   2.465  1.00  0.00     0.227 C 
ATOM      5  O   UNL     1       0.466   1.599   3.156  1.00  0.00    -0.274 OA
ATOM      6  H   UNL     1       2.743   1.232   3.446  1.00  0.00     0.163 HD
BRANCH   4   7
ATOM      7  C   UNL     1       0.406  -0.112   1.406  1.00  0.00     0.105 C 
ATOM      8  C   UNL     1       0.779   0.294  -0.021  1.00  0.00     0.023 C 
BRANCH   7   9
ATOM      9  C   UNL     1      -1.117  -0.151   1.519  1.00  0.00    -0.036 A 
ATOM     10  C   UNL     1      -1.883   1.024   1.472  1.00  0.00     0.005 A 
ATOM     11  C   UNL     1      -1.782  -1.382   1.602  1.00  0.00     0.005 A 
ATOM     12  C   UNL     1      -3.277   0.974   1.514  1.00  0.00     0.009 A 
ATOM     13  C   UNL     1      -3.178  -1.434   1.633  1.00  0.00     0.009 A 
ATOM     14  C   UNL     1      -3.936  -0.257   1.582  1.00  0.00    -0.018 A 
BRANCH  14  15
ATOM     15  C   UNL     1      -5.409  -0.329   1.581  1.00  0.00    -0.011 A 
ATOM     16  C   UNL     1      -6.166  -0.922   2.666  1.00  0.00     0.027 A 
ATOM     17  C   UNL     1      -6.066   0.146   0.508  1.00  0.00     0.080 A 
ATOM     18  C   UNL     1      -7.498  -1.022   2.590  1.00  0.00     0.095 A 
ATOM     19  C   UNL     1      -7.548   0.055   0.415  1.00  0.00     0.255 A 
ATOM     20  N   UNL     1      -8.185  -0.553   1.486  1.00  0.00    -0.258 N 
ATOM     21  O   UNL     1      -8.104   0.502  -0.583  1.00  0.00    -0.269 OA
BRANCH  20  22
ATOM     22  C   UNL     1      -9.613  -0.694   1.398  1.00  0.00     0.451 C 
ATOM     23  F   UNL     1     -10.223   0.509   1.269  1.00  0.00    -0.185 F 
ATOM     24  F   UNL     1      -9.963  -1.459   0.334  1.00  0.00    -0.185 F 
ENDBRANCH  20  22
ENDBRANCH  14  15
ENDBRANCH   7   9
ENDBRANCH   4   7
ENDBRANCH   2   3
ENDBRANCH   1   2
BRANCH   1  25
ATOM     25  C   UNL     1       5.058   1.832   1.822  1.00  0.00     0.118 C 
BRANCH  25  26
ATOM     26  N   UNL     1       6.056   1.361   2.771  1.00  0.00    -0.352 N 
ATOM     27  C   UNL     1       7.406   1.619   2.808  1.00  0.00     0.251 C 
ATOM     28  H   UNL     1       5.717   0.777   3.487  1.00  0.00     0.163 HD
ATOM     29  O   UNL     1       8.127   1.001   3.587  1.00  0.00    -0.269 OA
BRANCH  27  30
ATOM     30  C   UNL     1       7.988   2.621   1.890  1.00  0.00     0.039 A 
ATOM     31  C   UNL     1       9.135   2.293   1.161  1.00  0.00     0.014 A 
ATOM     32  C   UNL     1       7.391   3.875   1.739  1.00  0.00     0.014 A 
ATOM     33  C   UNL     1       9.641   3.197   0.223  1.00  0.00     0.010 A 
ATOM     34  C   UNL     1       7.854   4.743   0.757  1.00  0.00     0.010 A 
ATOM     35  C   UNL     1       8.981   4.413  -0.013  1.00  0.00    -0.014 A 
BRANCH  35  36
ATOM     36  C   UNL     1       9.435   5.371  -1.052  1.00  0.00     0.031 A 
ATOM     37  C   UNL     1       9.885   6.747  -0.649  1.00  0.00     0.074 A 
ATOM     38  C   UNL     1       9.323   5.053  -2.357  1.00  0.00     0.049 A 
ATOM     39  N   UNL     1      10.133   7.790  -1.399  1.00  0.00    -0.248 NA
ATOM     40  C   UNL     1      10.040   6.989   0.794  1.00  0.00     0.031 C 
ATOM     41  C   UNL     1       8.871   3.763  -2.879  1.00  0.00     0.029 A 
ATOM     42  N   UNL     1       9.550   5.807  -3.482  1.00  0.00    -0.354 N 
ATOM     43  C   UNL     1      10.434   8.822  -0.518  1.00  0.00     0.074 A 
ATOM     44  C   UNL     1      10.305   8.287   0.820  1.00  0.00     0.031 C 
ATOM     45  C   UNL     1       8.848   3.816  -4.221  1.00  0.00     0.029 A 
ATOM     46  C   UNL     1       9.237   5.156  -4.652  1.00  0.00     0.049 A 
ATOM     47  H   UNL     1       9.903   6.726  -3.453  1.00  0.00     0.167 HD
ATOM     48  C   UNL     1      10.791  10.098  -0.798  1.00  0.00     0.031 A 
ATOM     49  C   UNL     1       9.234   5.593  -5.926  1.00  0.00     0.031 A 
ATOM     50  C   UNL     1      10.928  10.621  -2.131  1.00  0.00     0.049 A 
ATOM     51  C   UNL     1       9.643   7.008  -6.222  1.00  0.00     0.074 A 
ATOM     52  C   UNL     1      11.339  11.883  -2.523  1.00  0.00     0.029 A 
ATOM     53  N   UNL     1      10.655   9.909  -3.290  1.00  0.00    -0.354 N 
ATOM     54  N   UNL     1       9.974   7.959  -5.381  1.00  0.00    -0.248 NA
ATOM     55  C   UNL     1       9.687   7.410  -7.635  1.00  0.00     0.031 C 
ATOM     56  C   UNL     1      11.274  11.947  -3.919  1.00  0.00     0.029 A 
ATOM     57  C   UNL     1      10.873  10.709  -4.398  1.00  0.00     0.049 A 
ATOM     58  H   UNL     1      10.351   8.974  -3.320  1.00  0.00     0.167 HD
ATOM     59  C   UNL     1      10.293   9.063  -6.163  1.00  0.00     0.074 A 
ATOM     60  C   UNL     1      10.116   8.663  -7.544  1.00  0.00     0.031 C 
ATOM     61  C   UNL     1      10.701  10.294  -5.768  1.00  0.00     0.031 A 
BRANCH  48  62
ATOM     62  C   UNL     1      11.028  11.015   0.372  1.00  0.00    -0.014 A 
ATOM     63  C   UNL     1      12.133  10.839   1.226  1.00  0.00     0.010 A 
ATOM     64  C   UNL     1      10.122  12.059   0.634  1.00  0.00     0.010 A 
ATOM     65  C   UNL     1      12.285  11.640   2.360  1.00  0.00     0.020 A 
ATOM     66  C   UNL     1      10.288  12.882   1.751  1.00  0.00     0.020 A 
ATOM     67  C   UNL     1      11.352  12.647   2.624  1.00  0.00     0.054 A 
BRANCH  67  68
ATOM     68  S   UNL     1      11.550  13.650   4.121  1.00  0.00     0.124 S 
ATOM     69  O   UNL     1      11.072  12.738   5.157  1.00  0.00    -0.237 OA
ATOM     70  O   UNL     1      12.985  13.925   4.141  1.00  0.00    -0.237 OA
ATOM     71  O   UNL     1      10.700  14.812   3.874  1.00  0.00    -0.744 OA
ENDBRANCH  67  68
ENDBRANCH  48  62
BRANCH  49  72
ATOM     72  C   UNL     1       8.831   4.659  -7.011  1.00  0.00    -0.014 A 
ATOM     73  C   UNL     1       9.800   4.079  -7.848  1.00  0.00     0.010 A 
ATOM     74  C   UNL     1       7.482   4.284  -7.161  1.00  0.00     0.010 A 
ATOM     75  C   UNL     1       9.430   3.132  -8.808  1.00  0.00     0.020 A 
ATOM     76  C   UNL     1       7.112   3.322  -8.105  1.00  0.00     0.020 A 
ATOM     77  C   UNL     1       8.089   2.752  -8.923  1.00  0.00     0.054 A 
BRANCH  77  78
ATOM     78  S   UNL     1       7.650   1.442 -10.101  1.00  0.00     0.124 S 
ATOM     79  O   UNL     1       7.732   2.142 -11.379  1.00  0.00    -0.237 OA
ATOM     80  O   UNL     1       8.685   0.440  -9.859  1.00  0.00    -0.237 OA
ATOM     81  O   UNL     1       6.305   1.048  -9.685  1.00  0.00    -0.744 OA
ENDBRANCH  77  78
ENDBRANCH  49  72
BRANCH  61  82
ATOM     82  C   UNL     1      11.032  11.300  -6.837  1.00  0.00    -0.014 A 
ATOM     83  C   UNL     1      10.021  11.974  -7.542  1.00  0.00     0.010 A 
ATOM     84  C   UNL     1      12.377  11.650  -7.058  1.00  0.00     0.010 A 
ATOM     85  C   UNL     1      10.351  12.982  -8.453  1.00  0.00     0.020 A 
ATOM     86  C   UNL     1      12.709  12.671  -7.952  1.00  0.00     0.020 A 
ATOM     87  C   UNL     1      11.693  13.329  -8.647  1.00  0.00     0.054 A 
BRANCH  87  88
ATOM     88  S   UNL     1      12.089  14.702  -9.765  1.00  0.00     0.124 S 
ATOM     89  O   UNL     1      11.880  14.096 -11.077  1.00  0.00    -0.237 OA
ATOM     90  O   UNL     1      11.116  15.721  -9.380  1.00  0.00    -0.237 OA
ATOM     91  O   UNL     1      13.478  15.022  -9.440  1.00  0.00    -0.744 OA
ENDBRANCH  87  88
ENDBRANCH  61  82
ENDBRANCH  35  36
ENDBRANCH  27  30
ENDBRANCH  25  26
ENDBRANCH   1  25
TORSDOF 16
