REMARK SMILES Cc1c(CC(=O)NCCCNC(=O)c2ccc(-c3c4nc(c(-c5ccc(S(=O)(=O)[O-])cc5)c5ccc([nH]5)c(-c5ccc(S(=O)(=O)[O-])cc5)c5nc(c(-c6ccc(S(=O)(=O)[O-])cc6)c6ccc3[nH]6)C=C5)C=C4)cc2)cc(-c2ccc(S(C)(=O)=O)cc2)n1-c1cccc(F)c1
REMARK SMILES IDX 9 1 8 2 7 3 5 4 6 5 4 7 3 8 1 9 2 10 86 11 74 12 75 13 87 14
REMARK SMILES IDX 88 15 93 16 89 17 91 18 90 19 92 20 76 21 77 22 85 23 78 24
REMARK SMILES IDX 84 25 79 26 80 27 81 28 82 29 83 30 10 31 11 32 12 33 13 35
REMARK SMILES IDX 14 36 15 37 73 38 16 39 72 40 17 41 18 42 19 43 66 44 20 45
REMARK SMILES IDX 71 46 65 47 67 48 21 49 70 50 64 51 63 52 22 54 52 55 33 56
REMARK SMILES IDX 51 57 34 58 37 59 50 60 68 61 35 62 36 63 49 65 69 66 38 67
REMARK SMILES IDX 23 68 24 69 32 70 25 71 31 72 26 73 27 74 28 75 29 76 30 77
REMARK SMILES IDX 53 78 54 79 62 80 55 81 61 82 56 83 57 84 58 85 59 86 60 87
REMARK SMILES IDX 39 88 40 89 48 90 41 91 47 92 42 93 43 94 44 95 45 96 46 97
REMARK H PARENT 7 6 11 34 67 53 37 64
REMARK Flexibility Score: inf
ROOT
ATOM      1  C   UNL     1      -3.621   1.238   1.007  1.00  0.00     0.042 C 
ENDROOT
BRANCH   1   2
ATOM      2  C   UNL     1      -3.557  -0.255   1.465  1.00  0.00     0.117 C 
BRANCH   2   3
ATOM      3  N   UNL     1      -2.803  -1.190   0.636  1.00  0.00    -0.356 N 
ATOM      4  C   UNL     1      -1.697  -1.954   0.909  1.00  0.00     0.224 C 
ATOM      5  O   UNL     1      -1.431  -2.872   0.124  1.00  0.00    -0.275 OA
ATOM      6  H   UNL     1      -3.149  -1.290  -0.280  1.00  0.00     0.163 HD
BRANCH   4   7
ATOM      7  C   UNL     1      -0.819  -1.742   2.139  1.00  0.00     0.137 C 
BRANCH   7   8
ATOM      8  C   UNL     1      -0.275  -0.356   2.252  1.00  0.00    -0.017 A 
ATOM      9  C   UNL     1       0.907  -0.070  -0.049  1.00  0.00     0.065 C 
ATOM     10  C   UNL     1       0.385   0.380   1.280  1.00  0.00     0.024 A 
ATOM     11  N   UNL     1       0.543   1.677   1.756  1.00  0.00    -0.313 N 
ATOM     12  C   UNL     1      -0.294   0.443   3.421  1.00  0.00     0.033 A 
ATOM     13  C   UNL     1       0.194   1.699   3.105  1.00  0.00     0.053 A 
BRANCH  11  14
ATOM     14  C   UNL     1       0.933   2.792   0.971  1.00  0.00     0.049 A 
ATOM     15  C   UNL     1       1.960   3.640   1.403  1.00  0.00     0.027 A 
ATOM     16  C   UNL     1       0.239   3.062  -0.213  1.00  0.00     0.065 A 
ATOM     17  C   UNL     1       2.304   4.752   0.631  1.00  0.00     0.005 A 
ATOM     18  C   UNL     1       0.580   4.184  -0.955  1.00  0.00     0.125 A 
ATOM     19  C   UNL     1       1.608   5.027  -0.548  1.00  0.00     0.039 A 
ATOM     20  F   UNL     1      -0.103   4.466  -2.071  1.00  0.00    -0.207 F 
ENDBRANCH  11  14
BRANCH  13  21
ATOM     21  C   UNL     1       0.158   2.884   3.964  1.00  0.00    -0.001 A 
ATOM     22  C   UNL     1      -0.644   3.984   3.623  1.00  0.00     0.011 A 
ATOM     23  C   UNL     1       0.878   2.904   5.165  1.00  0.00     0.011 A 
ATOM     24  C   UNL     1      -0.696   5.107   4.449  1.00  0.00     0.021 A 
ATOM     25  C   UNL     1       0.832   4.025   5.997  1.00  0.00     0.021 A 
ATOM     26  C   UNL     1       0.058   5.125   5.626  1.00  0.00     0.067 A 
BRANCH  26  27
ATOM     27  S   UNL     1      -0.015   6.570   6.657  1.00  0.00     0.175 S 
ATOM     28  C   UNL     1       0.749   7.830   5.666  1.00  0.00     0.163 C 
ATOM     29  O   UNL     1      -1.387   6.897   6.856  1.00  0.00    -0.224 OA
ATOM     30  O   UNL     1       0.881   6.330   7.801  1.00  0.00    -0.224 OA
ENDBRANCH  26  27
ENDBRANCH  13  21
ENDBRANCH   7   8
ENDBRANCH   4   7
ENDBRANCH   2   3
ENDBRANCH   1   2
BRANCH   1  31
ATOM     31  C   UNL     1      -4.220   1.645  -0.393  1.00  0.00     0.118 C 
BRANCH  31  32
ATOM     32  N   UNL     1      -5.426   2.519  -0.292  1.00  0.00    -0.352 N 
ATOM     33  C   UNL     1      -5.948   3.745  -0.707  1.00  0.00     0.251 C 
ATOM     34  H   UNL     1      -6.095   2.067   0.271  1.00  0.00     0.163 HD
ATOM     35  O   UNL     1      -7.035   4.006  -0.165  1.00  0.00    -0.269 OA
BRANCH  33  36
ATOM     36  C   UNL     1      -5.446   4.815  -1.688  1.00  0.00     0.039 A 
ATOM     37  C   UNL     1      -5.862   6.164  -1.539  1.00  0.00     0.014 A 
ATOM     38  C   UNL     1      -4.810   4.600  -2.892  1.00  0.00     0.014 A 
ATOM     39  C   UNL     1      -5.653   7.239  -2.529  1.00  0.00     0.010 A 
ATOM     40  C   UNL     1      -4.610   5.688  -3.878  1.00  0.00     0.010 A 
ATOM     41  C   UNL     1      -5.046   7.065  -3.798  1.00  0.00    -0.014 A 
BRANCH  41  42
ATOM     42  C   UNL     1      -5.395   8.226  -5.040  1.00  0.00     0.031 A 
ATOM     43  C   UNL     1      -6.860   8.014  -5.375  1.00  0.00     0.074 A 
ATOM     44  C   UNL     1      -4.937   8.953  -6.190  1.00  0.00     0.049 A 
ATOM     45  N   UNL     1      -7.083   7.452  -6.525  1.00  0.00    -0.248 NA
ATOM     46  C   UNL     1      -7.925   7.764  -4.406  1.00  0.00     0.031 C 
ATOM     47  C   UNL     1      -5.816   9.902  -7.012  1.00  0.00     0.029 A 
ATOM     48  N   UNL     1      -3.781   9.016  -7.013  1.00  0.00    -0.354 N 
ATOM     49  C   UNL     1      -7.718   6.311  -6.160  1.00  0.00     0.074 A 
ATOM     50  C   UNL     1      -8.427   6.633  -4.924  1.00  0.00     0.031 C 
ATOM     51  C   UNL     1      -5.185  10.440  -8.087  1.00  0.00     0.029 A 
ATOM     52  C   UNL     1      -3.850   9.890  -8.187  1.00  0.00     0.049 A 
ATOM     53  H   UNL     1      -2.971   8.496  -6.804  1.00  0.00     0.167 HD
ATOM     54  C   UNL     1      -7.292   5.118  -6.649  1.00  0.00     0.031 A 
ATOM     55  C   UNL     1      -3.017  10.004  -9.289  1.00  0.00     0.031 A 
ATOM     56  C   UNL     1      -5.956   5.113  -7.263  1.00  0.00     0.049 A 
ATOM     57  C   UNL     1      -2.796   8.596  -9.713  1.00  0.00     0.074 A 
ATOM     58  C   UNL     1      -4.717   5.613  -6.914  1.00  0.00     0.029 A 
ATOM     59  N   UNL     1      -5.716   4.651  -8.546  1.00  0.00    -0.354 N 
ATOM     60  N   UNL     1      -3.521   7.926 -10.562  1.00  0.00    -0.248 NA
ATOM     61  C   UNL     1      -1.687   7.876  -9.103  1.00  0.00     0.031 C 
ATOM     62  C   UNL     1      -3.717   5.089  -7.739  1.00  0.00     0.029 A 
ATOM     63  C   UNL     1      -4.420   5.052  -8.918  1.00  0.00     0.049 A 
ATOM     64  H   UNL     1      -6.343   4.132  -9.100  1.00  0.00     0.167 HD
ATOM     65  C   UNL     1      -3.196   6.609 -10.296  1.00  0.00     0.074 A 
ATOM     66  C   UNL     1      -1.953   6.651  -9.542  1.00  0.00     0.031 C 
ATOM     67  C   UNL     1      -4.196   5.691 -10.193  1.00  0.00     0.031 A 
BRANCH  54  68
ATOM     68  C   UNL     1      -8.111   3.888  -6.475  1.00  0.00    -0.014 A 
ATOM     69  C   UNL     1      -9.484   3.951  -6.167  1.00  0.00     0.010 A 
ATOM     70  C   UNL     1      -7.572   2.647  -6.849  1.00  0.00     0.010 A 
ATOM     71  C   UNL     1     -10.302   2.837  -6.283  1.00  0.00     0.020 A 
ATOM     72  C   UNL     1      -8.399   1.541  -7.037  1.00  0.00     0.020 A 
ATOM     73  C   UNL     1      -9.761   1.649  -6.760  1.00  0.00     0.054 A 
BRANCH  73  74
ATOM     74  S   UNL     1     -10.894   0.291  -7.108  1.00  0.00     0.124 S 
ATOM     75  O   UNL     1     -11.247  -0.149  -5.760  1.00  0.00    -0.237 OA
ATOM     76  O   UNL     1     -11.966   0.950  -7.848  1.00  0.00    -0.237 OA
ATOM     77  O   UNL     1     -10.081  -0.649  -7.874  1.00  0.00    -0.744 OA
ENDBRANCH  73  74
ENDBRANCH  54  68
BRANCH  55  78
ATOM     78  C   UNL     1      -2.482  10.965 -10.377  1.00  0.00    -0.014 A 
ATOM     79  C   UNL     1      -3.054  11.932 -11.229  1.00  0.00     0.010 A 
ATOM     80  C   UNL     1      -1.082  10.776 -10.588  1.00  0.00     0.010 A 
ATOM     81  C   UNL     1      -2.247  12.685 -12.171  1.00  0.00     0.020 A 
ATOM     82  C   UNL     1      -0.292  11.474 -11.515  1.00  0.00     0.020 A 
ATOM     83  C   UNL     1      -0.867  12.457 -12.294  1.00  0.00     0.054 A 
BRANCH  83  84
ATOM     84  S   UNL     1       0.240  13.488 -13.333  1.00  0.00     0.124 S 
ATOM     85  O   UNL     1      -0.009  12.990 -14.681  1.00  0.00    -0.237 OA
ATOM     86  O   UNL     1      -0.226  14.845 -13.061  1.00  0.00    -0.237 OA
ATOM     87  O   UNL     1       1.575  13.193 -12.807  1.00  0.00    -0.744 OA
ENDBRANCH  83  84
ENDBRANCH  55  78
BRANCH  67  88
ATOM     88  C   UNL     1      -5.282   5.730 -11.195  1.00  0.00    -0.014 A 
ATOM     89  C   UNL     1      -5.067   4.964 -12.344  1.00  0.00     0.010 A 
ATOM     90  C   UNL     1      -6.560   6.239 -10.895  1.00  0.00     0.010 A 
ATOM     91  C   UNL     1      -6.149   4.594 -13.125  1.00  0.00     0.020 A 
ATOM     92  C   UNL     1      -7.652   5.838 -11.660  1.00  0.00     0.020 A 
ATOM     93  C   UNL     1      -7.436   4.993 -12.752  1.00  0.00     0.054 A 
BRANCH  93  94
ATOM     94  S   UNL     1      -8.818   4.296 -13.683  1.00  0.00     0.124 S 
ATOM     95  O   UNL     1      -8.531   4.749 -15.043  1.00  0.00    -0.237 OA
ATOM     96  O   UNL     1      -8.642   2.864 -13.454  1.00  0.00    -0.237 OA
ATOM     97  O   UNL     1      -9.995   4.897 -13.064  1.00  0.00    -0.744 OA
ENDBRANCH  93  94
ENDBRANCH  67  88
ENDBRANCH  41  42
ENDBRANCH  33  36
ENDBRANCH  31  32
ENDBRANCH   1  31
TORSDOF 17
