REMARK SMILES C[C@@H](C(=O)NCCCNC(=O)c1ccc(-c2c3nc(c(-c4ccc(S(=O)(=O)[O-])cc4)c4ccc([nH]4)c(-c4ccc(S(=O)(=O)[O-])cc4)c4nc(c(-c5ccc(S(=O)(=O)[O-])cc5)c5ccc2[nH]5)C=C4)C=C3)cc1)N1C(=O)/C(=C/c2ccc(-c3ccc([N+](=O)[O-])cc3Cl)o2)SC1=S
REMARK SMILES IDX 6 1 5 2 3 3 4 4 2 6 1 7 72 8 73 9 93 10 74 11 75 12 92 13
REMARK SMILES IDX 94 14 76 15 77 16 78 17 91 18 79 19 80 20 81 21 82 22 89 23
REMARK SMILES IDX 83 24 88 25 90 26 84 27 85 28 86 29 87 30 7 31 8 32 9 33
REMARK SMILES IDX 10 34 11 36 12 37 13 38 71 39 14 40 70 41 15 42 16 43 17 44
REMARK SMILES IDX 64 45 18 46 69 47 63 48 65 49 19 50 68 51 62 52 61 53 20 55
REMARK SMILES IDX 50 56 31 57 49 58 32 59 35 60 48 61 66 62 33 63 34 64 47 66
REMARK SMILES IDX 67 67 36 68 21 69 22 70 30 71 23 72 29 73 24 74 25 75 26 76
REMARK SMILES IDX 27 77 28 78 51 79 52 80 60 81 53 82 59 83 54 84 55 85 56 86
REMARK SMILES IDX 57 87 58 88 37 89 38 90 46 91 39 92 45 93 40 94 41 95 42 96
REMARK SMILES IDX 43 97 44 98
REMARK H PARENT 5 5 9 35 65 54 35 65
REMARK Flexibility Score: inf
ROOT
ATOM      1  C   UNL     1       3.379   0.450  -1.987  1.00  0.00     0.117 C 
ENDROOT
BRANCH   1   2
ATOM      2  N   UNL     1       2.286  -0.174  -2.708  1.00  0.00    -0.354 N 
ATOM      3  C   UNL     1       0.942  -0.130  -2.470  1.00  0.00     0.242 C 
ATOM      4  O   UNL     1       0.203  -0.588  -3.346  1.00  0.00    -0.273 OA
ATOM      5  H   UNL     1       2.554  -0.712  -3.488  1.00  0.00     0.163 HD
BRANCH   3   6
ATOM      6  C   UNL     1       0.394   0.534  -1.185  1.00  0.00     0.178 C 
ATOM      7  C   UNL     1       0.833  -0.124   0.120  1.00  0.00     0.042 C 
BRANCH   6   8
ATOM      8  N   UNL     1      -1.077   0.625  -1.295  1.00  0.00    -0.281 N 
ATOM      9  C   UNL     1      -1.842  -0.531  -1.196  1.00  0.00     0.267 C 
ATOM     10  C   UNL     1      -1.762   1.790  -1.570  1.00  0.00     0.149 C 
ATOM     11  O   UNL     1      -1.437  -1.656  -0.952  1.00  0.00    -0.268 OA
ATOM     12  C   UNL     1      -3.279  -0.222  -1.417  1.00  0.00     0.084 C 
ATOM     13  S   UNL     1      -3.481   1.458  -1.710  1.00  0.00    -0.054 SA
ATOM     14  S   UNL     1      -1.164   3.340  -1.734  1.00  0.00    -0.052 S 
ATOM     15  C   UNL     1      -4.215  -1.176  -1.335  1.00  0.00     0.068 C 
BRANCH  15  16
ATOM     16  C   UNL     1      -5.601  -0.926  -1.515  1.00  0.00     0.128 A 
ATOM     17  C   UNL     1      -6.268  -0.313  -2.571  1.00  0.00     0.051 A 
ATOM     18  O   UNL     1      -6.548  -1.298  -0.587  1.00  0.00    -0.457 OA
ATOM     19  C   UNL     1      -7.640  -0.260  -2.246  1.00  0.00     0.051 A 
ATOM     20  C   UNL     1      -7.761  -0.850  -1.009  1.00  0.00     0.136 A 
BRANCH  20  21
ATOM     21  C   UNL     1      -8.895  -1.085  -0.129  1.00  0.00     0.036 A 
ATOM     22  C   UNL     1     -10.028  -1.719  -0.669  1.00  0.00     0.020 A 
ATOM     23  C   UNL     1      -8.941  -0.638   1.205  1.00  0.00     0.058 A 
ATOM     24  C   UNL     1     -11.190  -1.883   0.088  1.00  0.00     0.086 A 
ATOM     25  C   UNL     1     -10.102  -0.798   1.971  1.00  0.00     0.106 A 
ATOM     26  Cl  UNL     1      -7.620   0.195   1.953  1.00  0.00    -0.083 Cl
ATOM     27  C   UNL     1     -11.226  -1.408   1.403  1.00  0.00     0.270 A 
BRANCH  27  28
ATOM     28  N   UNL     1     -12.466  -1.518   2.180  1.00  0.00     0.062 N 
ATOM     29  O   UNL     1     -13.447  -2.037   1.628  1.00  0.00    -0.258 OA
ATOM     30  O   UNL     1     -12.465  -1.073   3.336  1.00  0.00    -0.258 OA
ENDBRANCH  27  28
ENDBRANCH  20  21
ENDBRANCH  15  16
ENDBRANCH   6   8
ENDBRANCH   3   6
ENDBRANCH   1   2
BRANCH   1  31
ATOM     31  C   UNL     1       4.246  -0.562  -1.246  1.00  0.00     0.042 C 
BRANCH  31  32
ATOM     32  C   UNL     1       5.005  -1.531  -2.149  1.00  0.00     0.118 C 
BRANCH  32  33
ATOM     33  N   UNL     1       5.935  -0.857  -3.042  1.00  0.00    -0.352 N 
ATOM     34  C   UNL     1       7.290  -0.999  -3.201  1.00  0.00     0.251 C 
ATOM     35  H   UNL     1       5.521  -0.185  -3.631  1.00  0.00     0.163 HD
ATOM     36  O   UNL     1       7.888  -0.176  -3.892  1.00  0.00    -0.269 OA
BRANCH  34  37
ATOM     37  C   UNL     1       8.040  -2.099  -2.552  1.00  0.00     0.039 A 
ATOM     38  C   UNL     1       9.330  -1.834  -2.083  1.00  0.00     0.014 A 
ATOM     39  C   UNL     1       7.521  -3.393  -2.447  1.00  0.00     0.014 A 
ATOM     40  C   UNL     1      10.071  -2.844  -1.466  1.00  0.00     0.010 A 
ATOM     41  C   UNL     1       8.230  -4.380  -1.758  1.00  0.00     0.010 A 
ATOM     42  C   UNL     1       9.514  -4.118  -1.262  1.00  0.00    -0.014 A 
BRANCH  42  43
ATOM     43  C   UNL     1      10.266  -5.155  -0.506  1.00  0.00     0.031 A 
ATOM     44  C   UNL     1      10.698  -6.439  -1.165  1.00  0.00     0.074 A 
ATOM     45  C   UNL     1      10.544  -4.943   0.796  1.00  0.00     0.049 A 
ATOM     46  N   UNL     1      11.391  -7.429  -0.660  1.00  0.00    -0.248 NA
ATOM     47  C   UNL     1      10.287  -6.648  -2.562  1.00  0.00     0.031 C 
ATOM     48  C   UNL     1      10.134  -3.765   1.566  1.00  0.00     0.029 A 
ATOM     49  N   UNL     1      11.243  -5.701   1.702  1.00  0.00    -0.354 N 
ATOM     50  C   UNL     1      11.499  -8.375  -1.673  1.00  0.00     0.074 A 
ATOM     51  C   UNL     1      10.751  -7.867  -2.802  1.00  0.00     0.031 C 
ATOM     52  C   UNL     1      10.624  -3.860   2.812  1.00  0.00     0.029 A 
ATOM     53  C   UNL     1      11.345  -5.122   2.945  1.00  0.00     0.049 A 
ATOM     54  H   UNL     1      11.634  -6.578   1.482  1.00  0.00     0.167 HD
ATOM     55  C   UNL     1      12.178  -9.549  -1.673  1.00  0.00     0.031 A 
ATOM     56  C   UNL     1      11.948  -5.552   4.069  1.00  0.00     0.031 A 
ATOM     57  C   UNL     1      12.915 -10.057  -0.543  1.00  0.00     0.049 A 
ATOM     58  C   UNL     1      12.684  -6.863   4.048  1.00  0.00     0.074 A 
ATOM     59  C   UNL     1      13.669 -11.215  -0.458  1.00  0.00     0.029 A 
ATOM     60  N   UNL     1      12.986  -9.445   0.700  1.00  0.00    -0.354 N 
ATOM     61  N   UNL     1      12.835  -7.707   3.055  1.00  0.00    -0.248 NA
ATOM     62  C   UNL     1      13.345  -7.270   5.295  1.00  0.00     0.031 C 
ATOM     63  C   UNL     1      14.147 -11.332   0.852  1.00  0.00     0.029 A 
ATOM     64  C   UNL     1      13.748 -10.214   1.565  1.00  0.00     0.049 A 
ATOM     65  H   UNL     1      12.558  -8.589   0.932  1.00  0.00     0.167 HD
ATOM     66  C   UNL     1      13.623  -8.739   3.554  1.00  0.00     0.074 A 
ATOM     67  C   UNL     1      13.943  -8.394   4.924  1.00  0.00     0.031 C 
ATOM     68  C   UNL     1      14.041  -9.871   2.935  1.00  0.00     0.031 A 
BRANCH  55  69
ATOM     69  C   UNL     1      12.153 -10.370  -2.938  1.00  0.00    -0.014 A 
ATOM     70  C   UNL     1      12.815  -9.931  -4.101  1.00  0.00     0.010 A 
ATOM     71  C   UNL     1      11.507 -11.620  -2.954  1.00  0.00     0.010 A 
ATOM     72  C   UNL     1      12.796 -10.706  -5.264  1.00  0.00     0.020 A 
ATOM     73  C   UNL     1      11.512 -12.412  -4.106  1.00  0.00     0.020 A 
ATOM     74  C   UNL     1      12.144 -11.942  -5.259  1.00  0.00     0.054 A 
BRANCH  74  75
ATOM     75  S   UNL     1      12.161 -12.938  -6.776  1.00  0.00     0.124 S 
ATOM     76  O   UNL     1      11.272 -12.173  -7.648  1.00  0.00    -0.237 OA
ATOM     77  O   UNL     1      13.573 -12.923  -7.151  1.00  0.00    -0.237 OA
ATOM     78  O   UNL     1      11.647 -14.235  -6.346  1.00  0.00    -0.744 OA
ENDBRANCH  74  75
ENDBRANCH  55  69
BRANCH  56  79
ATOM     79  C   UNL     1      11.885  -4.727   5.308  1.00  0.00    -0.014 A 
ATOM     80  C   UNL     1      13.036  -4.099   5.815  1.00  0.00     0.010 A 
ATOM     81  C   UNL     1      10.660  -4.555   5.979  1.00  0.00     0.010 A 
ATOM     82  C   UNL     1      12.967  -3.330   6.982  1.00  0.00     0.020 A 
ATOM     83  C   UNL     1      10.581  -3.761   7.126  1.00  0.00     0.020 A 
ATOM     84  C   UNL     1      11.738  -3.164   7.627  1.00  0.00     0.054 A 
BRANCH  84  85
ATOM     85  S   UNL     1      11.662  -2.119   9.108  1.00  0.00     0.124 S 
ATOM     86  O   UNL     1      12.324  -2.954  10.104  1.00  0.00    -0.237 OA
ATOM     87  O   UNL     1      12.396  -0.927   8.691  1.00  0.00    -0.237 OA
ATOM     88  O   UNL     1      10.229  -1.918   9.311  1.00  0.00    -0.744 OA
ENDBRANCH  84  85
ENDBRANCH  56  79
BRANCH  68  89
ATOM     89  C   UNL     1      14.904 -10.812   3.737  1.00  0.00    -0.014 A 
ATOM     90  C   UNL     1      14.379 -11.537   4.823  1.00  0.00     0.010 A 
ATOM     91  C   UNL     1      16.257 -10.982   3.392  1.00  0.00     0.010 A 
ATOM     92  C   UNL     1      15.205 -12.369   5.583  1.00  0.00     0.020 A 
ATOM     93  C   UNL     1      17.078 -11.840   4.129  1.00  0.00     0.020 A 
ATOM     94  C   UNL     1      16.552 -12.511   5.234  1.00  0.00     0.054 A 
BRANCH  94  95
ATOM     95  S   UNL     1      17.602 -13.600   6.234  1.00  0.00     0.124 S 
ATOM     96  O   UNL     1      17.771 -12.819   7.457  1.00  0.00    -0.237 OA
ATOM     97  O   UNL     1      16.783 -14.803   6.365  1.00  0.00    -0.237 OA
ATOM     98  O   UNL     1      18.807 -13.759   5.424  1.00  0.00    -0.744 OA
ENDBRANCH  94  95
ENDBRANCH  68  89
ENDBRANCH  42  43
ENDBRANCH  34  37
ENDBRANCH  32  33
ENDBRANCH  31  32
ENDBRANCH   1  31
TORSDOF 17
