REMARK SMILES O=C(NCCCNC(=O)c1ccc(-c2c3nc(c(-c4ccc(S(=O)(=O)[O-])cc4)c4ccc([nH]4)c(-c4ccc(S(=O)(=O)[O-])cc4)c4nc(c(-c5ccc(S(=O)(=O)[O-])cc5)c5ccc2[nH]5)C=C4)C=C3)cc1)c1ccc(C[C@H]2SC(=O)N(c3ccccc3)C2=O)cc1
REMARK SMILES IDX 5 1 4 2 3 3 1 4 2 5 70 7 71 8 89 9 72 10 88 11 73 12 74 13
REMARK SMILES IDX 75 14 76 15 86 16 77 17 79 18 87 19 78 20 80 21 81 22 85 23
REMARK SMILES IDX 82 24 84 25 83 26 6 27 7 28 8 29 9 31 10 32 11 33 69 34
REMARK SMILES IDX 12 35 68 36 13 37 14 38 15 39 62 40 16 41 67 42 61 43 63 44
REMARK SMILES IDX 17 45 66 46 60 47 59 48 18 50 48 51 29 52 47 53 30 54 33 55
REMARK SMILES IDX 46 56 64 57 31 58 32 59 45 61 65 62 34 63 19 64 20 65 28 66
REMARK SMILES IDX 21 67 27 68 22 69 23 70 24 71 25 72 26 73 49 74 50 75 58 76
REMARK SMILES IDX 51 77 57 78 52 79 53 80 54 81 55 82 56 83 35 84 36 85 44 86
REMARK SMILES IDX 37 87 43 88 38 89 39 90 40 91 41 92 42 93
REMARK H PARENT 3 6 7 30 63 49 33 60
REMARK Flexibility Score: inf
ROOT
ATOM      1  C   UNL     1       5.335  -9.062  -0.322  1.00  0.00     0.042 C 
ENDROOT
BRANCH   1   2
ATOM      2  C   UNL     1       6.685  -8.848  -0.988  1.00  0.00     0.118 C 
BRANCH   2   3
ATOM      3  N   UNL     1       6.891  -9.732  -2.128  1.00  0.00    -0.352 N 
ATOM      4  O   UNL     1       7.035 -10.282  -4.317  1.00  0.00    -0.269 OA
ATOM      5  C   UNL     1       7.032  -9.410  -3.455  1.00  0.00     0.251 C 
ATOM      6  H   UNL     1       6.934 -10.693  -1.917  1.00  0.00     0.163 HD
BRANCH   5   7
ATOM      7  C   UNL     1       7.173  -7.993  -3.840  1.00  0.00     0.039 A 
ATOM      8  C   UNL     1       8.168  -7.205  -3.258  1.00  0.00     0.014 A 
ATOM      9  C   UNL     1       6.295  -7.447  -4.778  1.00  0.00     0.014 A 
ATOM     10  C   UNL     1       8.225  -5.845  -3.544  1.00  0.00     0.004 A 
ATOM     11  C   UNL     1       6.354  -6.080  -5.062  1.00  0.00     0.004 A 
ATOM     12  C   UNL     1       7.301  -5.262  -4.425  1.00  0.00    -0.046 A 
BRANCH  12  13
ATOM     13  C   UNL     1       7.328  -3.771  -4.670  1.00  0.00     0.060 C 
BRANCH  13  14
ATOM     14  C   UNL     1       6.516  -2.925  -3.671  1.00  0.00     0.151 C 
ATOM     15  S   UNL     1       7.135  -3.016  -1.971  1.00  0.00    -0.050 SA
ATOM     16  C   UNL     1       6.661  -1.466  -4.060  1.00  0.00     0.248 C 
ATOM     17  C   UNL     1       7.904  -1.448  -2.063  1.00  0.00     0.293 C 
ATOM     18  N   UNL     1       7.494  -0.774  -3.192  1.00  0.00    -0.240 N 
ATOM     19  O   UNL     1       6.171  -1.042  -5.105  1.00  0.00    -0.273 OA
ATOM     20  O   UNL     1       8.660  -1.080  -1.181  1.00  0.00    -0.261 OA
BRANCH  18  21
ATOM     21  C   UNL     1       7.927   0.558  -3.463  1.00  0.00     0.053 A 
ATOM     22  C   UNL     1       7.063   1.495  -4.048  1.00  0.00     0.027 A 
ATOM     23  C   UNL     1       9.237   0.964  -3.161  1.00  0.00     0.027 A 
ATOM     24  C   UNL     1       7.493   2.798  -4.317  1.00  0.00     0.002 A 
ATOM     25  C   UNL     1       9.676   2.257  -3.459  1.00  0.00     0.002 A 
ATOM     26  C   UNL     1       8.802   3.176  -4.032  1.00  0.00     0.000 A 
ENDBRANCH  18  21
ENDBRANCH  13  14
ENDBRANCH  12  13
ENDBRANCH   5   7
ENDBRANCH   2   3
ENDBRANCH   1   2
BRANCH   1  27
ATOM     27  C   UNL     1       5.169 -10.432   0.315  1.00  0.00     0.118 C 
BRANCH  27  28
ATOM     28  N   UNL     1       6.097 -10.664   1.417  1.00  0.00    -0.352 N 
ATOM     29  C   UNL     1       5.838 -10.941   2.739  1.00  0.00     0.251 C 
ATOM     30  H   UNL     1       7.051 -10.614   1.178  1.00  0.00     0.163 HD
ATOM     31  O   UNL     1       6.755 -10.940   3.555  1.00  0.00    -0.269 OA
BRANCH  29  32
ATOM     32  C   UNL     1       4.452 -11.212   3.173  1.00  0.00     0.039 A 
ATOM     33  C   UNL     1       3.967 -10.609   4.337  1.00  0.00     0.014 A 
ATOM     34  C   UNL     1       3.624 -12.043   2.416  1.00  0.00     0.014 A 
ATOM     35  C   UNL     1       2.626 -10.773   4.693  1.00  0.00     0.010 A 
ATOM     36  C   UNL     1       2.270 -12.125   2.717  1.00  0.00     0.010 A 
ATOM     37  C   UNL     1       1.756 -11.495   3.861  1.00  0.00    -0.014 A 
BRANCH  37  38
ATOM     38  C   UNL     1       0.306 -11.632   4.154  1.00  0.00     0.031 A 
ATOM     39  C   UNL     1      -0.281 -13.002   4.365  1.00  0.00     0.074 A 
ATOM     40  C   UNL     1      -0.496 -10.549   4.129  1.00  0.00     0.049 A 
ATOM     41  N   UNL     1      -1.535 -13.356   4.477  1.00  0.00    -0.248 NA
ATOM     42  C   UNL     1       0.669 -14.125   4.425  1.00  0.00     0.031 C 
ATOM     43  C   UNL     1      -0.055  -9.168   3.919  1.00  0.00     0.029 A 
ATOM     44  N   UNL     1      -1.858 -10.444   4.264  1.00  0.00    -0.354 N 
ATOM     45  C   UNL     1      -1.525 -14.742   4.592  1.00  0.00     0.074 A 
ATOM     46  C   UNL     1      -0.147 -15.166   4.480  1.00  0.00     0.031 C 
ATOM     47  C   UNL     1      -1.122  -8.355   3.962  1.00  0.00     0.029 A 
ATOM     48  C   UNL     1      -2.328  -9.157   4.143  1.00  0.00     0.049 A 
ATOM     49  H   UNL     1      -2.444 -11.217   4.432  1.00  0.00     0.167 HD
ATOM     50  C   UNL     1      -2.567 -15.584   4.792  1.00  0.00     0.031 A 
ATOM     51  C   UNL     1      -3.587  -8.677   4.157  1.00  0.00     0.031 A 
ATOM     52  C   UNL     1      -3.935 -15.155   4.903  1.00  0.00     0.049 A 
ATOM     53  C   UNL     1      -4.735  -9.635   4.336  1.00  0.00     0.074 A 
ATOM     54  C   UNL     1      -5.060 -15.923   5.145  1.00  0.00     0.029 A 
ATOM     55  N   UNL     1      -4.365 -13.842   4.778  1.00  0.00    -0.354 N 
ATOM     56  N   UNL     1      -4.705 -10.938   4.484  1.00  0.00    -0.248 NA
ATOM     57  C   UNL     1      -6.085  -9.056   4.358  1.00  0.00     0.031 C 
ATOM     58  C   UNL     1      -6.177 -15.084   5.104  1.00  0.00     0.029 A 
ATOM     59  C   UNL     1      -5.742 -13.781   4.915  1.00  0.00     0.049 A 
ATOM     60  H   UNL     1      -3.779 -13.068   4.616  1.00  0.00     0.167 HD
ATOM     61  C   UNL     1      -6.028 -11.330   4.660  1.00  0.00     0.074 A 
ATOM     62  C   UNL     1      -6.832 -10.126   4.600  1.00  0.00     0.031 C 
ATOM     63  C   UNL     1      -6.529 -12.574   4.863  1.00  0.00     0.031 A 
BRANCH  50  64
ATOM     64  C   UNL     1      -2.258 -17.058   4.881  1.00  0.00    -0.014 A 
ATOM     65  C   UNL     1      -1.516 -17.585   5.954  1.00  0.00     0.010 A 
ATOM     66  C   UNL     1      -2.727 -17.931   3.882  1.00  0.00     0.010 A 
ATOM     67  C   UNL     1      -1.196 -18.945   5.994  1.00  0.00     0.020 A 
ATOM     68  C   UNL     1      -2.441 -19.298   3.938  1.00  0.00     0.020 A 
ATOM     69  C   UNL     1      -1.656 -19.792   4.982  1.00  0.00     0.054 A 
BRANCH  69  70
ATOM     70  S   UNL     1      -1.223 -21.551   5.060  1.00  0.00     0.124 S 
ATOM     71  O   UNL     1       0.203 -21.523   4.741  1.00  0.00    -0.237 OA
ATOM     72  O   UNL     1      -1.551 -21.900   6.439  1.00  0.00    -0.237 OA
ATOM     73  O   UNL     1      -2.076 -22.164   4.045  1.00  0.00    -0.744 OA
ENDBRANCH  69  70
ENDBRANCH  50  64
BRANCH  51  74
ATOM     74  C   UNL     1      -3.825  -7.214   4.018  1.00  0.00    -0.014 A 
ATOM     75  C   UNL     1      -4.285  -6.462   5.114  1.00  0.00     0.010 A 
ATOM     76  C   UNL     1      -3.571  -6.557   2.800  1.00  0.00     0.010 A 
ATOM     77  C   UNL     1      -4.495  -5.085   4.993  1.00  0.00     0.020 A 
ATOM     78  C   UNL     1      -3.751  -5.176   2.683  1.00  0.00     0.020 A 
ATOM     79  C   UNL     1      -4.220  -4.449   3.779  1.00  0.00     0.054 A 
BRANCH  79  80
ATOM     80  S   UNL     1      -4.438  -2.651   3.667  1.00  0.00     0.124 S 
ATOM     81  O   UNL     1      -5.891  -2.518   3.709  1.00  0.00    -0.237 OA
ATOM     82  O   UNL     1      -3.723  -2.175   4.848  1.00  0.00    -0.237 OA
ATOM     83  O   UNL     1      -3.815  -2.310   2.390  1.00  0.00    -0.744 OA
ENDBRANCH  79  80
ENDBRANCH  51  74
BRANCH  63  84
ATOM     84  C   UNL     1      -8.011 -12.704   5.101  1.00  0.00    -0.014 A 
ATOM     85  C   UNL     1      -8.945 -12.524   4.066  1.00  0.00     0.010 A 
ATOM     86  C   UNL     1      -8.467 -13.097   6.375  1.00  0.00     0.010 A 
ATOM     87  C   UNL     1     -10.309 -12.717   4.306  1.00  0.00     0.020 A 
ATOM     88  C   UNL     1      -9.825 -13.321   6.609  1.00  0.00     0.020 A 
ATOM     89  C   UNL     1     -10.739 -13.120   5.575  1.00  0.00     0.054 A 
BRANCH  89  90
ATOM     90  S   UNL     1     -12.507 -13.430   5.840  1.00  0.00     0.124 S 
ATOM     91  O   UNL     1     -13.062 -12.080   5.807  1.00  0.00    -0.237 OA
ATOM     92  O   UNL     1     -12.855 -14.281   4.704  1.00  0.00    -0.237 OA
ATOM     93  O   UNL     1     -12.553 -14.091   7.142  1.00  0.00    -0.744 OA
ENDBRANCH  89  90
ENDBRANCH  63  84
ENDBRANCH  37  38
ENDBRANCH  29  32
ENDBRANCH  27  28
ENDBRANCH   1  27
TORSDOF 16
