REMARK SMILES COc1cc2cc(C(=O)NCCCNC(=O)c3ccc(-c4c5nc(c(-c6ccc(S(=O)(=O)[O-])cc6)c6ccc([nH]6)c(-c6ccc(S(=O)(=O)[O-])cc6)c6nc(c(-c7ccc(S(=O)(=O)[O-])cc7)c7ccc4[nH]7)C=C6)C=C5)cc3)n(Cc3ccccc3)c2c(OC)c1OC
REMARK SMILES IDX 12 1 11 2 10 3 8 4 9 5 7 7 3 8 4 9 89 10 5 11 86 12 6 13
REMARK SMILES IDX 85 14 77 15 2 16 1 17 90 18 91 19 87 20 88 21 78 22 79 23
REMARK SMILES IDX 80 24 84 25 81 26 83 27 82 28 13 29 14 30 15 31 16 33 17 34
REMARK SMILES IDX 18 35 76 36 19 37 75 38 20 39 21 40 22 41 69 42 23 43 74 44
REMARK SMILES IDX 68 45 70 46 24 47 73 48 67 49 66 50 25 52 55 53 36 54 54 55
REMARK SMILES IDX 37 56 40 57 53 58 71 59 38 60 39 61 52 63 72 64 41 65 26 66
REMARK SMILES IDX 27 67 35 68 28 69 34 70 29 71 30 72 31 73 32 74 33 75 56 76
REMARK SMILES IDX 57 77 65 78 58 79 64 80 59 81 60 82 61 83 62 84 63 85 42 86
REMARK SMILES IDX 43 87 51 88 44 89 50 90 45 91 46 92 47 93 48 94 49 95
REMARK H PARENT 10 6 14 32 70 51 40 62
REMARK Flexibility Score: inf
ROOT
ATOM      1  C   UNL     1       2.989  -7.319   7.270  1.00  0.00     0.042 C 
ENDROOT
BRANCH   1   2
ATOM      2  C   UNL     1       1.869  -7.425   6.225  1.00  0.00     0.118 C 
BRANCH   2   3
ATOM      3  N   UNL     1       0.652  -6.721   6.596  1.00  0.00    -0.351 N 
ATOM      4  C   UNL     1      -0.068  -5.673   6.085  1.00  0.00     0.267 C 
ATOM      5  O   UNL     1      -1.211  -5.596   6.555  1.00  0.00    -0.268 OA
ATOM      6  H   UNL     1       0.246  -7.086   7.416  1.00  0.00     0.163 HD
BRANCH   4   7
ATOM      7  C   UNL     1       0.382  -4.699   5.094  1.00  0.00     0.108 A 
ATOM      8  C   UNL     1       0.899  -1.247   1.986  1.00  0.00     0.165 A 
ATOM      9  C   UNL     1      -0.120  -1.882   2.727  1.00  0.00     0.061 A 
ATOM     10  C   UNL     1       2.213  -1.747   1.969  1.00  0.00     0.205 A 
ATOM     11  C   UNL     1       0.207  -2.971   3.558  1.00  0.00     0.008 A 
ATOM     12  C   UNL     1       2.525  -2.894   2.740  1.00  0.00     0.189 A 
ATOM     13  C   UNL     1      -0.505  -3.843   4.421  1.00  0.00     0.042 A 
ATOM     14  C   UNL     1       1.525  -3.386   3.614  1.00  0.00     0.096 A 
ATOM     15  N   UNL     1       1.632  -4.204   4.750  1.00  0.00    -0.329 N 
BRANCH   8  16
ATOM     16  O   UNL     1       0.579  -0.036   1.419  1.00  0.00    -0.493 OA
ATOM     17  C   UNL     1      -0.039  -0.175   0.142  1.00  0.00     0.278 C 
ENDBRANCH   8  16
BRANCH  10  18
ATOM     18  O   UNL     1       3.282  -1.179   1.335  1.00  0.00    -0.490 OA
ATOM     19  C   UNL     1       3.132  -0.225   0.308  1.00  0.00     0.278 C 
ENDBRANCH  10  18
BRANCH  12  20
ATOM     20  O   UNL     1       3.684  -3.617   2.727  1.00  0.00    -0.491 OA
ATOM     21  C   UNL     1       4.880  -3.063   2.195  1.00  0.00     0.278 C 
ENDBRANCH  12  20
BRANCH  15  22
ATOM     22  C   UNL     1       2.917  -4.306   5.445  1.00  0.00     0.158 C 
BRANCH  22  23
ATOM     23  C   UNL     1       3.027  -3.943   6.911  1.00  0.00    -0.028 A 
ATOM     24  C   UNL     1       1.972  -3.776   7.812  1.00  0.00     0.005 A 
ATOM     25  C   UNL     1       4.344  -3.914   7.423  1.00  0.00     0.005 A 
ATOM     26  C   UNL     1       2.217  -3.717   9.188  1.00  0.00     0.000 A 
ATOM     27  C   UNL     1       4.590  -3.833   8.792  1.00  0.00     0.000 A 
ATOM     28  C   UNL     1       3.522  -3.766   9.678  1.00  0.00     0.000 A 
ENDBRANCH  22  23
ENDBRANCH  15  22
ENDBRANCH   4   7
ENDBRANCH   2   3
ENDBRANCH   1   2
BRANCH   1  29
ATOM     29  C   UNL     1       2.692  -7.900   8.647  1.00  0.00     0.118 C 
BRANCH  29  30
ATOM     30  N   UNL     1       2.870  -9.332   8.711  1.00  0.00    -0.352 N 
ATOM     31  C   UNL     1       3.955 -10.155   8.831  1.00  0.00     0.251 C 
ATOM     32  H   UNL     1       2.020  -9.826   8.656  1.00  0.00     0.163 HD
ATOM     33  O   UNL     1       3.695 -11.361   8.893  1.00  0.00    -0.269 OA
BRANCH  31  34
ATOM     34  C   UNL     1       5.389  -9.732   8.841  1.00  0.00     0.039 A 
ATOM     35  C   UNL     1       5.890  -8.435   8.999  1.00  0.00     0.014 A 
ATOM     36  C   UNL     1       6.314 -10.780   8.668  1.00  0.00     0.014 A 
ATOM     37  C   UNL     1       7.268  -8.189   8.902  1.00  0.00     0.010 A 
ATOM     38  C   UNL     1       7.681 -10.542   8.591  1.00  0.00     0.010 A 
ATOM     39  C   UNL     1       8.160  -9.238   8.656  1.00  0.00    -0.014 A 
BRANCH  39  40
ATOM     40  C   UNL     1       9.597  -8.968   8.531  1.00  0.00     0.031 A 
ATOM     41  C   UNL     1      10.290  -8.452   9.753  1.00  0.00     0.074 A 
ATOM     42  C   UNL     1      10.320  -9.342   7.452  1.00  0.00     0.049 A 
ATOM     43  N   UNL     1      10.977  -7.364   9.894  1.00  0.00    -0.248 NA
ATOM     44  C   UNL     1      10.152  -9.231  10.993  1.00  0.00     0.031 C 
ATOM     45  C   UNL     1       9.885 -10.153   6.309  1.00  0.00     0.029 A 
ATOM     46  N   UNL     1      11.653  -9.180   7.213  1.00  0.00    -0.354 N 
ATOM     47  C   UNL     1      11.491  -7.385  11.193  1.00  0.00     0.074 A 
ATOM     48  C   UNL     1      10.861  -8.500  11.855  1.00  0.00     0.031 C 
ATOM     49  C   UNL     1      10.970 -10.612   5.644  1.00  0.00     0.029 A 
ATOM     50  C   UNL     1      12.159  -9.998   6.208  1.00  0.00     0.049 A 
ATOM     51  H   UNL     1      12.211  -8.537   7.710  1.00  0.00     0.167 HD
ATOM     52  C   UNL     1      12.514  -6.578  11.599  1.00  0.00     0.031 A 
ATOM     53  C   UNL     1      13.465 -10.202   5.900  1.00  0.00     0.031 A 
ATOM     54  C   UNL     1      12.733  -5.488  10.691  1.00  0.00     0.049 A 
ATOM     55  C   UNL     1      14.227  -9.058   6.456  1.00  0.00     0.074 A 
ATOM     56  C   UNL     1      11.981  -4.409  10.274  1.00  0.00     0.029 A 
ATOM     57  N   UNL     1      13.761  -5.603   9.787  1.00  0.00    -0.354 N 
ATOM     58  N   UNL     1      14.094  -7.827   6.046  1.00  0.00    -0.248 NA
ATOM     59  C   UNL     1      14.836  -9.225   7.765  1.00  0.00     0.031 C 
ATOM     60  C   UNL     1      12.292  -4.265   8.892  1.00  0.00     0.029 A 
ATOM     61  C   UNL     1      13.261  -5.220   8.569  1.00  0.00     0.049 A 
ATOM     62  H   UNL     1      14.679  -5.902   9.976  1.00  0.00     0.167 HD
ATOM     63  C   UNL     1      14.210  -7.059   7.195  1.00  0.00     0.074 A 
ATOM     64  C   UNL     1      14.750  -7.968   8.206  1.00  0.00     0.031 C 
ATOM     65  C   UNL     1      13.613  -5.837   7.305  1.00  0.00     0.031 A 
BRANCH  52  66
ATOM     66  C   UNL     1      13.507  -6.922  12.683  1.00  0.00    -0.014 A 
ATOM     67  C   UNL     1      13.685  -8.231  13.172  1.00  0.00     0.010 A 
ATOM     68  C   UNL     1      14.472  -5.964  13.068  1.00  0.00     0.010 A 
ATOM     69  C   UNL     1      14.752  -8.572  14.009  1.00  0.00     0.020 A 
ATOM     70  C   UNL     1      15.571  -6.305  13.872  1.00  0.00     0.020 A 
ATOM     71  C   UNL     1      15.699  -7.611  14.342  1.00  0.00     0.054 A 
BRANCH  71  72
ATOM     72  S   UNL     1      17.132  -8.120  15.325  1.00  0.00     0.124 S 
ATOM     73  O   UNL     1      16.518  -8.402  16.623  1.00  0.00    -0.237 OA
ATOM     74  O   UNL     1      17.612  -9.291  14.591  1.00  0.00    -0.237 OA
ATOM     75  O   UNL     1      18.008  -6.959  15.287  1.00  0.00    -0.744 OA
ENDBRANCH  71  72
ENDBRANCH  52  66
BRANCH  53  76
ATOM     76  C   UNL     1      14.119 -11.502   5.585  1.00  0.00    -0.014 A 
ATOM     77  C   UNL     1      13.573 -12.700   6.090  1.00  0.00     0.010 A 
ATOM     78  C   UNL     1      15.434 -11.544   5.078  1.00  0.00     0.010 A 
ATOM     79  C   UNL     1      14.332 -13.873   6.164  1.00  0.00     0.020 A 
ATOM     80  C   UNL     1      16.203 -12.720   5.150  1.00  0.00     0.020 A 
ATOM     81  C   UNL     1      15.656 -13.867   5.729  1.00  0.00     0.054 A 
BRANCH  81  82
ATOM     82  S   UNL     1      16.666 -15.349   6.023  1.00  0.00     0.124 S 
ATOM     83  O   UNL     1      16.754 -15.371   7.482  1.00  0.00    -0.237 OA
ATOM     84  O   UNL     1      15.849 -16.409   5.432  1.00  0.00    -0.237 OA
ATOM     85  O   UNL     1      17.914 -15.066   5.324  1.00  0.00    -0.744 OA
ENDBRANCH  81  82
ENDBRANCH  53  76
BRANCH  65  86
ATOM     86  C   UNL     1      13.004  -5.185   6.080  1.00  0.00    -0.014 A 
ATOM     87  C   UNL     1      13.361  -3.849   5.818  1.00  0.00     0.010 A 
ATOM     88  C   UNL     1      11.918  -5.739   5.372  1.00  0.00     0.010 A 
ATOM     89  C   UNL     1      12.614  -3.063   4.939  1.00  0.00     0.020 A 
ATOM     90  C   UNL     1      11.178  -4.960   4.467  1.00  0.00     0.020 A 
ATOM     91  C   UNL     1      11.509  -3.615   4.288  1.00  0.00     0.054 A 
BRANCH  91  92
ATOM     92  S   UNL     1      10.484  -2.519   3.267  1.00  0.00     0.124 S 
ATOM     93  O   UNL     1       9.845  -1.669   4.270  1.00  0.00    -0.237 OA
ATOM     94  O   UNL     1      11.469  -1.850   2.420  1.00  0.00    -0.237 OA
ATOM     95  O   UNL     1       9.580  -3.427   2.564  1.00  0.00    -0.744 OA
ENDBRANCH  91  92
ENDBRANCH  65  86
ENDBRANCH  39  40
ENDBRANCH  31  34
ENDBRANCH  29  30
ENDBRANCH   1  29
TORSDOF 18
