REMARK SMILES [NH3+][C@H]1C=C[C@@H](C(=O)N2CCC(CC(=O)NCCCNC(=O)c3ccc(-c4c5nc(c(-c6ccc(S(=O)(=O)[O-])cc6)c6ccc([nH]6)c(-c6ccc(S(=O)(=O)[O-])cc6)c6nc(c(-c7ccc(S(=O)(=O)[O-])cc7)c7ccc4[nH]7)C=C6)C=C5)cc3)CC2)C1
REMARK SMILES IDX 17 1 16 2 15 3 13 4 14 5 12 7 11 8 6 9 7 10 8 11 9 12 83 13
REMARK SMILES IDX 10 14 82 15 5 16 2 17 3 18 84 19 4 20 1 21 18 25 19 26 20 27
REMARK SMILES IDX 21 29 22 30 23 31 81 32 24 33 80 34 25 35 26 36 27 37 74 38
REMARK SMILES IDX 28 39 79 40 73 41 75 42 29 43 78 44 72 45 71 46 30 48 60 49
REMARK SMILES IDX 41 50 59 51 42 52 45 53 58 54 76 55 43 56 44 57 57 59 77 60
REMARK SMILES IDX 46 61 31 62 32 63 40 64 33 65 39 66 34 67 35 68 36 69 37 70
REMARK SMILES IDX 38 71 61 72 62 73 70 74 63 75 69 76 64 77 65 78 66 79 67 80
REMARK SMILES IDX 68 81 47 82 48 83 56 84 49 85 55 86 50 87 51 88 52 89 53 90
REMARK SMILES IDX 54 91
REMARK H PARENT 15 6 1 22 1 23 1 24 19 28 75 47 45 58
REMARK Flexibility Score: inf
ROOT
ATOM      1  C   UNL     1       5.193   8.800  -1.217  1.00  0.00     0.042 C 
ENDROOT
BRANCH   1   2
ATOM      2  C   UNL     1       6.029   8.424  -2.441  1.00  0.00     0.117 C 
BRANCH   2   3
ATOM      3  N   UNL     1       7.215   7.649  -2.096  1.00  0.00    -0.356 N 
ATOM      4  C   UNL     1       7.526   6.342  -2.324  1.00  0.00     0.220 C 
ATOM      5  O   UNL     1       8.610   5.919  -1.917  1.00  0.00    -0.275 OA
ATOM      6  H   UNL     1       7.909   8.156  -1.618  1.00  0.00     0.163 HD
BRANCH   4   7
ATOM      7  C   UNL     1       6.563   5.428  -3.052  1.00  0.00     0.103 C 
BRANCH   7   8
ATOM      8  C   UNL     1       5.755   4.517  -2.111  1.00  0.00     0.002 C 
ATOM      9  C   UNL     1       1.922   4.080  -1.737  1.00  0.00     0.229 C 
ATOM     10  O   UNL     1       1.886   4.973  -2.584  1.00  0.00    -0.274 OA
ATOM     11  N   UNL     1       3.124   3.589  -1.239  1.00  0.00    -0.342 N 
ATOM     12  C   UNL     1       3.885   4.463  -0.365  1.00  0.00     0.120 C 
ATOM     13  C   UNL     1       3.937   2.738  -2.091  1.00  0.00     0.120 C 
ATOM     14  C   UNL     1       4.863   5.325  -1.158  1.00  0.00     0.026 C 
ATOM     15  C   UNL     1       4.904   3.548  -2.949  1.00  0.00     0.026 C 
BRANCH   9  16
ATOM     16  C   UNL     1       0.646   3.439  -1.173  1.00  0.00     0.107 C 
ATOM     17  C   UNL     1       0.069   1.243  -0.212  1.00  0.00     0.205 C 
ATOM     18  C   UNL     1       0.300   2.269   0.840  1.00  0.00     0.033 C 
ATOM     19  C   UNL     1       0.512   1.945  -1.505  1.00  0.00     0.087 C 
ATOM     20  C   UNL     1       0.597   3.466   0.325  1.00  0.00    -0.012 C 
BRANCH  17  21
ATOM     21  N   UNL     1       0.835   0.035   0.046  1.00  0.00    -0.352 N 
ATOM     22  H   UNL     1       0.508  -0.396   0.910  1.00  0.00     0.345 HD
ATOM     23  H   UNL     1       1.823   0.272   0.137  1.00  0.00     0.345 HD
ATOM     24  H   UNL     1       0.711  -0.618  -0.728  1.00  0.00     0.345 HD
ENDBRANCH  17  21
ENDBRANCH   9  16
ENDBRANCH   7   8
ENDBRANCH   4   7
ENDBRANCH   2   3
ENDBRANCH   1   2
BRANCH   1  25
ATOM     25  C   UNL     1       5.879   9.770  -0.264  1.00  0.00     0.118 C 
BRANCH  25  26
ATOM     26  N   UNL     1       5.617  11.152  -0.624  1.00  0.00    -0.352 N 
ATOM     27  C   UNL     1       4.848  12.096   0.015  1.00  0.00     0.251 C 
ATOM     28  H   UNL     1       6.057  11.460  -1.450  1.00  0.00     0.163 HD
ATOM     29  O   UNL     1       4.545  13.121  -0.590  1.00  0.00    -0.269 OA
BRANCH  27  30
ATOM     30  C   UNL     1       4.375  11.897   1.410  1.00  0.00     0.039 A 
ATOM     31  C   UNL     1       3.102  12.359   1.758  1.00  0.00     0.014 A 
ATOM     32  C   UNL     1       5.195  11.339   2.395  1.00  0.00     0.014 A 
ATOM     33  C   UNL     1       2.643  12.236   3.075  1.00  0.00     0.010 A 
ATOM     34  C   UNL     1       4.709  11.149   3.691  1.00  0.00     0.010 A 
ATOM     35  C   UNL     1       3.437  11.617   4.053  1.00  0.00    -0.014 A 
BRANCH  35  36
ATOM     36  C   UNL     1       2.972  11.493   5.461  1.00  0.00     0.031 A 
ATOM     37  C   UNL     1       3.702  12.212   6.568  1.00  0.00     0.074 A 
ATOM     38  C   UNL     1       1.924  10.700   5.761  1.00  0.00     0.049 A 
ATOM     39  N   UNL     1       3.481  12.186   7.858  1.00  0.00    -0.248 NA
ATOM     40  C   UNL     1       4.846  13.052   6.175  1.00  0.00     0.031 C 
ATOM     41  C   UNL     1       1.149   9.917   4.797  1.00  0.00     0.029 A 
ATOM     42  N   UNL     1       1.333  10.418   6.969  1.00  0.00    -0.354 N 
ATOM     43  C   UNL     1       4.471  12.977   8.431  1.00  0.00     0.074 A 
ATOM     44  C   UNL     1       5.316  13.440   7.351  1.00  0.00     0.031 C 
ATOM     45  C   UNL     1       0.174   9.260   5.446  1.00  0.00     0.029 A 
ATOM     46  C   UNL     1       0.272   9.548   6.875  1.00  0.00     0.049 A 
ATOM     47  H   UNL     1       1.640  10.802   7.821  1.00  0.00     0.167 HD
ATOM     48  C   UNL     1       4.654  13.306   9.732  1.00  0.00     0.031 A 
ATOM     49  C   UNL     1      -0.531   9.035   7.827  1.00  0.00     0.031 A 
ATOM     50  C   UNL     1       3.798  12.875  10.806  1.00  0.00     0.049 A 
ATOM     51  C   UNL     1      -0.327   9.434   9.263  1.00  0.00     0.074 A 
ATOM     52  C   UNL     1       3.865  13.211  12.147  1.00  0.00     0.029 A 
ATOM     53  N   UNL     1       2.719  12.018  10.661  1.00  0.00    -0.354 N 
ATOM     54  N   UNL     1       0.580  10.232   9.774  1.00  0.00    -0.248 NA
ATOM     55  C   UNL     1      -1.262   8.872  10.248  1.00  0.00     0.031 C 
ATOM     56  C   UNL     1       2.847  12.526  12.820  1.00  0.00     0.029 A 
ATOM     57  C   UNL     1       2.120  11.800  11.891  1.00  0.00     0.049 A 
ATOM     58  H   UNL     1       2.421  11.622   9.810  1.00  0.00     0.167 HD
ATOM     59  C   UNL     1       0.311  10.284  11.137  1.00  0.00     0.074 A 
ATOM     60  C   UNL     1      -0.850   9.449  11.369  1.00  0.00     0.031 C 
ATOM     61  C   UNL     1       0.967  10.965  12.109  1.00  0.00     0.031 A 
BRANCH  48  62
ATOM     62  C   UNL     1       5.836  14.176  10.068  1.00  0.00    -0.014 A 
ATOM     63  C   UNL     1       5.858  15.539   9.721  1.00  0.00     0.010 A 
ATOM     64  C   UNL     1       6.929  13.630  10.765  1.00  0.00     0.010 A 
ATOM     65  C   UNL     1       6.972  16.328  10.020  1.00  0.00     0.020 A 
ATOM     66  C   UNL     1       8.035  14.422  11.090  1.00  0.00     0.020 A 
ATOM     67  C   UNL     1       8.058  15.761  10.696  1.00  0.00     0.054 A 
BRANCH  67  68
ATOM     68  S   UNL     1       9.489  16.807  11.080  1.00  0.00     0.124 S 
ATOM     69  O   UNL     1      10.153  16.894   9.781  1.00  0.00    -0.237 OA
ATOM     70  O   UNL     1       8.870  18.043  11.551  1.00  0.00    -0.237 OA
ATOM     71  O   UNL     1      10.210  16.048  12.098  1.00  0.00    -0.744 OA
ENDBRANCH  67  68
ENDBRANCH  48  62
BRANCH  49  72
ATOM     72  C   UNL     1      -1.622   8.098   7.446  1.00  0.00    -0.014 A 
ATOM     73  C   UNL     1      -2.961   8.524   7.455  1.00  0.00     0.010 A 
ATOM     74  C   UNL     1      -1.322   6.783   7.047  1.00  0.00     0.010 A 
ATOM     75  C   UNL     1      -3.984   7.648   7.082  1.00  0.00     0.020 A 
ATOM     76  C   UNL     1      -2.341   5.911   6.652  1.00  0.00     0.020 A 
ATOM     77  C   UNL     1      -3.667   6.347   6.680  1.00  0.00     0.054 A 
BRANCH  77  78
ATOM     78  S   UNL     1      -5.003   5.247   6.133  1.00  0.00     0.124 S 
ATOM     79  O   UNL     1      -5.598   4.840   7.402  1.00  0.00    -0.237 OA
ATOM     80  O   UNL     1      -5.821   6.128   5.303  1.00  0.00    -0.237 OA
ATOM     81  O   UNL     1      -4.299   4.195   5.403  1.00  0.00    -0.744 OA
ENDBRANCH  77  78
ENDBRANCH  49  72
BRANCH  61  82
ATOM     82  C   UNL     1       0.432  10.859  13.511  1.00  0.00    -0.014 A 
ATOM     83  C   UNL     1       0.625   9.695  14.275  1.00  0.00     0.010 A 
ATOM     84  C   UNL     1      -0.225  11.960  14.090  1.00  0.00     0.010 A 
ATOM     85  C   UNL     1       0.146   9.624  15.586  1.00  0.00     0.020 A 
ATOM     86  C   UNL     1      -0.686  11.901  15.407  1.00  0.00     0.020 A 
ATOM     87  C   UNL     1      -0.509  10.727  16.143  1.00  0.00     0.054 A 
BRANCH  87  88
ATOM     88  S   UNL     1      -1.083  10.630  17.862  1.00  0.00     0.124 S 
ATOM     89  O   UNL     1      -2.289   9.818  17.733  1.00  0.00    -0.237 OA
ATOM     90  O   UNL     1       0.039   9.987  18.542  1.00  0.00    -0.237 OA
ATOM     91  O   UNL     1      -1.307  12.026  18.230  1.00  0.00    -0.744 OA
ENDBRANCH  87  88
ENDBRANCH  61  82
ENDBRANCH  35  36
ENDBRANCH  27  30
ENDBRANCH  25  26
ENDBRANCH   1  25
TORSDOF 16
