REMARK SMILES O=C(NCCCNC(=O)[C@@H](CCCCO)c1cccc(Cl)c1)c1ccc(-c2c3nc(c(-c4ccc(S(=O)(=O)[O-])cc4)c4ccc([nH]4)c(-c4ccc(S(=O)(=O)[O-])cc4)c4nc(c(-c5ccc(S(=O)(=O)[O-])cc5)c5ccc2[nH]5)C=C4)C=C3)cc1
REMARK SMILES IDX 6 1 5 2 4 3 3 4 1 5 2 6 23 8 24 9 82 10 25 11 81 12 26 13
REMARK SMILES IDX 27 14 28 15 75 16 29 17 80 18 74 19 76 20 30 21 79 22 73 23
REMARK SMILES IDX 72 24 31 26 61 27 42 28 60 29 43 30 46 31 59 32 77 33 44 34
REMARK SMILES IDX 45 35 58 37 78 38 47 39 32 40 33 41 41 42 34 43 40 44 35 45
REMARK SMILES IDX 36 46 37 47 38 48 39 49 62 50 63 51 71 52 64 53 70 54 65 55
REMARK SMILES IDX 66 56 67 57 68 58 69 59 48 60 49 61 57 62 50 63 56 64 51 65
REMARK SMILES IDX 52 66 53 67 54 68 55 69 7 70 8 71 9 73 10 74 11 75 12 76
REMARK SMILES IDX 13 77 14 78 15 79 16 81 17 82 22 83 18 84 20 85 19 86 21 87
REMARK H PARENT 3 7 76 25 46 36 7 72 15 80
REMARK Flexibility Score: inf
ROOT
ATOM      1  C   UNL     1       4.349   3.339   0.744  1.00  0.00     0.117 C 
ENDROOT
BRANCH   1   2
ATOM      2  C   UNL     1       4.825   2.037   0.140  1.00  0.00     0.042 C 
BRANCH   2   3
ATOM      3  C   UNL     1       4.361   0.847   0.951  1.00  0.00     0.118 C 
BRANCH   3   4
ATOM      4  N   UNL     1       2.931   0.604   0.797  1.00  0.00    -0.352 N 
ATOM      5  O   UNL     1       1.065  -0.239  -0.140  1.00  0.00    -0.269 OA
ATOM      6  C   UNL     1       2.268  -0.345   0.051  1.00  0.00     0.251 C 
ATOM      7  H   UNL     1       2.348   1.214   1.306  1.00  0.00     0.163 HD
BRANCH   6   8
ATOM      8  C   UNL     1       3.024  -1.478  -0.524  1.00  0.00     0.039 A 
ATOM      9  C   UNL     1       4.062  -2.057   0.203  1.00  0.00     0.014 A 
ATOM     10  C   UNL     1       2.690  -1.982  -1.784  1.00  0.00     0.014 A 
ATOM     11  C   UNL     1       4.896  -2.980  -0.397  1.00  0.00     0.010 A 
ATOM     12  C   UNL     1       3.428  -3.043  -2.321  1.00  0.00     0.010 A 
ATOM     13  C   UNL     1       4.546  -3.539  -1.633  1.00  0.00    -0.014 A 
BRANCH  13  14
ATOM     14  C   UNL     1       5.282  -4.747  -2.075  1.00  0.00     0.031 A 
ATOM     15  C   UNL     1       6.056  -4.776  -3.360  1.00  0.00     0.074 A 
ATOM     16  C   UNL     1       5.265  -5.817  -1.251  1.00  0.00     0.049 A 
ATOM     17  N   UNL     1       6.755  -5.760  -3.864  1.00  0.00    -0.248 NA
ATOM     18  C   UNL     1       6.044  -3.562  -4.191  1.00  0.00     0.031 C 
ATOM     19  C   UNL     1       4.530  -5.891   0.021  1.00  0.00     0.029 A 
ATOM     20  N   UNL     1       5.897  -7.029  -1.328  1.00  0.00    -0.354 N 
ATOM     21  C   UNL     1       7.237  -5.301  -5.083  1.00  0.00     0.074 A 
ATOM     22  C   UNL     1       6.748  -3.949  -5.248  1.00  0.00     0.031 C 
ATOM     23  C   UNL     1       4.815  -7.045   0.634  1.00  0.00     0.029 A 
ATOM     24  C   UNL     1       5.656  -7.841  -0.245  1.00  0.00     0.049 A 
ATOM     25  H   UNL     1       6.468  -7.293  -2.086  1.00  0.00     0.167 HD
ATOM     26  C   UNL     1       8.009  -5.960  -5.979  1.00  0.00     0.031 A 
ATOM     27  C   UNL     1       6.031  -9.109   0.002  1.00  0.00     0.031 A 
ATOM     28  C   UNL     1       8.491  -7.305  -5.788  1.00  0.00     0.049 A 
ATOM     29  C   UNL     1       6.858  -9.815  -1.027  1.00  0.00     0.074 A 
ATOM     30  C   UNL     1       9.314  -8.047  -6.617  1.00  0.00     0.029 A 
ATOM     31  N   UNL     1       8.190  -8.112  -4.700  1.00  0.00    -0.354 N 
ATOM     32  N   UNL     1       7.334  -9.348  -2.157  1.00  0.00    -0.248 NA
ATOM     33  C   UNL     1       7.190 -11.218  -0.758  1.00  0.00     0.031 C 
ATOM     34  C   UNL     1       9.458  -9.322  -6.063  1.00  0.00     0.029 A 
ATOM     35  C   UNL     1       8.781  -9.355  -4.855  1.00  0.00     0.049 A 
ATOM     36  H   UNL     1       7.638  -7.840  -3.931  1.00  0.00     0.167 HD
ATOM     37  C   UNL     1       8.030 -10.402  -2.732  1.00  0.00     0.074 A 
ATOM     38  C   UNL     1       7.943 -11.515  -1.808  1.00  0.00     0.031 C 
ATOM     39  C   UNL     1       8.675 -10.448  -3.923  1.00  0.00     0.031 A 
BRANCH  26  40
ATOM     40  C   UNL     1       8.362  -5.266  -7.268  1.00  0.00    -0.014 A 
ATOM     41  C   UNL     1       9.310  -4.229  -7.308  1.00  0.00     0.010 A 
ATOM     42  C   UNL     1       7.813  -5.736  -8.477  1.00  0.00     0.010 A 
ATOM     43  C   UNL     1       9.697  -3.671  -8.530  1.00  0.00     0.020 A 
ATOM     44  C   UNL     1       8.213  -5.197  -9.703  1.00  0.00     0.020 A 
ATOM     45  C   UNL     1       9.151  -4.163  -9.721  1.00  0.00     0.054 A 
BRANCH  45  46
ATOM     46  S   UNL     1       9.727  -3.469 -11.295  1.00  0.00     0.124 S 
ATOM     47  O   UNL     1       9.137  -2.133 -11.270  1.00  0.00    -0.237 OA
ATOM     48  O   UNL     1      11.180  -3.516 -11.151  1.00  0.00    -0.237 OA
ATOM     49  O   UNL     1       9.174  -4.375 -12.299  1.00  0.00    -0.744 OA
ENDBRANCH  45  46
ENDBRANCH  26  40
BRANCH  27  50
ATOM     50  C   UNL     1       5.564  -9.799   1.235  1.00  0.00    -0.014 A 
ATOM     51  C   UNL     1       6.473 -10.206   2.225  1.00  0.00     0.010 A 
ATOM     52  C   UNL     1       4.191 -10.056   1.419  1.00  0.00     0.010 A 
ATOM     53  C   UNL     1       6.021 -10.888   3.360  1.00  0.00     0.020 A 
ATOM     54  C   UNL     1       3.732 -10.701   2.568  1.00  0.00     0.020 A 
ATOM     55  C   UNL     1       4.654 -11.134   3.521  1.00  0.00     0.054 A 
BRANCH  55  56
ATOM     56  S   UNL     1       4.089 -12.012   5.003  1.00  0.00     0.124 S 
ATOM     57  O   UNL     1       4.496 -13.383   4.713  1.00  0.00    -0.237 OA
ATOM     58  O   UNL     1       4.829 -11.343   6.069  1.00  0.00    -0.237 OA
ATOM     59  O   UNL     1       2.647 -11.774   5.011  1.00  0.00    -0.744 OA
ENDBRANCH  55  56
ENDBRANCH  27  50
BRANCH  39  60
ATOM     60  C   UNL     1       9.355 -11.742  -4.274  1.00  0.00    -0.014 A 
ATOM     61  C   UNL     1       8.610 -12.883  -4.618  1.00  0.00     0.010 A 
ATOM     62  C   UNL     1      10.760 -11.805  -4.287  1.00  0.00     0.010 A 
ATOM     63  C   UNL     1       9.259 -14.078  -4.935  1.00  0.00     0.020 A 
ATOM     64  C   UNL     1      11.412 -12.989  -4.635  1.00  0.00     0.020 A 
ATOM     65  C   UNL     1      10.656 -14.123  -4.941  1.00  0.00     0.054 A 
BRANCH  65  66
ATOM     66  S   UNL     1      11.475 -15.675  -5.393  1.00  0.00     0.124 S 
ATOM     67  O   UNL     1      11.239 -16.498  -4.210  1.00  0.00    -0.237 OA
ATOM     68  O   UNL     1      10.752 -16.080  -6.596  1.00  0.00    -0.237 OA
ATOM     69  O   UNL     1      12.866 -15.283  -5.611  1.00  0.00    -0.744 OA
ENDBRANCH  65  66
ENDBRANCH  39  60
ENDBRANCH  13  14
ENDBRANCH   6   8
ENDBRANCH   3   4
ENDBRANCH   2   3
ENDBRANCH   1   2
BRANCH   1  70
ATOM     70  N   UNL     1       5.169   3.773   1.853  1.00  0.00    -0.356 N 
ATOM     71  C   UNL     1       5.796   4.953   2.086  1.00  0.00     0.227 C 
ATOM     72  H   UNL     1       5.294   3.097   2.558  1.00  0.00     0.163 HD
ATOM     73  O   UNL     1       6.305   5.078   3.208  1.00  0.00    -0.274 OA
BRANCH  71  74
ATOM     74  C   UNL     1       5.947   6.078   1.051  1.00  0.00     0.108 C 
BRANCH  74  75
ATOM     75  C   UNL     1       6.967   5.789  -0.087  1.00  0.00     0.018 C 
BRANCH  75  76
ATOM     76  C   UNL     1       6.648   4.829  -1.242  1.00  0.00     0.004 C 
BRANCH  76  77
ATOM     77  C   UNL     1       5.455   5.145  -2.154  1.00  0.00     0.028 C 
BRANCH  77  78
ATOM     78  C   UNL     1       5.676   6.310  -3.109  1.00  0.00     0.156 C 
BRANCH  78  79
ATOM     79  O   UNL     1       6.466   5.926  -4.224  1.00  0.00    -0.396 OA
ATOM     80  H   UNL     1       7.336   5.628  -3.917  1.00  0.00     0.210 HD
ENDBRANCH  78  79
ENDBRANCH  77  78
ENDBRANCH  76  77
ENDBRANCH  75  76
ENDBRANCH  74  75
BRANCH  74  81
ATOM     81  C   UNL     1       4.721   6.892   0.648  1.00  0.00    -0.034 A 
ATOM     82  C   UNL     1       4.931   8.178   0.113  1.00  0.00     0.004 A 
ATOM     83  C   UNL     1       3.398   6.444   0.739  1.00  0.00     0.025 A 
ATOM     84  C   UNL     1       3.880   8.934  -0.407  1.00  0.00     0.002 A 
ATOM     85  C   UNL     1       2.354   7.173   0.164  1.00  0.00     0.041 A 
ATOM     86  C   UNL     1       2.591   8.412  -0.417  1.00  0.00     0.020 A 
ATOM     87  Cl  UNL     1       0.767   6.505   0.138  1.00  0.00    -0.084 Cl
ENDBRANCH  74  81
ENDBRANCH  71  74
ENDBRANCH   1  70
TORSDOF 19
