REMARK SMILES CC(C)(CNC(=O)N1CCCC[C@@H]1CC(=O)NCCCNC(=O)c1ccc(-c2c3nc(c(-c4ccc(S(=O)(=O)[O-])cc4)c4ccc([nH]4)c(-c4ccc(S(=O)(=O)[O-])cc4)c4nc(c(-c5ccc(S(=O)(=O)[O-])cc5)c5ccc2[nH]5)C=C4)C=C3)cc1)S(C)(=O)=O
REMARK SMILES IDX 18 1 17 2 15 3 16 4 14 6 13 7 8 8 9 9 10 10 12 11 11 12 6 13
REMARK SMILES IDX 5 14 7 16 4 17 2 18 1 19 3 20 84 21 85 22 86 23 87 24 19 25
REMARK SMILES IDX 20 26 21 27 22 28 23 30 24 31 25 32 83 33 26 34 82 35 27 36
REMARK SMILES IDX 28 37 29 38 76 39 30 40 81 41 75 42 77 43 31 44 80 45 74 46
REMARK SMILES IDX 73 47 32 49 62 50 43 51 61 52 44 53 47 54 60 55 78 56 45 57
REMARK SMILES IDX 46 58 59 60 79 61 48 62 33 63 34 64 42 65 35 66 41 67 36 68
REMARK SMILES IDX 37 69 38 70 39 71 40 72 63 73 64 74 72 75 65 76 71 77 66 78
REMARK SMILES IDX 67 79 68 80 69 81 70 82 49 83 50 84 58 85 51 86 57 87 52 88
REMARK SMILES IDX 53 89 54 90 55 91 56 92
REMARK H PARENT 17 5 5 15 21 29 77 48 47 59
REMARK Flexibility Score: inf
ROOT
ATOM      1  C   UNL     1      -6.403  -4.818  -0.888  1.00  0.00     0.117 C 
ENDROOT
BRANCH   1   2
ATOM      2  N   UNL     1      -5.375  -4.666   0.136  1.00  0.00    -0.356 N 
ATOM      3  C   UNL     1      -4.336  -3.789   0.249  1.00  0.00     0.222 C 
ATOM      4  O   UNL     1      -3.620  -3.865   1.251  1.00  0.00    -0.275 OA
ATOM      5  H   UNL     1      -5.442  -5.311   0.876  1.00  0.00     0.163 HD
BRANCH   3   6
ATOM      6  C   UNL     1      -4.052  -2.743  -0.812  1.00  0.00     0.125 C 
BRANCH   6   7
ATOM      7  C   UNL     1      -2.982  -3.203  -1.834  1.00  0.00     0.096 C 
ATOM      8  N   UNL     1      -2.506  -2.097  -2.705  1.00  0.00    -0.321 N 
ATOM      9  C   UNL     1      -1.952  -2.439  -4.019  1.00  0.00     0.121 C 
ATOM     10  C   UNL     1      -2.730  -3.491  -4.781  1.00  0.00     0.022 C 
ATOM     11  C   UNL     1      -3.575  -4.365  -2.643  1.00  0.00     0.026 C 
ATOM     12  C   UNL     1      -2.858  -4.731  -3.924  1.00  0.00     0.004 C 
BRANCH   8  13
ATOM     13  C   UNL     1      -2.316  -0.798  -2.317  1.00  0.00     0.317 C 
ATOM     14  N   UNL     1      -1.648  -0.504  -1.175  1.00  0.00    -0.336 N 
ATOM     15  H   UNL     1      -1.688   0.447  -0.925  1.00  0.00     0.165 HD
ATOM     16  O   UNL     1      -2.619   0.156  -3.036  1.00  0.00    -0.249 OA
BRANCH  14  17
ATOM     17  C   UNL     1      -0.883  -1.322  -0.248  1.00  0.00     0.140 C 
BRANCH  17  18
ATOM     18  C   UNL     1       0.651  -1.137  -0.239  1.00  0.00     0.084 C 
ATOM     19  C   UNL     1       1.058   0.314   0.037  1.00  0.00     0.030 C 
ATOM     20  C   UNL     1       1.187  -2.026   0.912  1.00  0.00     0.030 C 
BRANCH  18  21
ATOM     21  S   UNL     1       1.445  -1.749  -1.765  1.00  0.00     0.154 S 
ATOM     22  C   UNL     1       1.083  -0.599  -3.075  1.00  0.00     0.158 C 
ATOM     23  O   UNL     1       2.884  -1.668  -1.564  1.00  0.00    -0.229 OA
ATOM     24  O   UNL     1       0.847  -3.024  -2.105  1.00  0.00    -0.229 OA
ENDBRANCH  18  21
ENDBRANCH  17  18
ENDBRANCH  14  17
ENDBRANCH   8  13
ENDBRANCH   6   7
ENDBRANCH   3   6
ENDBRANCH   1   2
BRANCH   1  25
ATOM     25  C   UNL     1      -6.257  -6.107  -1.703  1.00  0.00     0.042 C 
BRANCH  25  26
ATOM     26  C   UNL     1      -6.543  -7.380  -0.920  1.00  0.00     0.118 C 
BRANCH  26  27
ATOM     27  N   UNL     1      -7.959  -7.696  -0.937  1.00  0.00    -0.352 N 
ATOM     28  C   UNL     1      -8.639  -8.615  -1.701  1.00  0.00     0.251 C 
ATOM     29  H   UNL     1      -8.514  -7.177  -0.310  1.00  0.00     0.163 HD
ATOM     30  O   UNL     1      -9.858  -8.507  -1.812  1.00  0.00    -0.269 OA
BRANCH  28  31
ATOM     31  C   UNL     1      -7.927  -9.717  -2.396  1.00  0.00     0.039 A 
ATOM     32  C   UNL     1      -8.375 -10.116  -3.660  1.00  0.00     0.014 A 
ATOM     33  C   UNL     1      -6.866 -10.401  -1.796  1.00  0.00     0.014 A 
ATOM     34  C   UNL     1      -7.729 -11.155  -4.337  1.00  0.00     0.010 A 
ATOM     35  C   UNL     1      -6.170 -11.381  -2.506  1.00  0.00     0.010 A 
ATOM     36  C   UNL     1      -6.598 -11.775  -3.782  1.00  0.00    -0.014 A 
BRANCH  36  37
ATOM     37  C   UNL     1      -5.844 -12.816  -4.531  1.00  0.00     0.031 A 
ATOM     38  C   UNL     1      -5.732 -14.221  -3.999  1.00  0.00     0.074 A 
ATOM     39  C   UNL     1      -5.197 -12.478  -5.664  1.00  0.00     0.049 A 
ATOM     40  N   UNL     1      -5.079 -15.242  -4.496  1.00  0.00    -0.248 NA
ATOM     41  C   UNL     1      -6.423 -14.509  -2.733  1.00  0.00     0.031 C 
ATOM     42  C   UNL     1      -5.184 -11.140  -6.259  1.00  0.00     0.029 A 
ATOM     43  N   UNL     1      -4.415 -13.226  -6.509  1.00  0.00    -0.354 N 
ATOM     44  C   UNL     1      -5.266 -16.286  -3.597  1.00  0.00     0.074 A 
ATOM     45  C   UNL     1      -6.052 -15.759  -2.502  1.00  0.00     0.031 C 
ATOM     46  C   UNL     1      -4.446 -11.165  -7.379  1.00  0.00     0.029 A 
ATOM     47  C   UNL     1      -3.895 -12.505  -7.558  1.00  0.00     0.049 A 
ATOM     48  H   UNL     1      -4.244 -14.186  -6.377  1.00  0.00     0.167 HD
ATOM     49  C   UNL     1      -4.837 -17.570  -3.682  1.00  0.00     0.031 A 
ATOM     50  C   UNL     1      -3.051 -12.868  -8.545  1.00  0.00     0.031 A 
ATOM     51  C   UNL     1      -4.043 -18.084  -4.768  1.00  0.00     0.049 A 
ATOM     52  C   UNL     1      -2.567 -14.287  -8.612  1.00  0.00     0.074 A 
ATOM     53  C   UNL     1      -3.614 -19.383  -4.981  1.00  0.00     0.029 A 
ATOM     54  N   UNL     1      -3.539 -17.322  -5.813  1.00  0.00    -0.354 N 
ATOM     55  N   UNL     1      -2.834 -15.285  -7.804  1.00  0.00    -0.248 NA
ATOM     56  C   UNL     1      -1.674 -14.632  -9.726  1.00  0.00     0.031 C 
ATOM     57  C   UNL     1      -2.793 -19.391  -6.115  1.00  0.00     0.029 A 
ATOM     58  C   UNL     1      -2.765 -18.112  -6.648  1.00  0.00     0.049 A 
ATOM     59  H   UNL     1      -3.707 -16.361  -5.942  1.00  0.00     0.167 HD
ATOM     60  C   UNL     1      -2.145 -16.380  -8.313  1.00  0.00     0.074 A 
ATOM     61  C   UNL     1      -1.472 -15.926  -9.515  1.00  0.00     0.031 C 
ATOM     62  C   UNL     1      -2.075 -17.644  -7.826  1.00  0.00     0.031 A 
BRANCH  49  63
ATOM     63  C   UNL     1      -5.193 -18.494  -2.543  1.00  0.00    -0.014 A 
ATOM     64  C   UNL     1      -6.527 -18.871  -2.294  1.00  0.00     0.010 A 
ATOM     65  C   UNL     1      -4.179 -18.995  -1.706  1.00  0.00     0.010 A 
ATOM     66  C   UNL     1      -6.846 -19.667  -1.190  1.00  0.00     0.020 A 
ATOM     67  C   UNL     1      -4.490 -19.820  -0.620  1.00  0.00     0.020 A 
ATOM     68  C   UNL     1      -5.825 -20.126  -0.353  1.00  0.00     0.054 A 
BRANCH  68  69
ATOM     69  S   UNL     1      -6.270 -21.130   1.091  1.00  0.00     0.124 S 
ATOM     70  O   UNL     1      -6.870 -20.134   1.976  1.00  0.00    -0.237 OA
ATOM     71  O   UNL     1      -7.197 -22.109   0.528  1.00  0.00    -0.237 OA
ATOM     72  O   UNL     1      -4.993 -21.675   1.543  1.00  0.00    -0.744 OA
ENDBRANCH  68  69
ENDBRANCH  49  63
BRANCH  50  73
ATOM     73  C   UNL     1      -2.617 -11.846  -9.536  1.00  0.00    -0.014 A 
ATOM     74  C   UNL     1      -3.117 -11.859 -10.848  1.00  0.00     0.010 A 
ATOM     75  C   UNL     1      -1.762 -10.799  -9.138  1.00  0.00     0.010 A 
ATOM     76  C   UNL     1      -2.783 -10.836 -11.742  1.00  0.00     0.020 A 
ATOM     77  C   UNL     1      -1.449  -9.761 -10.019  1.00  0.00     0.020 A 
ATOM     78  C   UNL     1      -1.963  -9.786 -11.316  1.00  0.00     0.054 A 
BRANCH  78  79
ATOM     79  S   UNL     1      -1.642  -8.410 -12.456  1.00  0.00     0.124 S 
ATOM     80  O   UNL     1      -0.736  -9.021 -13.424  1.00  0.00    -0.237 OA
ATOM     81  O   UNL     1      -2.980  -8.095 -12.951  1.00  0.00    -0.237 OA
ATOM     82  O   UNL     1      -1.048  -7.387 -11.598  1.00  0.00    -0.744 OA
ENDBRANCH  78  79
ENDBRANCH  50  73
BRANCH  62  83
ATOM     83  C   UNL     1      -1.230 -18.633  -8.586  1.00  0.00    -0.014 A 
ATOM     84  C   UNL     1       0.174 -18.547  -8.572  1.00  0.00     0.010 A 
ATOM     85  C   UNL     1      -1.843 -19.698  -9.272  1.00  0.00     0.010 A 
ATOM     86  C   UNL     1       0.948 -19.494  -9.249  1.00  0.00     0.020 A 
ATOM     87  C   UNL     1      -1.072 -20.663  -9.926  1.00  0.00     0.020 A 
ATOM     88  C   UNL     1       0.320 -20.548  -9.918  1.00  0.00     0.054 A 
BRANCH  88  89
ATOM     89  S   UNL     1       1.350 -21.794 -10.742  1.00  0.00     0.124 S 
ATOM     90  O   UNL     1       1.869 -21.051 -11.887  1.00  0.00    -0.237 OA
ATOM     91  O   UNL     1       2.331 -22.128  -9.712  1.00  0.00    -0.237 OA
ATOM     92  O   UNL     1       0.409 -22.863 -11.068  1.00  0.00    -0.744 OA
ENDBRANCH  88  89
ENDBRANCH  62  83
ENDBRANCH  36  37
ENDBRANCH  28  31
ENDBRANCH  26  27
ENDBRANCH  25  26
ENDBRANCH   1  25
TORSDOF 18
