REMARK SMILES COCCCC(=O)N1CCCC[C@@H]1CCC(=O)NCCCNC(=O)c1ccc(-c2c3nc(c(-c4ccc(S(=O)(=O)[O-])cc4)c4ccc([nH]4)c(-c4ccc(S(=O)(=O)[O-])cc4)c4nc(c(-c5ccc(S(=O)(=O)[O-])cc5)c5ccc2[nH]5)C=C4)C=C3)cc1
REMARK SMILES IDX 16 1 17 2 18 3 15 5 14 6 13 7 8 8 9 9 10 10 12 11 11 12 6 13
REMARK SMILES IDX 7 14 5 15 4 16 3 17 2 18 1 19 19 20 20 21 21 22 22 23 23 24
REMARK SMILES IDX 24 26 25 27 26 28 84 29 27 30 83 31 28 32 29 33 30 34 77 35
REMARK SMILES IDX 31 36 82 37 76 38 78 39 32 40 81 41 75 42 74 43 33 45 63 46
REMARK SMILES IDX 44 47 62 48 45 49 48 50 61 51 79 52 46 53 47 54 60 56 80 57
REMARK SMILES IDX 49 58 34 59 35 60 43 61 36 62 42 63 37 64 38 65 39 66 40 67
REMARK SMILES IDX 41 68 64 69 65 70 73 71 66 72 72 73 67 74 68 75 69 76 70 77
REMARK SMILES IDX 71 78 50 79 51 80 59 81 52 82 58 83 53 84 54 85 55 86 56 87
REMARK SMILES IDX 57 88
REMARK H PARENT 18 4 22 25 78 44 48 55
REMARK Flexibility Score: inf
ROOT
ATOM      1  C   UNL     1       1.256   3.984  -1.277  1.00  0.00     0.220 C 
ATOM      2  O   UNL     1       0.031   4.090  -1.184  1.00  0.00    -0.275 OA
ATOM      3  N   UNL     1       1.754   3.272  -2.326  1.00  0.00    -0.356 N 
ATOM      4  H   UNL     1       1.071   2.940  -2.953  1.00  0.00     0.163 HD
ENDROOT
BRANCH   1   5
ATOM      5  C   UNL     1       2.166   4.621  -0.239  1.00  0.00     0.102 C 
BRANCH   5   6
ATOM      6  C   UNL     1       2.339   3.752   1.014  1.00  0.00     0.035 C 
BRANCH   6   7
ATOM      7  C   UNL     1       3.396   2.651   0.821  1.00  0.00     0.085 C 
ATOM      8  N   UNL     1       3.157   1.386   1.510  1.00  0.00    -0.340 N 
ATOM      9  C   UNL     1       4.101   0.309   1.201  1.00  0.00     0.120 C 
ATOM     10  C   UNL     1       5.558   0.778   1.350  1.00  0.00     0.022 C 
ATOM     11  C   UNL     1       4.816   3.164   1.058  1.00  0.00     0.025 C 
ATOM     12  C   UNL     1       5.827   2.101   0.632  1.00  0.00     0.004 C 
BRANCH   8  13
ATOM     13  C   UNL     1       2.454   1.345   2.701  1.00  0.00     0.222 C 
ATOM     14  O   UNL     1       2.641   2.147   3.612  1.00  0.00    -0.275 OA
BRANCH  13  15
ATOM     15  C   UNL     1       1.276   0.380   2.696  1.00  0.00     0.102 C 
BRANCH  15  16
ATOM     16  C   UNL     1       0.001   1.086   2.206  1.00  0.00     0.038 C 
BRANCH  16  17
ATOM     17  C   UNL     1      -0.170   1.161   0.684  1.00  0.00     0.160 C 
BRANCH  17  18
ATOM     18  O   UNL     1      -0.695  -0.051   0.153  1.00  0.00    -0.385 OA
ATOM     19  C   UNL     1       0.287  -0.957  -0.323  1.00  0.00     0.194 C 
ENDBRANCH  17  18
ENDBRANCH  16  17
ENDBRANCH  15  16
ENDBRANCH  13  15
ENDBRANCH   8  13
ENDBRANCH   6   7
ENDBRANCH   5   6
ENDBRANCH   1   5
BRANCH   3  20
ATOM     20  C   UNL     1       3.121   2.917  -2.683  1.00  0.00     0.117 C 
BRANCH  20  21
ATOM     21  C   UNL     1       3.364   1.413  -2.515  1.00  0.00     0.042 C 
BRANCH  21  22
ATOM     22  C   UNL     1       3.238   0.608  -3.801  1.00  0.00     0.118 C 
BRANCH  22  23
ATOM     23  N   UNL     1       4.395   0.796  -4.663  1.00  0.00    -0.352 N 
ATOM     24  C   UNL     1       5.468  -0.016  -4.944  1.00  0.00     0.251 C 
ATOM     25  H   UNL     1       4.413   1.663  -5.130  1.00  0.00     0.163 HD
ATOM     26  O   UNL     1       6.444   0.493  -5.494  1.00  0.00    -0.269 OA
BRANCH  24  27
ATOM     27  C   UNL     1       5.493  -1.464  -4.608  1.00  0.00     0.039 A 
ATOM     28  C   UNL     1       6.732  -2.066  -4.348  1.00  0.00     0.014 A 
ATOM     29  C   UNL     1       4.350  -2.265  -4.642  1.00  0.00     0.014 A 
ATOM     30  C   UNL     1       6.816  -3.441  -4.091  1.00  0.00     0.010 A 
ATOM     31  C   UNL     1       4.422  -3.618  -4.299  1.00  0.00     0.010 A 
ATOM     32  C   UNL     1       5.657  -4.229  -4.040  1.00  0.00    -0.014 A 
BRANCH  32  33
ATOM     33  C   UNL     1       5.717  -5.691  -3.761  1.00  0.00     0.031 A 
ATOM     34  C   UNL     1       5.232  -6.683  -4.791  1.00  0.00     0.074 A 
ATOM     35  C   UNL     1       6.150  -6.134  -2.563  1.00  0.00     0.049 A 
ATOM     36  N   UNL     1       5.113  -7.984  -4.695  1.00  0.00    -0.248 NA
ATOM     37  C   UNL     1       4.800  -6.139  -6.089  1.00  0.00     0.031 C 
ATOM     38  C   UNL     1       6.621  -5.288  -1.464  1.00  0.00     0.029 A 
ATOM     39  N   UNL     1       6.256  -7.410  -2.065  1.00  0.00    -0.354 N 
ATOM     40  C   UNL     1       4.564  -8.407  -5.901  1.00  0.00     0.074 A 
ATOM     41  C   UNL     1       4.337  -7.221  -6.699  1.00  0.00     0.031 C 
ATOM     42  C   UNL     1       6.985  -6.067  -0.432  1.00  0.00     0.029 A 
ATOM     43  C   UNL     1       6.736  -7.463  -0.777  1.00  0.00     0.049 A 
ATOM     44  H   UNL     1       6.012  -8.212  -2.581  1.00  0.00     0.167 HD
ATOM     45  C   UNL     1       4.288  -9.666  -6.318  1.00  0.00     0.031 A 
ATOM     46  C   UNL     1       6.944  -8.513   0.042  1.00  0.00     0.031 A 
ATOM     47  C   UNL     1       4.547 -10.851  -5.543  1.00  0.00     0.049 A 
ATOM     48  C   UNL     1       6.644  -9.904  -0.448  1.00  0.00     0.074 A 
ATOM     49  C   UNL     1       4.358 -12.174  -5.905  1.00  0.00     0.029 A 
ATOM     50  N   UNL     1       5.057 -10.858  -4.255  1.00  0.00    -0.354 N 
ATOM     51  N   UNL     1       6.168 -10.282  -1.610  1.00  0.00    -0.248 NA
ATOM     52  C   UNL     1       6.919 -11.009   0.481  1.00  0.00     0.031 C 
ATOM     53  C   UNL     1       4.717 -12.980  -4.820  1.00  0.00     0.029 A 
ATOM     54  C   UNL     1       5.176 -12.161  -3.801  1.00  0.00     0.049 A 
ATOM     55  H   UNL     1       5.299 -10.056  -3.738  1.00  0.00     0.167 HD
ATOM     56  C   UNL     1       6.111 -11.670  -1.560  1.00  0.00     0.074 A 
ATOM     57  C   UNL     1       6.614 -12.065  -0.261  1.00  0.00     0.031 C 
ATOM     58  C   UNL     1       5.683 -12.540  -2.507  1.00  0.00     0.031 A 
BRANCH  45  59
ATOM     59  C   UNL     1       3.672  -9.832  -7.683  1.00  0.00    -0.014 A 
ATOM     60  C   UNL     1       4.421  -9.606  -8.852  1.00  0.00     0.010 A 
ATOM     61  C   UNL     1       2.338 -10.266  -7.800  1.00  0.00     0.010 A 
ATOM     62  C   UNL     1       3.837  -9.771 -10.110  1.00  0.00     0.020 A 
ATOM     63  C   UNL     1       1.758 -10.458  -9.058  1.00  0.00     0.020 A 
ATOM     64  C   UNL     1       2.508 -10.191 -10.206  1.00  0.00     0.054 A 
BRANCH  64  65
ATOM     65  S   UNL     1       1.778 -10.420 -11.851  1.00  0.00     0.124 S 
ATOM     66  O   UNL     1       1.571  -9.036 -12.280  1.00  0.00    -0.237 OA
ATOM     67  O   UNL     1       2.829 -11.144 -12.569  1.00  0.00    -0.237 OA
ATOM     68  O   UNL     1       0.566 -11.181 -11.593  1.00  0.00    -0.744 OA
ENDBRANCH  64  65
ENDBRANCH  45  59
BRANCH  46  69
ATOM     69  C   UNL     1       7.479  -8.292   1.413  1.00  0.00    -0.014 A 
ATOM     70  C   UNL     1       8.797  -8.662   1.731  1.00  0.00     0.010 A 
ATOM     71  C   UNL     1       6.674  -7.704   2.406  1.00  0.00     0.010 A 
ATOM     72  C   UNL     1       9.296  -8.466   3.022  1.00  0.00     0.020 A 
ATOM     73  C   UNL     1       7.178  -7.483   3.691  1.00  0.00     0.020 A 
ATOM     74  C   UNL     1       8.483  -7.877   3.994  1.00  0.00     0.054 A 
BRANCH  74  75
ATOM     75  S   UNL     1       9.166  -7.585   5.650  1.00  0.00     0.124 S 
ATOM     76  O   UNL     1       9.144  -8.925   6.227  1.00  0.00    -0.237 OA
ATOM     77  O   UNL     1      10.490  -7.043   5.354  1.00  0.00    -0.237 OA
ATOM     78  O   UNL     1       8.230  -6.630   6.239  1.00  0.00    -0.744 OA
ENDBRANCH  74  75
ENDBRANCH  46  69
BRANCH  58  79
ATOM     79  C   UNL     1       5.771 -14.008  -2.192  1.00  0.00    -0.014 A 
ATOM     80  C   UNL     1       4.877 -14.615  -1.293  1.00  0.00     0.010 A 
ATOM     81  C   UNL     1       6.729 -14.802  -2.849  1.00  0.00     0.010 A 
ATOM     82  C   UNL     1       4.958 -15.986  -1.034  1.00  0.00     0.020 A 
ATOM     83  C   UNL     1       6.798 -16.177  -2.612  1.00  0.00     0.020 A 
ATOM     84  C   UNL     1       5.920 -16.758  -1.695  1.00  0.00     0.054 A 
BRANCH  84  85
ATOM     85  S   UNL     1       5.977 -18.543  -1.378  1.00  0.00     0.124 S 
ATOM     86  O   UNL     1       6.610 -18.598  -0.063  1.00  0.00    -0.237 OA
ATOM     87  O   UNL     1       4.566 -18.922  -1.412  1.00  0.00    -0.237 OA
ATOM     88  O   UNL     1       6.782 -19.064  -2.480  1.00  0.00    -0.744 OA
ENDBRANCH  84  85
ENDBRANCH  58  79
ENDBRANCH  32  33
ENDBRANCH  24  27
ENDBRANCH  22  23
ENDBRANCH  21  22
ENDBRANCH  20  21
ENDBRANCH   3  20
TORSDOF 20
