REMARK SMILES COc1c(C)cc([C@H](C(=O)NCCCNC(=O)c2ccc(-c3c4nc(c(-c5ccc(S(=O)(=O)[O-])cc5)c5ccc([nH]5)c(-c5ccc(S(=O)(=O)[O-])cc5)c5nc(c(-c6ccc(S(=O)(=O)[O-])cc6)c6ccc3[nH]6)C=C5)C=C4)cc2)[N@@H+](C)CCN2CCCCC2=O)cc1C
REMARK SMILES IDX 12 1 11 2 9 3 10 4 8 6 7 7 3 8 4 9 90 10 5 11 6 12 89 13
REMARK SMILES IDX 91 14 2 15 1 16 78 17 79 18 80 20 81 21 82 22 83 23 87 24
REMARK SMILES IDX 84 25 86 26 88 27 85 28 13 29 14 30 15 31 16 32 17 34 18 35
REMARK SMILES IDX 19 36 77 37 20 38 76 39 21 40 22 41 23 42 70 43 24 44 75 45
REMARK SMILES IDX 69 46 71 47 25 48 74 49 68 50 67 51 26 53 56 54 37 55 55 56
REMARK SMILES IDX 38 57 41 58 54 59 72 60 39 61 40 62 53 64 73 65 42 66 27 67
REMARK SMILES IDX 28 68 36 69 29 70 35 71 30 72 31 73 32 74 33 75 34 76 57 77
REMARK SMILES IDX 58 78 66 79 59 80 65 81 60 82 61 83 62 84 63 85 64 86 43 87
REMARK SMILES IDX 44 88 52 89 45 90 51 91 46 92 47 93 48 94 49 95 50 96
REMARK H PARENT 11 5 78 19 15 33 71 52 41 63
REMARK Flexibility Score: inf
ROOT
ATOM      1  C   UNL     1       1.792  -4.073  -5.170  1.00  0.00     0.118 C 
ENDROOT
BRANCH   1   2
ATOM      2  N   UNL     1       1.218  -2.712  -5.138  1.00  0.00    -0.351 N 
ATOM      3  C   UNL     1       1.159  -1.692  -6.099  1.00  0.00     0.283 C 
ATOM      4  O   UNL     1       0.172  -0.950  -6.035  1.00  0.00    -0.268 OA
ATOM      5  H   UNL     1       0.797  -2.476  -4.279  1.00  0.00     0.163 HD
BRANCH   3   6
ATOM      6  C   UNL     1       2.209  -1.560  -7.234  1.00  0.00     0.305 C 
BRANCH   6   7
ATOM      7  C   UNL     1       2.519  -0.256  -8.029  1.00  0.00     0.020 A 
ATOM      8  C   UNL     1       4.268   1.673  -9.152  1.00  0.00     0.124 A 
ATOM      9  C   UNL     1       4.076   0.456  -9.805  1.00  0.00    -0.008 A 
ATOM     10  C   UNL     1       3.467   2.016  -8.053  1.00  0.00    -0.008 A 
ATOM     11  C   UNL     1       4.914   0.021 -10.972  1.00  0.00     0.048 C 
ATOM     12  C   UNL     1       3.138  -0.452  -9.284  1.00  0.00     0.017 A 
ATOM     13  C   UNL     1       2.587   1.042  -7.504  1.00  0.00     0.017 A 
ATOM     14  C   UNL     1       3.696   3.320  -7.336  1.00  0.00     0.048 C 
BRANCH   8  15
ATOM     15  O   UNL     1       5.407   2.395  -9.408  1.00  0.00    -0.496 OA
ATOM     16  C   UNL     1       5.209   3.466 -10.321  1.00  0.00     0.278 C 
ENDBRANCH   8  15
ENDBRANCH   6   7
BRANCH   6  17
ATOM     17  N   UNL     1       3.468  -2.166  -6.800  1.00  0.00    -0.322 N 
ATOM     18  C   UNL     1       4.079  -3.084  -7.744  1.00  0.00     0.333 C 
ATOM     19  H   UNL     1       3.000  -2.668  -6.046  1.00  0.00     0.348 HD
BRANCH  17  20
ATOM     20  C   UNL     1       4.290  -1.655  -5.702  1.00  0.00     0.284 C 
BRANCH  20  21
ATOM     21  C   UNL     1       4.563  -0.189  -5.274  1.00  0.00     0.180 C 
BRANCH  21  22
ATOM     22  N   UNL     1       3.558   0.622  -4.551  1.00  0.00    -0.337 N 
ATOM     23  C   UNL     1       2.522   0.054  -3.712  1.00  0.00     0.119 C 
ATOM     24  C   UNL     1       3.914   1.930  -4.233  1.00  0.00     0.222 C 
ATOM     25  C   UNL     1       1.238   0.858  -3.842  1.00  0.00     0.022 C 
ATOM     26  C   UNL     1       2.775   2.879  -3.872  1.00  0.00     0.100 C 
ATOM     27  O   UNL     1       5.065   2.353  -4.338  1.00  0.00    -0.275 OA
ATOM     28  C   UNL     1       1.460   2.285  -3.388  1.00  0.00     0.012 C 
ENDBRANCH  21  22
ENDBRANCH  20  21
ENDBRANCH  17  20
ENDBRANCH   6  17
ENDBRANCH   3   6
ENDBRANCH   1   2
BRANCH   1  29
ATOM     29  C   UNL     1       3.015  -4.463  -4.288  1.00  0.00     0.042 C 
BRANCH  29  30
ATOM     30  C   UNL     1       3.006  -4.142  -2.784  1.00  0.00     0.118 C 
BRANCH  30  31
ATOM     31  N   UNL     1       2.444  -5.231  -1.994  1.00  0.00    -0.352 N 
ATOM     32  C   UNL     1       3.010  -6.219  -1.220  1.00  0.00     0.251 C 
ATOM     33  H   UNL     1       1.460  -5.267  -2.019  1.00  0.00     0.163 HD
ATOM     34  O   UNL     1       2.285  -7.169  -0.914  1.00  0.00    -0.269 OA
BRANCH  32  35
ATOM     35  C   UNL     1       4.419  -6.219  -0.721  1.00  0.00     0.039 A 
ATOM     36  C   UNL     1       5.054  -7.463  -0.560  1.00  0.00     0.014 A 
ATOM     37  C   UNL     1       5.076  -5.081  -0.246  1.00  0.00     0.014 A 
ATOM     38  C   UNL     1       6.320  -7.565   0.041  1.00  0.00     0.010 A 
ATOM     39  C   UNL     1       6.366  -5.180   0.322  1.00  0.00     0.010 A 
ATOM     40  C   UNL     1       7.005  -6.423   0.482  1.00  0.00    -0.014 A 
BRANCH  40  41
ATOM     41  C   UNL     1       8.371  -6.542   1.096  1.00  0.00     0.031 A 
ATOM     42  C   UNL     1       8.622  -6.181   2.545  1.00  0.00     0.074 A 
ATOM     43  C   UNL     1       9.413  -6.967   0.348  1.00  0.00     0.049 A 
ATOM     44  N   UNL     1       9.741  -6.234   3.229  1.00  0.00    -0.248 NA
ATOM     45  C   UNL     1       7.476  -5.685   3.321  1.00  0.00     0.031 C 
ATOM     46  C   UNL     1       9.344  -7.323  -1.070  1.00  0.00     0.029 A 
ATOM     47  N   UNL     1      10.737  -7.169   0.672  1.00  0.00    -0.354 N 
ATOM     48  C   UNL     1       9.441  -5.759   4.503  1.00  0.00     0.074 A 
ATOM     49  C   UNL     1       8.039  -5.396   4.488  1.00  0.00     0.031 C 
ATOM     50  C   UNL     1      10.560  -7.710  -1.489  1.00  0.00     0.029 A 
ATOM     51  C   UNL     1      11.508  -7.601  -0.384  1.00  0.00     0.049 A 
ATOM     52  H   UNL     1      11.098  -7.018   1.575  1.00  0.00     0.167 HD
ATOM     53  C   UNL     1      10.248  -5.644   5.589  1.00  0.00     0.031 A 
ATOM     54  C   UNL     1      12.828  -7.873  -0.469  1.00  0.00     0.031 A 
ATOM     55  C   UNL     1      11.638  -6.023   5.623  1.00  0.00     0.049 A 
ATOM     56  C   UNL     1      13.699  -7.745   0.753  1.00  0.00     0.074 A 
ATOM     57  C   UNL     1      12.504  -6.014   6.707  1.00  0.00     0.029 A 
ATOM     58  N   UNL     1      12.372  -6.469   4.536  1.00  0.00    -0.354 N 
ATOM     59  N   UNL     1      13.367  -7.380   1.967  1.00  0.00    -0.248 NA
ATOM     60  C   UNL     1      15.123  -8.080   0.595  1.00  0.00     0.031 C 
ATOM     61  C   UNL     1      13.773  -6.396   6.261  1.00  0.00     0.029 A 
ATOM     62  C   UNL     1      13.685  -6.704   4.914  1.00  0.00     0.049 A 
ATOM     63  H   UNL     1      12.013  -6.599   3.628  1.00  0.00     0.167 HD
ATOM     64  C   UNL     1      14.534  -7.464   2.721  1.00  0.00     0.074 A 
ATOM     65  C   UNL     1      15.575  -7.936   1.833  1.00  0.00     0.031 C 
ATOM     66  C   UNL     1      14.723  -7.172   4.031  1.00  0.00     0.031 A 
BRANCH  53  67
ATOM     67  C   UNL     1       9.657  -5.070   6.855  1.00  0.00    -0.014 A 
ATOM     68  C   UNL     1       8.747  -5.805   7.635  1.00  0.00     0.010 A 
ATOM     69  C   UNL     1      10.093  -3.813   7.319  1.00  0.00     0.010 A 
ATOM     70  C   UNL     1       8.260  -5.282   8.837  1.00  0.00     0.020 A 
ATOM     71  C   UNL     1       9.628  -3.298   8.534  1.00  0.00     0.020 A 
ATOM     72  C   UNL     1       8.703  -4.032   9.279  1.00  0.00     0.054 A 
BRANCH  72  73
ATOM     73  S   UNL     1       8.089  -3.393  10.863  1.00  0.00     0.124 S 
ATOM     74  O   UNL     1       6.704  -3.054  10.532  1.00  0.00    -0.237 OA
ATOM     75  O   UNL     1       8.250  -4.546  11.754  1.00  0.00    -0.237 OA
ATOM     76  O   UNL     1       8.956  -2.264  11.148  1.00  0.00    -0.744 OA
ENDBRANCH  72  73
ENDBRANCH  53  67
BRANCH  54  77
ATOM     77  C   UNL     1      13.421  -8.289  -1.773  1.00  0.00    -0.014 A 
ATOM     78  C   UNL     1      13.902  -9.597  -1.964  1.00  0.00     0.010 A 
ATOM     79  C   UNL     1      13.524  -7.365  -2.829  1.00  0.00     0.010 A 
ATOM     80  C   UNL     1      14.495  -9.965  -3.176  1.00  0.00     0.020 A 
ATOM     81  C   UNL     1      14.088  -7.737  -4.052  1.00  0.00     0.020 A 
ATOM     82  C   UNL     1      14.585  -9.031  -4.213  1.00  0.00     0.054 A 
BRANCH  82  83
ATOM     83  S   UNL     1      15.322  -9.540  -5.792  1.00  0.00     0.124 S 
ATOM     84  O   UNL     1      16.743  -9.581  -5.464  1.00  0.00    -0.237 OA
ATOM     85  O   UNL     1      14.690 -10.834  -6.034  1.00  0.00    -0.237 OA
ATOM     86  O   UNL     1      14.920  -8.479  -6.713  1.00  0.00    -0.744 OA
ENDBRANCH  82  83
ENDBRANCH  54  77
BRANCH  66  87
ATOM     87  C   UNL     1      16.103  -7.380   4.603  1.00  0.00    -0.014 A 
ATOM     88  C   UNL     1      17.171  -6.532   4.259  1.00  0.00     0.010 A 
ATOM     89  C   UNL     1      16.323  -8.412   5.533  1.00  0.00     0.010 A 
ATOM     90  C   UNL     1      18.442  -6.735   4.808  1.00  0.00     0.020 A 
ATOM     91  C   UNL     1      17.585  -8.601   6.106  1.00  0.00     0.020 A 
ATOM     92  C   UNL     1      18.641  -7.770   5.727  1.00  0.00     0.054 A 
BRANCH  92  93
ATOM     93  S   UNL     1      20.290  -7.992   6.451  1.00  0.00     0.124 S 
ATOM     94  O   UNL     1      21.036  -8.570   5.337  1.00  0.00    -0.237 OA
ATOM     95  O   UNL     1      20.665  -6.629   6.819  1.00  0.00    -0.237 OA
ATOM     96  O   UNL     1      20.056  -8.892   7.578  1.00  0.00    -0.744 OA
ENDBRANCH  92  93
ENDBRANCH  66  87
ENDBRANCH  40  41
ENDBRANCH  32  35
ENDBRANCH  30  31
ENDBRANCH  29  30
ENDBRANCH   1  29
TORSDOF 19
