REMARK SMILES CC1(C)[C@H]2CC[C@]1(C)C(=O)N(CC(=O)NCCCNC(=O)c1ccc(-c3c4nc(c(-c5ccc(S(=O)(=O)[O-])cc5)c5ccc([nH]5)c(-c5ccc(S(=O)(=O)[O-])cc5)c5nc(c(-c6ccc(S(=O)(=O)[O-])cc6)c6ccc3[nH]6)C=C5)C=C4)cc1)C2=O
REMARK SMILES IDX 18 1 17 2 16 3 15 4 13 5 14 6 12 8 11 9 1 10 2 11 4 12 7 13
REMARK SMILES IDX 3 14 5 15 82 16 6 17 9 18 8 19 83 20 10 21 19 22 20 23 21 25
REMARK SMILES IDX 22 26 23 27 81 28 24 29 80 30 25 31 26 32 27 33 74 34 28 35
REMARK SMILES IDX 79 36 73 37 75 38 29 39 78 40 72 41 71 42 30 44 60 45 41 46
REMARK SMILES IDX 59 47 42 48 45 49 58 50 76 51 43 52 44 53 57 55 77 56 46 57
REMARK SMILES IDX 31 58 32 59 40 60 33 61 39 62 34 63 35 64 36 65 37 66 38 67
REMARK SMILES IDX 61 68 62 69 70 70 63 71 69 72 64 73 65 74 66 75 67 76 68 77
REMARK SMILES IDX 47 78 48 79 56 80 49 81 55 82 50 83 51 84 52 85 53 86 54 87
REMARK H PARENT 15 7 19 24 75 43 45 54
REMARK Flexibility Score: inf
ROOT
ATOM      1  C   UNL     1      -1.931   2.986   2.812  1.00  0.00     0.118 C 
ENDROOT
BRANCH   1   2
ATOM      2  C   UNL     1      -2.808   2.992   1.564  1.00  0.00     0.042 C 
BRANCH   2   3
ATOM      3  C   UNL     1      -3.063   4.358   0.950  1.00  0.00     0.117 C 
BRANCH   3   4
ATOM      4  N   UNL     1      -1.846   5.091   0.670  1.00  0.00    -0.354 N 
ATOM      5  C   UNL     1      -1.226   5.342  -0.514  1.00  0.00     0.240 C 
ATOM      6  O   UNL     1      -0.342   6.203  -0.518  1.00  0.00    -0.273 OA
ATOM      7  H   UNL     1      -1.397   5.467   1.461  1.00  0.00     0.163 HD
BRANCH   5   8
ATOM      8  C   UNL     1      -1.652   4.643  -1.806  1.00  0.00     0.228 C 
BRANCH   8   9
ATOM      9  N   UNL     1      -1.260   3.247  -2.016  1.00  0.00    -0.272 N 
ATOM     10  C   UNL     1      -0.969   0.216  -0.884  1.00  0.00     0.013 C 
ATOM     11  C   UNL     1      -0.542   0.469  -2.334  1.00  0.00    -0.010 C 
ATOM     12  C   UNL     1       0.510   1.584  -2.487  1.00  0.00     0.086 C 
ATOM     13  C   UNL     1      -1.639   1.098  -3.235  1.00  0.00     0.053 C 
ATOM     14  C   UNL     1       0.033  -0.869  -2.878  1.00  0.00     0.013 C 
ATOM     15  C   UNL     1       0.583   1.808  -4.004  1.00  0.00     0.015 C 
ATOM     16  C   UNL     1       0.083   2.915  -1.881  1.00  0.00     0.233 C 
ATOM     17  C   UNL     1      -0.852   1.568  -4.492  1.00  0.00     0.018 C 
ATOM     18  C   UNL     1      -2.205   2.385  -2.574  1.00  0.00     0.236 C 
ATOM     19  C   UNL     1      -2.785   0.163  -3.624  1.00  0.00     0.022 C 
ATOM     20  O   UNL     1       0.927   3.663  -1.397  1.00  0.00    -0.274 OA
ATOM     21  O   UNL     1      -3.405   2.656  -2.610  1.00  0.00    -0.274 OA
ENDBRANCH   8   9
ENDBRANCH   5   8
ENDBRANCH   3   4
ENDBRANCH   2   3
ENDBRANCH   1   2
BRANCH   1  22
ATOM     22  N   UNL     1      -2.563   3.634   3.949  1.00  0.00    -0.352 N 
ATOM     23  C   UNL     1      -2.922   3.129   5.174  1.00  0.00     0.251 C 
ATOM     24  H   UNL     1      -2.767   4.588   3.820  1.00  0.00     0.163 HD
ATOM     25  O   UNL     1      -3.612   3.823   5.922  1.00  0.00    -0.269 OA
BRANCH  23  26
ATOM     26  C   UNL     1      -2.514   1.770   5.604  1.00  0.00     0.039 A 
ATOM     27  C   UNL     1      -3.425   0.999   6.335  1.00  0.00     0.014 A 
ATOM     28  C   UNL     1      -1.232   1.270   5.358  1.00  0.00     0.014 A 
ATOM     29  C   UNL     1      -3.068  -0.279   6.779  1.00  0.00     0.010 A 
ATOM     30  C   UNL     1      -0.903  -0.034   5.734  1.00  0.00     0.010 A 
ATOM     31  C   UNL     1      -1.810  -0.817   6.465  1.00  0.00    -0.014 A 
BRANCH  31  32
ATOM     32  C   UNL     1      -1.418  -2.176   6.928  1.00  0.00     0.031 A 
ATOM     33  C   UNL     1      -0.281  -2.349   7.902  1.00  0.00     0.074 A 
ATOM     34  C   UNL     1      -2.061  -3.262   6.453  1.00  0.00     0.049 A 
ATOM     35  N   UNL     1       0.220  -3.452   8.400  1.00  0.00    -0.248 NA
ATOM     36  C   UNL     1       0.395  -1.124   8.360  1.00  0.00     0.031 C 
ATOM     37  C   UNL     1      -3.161  -3.241   5.486  1.00  0.00     0.029 A 
ATOM     38  N   UNL     1      -1.883  -4.596   6.723  1.00  0.00    -0.354 N 
ATOM     39  C   UNL     1       1.276  -3.055   9.214  1.00  0.00     0.074 A 
ATOM     40  C   UNL     1       1.377  -1.617   9.100  1.00  0.00     0.031 C 
ATOM     41  C   UNL     1      -3.581  -4.498   5.272  1.00  0.00     0.029 A 
ATOM     42  C   UNL     1      -2.760  -5.418   6.054  1.00  0.00     0.049 A 
ATOM     43  H   UNL     1      -1.191  -4.934   7.337  1.00  0.00     0.167 HD
ATOM     44  C   UNL     1       2.078  -3.812  10.002  1.00  0.00     0.031 A 
ATOM     45  C   UNL     1      -2.893  -6.758   6.069  1.00  0.00     0.031 A 
ATOM     46  C   UNL     1       1.975  -5.242  10.126  1.00  0.00     0.049 A 
ATOM     47  C   UNL     1      -1.988  -7.581   6.945  1.00  0.00     0.074 A 
ATOM     48  C   UNL     1       2.715  -6.094  10.928  1.00  0.00     0.029 A 
ATOM     49  N   UNL     1       1.072  -6.033   9.431  1.00  0.00    -0.354 N 
ATOM     50  N   UNL     1      -1.024  -7.182   7.740  1.00  0.00    -0.248 NA
ATOM     51  C   UNL     1      -2.199  -9.035   6.935  1.00  0.00     0.031 C 
ATOM     52  C   UNL     1       2.288  -7.405  10.686  1.00  0.00     0.029 A 
ATOM     53  C   UNL     1       1.246  -7.364   9.774  1.00  0.00     0.049 A 
ATOM     54  H   UNL     1       0.406  -5.698   8.788  1.00  0.00     0.167 HD
ATOM     55  C   UNL     1      -0.536  -8.333   8.350  1.00  0.00     0.074 A 
ATOM     56  C   UNL     1      -1.317  -9.441   7.838  1.00  0.00     0.031 C 
ATOM     57  C   UNL     1       0.464  -8.458   9.257  1.00  0.00     0.031 A 
BRANCH  44  58
ATOM     58  C   UNL     1       3.147  -3.097  10.788  1.00  0.00    -0.014 A 
ATOM     59  C   UNL     1       2.815  -2.252  11.863  1.00  0.00     0.010 A 
ATOM     60  C   UNL     1       4.502  -3.279  10.457  1.00  0.00     0.010 A 
ATOM     61  C   UNL     1       3.812  -1.558  12.554  1.00  0.00     0.020 A 
ATOM     62  C   UNL     1       5.505  -2.611  11.166  1.00  0.00     0.020 A 
ATOM     63  C   UNL     1       5.151  -1.736  12.195  1.00  0.00     0.054 A 
BRANCH  63  64
ATOM     64  S   UNL     1       6.425  -0.820  13.105  1.00  0.00     0.124 S 
ATOM     65  O   UNL     1       6.267   0.529  12.566  1.00  0.00    -0.237 OA
ATOM     66  O   UNL     1       6.015  -0.992  14.496  1.00  0.00    -0.237 OA
ATOM     67  O   UNL     1       7.667  -1.496  12.737  1.00  0.00    -0.744 OA
ENDBRANCH  63  64
ENDBRANCH  44  58
BRANCH  45  68
ATOM     68  C   UNL     1      -3.955  -7.405   5.252  1.00  0.00    -0.014 A 
ATOM     69  C   UNL     1      -5.089  -7.962   5.870  1.00  0.00     0.010 A 
ATOM     70  C   UNL     1      -3.849  -7.452   3.850  1.00  0.00     0.010 A 
ATOM     71  C   UNL     1      -6.091  -8.564   5.104  1.00  0.00     0.020 A 
ATOM     72  C   UNL     1      -4.861  -8.031   3.079  1.00  0.00     0.020 A 
ATOM     73  C   UNL     1      -5.972  -8.592   3.712  1.00  0.00     0.054 A 
BRANCH  73  74
ATOM     74  S   UNL     1      -7.314  -9.323   2.734  1.00  0.00     0.124 S 
ATOM     75  O   UNL     1      -7.114 -10.750   2.963  1.00  0.00    -0.237 OA
ATOM     76  O   UNL     1      -8.505  -8.743   3.348  1.00  0.00    -0.237 OA
ATOM     77  O   UNL     1      -7.035  -8.861   1.375  1.00  0.00    -0.744 OA
ENDBRANCH  73  74
ENDBRANCH  45  68
BRANCH  57  78
ATOM     78  C   UNL     1       0.747  -9.839   9.789  1.00  0.00    -0.014 A 
ATOM     79  C   UNL     1       1.370 -10.816   8.994  1.00  0.00     0.010 A 
ATOM     80  C   UNL     1       0.417 -10.146  11.122  1.00  0.00     0.010 A 
ATOM     81  C   UNL     1       1.626 -12.089   9.512  1.00  0.00     0.020 A 
ATOM     82  C   UNL     1       0.696 -11.409  11.651  1.00  0.00     0.020 A 
ATOM     83  C   UNL     1       1.284 -12.379  10.837  1.00  0.00     0.054 A 
BRANCH  83  84
ATOM     84  S   UNL     1       1.655 -14.027  11.497  1.00  0.00     0.124 S 
ATOM     85  O   UNL     1       0.616 -14.844  10.875  1.00  0.00    -0.237 OA
ATOM     86  O   UNL     1       3.014 -14.268  11.018  1.00  0.00    -0.237 OA
ATOM     87  O   UNL     1       1.531 -13.857  12.943  1.00  0.00    -0.744 OA
ENDBRANCH  83  84
ENDBRANCH  57  78
ENDBRANCH  31  32
ENDBRANCH  23  26
ENDBRANCH   1  22
TORSDOF 14
