REMARK SMILES O=C(CN(Cc1ccccc1Cl)S(=O)(=O)c1ccc(Cl)cc1)NCCCNC(=O)c1ccc(-c2c3nc(c(-c4ccc(S(=O)(=O)[O-])cc4)c4ccc([nH]4)c(-c4ccc(S(=O)(=O)[O-])cc4)c4nc(c(-c5ccc(S(=O)(=O)[O-])cc5)c5ccc2[nH]5)C=C4)C=C3)cc1
REMARK SMILES IDX 25 1 24 2 23 3 1 4 2 5 3 7 4 8 5 9 6 10 7 11 11 12 8 13
REMARK SMILES IDX 10 14 12 15 9 16 13 17 14 18 15 19 16 20 17 21 22 22 18 23
REMARK SMILES IDX 21 24 19 25 20 26 26 27 27 28 28 29 29 31 30 32 31 33 89 34
REMARK SMILES IDX 32 35 88 36 33 37 34 38 35 39 82 40 36 41 87 42 81 43 83 44
REMARK SMILES IDX 37 45 86 46 80 47 79 48 38 50 68 51 49 52 67 53 50 54 53 55
REMARK SMILES IDX 66 56 84 57 51 58 52 59 65 61 85 62 54 63 39 64 40 65 48 66
REMARK SMILES IDX 41 67 47 68 42 69 43 70 44 71 45 72 46 73 69 74 70 75 78 76
REMARK SMILES IDX 71 77 77 78 72 79 73 80 74 81 75 82 76 83 55 84 56 85 64 86
REMARK SMILES IDX 57 87 63 88 58 89 59 90 60 91 61 92 62 93
REMARK H PARENT 23 6 27 30 83 49 53 60
REMARK Flexibility Score: inf
ROOT
ATOM      1  C   UNL     1       2.363   2.303   2.532  1.00  0.00     0.042 C 
ENDROOT
BRANCH   1   2
ATOM      2  C   UNL     1       2.034   2.167   1.052  1.00  0.00     0.117 C 
BRANCH   2   3
ATOM      3  N   UNL     1       2.674   1.027   0.425  1.00  0.00    -0.355 N 
ATOM      4  O   UNL     1       0.769  -0.245   0.260  1.00  0.00    -0.274 OA
ATOM      5  C   UNL     1       1.949  -0.056  -0.024  1.00  0.00     0.235 C 
ATOM      6  H   UNL     1       3.652   1.026   0.317  1.00  0.00     0.163 HD
BRANCH   5   7
ATOM      7  C   UNL     1       2.743  -1.067  -0.830  1.00  0.00     0.202 C 
BRANCH   7   8
ATOM      8  N   UNL     1       3.547  -0.615  -2.023  1.00  0.00    -0.184 NA
BRANCH   8   9
ATOM      9  C   UNL     1       4.291  -1.776  -2.600  1.00  0.00     0.140 C 
BRANCH   9  10
ATOM     10  C   UNL     1       3.529  -3.009  -3.072  1.00  0.00    -0.014 A 
ATOM     11  C   UNL     1       2.477  -2.903  -3.999  1.00  0.00     0.006 A 
ATOM     12  C   UNL     1       3.881  -4.314  -2.673  1.00  0.00     0.045 A 
ATOM     13  C   UNL     1       1.769  -4.016  -4.462  1.00  0.00     0.000 A 
ATOM     14  C   UNL     1       3.177  -5.435  -3.144  1.00  0.00     0.021 A 
ATOM     15  Cl  UNL     1       5.202  -4.636  -1.605  1.00  0.00    -0.084 Cl
ATOM     16  C   UNL     1       2.115  -5.285  -4.031  1.00  0.00     0.002 A 
ENDBRANCH   9  10
ENDBRANCH   8   9
BRANCH   8  17
ATOM     17  S   UNL     1       2.800   0.571  -2.992  1.00  0.00     0.243 S 
ATOM     18  O   UNL     1       1.605   0.015  -3.593  1.00  0.00    -0.207 OA
ATOM     19  O   UNL     1       2.704   1.759  -2.177  1.00  0.00    -0.207 OA
BRANCH  17  20
ATOM     20  C   UNL     1       3.888   1.026  -4.340  1.00  0.00     0.082 A 
ATOM     21  C   UNL     1       4.317   0.103  -5.298  1.00  0.00     0.023 A 
ATOM     22  C   UNL     1       4.181   2.387  -4.521  1.00  0.00     0.023 A 
ATOM     23  C   UNL     1       5.102   0.522  -6.378  1.00  0.00     0.022 A 
ATOM     24  C   UNL     1       4.925   2.810  -5.627  1.00  0.00     0.022 A 
ATOM     25  C   UNL     1       5.396   1.874  -6.542  1.00  0.00     0.041 A 
ATOM     26  Cl  UNL     1       6.316   2.389  -7.901  1.00  0.00    -0.084 Cl
ENDBRANCH  17  20
ENDBRANCH   8  17
ENDBRANCH   7   8
ENDBRANCH   5   7
ENDBRANCH   2   3
ENDBRANCH   1   2
BRANCH   1  27
ATOM     27  C   UNL     1       3.845   2.491   2.841  1.00  0.00     0.118 C 
BRANCH  27  28
ATOM     28  N   UNL     1       4.407   3.711   2.275  1.00  0.00    -0.352 N 
ATOM     29  C   UNL     1       5.113   4.727   2.872  1.00  0.00     0.251 C 
ATOM     30  H   UNL     1       4.255   3.825   1.309  1.00  0.00     0.163 HD
ATOM     31  O   UNL     1       5.396   5.726   2.214  1.00  0.00    -0.269 OA
BRANCH  29  32
ATOM     32  C   UNL     1       5.512   4.649   4.297  1.00  0.00     0.039 A 
ATOM     33  C   UNL     1       5.386   5.794   5.090  1.00  0.00     0.014 A 
ATOM     34  C   UNL     1       6.031   3.476   4.852  1.00  0.00     0.014 A 
ATOM     35  C   UNL     1       5.710   5.743   6.449  1.00  0.00     0.010 A 
ATOM     36  C   UNL     1       6.288   3.407   6.221  1.00  0.00     0.010 A 
ATOM     37  C   UNL     1       6.128   4.538   7.036  1.00  0.00    -0.014 A 
BRANCH  37  38
ATOM     38  C   UNL     1       6.386   4.441   8.498  1.00  0.00     0.031 A 
ATOM     39  C   UNL     1       7.768   4.136   9.012  1.00  0.00     0.074 A 
ATOM     40  C   UNL     1       5.361   4.565   9.365  1.00  0.00     0.049 A 
ATOM     41  N   UNL     1       8.167   3.955  10.245  1.00  0.00    -0.248 NA
ATOM     42  C   UNL     1       8.835   3.994   8.009  1.00  0.00     0.031 C 
ATOM     43  C   UNL     1       3.966   4.820   8.998  1.00  0.00     0.029 A 
ATOM     44  N   UNL     1       5.333   4.484  10.735  1.00  0.00    -0.354 N 
ATOM     45  C   UNL     1       9.523   3.659  10.166  1.00  0.00     0.074 A 
ATOM     46  C   UNL     1       9.869   3.645   8.761  1.00  0.00     0.031 C 
ATOM     47  C   UNL     1       3.224   4.898  10.115  1.00  0.00     0.029 A 
ATOM     48  C   UNL     1       4.080   4.663  11.274  1.00  0.00     0.049 A 
ATOM     49  H   UNL     1       6.134   4.315  11.281  1.00  0.00     0.167 HD
ATOM     50  C   UNL     1      10.405   3.435  11.171  1.00  0.00     0.031 A 
ATOM     51  C   UNL     1       3.662   4.636  12.554  1.00  0.00     0.031 A 
ATOM     52  C   UNL     1      10.066   3.464  12.569  1.00  0.00     0.049 A 
ATOM     53  C   UNL     1       4.660   4.390  13.652  1.00  0.00     0.074 A 
ATOM     54  C   UNL     1      10.903   3.304  13.660  1.00  0.00     0.029 A 
ATOM     55  N   UNL     1       8.790   3.666  13.072  1.00  0.00    -0.354 N 
ATOM     56  N   UNL     1       5.949   4.170  13.558  1.00  0.00    -0.248 NA
ATOM     57  C   UNL     1       4.147   4.401  15.029  1.00  0.00     0.031 C 
ATOM     58  C   UNL     1      10.126   3.369  14.822  1.00  0.00     0.029 A 
ATOM     59  C   UNL     1       8.813   3.618  14.456  1.00  0.00     0.049 A 
ATOM     60  H   UNL     1       7.986   3.821  12.525  1.00  0.00     0.167 HD
ATOM     61  C   UNL     1       6.406   4.040  14.864  1.00  0.00     0.074 A 
ATOM     62  C   UNL     1       5.259   4.220  15.730  1.00  0.00     0.031 C 
ATOM     63  C   UNL     1       7.665   3.797  15.306  1.00  0.00     0.031 A 
BRANCH  50  64
ATOM     64  C   UNL     1      11.829   3.133  10.787  1.00  0.00    -0.014 A 
ATOM     65  C   UNL     1      12.667   4.135  10.265  1.00  0.00     0.010 A 
ATOM     66  C   UNL     1      12.348   1.840  10.983  1.00  0.00     0.010 A 
ATOM     67  C   UNL     1      13.984   3.839   9.903  1.00  0.00     0.020 A 
ATOM     68  C   UNL     1      13.673   1.546  10.646  1.00  0.00     0.020 A 
ATOM     69  C   UNL     1      14.476   2.544  10.090  1.00  0.00     0.054 A 
BRANCH  69  70
ATOM     70  S   UNL     1      16.192   2.188   9.622  1.00  0.00     0.124 S 
ATOM     71  O   UNL     1      16.099   2.128   8.165  1.00  0.00    -0.237 OA
ATOM     72  O   UNL     1      16.918   3.338  10.157  1.00  0.00    -0.237 OA
ATOM     73  O   UNL     1      16.475   0.916  10.281  1.00  0.00    -0.744 OA
ENDBRANCH  69  70
ENDBRANCH  50  64
BRANCH  51  74
ATOM     74  C   UNL     1       2.227   4.867  12.870  1.00  0.00    -0.014 A 
ATOM     75  C   UNL     1       1.815   6.074  13.460  1.00  0.00     0.010 A 
ATOM     76  C   UNL     1       1.263   3.888  12.567  1.00  0.00     0.010 A 
ATOM     77  C   UNL     1       0.467   6.293  13.758  1.00  0.00     0.020 A 
ATOM     78  C   UNL     1      -0.089   4.114  12.841  1.00  0.00     0.020 A 
ATOM     79  C   UNL     1      -0.477   5.311  13.446  1.00  0.00     0.054 A 
BRANCH  79  80
ATOM     80  S   UNL     1      -2.228   5.637  13.790  1.00  0.00     0.124 S 
ATOM     81  O   UNL     1      -2.294   5.444  15.235  1.00  0.00    -0.237 OA
ATOM     82  O   UNL     1      -2.392   7.013  13.327  1.00  0.00    -0.237 OA
ATOM     83  O   UNL     1      -2.925   4.632  12.991  1.00  0.00    -0.744 OA
ENDBRANCH  79  80
ENDBRANCH  51  74
BRANCH  63  84
ATOM     84  C   UNL     1       7.876   3.741  16.795  1.00  0.00    -0.014 A 
ATOM     85  C   UNL     1       7.441   2.638  17.551  1.00  0.00     0.010 A 
ATOM     86  C   UNL     1       8.562   4.787  17.438  1.00  0.00     0.010 A 
ATOM     87  C   UNL     1       7.663   2.596  18.930  1.00  0.00     0.020 A 
ATOM     88  C   UNL     1       8.807   4.737  18.813  1.00  0.00     0.020 A 
ATOM     89  C   UNL     1       8.343   3.648  19.553  1.00  0.00     0.054 A 
BRANCH  89  90
ATOM     90  S   UNL     1       8.658   3.553  21.337  1.00  0.00     0.124 S 
ATOM     91  O   UNL     1       7.348   3.880  21.894  1.00  0.00    -0.237 OA
ATOM     92  O   UNL     1       9.090   2.169  21.516  1.00  0.00    -0.237 OA
ATOM     93  O   UNL     1       9.697   4.556  21.559  1.00  0.00    -0.744 OA
ENDBRANCH  89  90
ENDBRANCH  63  84
ENDBRANCH  37  38
ENDBRANCH  29  32
ENDBRANCH  27  28
ENDBRANCH   1  27
TORSDOF 18
