REMARK SMILES C[C@@H]1[C@@H](C(=O)NCCCNC(=O)c2ccc(-c3c4nc(c(-c5ccc(S(=O)(=O)[O-])cc5)c5ccc([nH]5)c(-c5ccc(S(=O)(=O)[O-])cc5)c5nc(c(-c6ccc(S(=O)(=O)[O-])cc6)c6ccc3[nH]6)C=C5)C=C4)cc2)CCN1C(=O)N1CCC[C@H]2CCC[C@@H]21
REMARK SMILES IDX 8 1 7 2 6 3 4 4 5 5 3 7 1 8 2 9 75 10 73 11 74 12 76 13
REMARK SMILES IDX 77 14 78 15 79 16 86 17 80 18 82 19 85 20 81 21 83 22 84 23
REMARK SMILES IDX 9 24 10 25 11 26 12 28 13 29 14 30 72 31 15 32 71 33 16 34
REMARK SMILES IDX 17 35 18 36 65 37 19 38 70 39 64 40 66 41 20 42 69 43 63 44
REMARK SMILES IDX 62 45 21 47 51 48 32 49 50 50 33 51 36 52 49 53 67 54 34 55
REMARK SMILES IDX 35 56 48 58 68 59 37 60 22 61 23 62 31 63 24 64 30 65 25 66
REMARK SMILES IDX 26 67 27 68 28 69 29 70 52 71 53 72 61 73 54 74 60 75 55 76
REMARK SMILES IDX 56 77 57 78 58 79 59 80 38 81 39 82 47 83 40 84 46 85 41 86
REMARK SMILES IDX 42 87 43 88 44 89 45 90
REMARK H PARENT 6 6 10 27 66 46 36 57
REMARK Flexibility Score: inf
ROOT
ATOM      1  C   UNL     1      -2.927   4.110  -1.180  1.00  0.00     0.042 C 
ENDROOT
BRANCH   1   2
ATOM      2  C   UNL     1      -2.615   2.671  -0.813  1.00  0.00     0.117 C 
BRANCH   2   3
ATOM      3  N   UNL     1      -1.840   1.964  -1.817  1.00  0.00    -0.356 N 
ATOM      4  C   UNL     1      -0.815   1.078  -1.652  1.00  0.00     0.225 C 
ATOM      5  O   UNL     1      -0.337   0.565  -2.663  1.00  0.00    -0.275 OA
ATOM      6  H   UNL     1      -2.090   2.151  -2.751  1.00  0.00     0.163 HD
BRANCH   4   7
ATOM      7  C   UNL     1      -0.247   0.852  -0.257  1.00  0.00     0.102 C 
ATOM      8  C   UNL     1       1.910   0.202   0.808  1.00  0.00     0.032 C 
ATOM      9  C   UNL     1       0.878  -0.212  -0.250  1.00  0.00     0.096 C 
ATOM     10  N   UNL     1       0.178  -1.475   0.075  1.00  0.00    -0.321 N 
ATOM     11  C   UNL     1      -1.238   0.281   0.763  1.00  0.00     0.037 C 
ATOM     12  C   UNL     1      -1.168  -1.212   0.535  1.00  0.00     0.122 C 
BRANCH  10  13
ATOM     13  C   UNL     1       0.415  -2.743  -0.434  1.00  0.00     0.320 C 
ATOM     14  O   UNL     1      -0.434  -3.634  -0.381  1.00  0.00    -0.248 OA
BRANCH  13  15
ATOM     15  N   UNL     1       1.592  -2.919  -1.110  1.00  0.00    -0.321 N 
ATOM     16  C   UNL     1       2.877  -2.869  -0.431  1.00  0.00     0.121 C 
ATOM     17  C   UNL     1       1.647  -3.620  -2.378  1.00  0.00     0.090 C 
ATOM     18  C   UNL     1       3.915  -2.142  -1.292  1.00  0.00     0.022 C 
ATOM     19  C   UNL     1       2.548  -2.795  -3.299  1.00  0.00     0.012 C 
ATOM     20  C   UNL     1       0.390  -3.774  -3.227  1.00  0.00     0.025 C 
ATOM     21  C   UNL     1       3.962  -2.698  -2.728  1.00  0.00     0.007 C 
ATOM     22  C   UNL     1       2.387  -3.483  -4.643  1.00  0.00     0.006 C 
ATOM     23  C   UNL     1       0.924  -3.950  -4.656  1.00  0.00     0.002 C 
ENDBRANCH  13  15
ENDBRANCH  10  13
ENDBRANCH   4   7
ENDBRANCH   2   3
ENDBRANCH   1   2
BRANCH   1  24
ATOM     24  C   UNL     1      -3.693   4.287  -2.481  1.00  0.00     0.118 C 
BRANCH  24  25
ATOM     25  N   UNL     1      -5.023   3.693  -2.459  1.00  0.00    -0.352 N 
ATOM     26  C   UNL     1      -6.269   4.280  -2.489  1.00  0.00     0.251 C 
ATOM     27  H   UNL     1      -5.033   2.709  -2.417  1.00  0.00     0.163 HD
ATOM     28  O   UNL     1      -7.265   3.589  -2.323  1.00  0.00    -0.269 OA
BRANCH  26  29
ATOM     29  C   UNL     1      -6.404   5.744  -2.680  1.00  0.00     0.039 A 
ATOM     30  C   UNL     1      -7.337   6.443  -1.909  1.00  0.00     0.014 A 
ATOM     31  C   UNL     1      -5.616   6.431  -3.603  1.00  0.00     0.014 A 
ATOM     32  C   UNL     1      -7.406   7.837  -1.998  1.00  0.00     0.010 A 
ATOM     33  C   UNL     1      -5.605   7.822  -3.607  1.00  0.00     0.010 A 
ATOM     34  C   UNL     1      -6.503   8.544  -2.808  1.00  0.00    -0.014 A 
BRANCH  34  35
ATOM     35  C   UNL     1      -6.479  10.030  -2.842  1.00  0.00     0.031 A 
ATOM     36  C   UNL     1      -6.717  10.762  -4.138  1.00  0.00     0.074 A 
ATOM     37  C   UNL     1      -6.171  10.722  -1.726  1.00  0.00     0.049 A 
ATOM     38  N   UNL     1      -6.657  12.046  -4.383  1.00  0.00    -0.248 NA
ATOM     39  C   UNL     1      -7.034   9.941  -5.319  1.00  0.00     0.031 C 
ATOM     40  C   UNL     1      -5.874  10.135  -0.416  1.00  0.00     0.029 A 
ATOM     41  N   UNL     1      -6.050  12.074  -1.514  1.00  0.00    -0.354 N 
ATOM     42  C   UNL     1      -6.907  12.183  -5.745  1.00  0.00     0.074 A 
ATOM     43  C   UNL     1      -7.059  10.850  -6.283  1.00  0.00     0.031 C 
ATOM     44  C   UNL     1      -5.643  11.120   0.467  1.00  0.00     0.029 A 
ATOM     45  C   UNL     1      -5.724  12.405  -0.219  1.00  0.00     0.049 A 
ATOM     46  H   UNL     1      -6.184  12.744  -2.223  1.00  0.00     0.167 HD
ATOM     47  C   UNL     1      -7.024  13.315  -6.478  1.00  0.00     0.031 A 
ATOM     48  C   UNL     1      -5.508  13.606   0.353  1.00  0.00     0.031 A 
ATOM     49  C   UNL     1      -6.890  14.642  -5.938  1.00  0.00     0.049 A 
ATOM     50  C   UNL     1      -5.633  14.850  -0.484  1.00  0.00     0.074 A 
ATOM     51  C   UNL     1      -7.047  15.854  -6.587  1.00  0.00     0.029 A 
ATOM     52  N   UNL     1      -6.570  14.931  -4.621  1.00  0.00    -0.354 N 
ATOM     53  N   UNL     1      -5.930  14.959  -1.757  1.00  0.00    -0.248 NA
ATOM     54  C   UNL     1      -5.403  16.132   0.195  1.00  0.00     0.031 C 
ATOM     55  C   UNL     1      -6.767  16.876  -5.675  1.00  0.00     0.029 A 
ATOM     56  C   UNL     1      -6.500  16.303  -4.442  1.00  0.00     0.049 A 
ATOM     57  H   UNL     1      -6.415  14.261  -3.916  1.00  0.00     0.167 HD
ATOM     58  C   UNL     1      -5.953  16.324  -2.024  1.00  0.00     0.074 A 
ATOM     59  C   UNL     1      -5.654  16.999  -0.777  1.00  0.00     0.031 C 
ATOM     60  C   UNL     1      -6.203  16.961  -3.195  1.00  0.00     0.031 A 
BRANCH  47  61
ATOM     61  C   UNL     1      -7.314  13.165  -7.950  1.00  0.00    -0.014 A 
ATOM     62  C   UNL     1      -8.556  12.683  -8.402  1.00  0.00     0.010 A 
ATOM     63  C   UNL     1      -6.345  13.547  -8.896  1.00  0.00     0.010 A 
ATOM     64  C   UNL     1      -8.808  12.543  -9.768  1.00  0.00     0.020 A 
ATOM     65  C   UNL     1      -6.605  13.439 -10.266  1.00  0.00     0.020 A 
ATOM     66  C   UNL     1      -7.829  12.920 -10.692  1.00  0.00     0.054 A 
BRANCH  66  67
ATOM     67  S   UNL     1      -8.194  12.749 -12.461  1.00  0.00     0.124 S 
ATOM     68  O   UNL     1      -8.147  11.299 -12.638  1.00  0.00    -0.237 OA
ATOM     69  O   UNL     1      -9.519  13.352 -12.574  1.00  0.00    -0.237 OA
ATOM     70  O   UNL     1      -7.116  13.490 -13.111  1.00  0.00    -0.744 OA
ENDBRANCH  66  67
ENDBRANCH  47  61
BRANCH  48  71
ATOM     71  C   UNL     1      -5.170  13.692   1.801  1.00  0.00    -0.014 A 
ATOM     72  C   UNL     1      -6.091  14.226   2.719  1.00  0.00     0.010 A 
ATOM     73  C   UNL     1      -3.926  13.231   2.273  1.00  0.00     0.010 A 
ATOM     74  C   UNL     1      -5.770  14.317   4.077  1.00  0.00     0.020 A 
ATOM     75  C   UNL     1      -3.613  13.292   3.634  1.00  0.00     0.020 A 
ATOM     76  C   UNL     1      -4.533  13.846   4.526  1.00  0.00     0.054 A 
BRANCH  76  77
ATOM     77  S   UNL     1      -4.158  13.927   6.300  1.00  0.00     0.124 S 
ATOM     78  O   UNL     1      -3.936  15.356   6.498  1.00  0.00    -0.237 OA
ATOM     79  O   UNL     1      -5.372  13.384   6.903  1.00  0.00    -0.237 OA
ATOM     80  O   UNL     1      -2.973  13.083   6.436  1.00  0.00    -0.744 OA
ENDBRANCH  76  77
ENDBRANCH  48  71
BRANCH  60  81
ATOM     81  C   UNL     1      -6.203  18.466  -3.181  1.00  0.00    -0.014 A 
ATOM     82  C   UNL     1      -5.010  19.198  -3.046  1.00  0.00     0.010 A 
ATOM     83  C   UNL     1      -7.415  19.159  -3.366  1.00  0.00     0.010 A 
ATOM     84  C   UNL     1      -5.034  20.595  -3.063  1.00  0.00     0.020 A 
ATOM     85  C   UNL     1      -7.438  20.554  -3.415  1.00  0.00     0.020 A 
ATOM     86  C   UNL     1      -6.247  21.264  -3.249  1.00  0.00     0.054 A 
BRANCH  86  87
ATOM     87  S   UNL     1      -6.243  23.077  -3.315  1.00  0.00     0.124 S 
ATOM     88  O   UNL     1      -6.009  23.431  -1.918  1.00  0.00    -0.237 OA
ATOM     89  O   UNL     1      -5.140  23.361  -4.229  1.00  0.00    -0.237 OA
ATOM     90  O   UNL     1      -7.571  23.409  -3.828  1.00  0.00    -0.744 OA
ENDBRANCH  86  87
ENDBRANCH  60  81
ENDBRANCH  34  35
ENDBRANCH  26  29
ENDBRANCH  24  25
ENDBRANCH   1  24
TORSDOF 15
