REMARK SMILES O=C(NCCCNC(=O)c1cc(SCc2csc(-c3ccsc3)n2)ccn1)c1ccc(-c2c3nc(c(-c4ccc(S(=O)(=O)[O-])cc4)c4ccc([nH]4)c(-c4ccc(S(=O)(=O)[O-])cc4)c4nc(c(-c5ccc(S(=O)(=O)[O-])cc5)c5ccc2[nH]5)C=C4)C=C3)cc1
REMARK SMILES IDX 5 1 4 2 3 3 1 4 2 5 28 7 29 8 87 9 30 10 86 11 31 12 32 13
REMARK SMILES IDX 33 14 80 15 34 16 85 17 79 18 81 19 35 20 84 21 78 22 77 23
REMARK SMILES IDX 36 25 66 26 47 27 65 28 48 29 51 30 64 31 82 32 49 33 50 34
REMARK SMILES IDX 63 36 83 37 52 38 37 39 38 40 46 41 39 42 45 43 40 44 41 45
REMARK SMILES IDX 42 46 43 47 44 48 67 49 68 50 76 51 69 52 75 53 70 54 71 55
REMARK SMILES IDX 72 56 73 57 74 58 53 59 54 60 62 61 55 62 61 63 56 64 57 65
REMARK SMILES IDX 58 66 59 67 60 68 6 69 7 70 8 71 9 73 10 74 11 75 27 76
REMARK SMILES IDX 12 77 26 78 25 79 13 80 14 81 15 82 16 83 24 84 17 85 18 86
REMARK SMILES IDX 19 87 20 88 23 89 21 90 22 91
REMARK H PARENT 3 6 81 24 51 35 7 72
REMARK Flexibility Score: inf
ROOT
ATOM      1  C   UNL     1       5.152   1.687   1.724  1.00  0.00     0.042 C 
ENDROOT
BRANCH   1   2
ATOM      2  C   UNL     1       4.649   0.290   1.404  1.00  0.00     0.118 C 
BRANCH   2   3
ATOM      3  N   UNL     1       3.205   0.242   1.206  1.00  0.00    -0.352 N 
ATOM      4  O   UNL     1       1.251   0.263   0.099  1.00  0.00    -0.269 OA
ATOM      5  C   UNL     1       2.464   0.059   0.064  1.00  0.00     0.251 C 
ATOM      6  H   UNL     1       2.674   0.359   2.026  1.00  0.00     0.163 HD
BRANCH   5   7
ATOM      7  C   UNL     1       3.108  -0.359  -1.202  1.00  0.00     0.039 A 
ATOM      8  C   UNL     1       4.144  -1.293  -1.207  1.00  0.00     0.014 A 
ATOM      9  C   UNL     1       2.638   0.160  -2.413  1.00  0.00     0.014 A 
ATOM     10  C   UNL     1       4.820  -1.576  -2.387  1.00  0.00     0.010 A 
ATOM     11  C   UNL     1       3.247  -0.213  -3.616  1.00  0.00     0.010 A 
ATOM     12  C   UNL     1       4.364  -1.062  -3.609  1.00  0.00    -0.014 A 
BRANCH  12  13
ATOM     13  C   UNL     1       5.024  -1.497  -4.867  1.00  0.00     0.031 A 
ATOM     14  C   UNL     1       5.734  -0.515  -5.757  1.00  0.00     0.074 A 
ATOM     15  C   UNL     1       4.995  -2.807  -5.186  1.00  0.00     0.049 A 
ATOM     16  N   UNL     1       6.369  -0.740  -6.879  1.00  0.00    -0.248 NA
ATOM     17  C   UNL     1       5.728   0.897  -5.344  1.00  0.00     0.031 C 
ATOM     18  C   UNL     1       4.326  -3.852  -4.403  1.00  0.00     0.029 A 
ATOM     19  N   UNL     1       5.550  -3.490  -6.237  1.00  0.00    -0.354 N 
ATOM     20  C   UNL     1       6.814   0.500  -7.322  1.00  0.00     0.074 A 
ATOM     21  C   UNL     1       6.365   1.478  -6.354  1.00  0.00     0.031 C 
ATOM     22  C   UNL     1       4.550  -5.044  -4.974  1.00  0.00     0.029 A 
ATOM     23  C   UNL     1       5.314  -4.844  -6.199  1.00  0.00     0.049 A 
ATOM     24  H   UNL     1       6.068  -3.053  -6.951  1.00  0.00     0.167 HD
ATOM     25  C   UNL     1       7.531   0.793  -8.434  1.00  0.00     0.031 A 
ATOM     26  C   UNL     1       5.647  -5.820  -7.063  1.00  0.00     0.031 A 
ATOM     27  C   UNL     1       7.981  -0.189  -9.386  1.00  0.00     0.049 A 
ATOM     28  C   UNL     1       6.418  -5.462  -8.299  1.00  0.00     0.074 A 
ATOM     29  C   UNL     1       8.757   0.005 -10.517  1.00  0.00     0.029 A 
ATOM     30  N   UNL     1       7.691  -1.543  -9.329  1.00  0.00    -0.354 N 
ATOM     31  N   UNL     1       6.869  -4.288  -8.672  1.00  0.00    -0.248 NA
ATOM     32  C   UNL     1       6.719  -6.554  -9.233  1.00  0.00     0.031 C 
ATOM     33  C   UNL     1       8.890  -1.224 -11.171  1.00  0.00     0.029 A 
ATOM     34  C   UNL     1       8.242  -2.192 -10.421  1.00  0.00     0.049 A 
ATOM     35  H   UNL     1       7.171  -1.980  -8.616  1.00  0.00     0.167 HD
ATOM     36  C   UNL     1       7.513  -4.502  -9.884  1.00  0.00     0.074 A 
ATOM     37  C   UNL     1       7.415  -5.920 -10.167  1.00  0.00     0.031 C 
ATOM     38  C   UNL     1       8.126  -3.603 -10.692  1.00  0.00     0.031 A 
BRANCH  25  39
ATOM     39  C   UNL     1       7.850   2.240  -8.704  1.00  0.00    -0.014 A 
ATOM     40  C   UNL     1       8.823   2.926  -7.957  1.00  0.00     0.010 A 
ATOM     41  C   UNL     1       7.211   2.903  -9.768  1.00  0.00     0.010 A 
ATOM     42  C   UNL     1       9.128   4.260  -8.249  1.00  0.00     0.020 A 
ATOM     43  C   UNL     1       7.528   4.229 -10.077  1.00  0.00     0.020 A 
ATOM     44  C   UNL     1       8.476   4.904  -9.306  1.00  0.00     0.054 A 
BRANCH  44  45
ATOM     45  S   UNL     1       8.911   6.625  -9.680  1.00  0.00     0.124 S 
ATOM     46  O   UNL     1       8.270   7.343  -8.581  1.00  0.00    -0.237 OA
ATOM     47  O   UNL     1      10.371   6.603  -9.647  1.00  0.00    -0.237 OA
ATOM     48  O   UNL     1       8.324   6.853 -10.998  1.00  0.00    -0.744 OA
ENDBRANCH  44  45
ENDBRANCH  25  39
BRANCH  26  49
ATOM     49  C   UNL     1       5.213  -7.217  -6.799  1.00  0.00    -0.014 A 
ATOM     50  C   UNL     1       6.145  -8.207  -6.445  1.00  0.00     0.010 A 
ATOM     51  C   UNL     1       3.848  -7.555  -6.871  1.00  0.00     0.010 A 
ATOM     52  C   UNL     1       5.722  -9.512  -6.178  1.00  0.00     0.020 A 
ATOM     53  C   UNL     1       3.418  -8.851  -6.577  1.00  0.00     0.020 A 
ATOM     54  C   UNL     1       4.360  -9.825  -6.244  1.00  0.00     0.054 A 
BRANCH  54  55
ATOM     55  S   UNL     1       3.823 -11.510  -5.839  1.00  0.00     0.124 S 
ATOM     56  O   UNL     1       4.180 -12.240  -7.051  1.00  0.00    -0.237 OA
ATOM     57  O   UNL     1       4.619 -11.821  -4.654  1.00  0.00    -0.237 OA
ATOM     58  O   UNL     1       2.390 -11.360  -5.594  1.00  0.00    -0.744 OA
ENDBRANCH  54  55
ENDBRANCH  26  49
BRANCH  38  59
ATOM     59  C   UNL     1       8.746  -4.129 -11.956  1.00  0.00    -0.014 A 
ATOM     60  C   UNL     1       7.947  -4.500 -13.051  1.00  0.00     0.010 A 
ATOM     61  C   UNL     1      10.146  -4.202 -12.067  1.00  0.00     0.010 A 
ATOM     62  C   UNL     1       8.539  -4.957 -14.231  1.00  0.00     0.020 A 
ATOM     63  C   UNL     1      10.741  -4.635 -13.254  1.00  0.00     0.020 A 
ATOM     64  C   UNL     1       9.933  -5.021 -14.325  1.00  0.00     0.054 A 
BRANCH  64  65
ATOM     65  S   UNL     1      10.678  -5.566 -15.886  1.00  0.00     0.124 S 
ATOM     66  O   UNL     1      10.451  -7.008 -15.844  1.00  0.00    -0.237 OA
ATOM     67  O   UNL     1       9.903  -4.836 -16.886  1.00  0.00    -0.237 OA
ATOM     68  O   UNL     1      12.075  -5.151 -15.765  1.00  0.00    -0.744 OA
ENDBRANCH  64  65
ENDBRANCH  38  59
ENDBRANCH  12  13
ENDBRANCH   5   7
ENDBRANCH   2   3
ENDBRANCH   1   2
BRANCH   1  69
ATOM     69  C   UNL     1       4.645   2.232   3.045  1.00  0.00     0.118 C 
BRANCH  69  70
ATOM     70  N   UNL     1       5.147   1.520   4.211  1.00  0.00    -0.351 N 
ATOM     71  C   UNL     1       5.838   2.006   5.304  1.00  0.00     0.269 C 
ATOM     72  H   UNL     1       4.969   0.552   4.223  1.00  0.00     0.163 HD
ATOM     73  O   UNL     1       6.180   1.233   6.195  1.00  0.00    -0.268 OA
BRANCH  71  74
ATOM     74  C   UNL     1       6.152   3.462   5.389  1.00  0.00     0.129 A 
ATOM     75  C   UNL     1       5.139   4.397   5.207  1.00  0.00     0.049 A 
ATOM     76  N   UNL     1       7.459   3.778   5.546  1.00  0.00    -0.251 NA
ATOM     77  C   UNL     1       5.495   5.726   5.025  1.00  0.00     0.011 A 
ATOM     78  C   UNL     1       7.771   5.083   5.453  1.00  0.00     0.113 A 
ATOM     79  C   UNL     1       6.841   6.073   5.175  1.00  0.00     0.035 A 
BRANCH  77  80
ATOM     80  S   UNL     1       4.380   7.026   4.515  1.00  0.00    -0.120 SA
BRANCH  80  81
ATOM     81  C   UNL     1       2.729   6.262   4.453  1.00  0.00     0.132 C 
BRANCH  81  82
ATOM     82  C   UNL     1       2.411   5.415   3.252  1.00  0.00     0.062 A 
ATOM     83  C   UNL     1       1.548   4.333   3.267  1.00  0.00     0.091 A 
ATOM     84  N   UNL     1       2.891   5.734   1.984  1.00  0.00    -0.240 NA
ATOM     85  S   UNL     1       1.272   3.761   1.682  1.00  0.00    -0.122 S 
ATOM     86  C   UNL     1       2.343   4.957   1.065  1.00  0.00     0.124 A 
BRANCH  86  87
ATOM     87  C   UNL     1       2.629   5.127  -0.405  1.00  0.00     0.021 A 
ATOM     88  C   UNL     1       3.593   6.034  -0.942  1.00  0.00     0.023 A 
ATOM     89  C   UNL     1       1.978   4.432  -1.406  1.00  0.00     0.076 A 
ATOM     90  C   UNL     1       3.642   5.993  -2.320  1.00  0.00     0.065 A 
ATOM     91  S   UNL     1       2.524   4.874  -2.969  1.00  0.00    -0.152 S 
ENDBRANCH  86  87
ENDBRANCH  81  82
ENDBRANCH  80  81
ENDBRANCH  77  80
ENDBRANCH  71  74
ENDBRANCH  69  70
ENDBRANCH   1  69
TORSDOF 17
