REMARK SMILES C[C@H](CNS(=O)(=O)CCC(=O)NCCCNC(=O)c1ccc(-c2c3nc(c(-c4ccc(S(=O)(=O)[O-])cc4)c4ccc([nH]4)c(-c4ccc(S(=O)(=O)[O-])cc4)c4nc(c(-c5ccc(S(=O)(=O)[O-])cc5)c5ccc2[nH]5)C=C4)C=C3)cc1)c1ccccc1
REMARK SMILES IDX 10 1 11 2 12 3 9 5 8 6 5 7 6 8 7 9 4 10 3 12 2 13 1 14 79 15
REMARK SMILES IDX 80 16 84 17 81 18 83 19 82 20 13 21 14 22 15 23 16 24 17 25
REMARK SMILES IDX 18 27 19 28 20 29 78 30 21 31 77 32 22 33 23 34 24 35 71 36
REMARK SMILES IDX 25 37 76 38 70 39 72 40 26 41 75 42 69 43 68 44 27 46 57 47
REMARK SMILES IDX 38 48 56 49 39 50 42 51 55 52 73 53 40 54 41 55 54 57 74 58
REMARK SMILES IDX 43 59 28 60 29 61 37 62 30 63 36 64 31 65 32 66 33 67 34 68
REMARK SMILES IDX 35 69 58 70 59 71 67 72 60 73 66 74 61 75 62 76 63 77 64 78
REMARK SMILES IDX 65 79 44 80 45 81 53 82 46 83 52 84 47 85 48 86 49 87 50 88
REMARK SMILES IDX 51 89
REMARK H PARENT 12 4 4 11 16 26 72 45 42 56
REMARK Flexibility Score: inf
ROOT
ATOM      1  C   UNL     1       3.135   2.246   0.505  1.00  0.00     0.221 C 
ATOM      2  O   UNL     1       3.775   1.515   1.264  1.00  0.00    -0.275 OA
ATOM      3  N   UNL     1       1.948   2.757   0.956  1.00  0.00    -0.356 N 
ATOM      4  H   UNL     1       1.576   2.295   1.742  1.00  0.00     0.163 HD
ENDROOT
BRANCH   1   5
ATOM      5  C   UNL     1       3.614   2.447  -0.911  1.00  0.00     0.117 C 
BRANCH   5   6
ATOM      6  C   UNL     1       3.429   1.177  -1.733  1.00  0.00     0.164 C 
BRANCH   6   7
ATOM      7  S   UNL     1       1.718   0.820  -2.090  1.00  0.00     0.212 S 
ATOM      8  O   UNL     1       1.679  -0.299  -3.006  1.00  0.00    -0.212 OA
ATOM      9  O   UNL     1       1.089   2.077  -2.416  1.00  0.00    -0.212 OA
BRANCH   7  10
ATOM     10  N   UNL     1       1.112   0.306  -0.606  1.00  0.00    -0.215 NA
ATOM     11  H   UNL     1       1.430   0.970   0.100  1.00  0.00     0.141 HD
BRANCH  10  12
ATOM     12  C   UNL     1       1.490  -1.050  -0.143  1.00  0.00     0.106 C 
BRANCH  12  13
ATOM     13  C   UNL     1       0.844  -1.473   1.202  1.00  0.00     0.031 C 
ATOM     14  C   UNL     1       1.132  -0.525   2.371  1.00  0.00     0.014 C 
BRANCH  13  15
ATOM     15  C   UNL     1      -0.633  -1.782   1.051  1.00  0.00    -0.044 A 
ATOM     16  C   UNL     1      -1.524  -0.798   0.613  1.00  0.00     0.004 A 
ATOM     17  C   UNL     1      -1.125  -3.078   1.253  1.00  0.00     0.004 A 
ATOM     18  C   UNL     1      -2.844  -1.106   0.312  1.00  0.00     0.000 A 
ATOM     19  C   UNL     1      -2.466  -3.377   0.995  1.00  0.00     0.000 A 
ATOM     20  C   UNL     1      -3.323  -2.393   0.513  1.00  0.00     0.000 A 
ENDBRANCH  13  15
ENDBRANCH  12  13
ENDBRANCH  10  12
ENDBRANCH   7  10
ENDBRANCH   6   7
ENDBRANCH   5   6
ENDBRANCH   1   5
BRANCH   3  21
ATOM     21  C   UNL     1       1.139   3.874   0.466  1.00  0.00     0.117 C 
BRANCH  21  22
ATOM     22  C   UNL     1      -0.325   3.562   0.103  1.00  0.00     0.042 C 
BRANCH  22  23
ATOM     23  C   UNL     1      -1.209   2.824   1.119  1.00  0.00     0.118 C 
BRANCH  23  24
ATOM     24  N   UNL     1      -1.955   3.686   2.014  1.00  0.00    -0.352 N 
ATOM     25  C   UNL     1      -3.258   3.566   2.460  1.00  0.00     0.251 C 
ATOM     26  H   UNL     1      -1.463   4.469   2.354  1.00  0.00     0.163 HD
ATOM     27  O   UNL     1      -3.705   4.414   3.228  1.00  0.00    -0.269 OA
BRANCH  25  28
ATOM     28  C   UNL     1      -4.144   2.448   2.035  1.00  0.00     0.039 A 
ATOM     29  C   UNL     1      -5.189   2.690   1.142  1.00  0.00     0.014 A 
ATOM     30  C   UNL     1      -4.061   1.192   2.631  1.00  0.00     0.014 A 
ATOM     31  C   UNL     1      -6.104   1.663   0.808  1.00  0.00     0.010 A 
ATOM     32  C   UNL     1      -4.950   0.157   2.247  1.00  0.00     0.010 A 
ATOM     33  C   UNL     1      -5.975   0.344   1.296  1.00  0.00    -0.014 A 
BRANCH  33  34
ATOM     34  C   UNL     1      -6.840  -0.797   0.752  1.00  0.00     0.031 A 
ATOM     35  C   UNL     1      -7.461  -1.880   1.641  1.00  0.00     0.074 A 
ATOM     36  C   UNL     1      -7.021  -0.962  -0.587  1.00  0.00     0.049 A 
ATOM     37  N   UNL     1      -8.186  -2.924   1.292  1.00  0.00    -0.248 NA
ATOM     38  C   UNL     1      -7.197  -1.823   3.085  1.00  0.00     0.031 C 
ATOM     39  C   UNL     1      -6.402  -0.153  -1.641  1.00  0.00     0.029 A 
ATOM     40  N   UNL     1      -7.777  -1.877  -1.304  1.00  0.00    -0.354 N 
ATOM     41  C   UNL     1      -8.409  -3.663   2.454  1.00  0.00     0.074 A 
ATOM     42  C   UNL     1      -7.692  -2.980   3.508  1.00  0.00     0.031 C 
ATOM     43  C   UNL     1      -6.849  -0.554  -2.842  1.00  0.00     0.029 A 
ATOM     44  C   UNL     1      -7.748  -1.690  -2.674  1.00  0.00     0.049 A 
ATOM     45  H   UNL     1      -8.290  -2.599  -0.875  1.00  0.00     0.167 HD
ATOM     46  C   UNL     1      -9.163  -4.776   2.659  1.00  0.00     0.031 A 
ATOM     47  C   UNL     1      -8.355  -2.335  -3.697  1.00  0.00     0.031 A 
ATOM     48  C   UNL     1      -9.968  -5.437   1.660  1.00  0.00     0.049 A 
ATOM     49  C   UNL     1      -9.266  -3.510  -3.436  1.00  0.00     0.074 A 
ATOM     50  C   UNL     1     -10.881  -6.467   1.843  1.00  0.00     0.029 A 
ATOM     51  N   UNL     1      -9.970  -5.147   0.308  1.00  0.00    -0.354 N 
ATOM     52  N   UNL     1      -9.581  -4.072  -2.296  1.00  0.00    -0.248 NA
ATOM     53  C   UNL     1      -9.916  -4.132  -4.604  1.00  0.00     0.031 C 
ATOM     54  C   UNL     1     -11.387  -6.840   0.595  1.00  0.00     0.029 A 
ATOM     55  C   UNL     1     -10.844  -5.996  -0.356  1.00  0.00     0.049 A 
ATOM     56  H   UNL     1      -9.431  -4.443  -0.119  1.00  0.00     0.167 HD
ATOM     57  C   UNL     1     -10.488  -5.083  -2.609  1.00  0.00     0.074 A 
ATOM     58  C   UNL     1     -10.692  -5.045  -4.038  1.00  0.00     0.031 C 
ATOM     59  C   UNL     1     -11.089  -5.965  -1.774  1.00  0.00     0.031 A 
BRANCH  46  60
ATOM     60  C   UNL     1      -9.216  -5.361   4.055  1.00  0.00    -0.014 A 
ATOM     61  C   UNL     1      -9.865  -4.681   5.100  1.00  0.00     0.010 A 
ATOM     62  C   UNL     1      -8.722  -6.660   4.293  1.00  0.00     0.010 A 
ATOM     63  C   UNL     1      -9.982  -5.266   6.364  1.00  0.00     0.020 A 
ATOM     64  C   UNL     1      -8.869  -7.264   5.548  1.00  0.00     0.020 A 
ATOM     65  C   UNL     1      -9.486  -6.555   6.580  1.00  0.00     0.054 A 
BRANCH  65  66
ATOM     66  S   UNL     1      -9.703  -7.302   8.219  1.00  0.00     0.124 S 
ATOM     67  O   UNL     1      -8.772  -6.522   9.031  1.00  0.00    -0.237 OA
ATOM     68  O   UNL     1     -11.119  -7.068   8.491  1.00  0.00    -0.237 OA
ATOM     69  O   UNL     1      -9.332  -8.700   8.018  1.00  0.00    -0.744 OA
ENDBRANCH  65  66
ENDBRANCH  46  60
BRANCH  47  70
ATOM     70  C   UNL     1      -8.144  -1.888  -5.110  1.00  0.00    -0.014 A 
ATOM     71  C   UNL     1      -9.207  -1.335  -5.853  1.00  0.00     0.010 A 
ATOM     72  C   UNL     1      -6.902  -2.072  -5.744  1.00  0.00     0.010 A 
ATOM     73  C   UNL     1      -9.046  -1.026  -7.207  1.00  0.00     0.020 A 
ATOM     74  C   UNL     1      -6.726  -1.726  -7.088  1.00  0.00     0.020 A 
ATOM     75  C   UNL     1      -7.806  -1.226  -7.818  1.00  0.00     0.054 A 
BRANCH  75  76
ATOM     76  S   UNL     1      -7.619  -0.810  -9.575  1.00  0.00     0.124 S 
ATOM     77  O   UNL     1      -8.376  -1.877 -10.223  1.00  0.00    -0.237 OA
ATOM     78  O   UNL     1      -8.215   0.522  -9.649  1.00  0.00    -0.237 OA
ATOM     79  O   UNL     1      -6.174  -0.850  -9.785  1.00  0.00    -0.744 OA
ENDBRANCH  75  76
ENDBRANCH  47  70
BRANCH  59  80
ATOM     80  C   UNL     1     -12.086  -6.941  -2.352  1.00  0.00    -0.014 A 
ATOM     81  C   UNL     1     -11.688  -7.999  -3.188  1.00  0.00     0.010 A 
ATOM     82  C   UNL     1     -13.444  -6.835  -1.993  1.00  0.00     0.010 A 
ATOM     83  C   UNL     1     -12.629  -8.915  -3.673  1.00  0.00     0.020 A 
ATOM     84  C   UNL     1     -14.383  -7.766  -2.450  1.00  0.00     0.020 A 
ATOM     85  C   UNL     1     -13.971  -8.794  -3.298  1.00  0.00     0.054 A 
BRANCH  85  86
ATOM     86  S   UNL     1     -15.162 -10.027  -3.896  1.00  0.00     0.124 S 
ATOM     87  O   UNL     1     -15.266  -9.690  -5.313  1.00  0.00    -0.237 OA
ATOM     88  O   UNL     1     -14.492 -11.290  -3.599  1.00  0.00    -0.237 OA
ATOM     89  O   UNL     1     -16.362  -9.764  -3.105  1.00  0.00    -0.744 OA
ENDBRANCH  85  86
ENDBRANCH  59  80
ENDBRANCH  33  34
ENDBRANCH  25  28
ENDBRANCH  23  24
ENDBRANCH  22  23
ENDBRANCH  21  22
ENDBRANCH   3  21
TORSDOF 19
