REMARK SMILES CC(C)[C@@H](C)NC(=O)N[C@@H]1CCCCC[C@@H]1C(=O)NCCCNC(=O)c1ccc(-c2c3nc(c(-c4ccc(S(=O)(=O)[O-])cc4)c4ccc([nH]4)c(-c4ccc(S(=O)(=O)[O-])cc4)c4nc(c(-c5ccc(S(=O)(=O)[O-])cc5)c5ccc2[nH]5)C=C4)C=C3)cc1
REMARK SMILES IDX 20 1 19 2 17 3 18 4 16 6 10 7 9 8 6 9 7 10 8 12 4 14 5 15
REMARK SMILES IDX 2 16 1 17 3 18 11 19 15 21 14 22 13 23 12 24 21 26 22 27
REMARK SMILES IDX 23 28 24 29 25 31 26 32 27 33 85 34 28 35 84 36 29 37 30 38
REMARK SMILES IDX 31 39 78 40 32 41 83 42 77 43 79 44 33 45 82 46 76 47 75 48
REMARK SMILES IDX 34 50 64 51 45 52 63 53 46 54 49 55 62 56 80 57 47 58 48 59
REMARK SMILES IDX 61 61 81 62 50 63 35 64 36 65 44 66 37 67 43 68 38 69 39 70
REMARK SMILES IDX 40 71 41 72 42 73 65 74 66 75 74 76 67 77 73 78 68 79 69 80
REMARK SMILES IDX 70 81 71 82 72 83 51 84 52 85 60 86 53 87 59 88 54 89 55 90
REMARK SMILES IDX 56 91 57 92 58 93
REMARK H PARENT 19 5 6 11 9 13 23 30 79 49 49 60
REMARK Flexibility Score: 90.00
ROOT
ATOM      1  C   UNL     1      -0.290   5.673  -2.260  1.00  0.00     0.117 C 
ENDROOT
BRANCH   1   2
ATOM      2  N   UNL     1      -0.800   5.779  -0.904  1.00  0.00    -0.356 N 
ATOM      3  C   UNL     1      -1.452   4.834  -0.160  1.00  0.00     0.225 C 
ATOM      4  O   UNL     1      -2.046   5.210   0.848  1.00  0.00    -0.275 OA
ATOM      5  H   UNL     1      -0.658   6.646  -0.461  1.00  0.00     0.163 HD
BRANCH   3   6
ATOM      6  C   UNL     1      -1.402   3.378  -0.630  1.00  0.00     0.101 C 
BRANCH   6   7
ATOM      7  C   UNL     1      -2.456   2.490   0.073  1.00  0.00     0.096 C 
BRANCH   7   8
ATOM      8  N   UNL     1      -2.520   2.592   1.547  1.00  0.00    -0.335 N 
ATOM      9  N   UNL     1      -1.109   1.180   2.849  1.00  0.00    -0.335 N 
ATOM     10  C   UNL     1      -2.020   2.136   2.690  1.00  0.00     0.315 C 
ATOM     11  H   UNL     1      -0.872   1.045   3.795  1.00  0.00     0.165 HD
ATOM     12  O   UNL     1      -2.445   2.651   3.731  1.00  0.00    -0.249 OA
ATOM     13  H   UNL     1      -3.204   3.265   1.769  1.00  0.00     0.165 HD
BRANCH   9  14
ATOM     14  C   UNL     1      -0.382   0.290   1.968  1.00  0.00     0.083 C 
ATOM     15  C   UNL     1      -1.034  -1.096   2.011  1.00  0.00     0.031 C 
BRANCH  14  16
ATOM     16  C   UNL     1       1.129   0.218   2.336  1.00  0.00     0.005 C 
ATOM     17  C   UNL     1       1.931  -0.563   1.288  1.00  0.00     0.009 C 
ATOM     18  C   UNL     1       1.796   1.589   2.526  1.00  0.00     0.009 C 
ENDBRANCH  14  16
ENDBRANCH   9  14
ENDBRANCH   7   8
BRANCH   7  19
ATOM     19  C   UNL     1      -2.668   1.074  -0.487  1.00  0.00     0.026 CG0
ATOM     20  G   UNL     1      -1.948   0.703  -1.786  1.00  0.00     0.000 G0
ENDBRANCH   7  19
ENDBRANCH   6   7
BRANCH   6  21
ATOM     21  C   UNL     1       0.023   2.845  -0.529  1.00  0.00     0.015 C 
BRANCH  21  22
ATOM     22  C   UNL     1       0.380   1.839  -1.621  1.00  0.00     0.001 C 
BRANCH  22  23
ATOM     23  C   UNL     1      -0.432   0.548  -1.693  1.00  0.00     0.000 C 
BRANCH  23  24
ATOM     24  C   UNL     1      -1.948   0.703  -1.786  1.00  0.00     0.002 CG0
ATOM     25  G   UNL     1      -2.668   1.074  -0.487  1.00  0.00     0.000 G0
ENDBRANCH  23  24
ENDBRANCH  22  23
ENDBRANCH  21  22
ENDBRANCH   6  21
ENDBRANCH   3   6
ENDBRANCH   1   2
BRANCH   1  26
ATOM     26  C   UNL     1      -1.361   6.022  -3.284  1.00  0.00     0.042 C 
BRANCH  26  27
ATOM     27  C   UNL     1      -1.886   7.444  -3.138  1.00  0.00     0.118 C 
BRANCH  27  28
ATOM     28  N   UNL     1      -0.843   8.442  -3.330  1.00  0.00    -0.352 N 
ATOM     29  C   UNL     1      -0.761   9.459  -4.248  1.00  0.00     0.251 C 
ATOM     30  H   UNL     1      -0.082   8.377  -2.708  1.00  0.00     0.163 HD
ATOM     31  O   UNL     1       0.294  10.065  -4.390  1.00  0.00    -0.269 OA
BRANCH  29  32
ATOM     32  C   UNL     1      -1.939   9.801  -5.073  1.00  0.00     0.039 A 
ATOM     33  C   UNL     1      -1.758  10.062  -6.433  1.00  0.00     0.014 A 
ATOM     34  C   UNL     1      -3.215   9.866  -4.507  1.00  0.00     0.014 A 
ATOM     35  C   UNL     1      -2.868  10.325  -7.237  1.00  0.00     0.010 A 
ATOM     36  C   UNL     1      -4.326  10.040  -5.325  1.00  0.00     0.010 A 
ATOM     37  C   UNL     1      -4.165  10.278  -6.697  1.00  0.00    -0.014 A 
BRANCH  37  38
ATOM     38  C   UNL     1      -5.363  10.476  -7.552  1.00  0.00     0.031 A 
ATOM     39  C   UNL     1      -6.289  11.636  -7.300  1.00  0.00     0.074 A 
ATOM     40  C   UNL     1      -5.648   9.577  -8.516  1.00  0.00     0.049 A 
ATOM     41  N   UNL     1      -7.409  11.940  -7.902  1.00  0.00    -0.248 NA
ATOM     42  C   UNL     1      -5.922  12.560  -6.214  1.00  0.00     0.031 C 
ATOM     43  C   UNL     1      -4.849   8.390  -8.833  1.00  0.00     0.029 A 
ATOM     44  N   UNL     1      -6.692   9.518  -9.405  1.00  0.00    -0.354 N 
ATOM     45  C   UNL     1      -7.887  13.077  -7.261  1.00  0.00     0.074 A 
ATOM     46  C   UNL     1      -6.964  13.379  -6.190  1.00  0.00     0.031 C 
ATOM     47  C   UNL     1      -5.415   7.740  -9.863  1.00  0.00     0.029 A 
ATOM     48  C   UNL     1      -6.640   8.433 -10.248  1.00  0.00     0.049 A 
ATOM     49  H   UNL     1      -7.411  10.190  -9.436  1.00  0.00     0.167 HD
ATOM     50  C   UNL     1      -8.985  13.815  -7.550  1.00  0.00     0.031 A 
ATOM     51  C   UNL     1      -7.487   8.033 -11.217  1.00  0.00     0.031 A 
ATOM     52  C   UNL     1      -9.895  13.516  -8.624  1.00  0.00     0.049 A 
ATOM     53  C   UNL     1      -8.712   8.859 -11.503  1.00  0.00     0.074 A 
ATOM     54  C   UNL     1     -11.005  14.235  -9.033  1.00  0.00     0.029 A 
ATOM     55  N   UNL     1      -9.805  12.410  -9.455  1.00  0.00    -0.354 N 
ATOM     56  N   UNL     1      -9.108   9.971 -10.930  1.00  0.00    -0.248 NA
ATOM     57  C   UNL     1      -9.597   8.383 -12.574  1.00  0.00     0.031 C 
ATOM     58  C   UNL     1     -11.622  13.530 -10.070  1.00  0.00     0.029 A 
ATOM     59  C   UNL     1     -10.857  12.411 -10.356  1.00  0.00     0.049 A 
ATOM     60  H   UNL     1      -9.099  11.726  -9.411  1.00  0.00     0.167 HD
ATOM     61  C   UNL     1     -10.272  10.344 -11.594  1.00  0.00     0.074 A 
ATOM     62  C   UNL     1     -10.505   9.349 -12.621  1.00  0.00     0.031 C 
ATOM     63  C   UNL     1     -11.074  11.415 -11.375  1.00  0.00     0.031 A 
BRANCH  50  64
ATOM     64  C   UNL     1      -9.269  15.019  -6.689  1.00  0.00    -0.014 A 
ATOM     65  C   UNL     1      -8.445  16.159  -6.734  1.00  0.00     0.010 A 
ATOM     66  C   UNL     1     -10.409  15.034  -5.864  1.00  0.00     0.010 A 
ATOM     67  C   UNL     1      -8.738  17.276  -5.948  1.00  0.00     0.020 A 
ATOM     68  C   UNL     1     -10.723  16.161  -5.100  1.00  0.00     0.020 A 
ATOM     69  C   UNL     1      -9.876  17.271  -5.137  1.00  0.00     0.054 A 
BRANCH  69  70
ATOM     70  S   UNL     1     -10.252  18.752  -4.160  1.00  0.00     0.124 S 
ATOM     71  O   UNL     1      -9.202  18.717  -3.145  1.00  0.00    -0.237 OA
ATOM     72  O   UNL     1     -10.135  19.823  -5.146  1.00  0.00    -0.237 OA
ATOM     73  O   UNL     1     -11.604  18.509  -3.665  1.00  0.00    -0.744 OA
ENDBRANCH  69  70
ENDBRANCH  50  64
BRANCH  51  74
ATOM     74  C   UNL     1      -7.205   6.792 -11.992  1.00  0.00    -0.014 A 
ATOM     75  C   UNL     1      -6.874   6.860 -13.357  1.00  0.00     0.010 A 
ATOM     76  C   UNL     1      -7.271   5.532 -11.369  1.00  0.00     0.010 A 
ATOM     77  C   UNL     1      -6.643   5.692 -14.091  1.00  0.00     0.020 A 
ATOM     78  C   UNL     1      -7.008   4.365 -12.090  1.00  0.00     0.020 A 
ATOM     79  C   UNL     1      -6.711   4.451 -13.451  1.00  0.00     0.054 A 
BRANCH  79  80
ATOM     80  S   UNL     1      -6.372   2.951 -14.414  1.00  0.00     0.124 S 
ATOM     81  O   UNL     1      -7.563   2.851 -15.249  1.00  0.00    -0.237 OA
ATOM     82  O   UNL     1      -5.135   3.297 -15.110  1.00  0.00    -0.237 OA
ATOM     83  O   UNL     1      -6.233   1.915 -13.393  1.00  0.00    -0.744 OA
ENDBRANCH  79  80
ENDBRANCH  51  74
BRANCH  63  84
ATOM     84  C   UNL     1     -12.258  11.595 -12.289  1.00  0.00    -0.014 A 
ATOM     85  C   UNL     1     -13.372  10.739 -12.225  1.00  0.00     0.010 A 
ATOM     86  C   UNL     1     -12.277  12.678 -13.188  1.00  0.00     0.010 A 
ATOM     87  C   UNL     1     -14.468  10.943 -13.068  1.00  0.00     0.020 A 
ATOM     88  C   UNL     1     -13.385  12.905 -14.008  1.00  0.00     0.020 A 
ATOM     89  C   UNL     1     -14.468  12.026 -13.953  1.00  0.00     0.054 A 
BRANCH  89  90
ATOM     90  S   UNL     1     -15.922  12.294 -15.003  1.00  0.00     0.124 S 
ATOM     91  O   UNL     1     -15.808  11.201 -15.964  1.00  0.00    -0.237 OA
ATOM     92  O   UNL     1     -17.026  12.184 -14.053  1.00  0.00    -0.237 OA
ATOM     93  O   UNL     1     -15.712  13.631 -15.553  1.00  0.00    -0.744 OA
ENDBRANCH  89  90
ENDBRANCH  63  84
ENDBRANCH  37  38
ENDBRANCH  29  32
ENDBRANCH  27  28
ENDBRANCH  26  27
ENDBRANCH   1  26
TORSDOF 16
