REMARK SMILES C[C@H](C[N@H+](C)[C@H]1CC[C@H]([NH3+])CC1)C(=O)NCCCNC(=O)c1ccc(-c2c3nc(c(-c4ccc(S(=O)(=O)[O-])cc4)c4ccc([nH]4)c(-c4ccc(S(=O)(=O)[O-])cc4)c4nc(c(-c5ccc(S(=O)(=O)[O-])cc5)c5ccc2[nH]5)C=C4)C=C3)cc1
REMARK SMILES IDX 16 1 15 2 13 3 14 4 2 6 1 7 3 8 4 9 5 10 6 12 7 13 12 14
REMARK SMILES IDX 8 15 11 16 9 17 10 18 17 22 18 23 19 24 20 25 21 27 22 28
REMARK SMILES IDX 23 29 81 30 24 31 80 32 25 33 26 34 27 35 74 36 28 37 79 38
REMARK SMILES IDX 73 39 75 40 29 41 78 42 72 43 71 44 30 46 60 47 41 48 59 49
REMARK SMILES IDX 42 50 45 51 58 52 76 53 43 54 44 55 57 57 77 58 46 59 31 60
REMARK SMILES IDX 32 61 40 62 33 63 39 64 34 65 35 66 36 67 37 68 38 69 61 70
REMARK SMILES IDX 62 71 70 72 63 73 69 74 64 75 65 76 66 77 67 78 68 79 47 80
REMARK SMILES IDX 48 81 56 82 49 83 55 84 50 85 51 86 52 87 53 88 54 89
REMARK H PARENT 15 5 4 11 10 19 10 20 10 21 19 26 75 45 45 56
REMARK Flexibility Score: inf
ROOT
ATOM      1  C   UNL     1      -1.472  -0.249  -1.277  1.00  0.00     0.117 C 
ENDROOT
BRANCH   1   2
ATOM      2  N   UNL     1      -1.706   0.186   0.074  1.00  0.00    -0.356 N 
ATOM      3  C   UNL     1      -0.924   0.951   0.877  1.00  0.00     0.228 C 
ATOM      4  O   UNL     1      -1.529   1.492   1.816  1.00  0.00    -0.275 OA
ATOM      5  H   UNL     1      -2.554  -0.115   0.473  1.00  0.00     0.163 HD
BRANCH   3   6
ATOM      6  C   UNL     1       0.615   1.096   0.800  1.00  0.00     0.130 C 
ATOM      7  C   UNL     1       1.064   2.523   1.162  1.00  0.00     0.024 C 
BRANCH   6   8
ATOM      8  C   UNL     1       1.532   0.404  -0.237  1.00  0.00     0.275 C 
BRANCH   8   9
ATOM      9  N   UNL     1       1.989   0.993  -1.509  1.00  0.00    -0.334 N 
ATOM     10  C   UNL     1       3.308   1.597  -1.480  1.00  0.00     0.332 C 
ATOM     11  H   UNL     1       2.113   0.113  -2.010  1.00  0.00     0.348 HD
BRANCH   9  12
ATOM     12  C   UNL     1       1.039   1.496  -2.500  1.00  0.00     0.184 C 
ATOM     13  C   UNL     1       1.584   1.554  -3.944  1.00  0.00     0.071 C 
ATOM     14  C   UNL     1       0.385   2.843  -2.152  1.00  0.00     0.071 C 
ATOM     15  C   UNL     1       0.449   1.860  -4.932  1.00  0.00     0.071 C 
ATOM     16  C   UNL     1      -0.703   3.248  -3.151  1.00  0.00     0.071 C 
ATOM     17  C   UNL     1      -0.231   3.193  -4.604  1.00  0.00     0.181 C 
BRANCH  17  18
ATOM     18  N   UNL     1      -1.374   3.430  -5.484  1.00  0.00    -0.355 N 
ATOM     19  H   UNL     1      -2.074   2.702  -5.336  1.00  0.00     0.344 HD
ATOM     20  H   UNL     1      -1.065   3.413  -6.455  1.00  0.00     0.344 HD
ATOM     21  H   UNL     1      -1.782   4.341  -5.273  1.00  0.00     0.344 HD
ENDBRANCH  17  18
ENDBRANCH   9  12
ENDBRANCH   8   9
ENDBRANCH   6   8
ENDBRANCH   3   6
ENDBRANCH   1   2
BRANCH   1  22
ATOM     22  C   UNL     1      -2.424  -1.290  -1.827  1.00  0.00     0.042 C 
BRANCH  22  23
ATOM     23  C   UNL     1      -3.774  -0.713  -2.226  1.00  0.00     0.118 C 
BRANCH  23  24
ATOM     24  N   UNL     1      -3.710   0.210  -3.363  1.00  0.00    -0.352 N 
ATOM     25  C   UNL     1      -3.878   0.045  -4.721  1.00  0.00     0.251 C 
ATOM     26  H   UNL     1      -3.505   1.137  -3.103  1.00  0.00     0.163 HD
ATOM     27  O   UNL     1      -3.572   0.979  -5.464  1.00  0.00    -0.269 OA
BRANCH  25  28
ATOM     28  C   UNL     1      -4.356  -1.236  -5.298  1.00  0.00     0.039 A 
ATOM     29  C   UNL     1      -3.899  -1.649  -6.554  1.00  0.00     0.014 A 
ATOM     30  C   UNL     1      -5.247  -2.051  -4.611  1.00  0.00     0.014 A 
ATOM     31  C   UNL     1      -4.223  -2.926  -7.037  1.00  0.00     0.010 A 
ATOM     32  C   UNL     1      -5.435  -3.368  -5.008  1.00  0.00     0.010 A 
ATOM     33  C   UNL     1      -4.924  -3.833  -6.227  1.00  0.00    -0.014 A 
BRANCH  33  34
ATOM     34  C   UNL     1      -5.148  -5.261  -6.595  1.00  0.00     0.031 A 
ATOM     35  C   UNL     1      -6.540  -5.846  -6.522  1.00  0.00     0.074 A 
ATOM     36  C   UNL     1      -4.100  -6.074  -6.847  1.00  0.00     0.049 A 
ATOM     37  N   UNL     1      -6.915  -7.100  -6.533  1.00  0.00    -0.248 NA
ATOM     38  C   UNL     1      -7.651  -4.894  -6.349  1.00  0.00     0.031 C 
ATOM     39  C   UNL     1      -2.692  -5.669  -6.897  1.00  0.00     0.029 A 
ATOM     40  N   UNL     1      -4.057  -7.426  -7.088  1.00  0.00    -0.354 N 
ATOM     41  C   UNL     1      -8.285  -7.087  -6.295  1.00  0.00     0.074 A 
ATOM     42  C   UNL     1      -8.666  -5.706  -6.097  1.00  0.00     0.031 C 
ATOM     43  C   UNL     1      -1.932  -6.737  -7.187  1.00  0.00     0.029 A 
ATOM     44  C   UNL     1      -2.785  -7.915  -7.283  1.00  0.00     0.049 A 
ATOM     45  H   UNL     1      -4.861  -7.993  -7.119  1.00  0.00     0.167 HD
ATOM     46  C   UNL     1      -9.156  -8.125  -6.264  1.00  0.00     0.031 A 
ATOM     47  C   UNL     1      -2.347  -9.171  -7.499  1.00  0.00     0.031 A 
ATOM     48  C   UNL     1      -8.792  -9.487  -6.543  1.00  0.00     0.049 A 
ATOM     49  C   UNL     1      -3.341 -10.299  -7.538  1.00  0.00     0.074 A 
ATOM     50  C   UNL     1      -9.613 -10.598  -6.627  1.00  0.00     0.029 A 
ATOM     51  N   UNL     1      -7.503  -9.919  -6.815  1.00  0.00    -0.354 N 
ATOM     52  N   UNL     1      -4.636 -10.261  -7.339  1.00  0.00    -0.248 NA
ATOM     53  C   UNL     1      -2.814 -11.638  -7.838  1.00  0.00     0.031 C 
ATOM     54  C   UNL     1      -8.815 -11.708  -6.926  1.00  0.00     0.029 A 
ATOM     55  C   UNL     1      -7.505 -11.278  -7.070  1.00  0.00     0.049 A 
ATOM     56  H   UNL     1      -6.705  -9.343  -6.825  1.00  0.00     0.167 HD
ATOM     57  C   UNL     1      -5.084 -11.565  -7.518  1.00  0.00     0.074 A 
ATOM     58  C   UNL     1      -3.923 -12.365  -7.851  1.00  0.00     0.031 C 
ATOM     59  C   UNL     1      -6.343 -12.055  -7.417  1.00  0.00     0.031 A 
BRANCH  46  60
ATOM     60  C   UNL     1     -10.594  -7.818  -5.931  1.00  0.00    -0.014 A 
ATOM     61  C   UNL     1     -11.409  -7.097  -6.822  1.00  0.00     0.010 A 
ATOM     62  C   UNL     1     -11.143  -8.271  -4.717  1.00  0.00     0.010 A 
ATOM     63  C   UNL     1     -12.726  -6.781  -6.479  1.00  0.00     0.020 A 
ATOM     64  C   UNL     1     -12.471  -7.986  -4.385  1.00  0.00     0.020 A 
ATOM     65  C   UNL     1     -13.247  -7.221  -5.259  1.00  0.00     0.054 A 
BRANCH  65  66
ATOM     66  S   UNL     1     -14.961  -6.802  -4.842  1.00  0.00     0.124 S 
ATOM     67  O   UNL     1     -14.840  -5.398  -4.457  1.00  0.00    -0.237 OA
ATOM     68  O   UNL     1     -15.668  -7.050  -6.096  1.00  0.00    -0.237 OA
ATOM     69  O   UNL     1     -15.287  -7.721  -3.754  1.00  0.00    -0.744 OA
ENDBRANCH  65  66
ENDBRANCH  46  60
BRANCH  47  70
ATOM     70  C   UNL     1      -0.898  -9.426  -7.726  1.00  0.00    -0.014 A 
ATOM     71  C   UNL     1      -0.432  -9.737  -9.015  1.00  0.00     0.010 A 
ATOM     72  C   UNL     1       0.023  -9.343  -6.667  1.00  0.00     0.010 A 
ATOM     73  C   UNL     1       0.926  -9.980  -9.239  1.00  0.00     0.020 A 
ATOM     74  C   UNL     1       1.387  -9.561  -6.892  1.00  0.00     0.020 A 
ATOM     75  C   UNL     1       1.827  -9.890  -8.176  1.00  0.00     0.054 A 
BRANCH  75  76
ATOM     76  S   UNL     1       3.593 -10.156  -8.500  1.00  0.00     0.124 S 
ATOM     77  O   UNL     1       3.660 -11.608  -8.636  1.00  0.00    -0.237 OA
ATOM     78  O   UNL     1       3.808  -9.394  -9.728  1.00  0.00    -0.237 OA
ATOM     79  O   UNL     1       4.244  -9.606  -7.314  1.00  0.00    -0.744 OA
ENDBRANCH  75  76
ENDBRANCH  47  70
BRANCH  59  80
ATOM     80  C   UNL     1      -6.546 -13.514  -7.718  1.00  0.00    -0.014 A 
ATOM     81  C   UNL     1      -6.158 -14.507  -6.803  1.00  0.00     0.010 A 
ATOM     82  C   UNL     1      -7.198 -13.888  -8.907  1.00  0.00     0.010 A 
ATOM     83  C   UNL     1      -6.399 -15.855  -7.084  1.00  0.00     0.020 A 
ATOM     84  C   UNL     1      -7.461 -15.232  -9.180  1.00  0.00     0.020 A 
ATOM     85  C   UNL     1      -7.050 -16.208  -8.271  1.00  0.00     0.054 A 
BRANCH  85  86
ATOM     86  S   UNL     1      -7.403 -17.959  -8.587  1.00  0.00     0.124 S 
ATOM     87  O   UNL     1      -6.091 -18.467  -8.978  1.00  0.00    -0.237 OA
ATOM     88  O   UNL     1      -7.899 -18.426  -7.295  1.00  0.00    -0.237 OA
ATOM     89  O   UNL     1      -8.401 -17.923  -9.653  1.00  0.00    -0.744 OA
ENDBRANCH  85  86
ENDBRANCH  59  80
ENDBRANCH  33  34
ENDBRANCH  25  28
ENDBRANCH  23  24
ENDBRANCH  22  23
ENDBRANCH   1  22
TORSDOF 17
