REMARK SMILES CCOC(=O)C1=NN(c2ccc(Cl)cc2F)[C@@H](C(=O)NCCCNC(=O)c2ccc(-c3c4nc(c(-c5ccc(S(=O)(=O)[O-])cc5)c5ccc([nH]5)c(-c5ccc(S(=O)(=O)[O-])cc5)c5nc(c(-c6ccc(S(=O)(=O)[O-])cc6)c6ccc3[nH]6)C=C5)C=C4)cc2)C1
REMARK SMILES IDX 22 1 21 2 20 3 18 4 19 5 17 7 6 8 7 9 87 10 8 11 4 12 5 13
REMARK SMILES IDX 3 14 2 15 1 16 9 17 10 18 15 19 11 20 14 21 16 22 12 23
REMARK SMILES IDX 13 24 23 25 24 26 25 27 26 29 27 30 28 31 86 32 29 33 85 34
REMARK SMILES IDX 30 35 31 36 32 37 79 38 33 39 84 40 78 41 80 42 34 43 83 44
REMARK SMILES IDX 77 45 76 46 35 48 65 49 46 50 64 51 47 52 50 53 63 54 81 55
REMARK SMILES IDX 48 56 49 57 62 59 82 60 51 61 36 62 37 63 45 64 38 65 44 66
REMARK SMILES IDX 39 67 40 68 41 69 42 70 43 71 66 72 67 73 75 74 68 75 74 76
REMARK SMILES IDX 69 77 70 78 71 79 72 80 73 81 52 82 53 83 61 84 54 85 60 86
REMARK SMILES IDX 55 87 56 88 57 89 58 90 59 91
REMARK H PARENT 20 6 24 28 80 47 50 58
REMARK Flexibility Score: inf
ROOT
ATOM      1  C   UNL     1       2.656   6.988   3.768  1.00  0.00     0.042 C 
ENDROOT
BRANCH   1   2
ATOM      2  C   UNL     1       2.729   6.598   5.244  1.00  0.00     0.117 C 
BRANCH   2   3
ATOM      3  N   UNL     1       1.819   5.522   5.573  1.00  0.00    -0.354 N 
ATOM      4  C   UNL     1       1.995   4.170   5.529  1.00  0.00     0.245 C 
ATOM      5  O   UNL     1       1.005   3.497   5.846  1.00  0.00    -0.273 OA
ATOM      6  H   UNL     1       0.929   5.813   5.878  1.00  0.00     0.163 HD
BRANCH   4   7
ATOM      7  C   UNL     1       3.361   3.497   5.232  1.00  0.00     0.203 C 
ATOM      8  C   UNL     1       3.054   2.039   3.499  1.00  0.00     0.148 C 
ATOM      9  N   UNL     1       3.551   3.091   2.924  1.00  0.00    -0.169 NA
ATOM     10  C   UNL     1       3.139   1.997   4.988  1.00  0.00     0.103 C 
ATOM     11  N   UNL     1       3.957   3.914   3.951  1.00  0.00    -0.249 N 
BRANCH   8  12
ATOM     12  C   UNL     1       2.505   0.860   2.758  1.00  0.00     0.354 C 
ATOM     13  O   UNL     1       3.079  -0.215   2.752  1.00  0.00    -0.245 OA
BRANCH  12  14
ATOM     14  O   UNL     1       1.310   1.181   2.230  1.00  0.00    -0.461 OA
BRANCH  14  15
ATOM     15  C   UNL     1       0.642   0.132   1.518  1.00  0.00     0.230 C 
ATOM     16  C   UNL     1       1.011   0.187   0.049  1.00  0.00     0.049 C 
ENDBRANCH  14  15
ENDBRANCH  12  14
ENDBRANCH   8  12
BRANCH  11  17
ATOM     17  C   UNL     1       5.114   4.673   3.756  1.00  0.00     0.096 A 
ATOM     18  C   UNL     1       5.441   5.116   2.458  1.00  0.00     0.032 A 
ATOM     19  C   UNL     1       5.996   5.064   4.780  1.00  0.00     0.149 A 
ATOM     20  C   UNL     1       6.556   5.926   2.205  1.00  0.00     0.023 A 
ATOM     21  C   UNL     1       7.116   5.863   4.542  1.00  0.00     0.062 A 
ATOM     22  F   UNL     1       5.791   4.685   6.050  1.00  0.00    -0.205 F 
ATOM     23  C   UNL     1       7.387   6.298   3.253  1.00  0.00     0.044 A 
ATOM     24  Cl  UNL     1       8.752   7.302   2.960  1.00  0.00    -0.084 Cl
ENDBRANCH  11  17
ENDBRANCH   4   7
ENDBRANCH   2   3
ENDBRANCH   1   2
BRANCH   1  25
ATOM     25  C   UNL     1       1.435   7.832   3.409  1.00  0.00     0.118 C 
BRANCH  25  26
ATOM     26  N   UNL     1       1.594   9.217   3.820  1.00  0.00    -0.352 N 
ATOM     27  C   UNL     1       1.465  10.370   3.083  1.00  0.00     0.251 C 
ATOM     28  H   UNL     1       1.829   9.349   4.766  1.00  0.00     0.163 HD
ATOM     29  O   UNL     1       1.857  11.430   3.566  1.00  0.00    -0.269 OA
BRANCH  27  30
ATOM     30  C   UNL     1       0.870  10.356   1.724  1.00  0.00     0.039 A 
ATOM     31  C   UNL     1       1.425  11.187   0.742  1.00  0.00     0.014 A 
ATOM     32  C   UNL     1      -0.272   9.606   1.429  1.00  0.00     0.014 A 
ATOM     33  C   UNL     1       0.860  11.241  -0.537  1.00  0.00     0.010 A 
ATOM     34  C   UNL     1      -0.814   9.631   0.141  1.00  0.00     0.010 A 
ATOM     35  C   UNL     1      -0.259  10.456  -0.850  1.00  0.00    -0.014 A 
BRANCH  35  36
ATOM     36  C   UNL     1      -0.892  10.514  -2.192  1.00  0.00     0.031 A 
ATOM     37  C   UNL     1      -2.248  11.143  -2.357  1.00  0.00     0.074 A 
ATOM     38  C   UNL     1      -0.283   9.956  -3.255  1.00  0.00     0.049 A 
ATOM     39  N   UNL     1      -3.025  11.163  -3.410  1.00  0.00    -0.248 NA
ATOM     40  C   UNL     1      -2.809  11.822  -1.179  1.00  0.00     0.031 C 
ATOM     41  C   UNL     1       1.026   9.303  -3.239  1.00  0.00     0.029 A 
ATOM     42  N   UNL     1      -0.700   9.840  -4.557  1.00  0.00    -0.354 N 
ATOM     43  C   UNL     1      -4.187  11.810  -3.009  1.00  0.00     0.074 A 
ATOM     44  C   UNL     1      -4.008  12.177  -1.619  1.00  0.00     0.031 C 
ATOM     45  C   UNL     1       1.310   8.863  -4.476  1.00  0.00     0.029 A 
ATOM     46  C   UNL     1       0.192   9.176  -5.363  1.00  0.00     0.049 A 
ATOM     47  H   UNL     1      -1.557  10.199  -4.883  1.00  0.00     0.167 HD
ATOM     48  C   UNL     1      -5.307  12.068  -3.726  1.00  0.00     0.031 A 
ATOM     49  C   UNL     1       0.116   8.843  -6.665  1.00  0.00     0.031 A 
ATOM     50  C   UNL     1      -5.485  11.743  -5.114  1.00  0.00     0.049 A 
ATOM     51  C   UNL     1      -1.106   9.200  -7.460  1.00  0.00     0.074 A 
ATOM     52  C   UNL     1      -6.584  11.977  -5.923  1.00  0.00     0.029 A 
ATOM     53  N   UNL     1      -4.529  11.128  -5.906  1.00  0.00    -0.354 N 
ATOM     54  N   UNL     1      -2.203   9.794  -7.057  1.00  0.00    -0.248 NA
ATOM     55  C   UNL     1      -1.100   8.840  -8.886  1.00  0.00     0.031 C 
ATOM     56  C   UNL     1      -6.291  11.501  -7.208  1.00  0.00     0.029 A 
ATOM     57  C   UNL     1      -5.007  10.982  -7.197  1.00  0.00     0.049 A 
ATOM     58  H   UNL     1      -3.641  10.837  -5.597  1.00  0.00     0.167 HD
ATOM     59  C   UNL     1      -3.017   9.882  -8.179  1.00  0.00     0.074 A 
ATOM     60  C   UNL     1      -2.284   9.291  -9.280  1.00  0.00     0.031 C 
ATOM     61  C   UNL     1      -4.264  10.401  -8.284  1.00  0.00     0.031 A 
BRANCH  48  62
ATOM     62  C   UNL     1      -6.443  12.715  -2.989  1.00  0.00    -0.014 A 
ATOM     63  C   UNL     1      -6.462  14.102  -2.762  1.00  0.00     0.010 A 
ATOM     64  C   UNL     1      -7.495  11.920  -2.501  1.00  0.00     0.010 A 
ATOM     65  C   UNL     1      -7.494  14.679  -2.017  1.00  0.00     0.020 A 
ATOM     66  C   UNL     1      -8.534  12.495  -1.766  1.00  0.00     0.020 A 
ATOM     67  C   UNL     1      -8.514  13.868  -1.509  1.00  0.00     0.054 A 
BRANCH  67  68
ATOM     68  S   UNL     1      -9.841  14.614  -0.522  1.00  0.00     0.124 S 
ATOM     69  O   UNL     1      -9.289  14.534   0.828  1.00  0.00    -0.237 OA
ATOM     70  O   UNL     1      -9.953  15.961  -1.075  1.00  0.00    -0.237 OA
ATOM     71  O   UNL     1     -10.985  13.743  -0.782  1.00  0.00    -0.744 OA
ENDBRANCH  67  68
ENDBRANCH  48  62
BRANCH  49  72
ATOM     72  C   UNL     1       1.249   8.126  -7.300  1.00  0.00    -0.014 A 
ATOM     73  C   UNL     1       2.216   8.840  -8.027  1.00  0.00     0.010 A 
ATOM     74  C   UNL     1       1.385   6.736  -7.145  1.00  0.00     0.010 A 
ATOM     75  C   UNL     1       3.308   8.175  -8.589  1.00  0.00     0.020 A 
ATOM     76  C   UNL     1       2.482   6.069  -7.697  1.00  0.00     0.020 A 
ATOM     77  C   UNL     1       3.434   6.793  -8.420  1.00  0.00     0.054 A 
BRANCH  77  78
ATOM     78  S   UNL     1       4.897   5.943  -9.077  1.00  0.00     0.124 S 
ATOM     79  O   UNL     1       4.460   5.585 -10.422  1.00  0.00    -0.237 OA
ATOM     80  O   UNL     1       5.935   6.969  -9.001  1.00  0.00    -0.237 OA
ATOM     81  O   UNL     1       5.073   4.825  -8.152  1.00  0.00    -0.744 OA
ENDBRANCH  77  78
ENDBRANCH  49  72
BRANCH  61  82
ATOM     82  C   UNL     1      -4.906  10.370  -9.639  1.00  0.00    -0.014 A 
ATOM     83  C   UNL     1      -5.585   9.222 -10.083  1.00  0.00     0.010 A 
ATOM     84  C   UNL     1      -4.865  11.510 -10.460  1.00  0.00     0.010 A 
ATOM     85  C   UNL     1      -6.200   9.208 -11.337  1.00  0.00     0.020 A 
ATOM     86  C   UNL     1      -5.486  11.501 -11.712  1.00  0.00     0.020 A 
ATOM     87  C   UNL     1      -6.140  10.346 -12.148  1.00  0.00     0.054 A 
BRANCH  87  88
ATOM     88  S   UNL     1      -6.977  10.338 -13.758  1.00  0.00     0.124 S 
ATOM     89  O   UNL     1      -5.946   9.784 -14.632  1.00  0.00    -0.237 OA
ATOM     90  O   UNL     1      -8.133   9.475 -13.527  1.00  0.00    -0.237 OA
ATOM     91  O   UNL     1      -7.296  11.746 -13.981  1.00  0.00    -0.744 OA
ENDBRANCH  87  88
ENDBRANCH  61  82
ENDBRANCH  35  36
ENDBRANCH  27  30
ENDBRANCH  25  26
ENDBRANCH   1  25
TORSDOF 17
