REMARK SMILES Cc1c(C(=O)NCCCNC(=O)c2ccc(-c3c4nc(c(-c5ccc(S(=O)(=O)[O-])cc5)c5ccc([nH]5)c(-c5ccc(S(=O)(=O)[O-])cc5)c5nc(c(-c6ccc(S(=O)(=O)[O-])cc6)c6ccc3[nH]6)C=C5)C=C4)cc2)oc2c1/C(=N/NC(=O)C(c1ccccc1)c1ccccc1)CCC2
REMARK SMILES IDX 8 1 7 2 6 3 4 4 5 5 3 7 1 8 2 9 75 10 73 11 74 12 76 13
REMARK SMILES IDX 96 14 77 15 94 16 95 17 78 18 79 19 80 21 81 22 82 23 83 24
REMARK SMILES IDX 87 25 84 26 86 27 85 28 88 29 89 30 93 31 90 32 92 33 91 34
REMARK SMILES IDX 9 35 10 36 11 37 12 39 13 40 14 41 72 42 15 43 71 44 16 45
REMARK SMILES IDX 17 46 18 47 65 48 19 49 70 50 64 51 66 52 20 53 69 54 63 55
REMARK SMILES IDX 62 56 21 58 51 59 32 60 50 61 33 62 36 63 49 64 67 65 34 66
REMARK SMILES IDX 35 67 48 69 68 70 37 71 22 72 23 73 31 74 24 75 30 76 25 77
REMARK SMILES IDX 26 78 27 79 28 80 29 81 52 82 53 83 61 84 54 85 60 86 55 87
REMARK SMILES IDX 56 88 57 89 58 90 59 91 38 92 39 93 47 94 40 95 46 96 41 97
REMARK SMILES IDX 42 98 43 99 44 100 45 101
REMARK H PARENT 6 6 78 20 10 38 66 57 36 68
REMARK Flexibility Score: inf
ROOT
ATOM      1  C   UNL     1      -0.932  -4.290   4.888  1.00  0.00     0.042 C 
ENDROOT
BRANCH   1   2
ATOM      2  C   UNL     1       0.528  -4.195   4.398  1.00  0.00     0.118 C 
BRANCH   2   3
ATOM      3  N   UNL     1       0.702  -4.375   2.953  1.00  0.00    -0.349 N 
ATOM      4  C   UNL     1       0.605  -3.423   1.945  1.00  0.00     0.287 C 
ATOM      5  O   UNL     1       1.023  -3.708   0.826  1.00  0.00    -0.266 OA
ATOM      6  H   UNL     1       0.916  -5.289   2.658  1.00  0.00     0.163 HD
BRANCH   4   7
ATOM      7  C   UNL     1       0.081  -2.124   2.300  1.00  0.00     0.195 A 
ATOM      8  C   UNL     1       0.796  -0.483   0.440  1.00  0.00     0.049 C 
ATOM      9  C   UNL     1       0.166  -0.856   1.735  1.00  0.00     0.010 A 
ATOM     10  C   UNL     1      -0.304   0.024   2.766  1.00  0.00     0.043 A 
ATOM     11  O   UNL     1      -0.582  -2.046   3.480  1.00  0.00    -0.455 OA
ATOM     12  C   UNL     1      -0.699  -0.771   3.807  1.00  0.00     0.114 A 
ATOM     13  C   UNL     1      -0.282   1.460   2.940  1.00  0.00     0.072 C 
ATOM     14  C   UNL     1      -1.038  -0.459   5.205  1.00  0.00     0.076 C 
ATOM     15  N   UNL     1      -0.102   2.066   1.799  1.00  0.00    -0.177 NA
ATOM     16  C   UNL     1      -0.334   1.821   4.456  1.00  0.00     0.059 C 
ATOM     17  C   UNL     1      -1.362   1.019   5.277  1.00  0.00     0.014 C 
BRANCH  15  18
ATOM     18  N   UNL     1       0.058   3.330   1.302  1.00  0.00    -0.246 N 
ATOM     19  C   UNL     1      -0.072   4.608   1.791  1.00  0.00     0.252 C 
ATOM     20  H   UNL     1       0.336   3.323   0.357  1.00  0.00     0.193 HD
ATOM     21  O   UNL     1       0.059   5.568   1.023  1.00  0.00    -0.272 OA
BRANCH  19  22
ATOM     22  C   UNL     1      -0.357   4.824   3.261  1.00  0.00     0.140 C 
BRANCH  22  23
ATOM     23  C   UNL     1      -1.826   4.284   3.587  1.00  0.00    -0.031 A 
ATOM     24  C   UNL     1      -2.534   4.619   4.750  1.00  0.00     0.005 A 
ATOM     25  C   UNL     1      -2.551   3.444   2.686  1.00  0.00     0.005 A 
ATOM     26  C   UNL     1      -3.801   4.040   5.032  1.00  0.00     0.000 A 
ATOM     27  C   UNL     1      -3.752   2.796   3.000  1.00  0.00     0.000 A 
ATOM     28  C   UNL     1      -4.381   3.091   4.189  1.00  0.00     0.000 A 
ENDBRANCH  22  23
BRANCH  22  29
ATOM     29  C   UNL     1       1.015   4.510   4.025  1.00  0.00    -0.031 A 
ATOM     30  C   UNL     1       1.927   3.487   3.624  1.00  0.00     0.005 A 
ATOM     31  C   UNL     1       1.523   5.344   5.028  1.00  0.00     0.005 A 
ATOM     32  C   UNL     1       3.128   3.173   4.269  1.00  0.00     0.000 A 
ATOM     33  C   UNL     1       2.791   5.098   5.622  1.00  0.00     0.000 A 
ATOM     34  C   UNL     1       3.568   3.991   5.279  1.00  0.00     0.000 A 
ENDBRANCH  22  29
ENDBRANCH  19  22
ENDBRANCH  15  18
ENDBRANCH   4   7
ENDBRANCH   2   3
ENDBRANCH   1   2
BRANCH   1  35
ATOM     35  C   UNL     1      -1.377  -5.716   5.099  1.00  0.00     0.118 C 
BRANCH  35  36
ATOM     36  N   UNL     1      -0.661  -6.342   6.207  1.00  0.00    -0.352 N 
ATOM     37  C   UNL     1      -0.575  -7.684   6.537  1.00  0.00     0.251 C 
ATOM     38  H   UNL     1      -0.172  -5.727   6.800  1.00  0.00     0.163 HD
ATOM     39  O   UNL     1      -0.233  -8.030   7.646  1.00  0.00    -0.269 OA
BRANCH  37  40
ATOM     40  C   UNL     1      -0.932  -8.668   5.498  1.00  0.00     0.039 A 
ATOM     41  C   UNL     1      -1.720  -9.780   5.797  1.00  0.00     0.014 A 
ATOM     42  C   UNL     1      -0.538  -8.400   4.193  1.00  0.00     0.014 A 
ATOM     43  C   UNL     1      -2.187 -10.567   4.747  1.00  0.00     0.010 A 
ATOM     44  C   UNL     1      -1.169  -9.040   3.162  1.00  0.00     0.010 A 
ATOM     45  C   UNL     1      -1.932 -10.170   3.424  1.00  0.00    -0.014 A 
BRANCH  45  46
ATOM     46  C   UNL     1      -2.521 -10.874   2.291  1.00  0.00     0.031 A 
ATOM     47  C   UNL     1      -3.994 -11.066   2.356  1.00  0.00     0.074 A 
ATOM     48  C   UNL     1      -1.833 -11.147   1.161  1.00  0.00     0.049 A 
ATOM     49  N   UNL     1      -4.631 -12.172   2.550  1.00  0.00    -0.248 NA
ATOM     50  C   UNL     1      -4.862  -9.877   2.336  1.00  0.00     0.031 C 
ATOM     51  C   UNL     1      -0.463 -10.757   0.797  1.00  0.00     0.029 A 
ATOM     52  N   UNL     1      -2.278 -11.736   0.022  1.00  0.00    -0.354 N 
ATOM     53  C   UNL     1      -5.984 -11.863   2.453  1.00  0.00     0.074 A 
ATOM     54  C   UNL     1      -6.067 -10.425   2.509  1.00  0.00     0.031 C 
ATOM     55  C   UNL     1      -0.294 -10.882  -0.538  1.00  0.00     0.029 A 
ATOM     56  C   UNL     1      -1.462 -11.543  -1.086  1.00  0.00     0.049 A 
ATOM     57  H   UNL     1      -3.111 -12.258  -0.015  1.00  0.00     0.167 HD
ATOM     58  C   UNL     1      -6.906 -12.802   2.095  1.00  0.00     0.031 A 
ATOM     59  C   UNL     1      -1.742 -11.885  -2.368  1.00  0.00     0.031 A 
ATOM     60  C   UNL     1      -6.346 -14.131   2.120  1.00  0.00     0.049 A 
ATOM     61  C   UNL     1      -2.792 -12.933  -2.307  1.00  0.00     0.074 A 
ATOM     62  C   UNL     1      -5.744 -14.914   3.086  1.00  0.00     0.029 A 
ATOM     63  N   UNL     1      -5.979 -14.679   0.911  1.00  0.00    -0.354 N 
ATOM     64  N   UNL     1      -2.586 -14.117  -1.800  1.00  0.00    -0.248 NA
ATOM     65  C   UNL     1      -4.184 -12.516  -2.371  1.00  0.00     0.031 C 
ATOM     66  C   UNL     1      -4.661 -15.553   2.413  1.00  0.00     0.029 A 
ATOM     67  C   UNL     1      -4.716 -15.192   1.064  1.00  0.00     0.049 A 
ATOM     68  H   UNL     1      -6.522 -14.698   0.089  1.00  0.00     0.167 HD
ATOM     69  C   UNL     1      -3.741 -14.401  -1.085  1.00  0.00     0.074 A 
ATOM     70  C   UNL     1      -4.726 -13.428  -1.558  1.00  0.00     0.031 C 
ATOM     71  C   UNL     1      -3.712 -15.205   0.021  1.00  0.00     0.031 A 
BRANCH  58  72
ATOM     72  C   UNL     1      -8.181 -12.501   1.346  1.00  0.00    -0.014 A 
ATOM     73  C   UNL     1      -9.079 -13.557   1.085  1.00  0.00     0.010 A 
ATOM     74  C   UNL     1      -8.398 -11.293   0.653  1.00  0.00     0.010 A 
ATOM     75  C   UNL     1     -10.087 -13.436   0.120  1.00  0.00     0.020 A 
ATOM     76  C   UNL     1      -9.428 -11.146  -0.278  1.00  0.00     0.020 A 
ATOM     77  C   UNL     1     -10.242 -12.232  -0.568  1.00  0.00     0.054 A 
BRANCH  77  78
ATOM     78  S   UNL     1     -11.467 -12.122  -1.894  1.00  0.00     0.124 S 
ATOM     79  O   UNL     1     -10.915 -13.037  -2.888  1.00  0.00    -0.237 OA
ATOM     80  O   UNL     1     -12.686 -12.570  -1.226  1.00  0.00    -0.237 OA
ATOM     81  O   UNL     1     -11.447 -10.708  -2.261  1.00  0.00    -0.744 OA
ENDBRANCH  77  78
ENDBRANCH  58  72
BRANCH  59  82
ATOM     82  C   UNL     1      -1.376 -11.178  -3.619  1.00  0.00    -0.014 A 
ATOM     83  C   UNL     1      -1.580 -11.787  -4.872  1.00  0.00     0.010 A 
ATOM     84  C   UNL     1      -1.105  -9.793  -3.600  1.00  0.00     0.010 A 
ATOM     85  C   UNL     1      -1.603 -11.025  -6.052  1.00  0.00     0.020 A 
ATOM     86  C   UNL     1      -1.117  -9.029  -4.774  1.00  0.00     0.020 A 
ATOM     87  C   UNL     1      -1.400  -9.644  -5.992  1.00  0.00     0.054 A 
BRANCH  87  88
ATOM     88  S   UNL     1      -1.652  -8.639  -7.487  1.00  0.00     0.124 S 
ATOM     89  O   UNL     1      -0.497  -8.999  -8.303  1.00  0.00    -0.237 OA
ATOM     90  O   UNL     1      -2.944  -9.116  -7.974  1.00  0.00    -0.237 OA
ATOM     91  O   UNL     1      -1.654  -7.267  -6.983  1.00  0.00    -0.744 OA
ENDBRANCH  87  88
ENDBRANCH  59  82
BRANCH  71  92
ATOM     92  C   UNL     1      -2.452 -15.991   0.315  1.00  0.00    -0.014 A 
ATOM     93  C   UNL     1      -1.192 -15.400   0.546  1.00  0.00     0.010 A 
ATOM     94  C   UNL     1      -2.585 -17.375   0.523  1.00  0.00     0.010 A 
ATOM     95  C   UNL     1      -0.094 -16.180   0.944  1.00  0.00     0.020 A 
ATOM     96  C   UNL     1      -1.501 -18.153   0.938  1.00  0.00     0.020 A 
ATOM     97  C   UNL     1      -0.257 -17.555   1.136  1.00  0.00     0.054 A 
BRANCH  97  98
ATOM     98  S   UNL     1       1.153 -18.555   1.689  1.00  0.00     0.124 S 
ATOM     99  O   UNL     1       2.034 -18.534   0.525  1.00  0.00    -0.237 OA
ATOM    100  O   UNL     1       1.636 -17.822   2.857  1.00  0.00    -0.237 OA
ATOM    101  O   UNL     1       0.559 -19.858   1.990  1.00  0.00    -0.744 OA
ENDBRANCH  97  98
ENDBRANCH  71  92
ENDBRANCH  45  46
ENDBRANCH  37  40
ENDBRANCH  35  36
ENDBRANCH   1  35
TORSDOF 17
