REMARK SMILES CCc1ccsc1Cn1cccc1C(=O)NCCCNC(=O)c1ccc(-c2c3nc(c(-c4ccc(S(=O)(=O)[O-])cc4)c4ccc([nH]4)c(-c4ccc(S(=O)(=O)[O-])cc4)c4nc(c(-c5ccc(S(=O)(=O)[O-])cc5)c5ccc2[nH]5)C=C4)C=C3)cc1
REMARK SMILES IDX 18 1 17 2 16 3 14 4 15 5 13 7 9 8 10 9 11 10 12 11 8 12 7 13
REMARK SMILES IDX 3 14 4 15 5 16 6 17 2 18 1 19 19 20 20 21 21 22 22 24 23 25
REMARK SMILES IDX 24 26 82 27 25 28 81 29 26 30 27 31 28 32 75 33 29 34 80 35
REMARK SMILES IDX 74 36 76 37 30 38 79 39 73 40 72 41 31 43 61 44 42 45 60 46
REMARK SMILES IDX 43 47 46 48 59 49 77 50 44 51 45 52 58 54 78 55 47 56 32 57
REMARK SMILES IDX 33 58 41 59 34 60 40 61 35 62 36 63 37 64 38 65 39 66 62 67
REMARK SMILES IDX 63 68 71 69 64 70 70 71 65 72 66 73 67 74 68 75 69 76 48 77
REMARK SMILES IDX 49 78 57 79 50 80 56 81 51 82 52 83 53 84 54 85 55 86
REMARK H PARENT 16 6 20 23 76 42 46 53
REMARK Flexibility Score: inf
ROOT
ATOM      1  C   UNL     1       2.597   0.086  -0.055  1.00  0.00     0.042 C 
ENDROOT
BRANCH   1   2
ATOM      2  C   UNL     1       2.712   1.265   0.924  1.00  0.00     0.118 C 
BRANCH   2   3
ATOM      3  N   UNL     1       1.424   1.810   1.304  1.00  0.00    -0.351 N 
ATOM      4  C   UNL     1       0.567   1.710   2.365  1.00  0.00     0.267 C 
ATOM      5  O   UNL     1      -0.370   2.515   2.297  1.00  0.00    -0.268 OA
ATOM      6  H   UNL     1       1.070   2.414   0.612  1.00  0.00     0.163 HD
BRANCH   4   7
ATOM      7  C   UNL     1       0.680   0.827   3.520  1.00  0.00     0.107 A 
ATOM      8  N   UNL     1       1.126  -0.474   3.720  1.00  0.00    -0.338 N 
ATOM      9  C   UNL     1       1.008  -0.806   5.061  1.00  0.00     0.087 A 
ATOM     10  C   UNL     1       0.346   0.199   5.709  1.00  0.00     0.020 A 
ATOM     11  C   UNL     1       0.116   1.197   4.748  1.00  0.00     0.033 A 
BRANCH   8  12
ATOM     12  C   UNL     1       1.833  -1.374   2.825  1.00  0.00     0.169 C 
BRANCH  12  13
ATOM     13  C   UNL     1       1.085  -2.572   2.284  1.00  0.00     0.027 A 
ATOM     14  C   UNL     1       0.188  -2.813   1.231  1.00  0.00    -0.033 A 
ATOM     15  C   UNL     1       0.075  -4.240   0.997  1.00  0.00     0.016 A 
ATOM     16  C   UNL     1       0.780  -5.016   1.875  1.00  0.00     0.065 A 
ATOM     17  S   UNL     1       1.561  -4.073   3.038  1.00  0.00    -0.147 S 
BRANCH  14  18
ATOM     18  C   UNL     1      -0.567  -1.935   0.250  1.00  0.00     0.033 C 
ATOM     19  C   UNL     1      -1.040  -0.566   0.657  1.00  0.00     0.009 C 
ENDBRANCH  14  18
ENDBRANCH  12  13
ENDBRANCH   8  12
ENDBRANCH   4   7
ENDBRANCH   2   3
ENDBRANCH   1   2
BRANCH   1  20
ATOM     20  C   UNL     1       2.075   0.464  -1.423  1.00  0.00     0.118 C 
BRANCH  20  21
ATOM     21  N   UNL     1       3.160   0.602  -2.365  1.00  0.00    -0.352 N 
ATOM     22  C   UNL     1       3.100   0.390  -3.711  1.00  0.00     0.251 C 
ATOM     23  H   UNL     1       4.032   0.877  -1.998  1.00  0.00     0.163 HD
ATOM     24  O   UNL     1       4.117  -0.039  -4.280  1.00  0.00    -0.269 OA
BRANCH  22  25
ATOM     25  C   UNL     1       1.898   0.735  -4.502  1.00  0.00     0.039 A 
ATOM     26  C   UNL     1       1.847   0.297  -5.832  1.00  0.00     0.014 A 
ATOM     27  C   UNL     1       0.919   1.618  -4.023  1.00  0.00     0.014 A 
ATOM     28  C   UNL     1       0.868   0.790  -6.683  1.00  0.00     0.010 A 
ATOM     29  C   UNL     1      -0.071   2.095  -4.857  1.00  0.00     0.010 A 
ATOM     30  C   UNL     1      -0.071   1.703  -6.189  1.00  0.00    -0.014 A 
BRANCH  30  31
ATOM     31  C   UNL     1      -1.188   2.136  -7.036  1.00  0.00     0.031 A 
ATOM     32  C   UNL     1      -2.330   1.085  -6.962  1.00  0.00     0.074 A 
ATOM     33  C   UNL     1      -0.987   3.324  -7.701  1.00  0.00     0.049 A 
ATOM     34  N   UNL     1      -3.322   0.895  -7.765  1.00  0.00    -0.248 NA
ATOM     35  C   UNL     1      -2.371   0.070  -5.858  1.00  0.00     0.031 C 
ATOM     36  C   UNL     1       0.179   4.234  -7.509  1.00  0.00     0.029 A 
ATOM     37  N   UNL     1      -1.692   4.034  -8.649  1.00  0.00    -0.354 N 
ATOM     38  C   UNL     1      -4.176  -0.092  -7.213  1.00  0.00     0.074 A 
ATOM     39  C   UNL     1      -3.500  -0.616  -6.069  1.00  0.00     0.031 C 
ATOM     40  C   UNL     1       0.150   5.275  -8.378  1.00  0.00     0.029 A 
ATOM     41  C   UNL     1      -1.031   5.174  -9.210  1.00  0.00     0.049 A 
ATOM     42  H   UNL     1      -2.600   3.773  -8.925  1.00  0.00     0.167 HD
ATOM     43  C   UNL     1      -5.427  -0.329  -7.710  1.00  0.00     0.031 A 
ATOM     44  C   UNL     1      -1.407   5.937 -10.291  1.00  0.00     0.031 A 
ATOM     45  C   UNL     1      -5.613   0.462  -8.880  1.00  0.00     0.049 A 
ATOM     46  C   UNL     1      -2.757   5.456 -10.598  1.00  0.00     0.074 A 
ATOM     47  C   UNL     1      -5.058   0.340 -10.127  1.00  0.00     0.029 A 
ATOM     48  N   UNL     1      -6.058   1.749  -8.687  1.00  0.00    -0.354 N 
ATOM     49  N   UNL     1      -3.807   5.728  -9.888  1.00  0.00    -0.248 NA
ATOM     50  C   UNL     1      -2.951   4.544 -11.730  1.00  0.00     0.031 C 
ATOM     51  C   UNL     1      -4.675   1.663 -10.406  1.00  0.00     0.029 A 
ATOM     52  C   UNL     1      -5.312   2.542  -9.521  1.00  0.00     0.049 A 
ATOM     53  H   UNL     1      -6.769   2.042  -8.073  1.00  0.00     0.167 HD
ATOM     54  C   UNL     1      -4.645   4.700 -10.219  1.00  0.00     0.074 A 
ATOM     55  C   UNL     1      -4.235   4.248 -11.537  1.00  0.00     0.031 C 
ATOM     56  C   UNL     1      -5.197   3.947  -9.230  1.00  0.00     0.031 A 
BRANCH  43  57
ATOM     57  C   UNL     1      -6.633  -1.079  -7.215  1.00  0.00    -0.014 A 
ATOM     58  C   UNL     1      -7.636  -1.367  -8.181  1.00  0.00     0.010 A 
ATOM     59  C   UNL     1      -6.985  -1.192  -5.865  1.00  0.00     0.010 A 
ATOM     60  C   UNL     1      -8.962  -1.609  -7.825  1.00  0.00     0.020 A 
ATOM     61  C   UNL     1      -8.318  -1.474  -5.497  1.00  0.00     0.020 A 
ATOM     62  C   UNL     1      -9.303  -1.630  -6.479  1.00  0.00     0.054 A 
BRANCH  62  63
ATOM     63  S   UNL     1     -11.061  -1.796  -6.059  1.00  0.00     0.124 S 
ATOM     64  O   UNL     1     -11.619  -0.542  -6.555  1.00  0.00    -0.237 OA
ATOM     65  O   UNL     1     -11.449  -2.991  -6.807  1.00  0.00    -0.237 OA
ATOM     66  O   UNL     1     -11.054  -1.952  -4.607  1.00  0.00    -0.744 OA
ENDBRANCH  62  63
ENDBRANCH  43  57
BRANCH  44  67
ATOM     67  C   UNL     1      -0.901   6.988 -11.271  1.00  0.00    -0.014 A 
ATOM     68  C   UNL     1       0.367   7.579 -11.309  1.00  0.00     0.010 A 
ATOM     69  C   UNL     1      -1.741   7.291 -12.391  1.00  0.00     0.010 A 
ATOM     70  C   UNL     1       0.815   8.268 -12.474  1.00  0.00     0.020 A 
ATOM     71  C   UNL     1      -1.296   7.909 -13.562  1.00  0.00     0.020 A 
ATOM     72  C   UNL     1       0.006   8.364 -13.616  1.00  0.00     0.054 A 
BRANCH  72  73
ATOM     73  S   UNL     1       0.681   8.917 -15.215  1.00  0.00     0.124 S 
ATOM     74  O   UNL     1       0.716  10.368 -15.062  1.00  0.00    -0.237 OA
ATOM     75  O   UNL     1       1.982   8.253 -15.257  1.00  0.00    -0.237 OA
ATOM     76  O   UNL     1      -0.287   8.418 -16.192  1.00  0.00    -0.744 OA
ENDBRANCH  72  73
ENDBRANCH  44  67
BRANCH  56  77
ATOM     77  C   UNL     1      -5.272   4.610  -7.849  1.00  0.00    -0.014 A 
ATOM     78  C   UNL     1      -5.863   5.886  -7.740  1.00  0.00     0.010 A 
ATOM     79  C   UNL     1      -4.695   4.079  -6.674  1.00  0.00     0.010 A 
ATOM     80  C   UNL     1      -5.870   6.607  -6.538  1.00  0.00     0.020 A 
ATOM     81  C   UNL     1      -4.703   4.795  -5.454  1.00  0.00     0.020 A 
ATOM     82  C   UNL     1      -5.294   6.058  -5.395  1.00  0.00     0.054 A 
BRANCH  82  83
ATOM     83  S   UNL     1      -5.353   7.021  -3.852  1.00  0.00     0.124 S 
ATOM     84  O   UNL     1      -4.598   8.225  -4.190  1.00  0.00    -0.237 OA
ATOM     85  O   UNL     1      -6.788   7.220  -3.659  1.00  0.00    -0.237 OA
ATOM     86  O   UNL     1      -4.712   6.150  -2.868  1.00  0.00    -0.744 OA
ENDBRANCH  82  83
ENDBRANCH  56  77
ENDBRANCH  30  31
ENDBRANCH  22  25
ENDBRANCH  20  21
ENDBRANCH   1  20
TORSDOF 16
