REMARK SMILES O=C1C[C@@H]([N@@H+]2[C@@H](C(=O)NCCCNC(=O)c3ccc(-c4c5nc(c(-c6ccc(S(=O)(=O)[O-])cc6)c6ccc([nH]6)c(-c6ccc(S(=O)(=O)[O-])cc6)c6nc(c(-c7ccc(S(=O)(=O)[O-])cc7)c7ccc4[nH]7)C=C6)C=C5)cc3)CC[C@@H]3CCCC[C@H]32)C(=O)N1
REMARK SMILES IDX 12 1 11 2 10 3 9 4 7 5 8 6 6 8 5 9 83 10 76 12 78 13 82 14
REMARK SMILES IDX 77 15 79 16 81 17 80 18 4 19 1 20 2 21 3 22 86 23 84 24
REMARK SMILES IDX 85 26 13 27 14 28 15 30 16 31 17 32 75 33 18 34 74 35 19 36
REMARK SMILES IDX 20 37 21 38 68 39 22 40 73 41 67 42 69 43 23 44 72 45 66 46
REMARK SMILES IDX 65 47 24 49 54 50 35 51 53 52 36 53 39 54 52 55 70 56 37 57
REMARK SMILES IDX 38 58 51 60 71 61 40 62 25 63 26 64 34 65 27 66 33 67 28 68
REMARK SMILES IDX 29 69 30 70 31 71 32 72 55 73 56 74 64 75 57 76 63 77 58 78
REMARK SMILES IDX 59 79 60 80 61 81 62 82 41 83 42 84 50 85 43 86 49 87 44 88
REMARK SMILES IDX 45 89 46 90 47 91 48 92
REMARK H PARENT 9 7 5 11 86 25 13 29 69 48 39 59
REMARK Flexibility Score: inf
ROOT
ATOM      1  C   UNL     1       5.191   0.922  -3.805  1.00  0.00     0.118 C 
ENDROOT
BRANCH   1   2
ATOM      2  C   UNL     1       4.499  -0.422  -3.626  1.00  0.00     0.042 C 
BRANCH   2   3
ATOM      3  C   UNL     1       3.560  -0.467  -2.429  1.00  0.00     0.118 C 
BRANCH   3   4
ATOM      4  N   UNL     1       2.431   0.432  -2.609  1.00  0.00    -0.351 N 
ATOM      5  C   UNL     1       1.098   0.158  -2.640  1.00  0.00     0.278 C 
ATOM      6  O   UNL     1       0.309   1.105  -2.721  1.00  0.00    -0.268 OA
ATOM      7  H   UNL     1       2.667   1.381  -2.727  1.00  0.00     0.163 HD
BRANCH   5   8
ATOM      8  C   UNL     1       0.571  -1.286  -2.551  1.00  0.00     0.275 C 
ATOM      9  N   UNL     1       1.026  -1.991  -1.303  1.00  0.00    -0.311 N 
ATOM     10  C   UNL     1       0.713  -3.454  -1.350  1.00  0.00     0.188 C 
ATOM     11  H   UNL     1       2.040  -1.883  -1.284  1.00  0.00     0.349 HD
ATOM     12  C   UNL     1       0.934  -1.971  -3.878  1.00  0.00     0.076 C 
ATOM     13  C   UNL     1       1.180  -4.119  -2.674  1.00  0.00     0.048 C 
ATOM     14  C   UNL     1       1.345  -4.236  -0.170  1.00  0.00     0.065 C 
ATOM     15  C   UNL     1       0.548  -3.432  -3.881  1.00  0.00     0.016 C 
ATOM     16  C   UNL     1       0.842  -5.616  -2.714  1.00  0.00     0.010 C 
ATOM     17  C   UNL     1       1.027  -5.729  -0.219  1.00  0.00     0.006 C 
ATOM     18  C   UNL     1       1.449  -6.360  -1.535  1.00  0.00     0.001 C 
BRANCH   9  19
ATOM     19  C   UNL     1       0.526  -1.362  -0.032  1.00  0.00     0.284 C 
ATOM     20  O   UNL     1      -2.383   0.686   0.339  1.00  0.00    -0.274 OA
ATOM     21  C   UNL     1      -1.273   0.192   0.248  1.00  0.00     0.233 C 
ATOM     22  C   UNL     1      -0.992  -1.278   0.153  1.00  0.00     0.176 C 
ATOM     23  N   UNL     1      -0.102   0.871   0.285  1.00  0.00    -0.291 N 
ATOM     24  C   UNL     1       0.992   0.068   0.219  1.00  0.00     0.285 C 
ATOM     25  H   UNL     1      -0.048   1.852   0.354  1.00  0.00     0.173 HD
ATOM     26  O   UNL     1       2.142   0.443   0.387  1.00  0.00    -0.268 OA
ENDBRANCH   9  19
ENDBRANCH   5   8
ENDBRANCH   3   4
ENDBRANCH   2   3
ENDBRANCH   1   2
BRANCH   1  27
ATOM     27  N   UNL     1       6.099   1.228  -2.709  1.00  0.00    -0.352 N 
ATOM     28  C   UNL     1       7.444   1.496  -2.731  1.00  0.00     0.251 C 
ATOM     29  H   UNL     1       5.684   1.247  -1.816  1.00  0.00     0.163 HD
ATOM     30  O   UNL     1       8.072   1.526  -1.676  1.00  0.00    -0.269 OA
BRANCH  28  31
ATOM     31  C   UNL     1       8.143   1.727  -4.015  1.00  0.00     0.039 A 
ATOM     32  C   UNL     1       9.418   1.184  -4.187  1.00  0.00     0.014 A 
ATOM     33  C   UNL     1       7.565   2.486  -5.036  1.00  0.00     0.014 A 
ATOM     34  C   UNL     1      10.084   1.352  -5.402  1.00  0.00     0.010 A 
ATOM     35  C   UNL     1       8.192   2.579  -6.277  1.00  0.00     0.010 A 
ATOM     36  C   UNL     1       9.460   2.016  -6.473  1.00  0.00    -0.014 A 
BRANCH  36  37
ATOM     37  C   UNL     1      10.125   2.102  -7.799  1.00  0.00     0.031 A 
ATOM     38  C   UNL     1      10.507   3.435  -8.385  1.00  0.00     0.074 A 
ATOM     39  C   UNL     1      10.361   0.968  -8.490  1.00  0.00     0.049 A 
ATOM     40  N   UNL     1      11.101   3.693  -9.522  1.00  0.00    -0.248 NA
ATOM     41  C   UNL     1      10.162   4.636  -7.605  1.00  0.00     0.031 C 
ATOM     42  C   UNL     1       9.990  -0.381  -8.054  1.00  0.00     0.029 A 
ATOM     43  N   UNL     1      10.973   0.765  -9.702  1.00  0.00    -0.354 N 
ATOM     44  C   UNL     1      11.204   5.077  -9.593  1.00  0.00     0.074 A 
ATOM     45  C   UNL     1      10.556   5.609  -8.415  1.00  0.00     0.031 C 
ATOM     46  C   UNL     1      10.414  -1.272  -8.964  1.00  0.00     0.029 A 
ATOM     47  C   UNL     1      11.046  -0.558 -10.069  1.00  0.00     0.049 A 
ATOM     48  H   UNL     1      11.325   1.498 -10.256  1.00  0.00     0.167 HD
ATOM     49  C   UNL     1      11.805   5.837 -10.540  1.00  0.00     0.031 A 
ATOM     50  C   UNL     1      11.558  -1.136 -11.172  1.00  0.00     0.031 A 
ATOM     51  C   UNL     1      12.447   5.305 -11.715  1.00  0.00     0.049 A 
ATOM     52  C   UNL     1      12.203  -0.268 -12.217  1.00  0.00     0.074 A 
ATOM     53  C   UNL     1      13.118   5.990 -12.713  1.00  0.00     0.029 A 
ATOM     54  N   UNL     1      12.497   3.961 -12.052  1.00  0.00    -0.354 N 
ATOM     55  N   UNL     1      12.350   1.036 -12.230  1.00  0.00    -0.248 NA
ATOM     56  C   UNL     1      12.765  -0.950 -13.390  1.00  0.00     0.031 C 
ATOM     57  C   UNL     1      13.522   5.067 -13.683  1.00  0.00     0.029 A 
ATOM     58  C   UNL     1      13.164   3.798 -13.255  1.00  0.00     0.049 A 
ATOM     59  H   UNL     1      12.115   3.229 -11.515  1.00  0.00     0.167 HD
ATOM     60  C   UNL     1      13.040   1.327 -13.402  1.00  0.00     0.074 A 
ATOM     61  C   UNL     1      13.308   0.061 -14.053  1.00  0.00     0.031 C 
ATOM     62  C   UNL     1      13.413   2.533 -13.899  1.00  0.00     0.031 A 
BRANCH  49  63
ATOM     63  C   UNL     1      11.807   7.332 -10.344  1.00  0.00    -0.014 A 
ATOM     64  C   UNL     1      12.575   7.927  -9.326  1.00  0.00     0.010 A 
ATOM     65  C   UNL     1      11.089   8.159 -11.227  1.00  0.00     0.010 A 
ATOM     66  C   UNL     1      12.604   9.316  -9.178  1.00  0.00     0.020 A 
ATOM     67  C   UNL     1      11.138   9.551 -11.102  1.00  0.00     0.020 A 
ATOM     68  C   UNL     1      11.888  10.120 -10.070  1.00  0.00     0.054 A 
BRANCH  68  69
ATOM     69  S   UNL     1      11.986  11.922  -9.883  1.00  0.00     0.124 S 
ATOM     70  O   UNL     1      11.234  12.138  -8.649  1.00  0.00    -0.237 OA
ATOM     71  O   UNL     1      13.425  12.154  -9.790  1.00  0.00    -0.237 OA
ATOM     72  O   UNL     1      11.352  12.433 -11.096  1.00  0.00    -0.744 OA
ENDBRANCH  68  69
ENDBRANCH  49  63
BRANCH  50  73
ATOM     73  C   UNL     1      11.476  -2.613 -11.349  1.00  0.00    -0.014 A 
ATOM     74  C   UNL     1      12.635  -3.410 -11.338  1.00  0.00     0.010 A 
ATOM     75  C   UNL     1      10.226  -3.232 -11.541  1.00  0.00     0.010 A 
ATOM     76  C   UNL     1      12.549  -4.790 -11.548  1.00  0.00     0.020 A 
ATOM     77  C   UNL     1      10.132  -4.615 -11.715  1.00  0.00     0.020 A 
ATOM     78  C   UNL     1      11.297  -5.383 -11.735  1.00  0.00     0.054 A 
BRANCH  78  79
ATOM     79  S   UNL     1      11.204  -7.179 -11.976  1.00  0.00     0.124 S 
ATOM     80  O   UNL     1      11.731  -7.331 -13.328  1.00  0.00    -0.237 OA
ATOM     81  O   UNL     1      12.056  -7.685 -10.903  1.00  0.00    -0.237 OA
ATOM     82  O   UNL     1       9.781  -7.471 -11.821  1.00  0.00    -0.744 OA
ENDBRANCH  78  79
ENDBRANCH  50  73
BRANCH  62  83
ATOM     83  C   UNL     1      14.172   2.534 -15.200  1.00  0.00    -0.014 A 
ATOM     84  C   UNL     1      13.549   2.175 -16.410  1.00  0.00     0.010 A 
ATOM     85  C   UNL     1      15.525   2.920 -15.217  1.00  0.00     0.010 A 
ATOM     86  C   UNL     1      14.279   2.149 -17.601  1.00  0.00     0.020 A 
ATOM     87  C   UNL     1      16.249   2.930 -16.412  1.00  0.00     0.020 A 
ATOM     88  C   UNL     1      15.626   2.523 -17.593  1.00  0.00     0.054 A 
BRANCH  88  89
ATOM     89  S   UNL     1      16.547   2.493 -19.155  1.00  0.00     0.124 S 
ATOM     90  O   UNL     1      16.706   1.060 -19.386  1.00  0.00    -0.237 OA
ATOM     91  O   UNL     1      15.644   3.182 -20.073  1.00  0.00    -0.237 OA
ATOM     92  O   UNL     1      17.780   3.214 -18.845  1.00  0.00    -0.744 OA
ENDBRANCH  88  89
ENDBRANCH  62  83
ENDBRANCH  36  37
ENDBRANCH  28  31
ENDBRANCH   1  27
TORSDOF 14
