REMARK SMILES COc1c(C)cc(Br)cc1C(=O)Nc1ccc(O)c(C(=O)NCCCNC(=O)c2ccc(-c3c4nc(c(-c5ccc(S(=O)(=O)[O-])cc5)c5ccc([nH]5)c(-c5ccc(S(=O)(=O)[O-])cc5)c5nc(c(-c6ccc(S(=O)(=O)[O-])cc6)c6ccc3[nH]6)C=C5)C=C4)cc2)c1
REMARK SMILES IDX 24 1 23 2 22 3 20 4 21 5 19 7 14 8 15 9 89 10 16 11 17 12
REMARK SMILES IDX 13 13 11 14 12 15 10 17 3 18 4 19 5 20 6 21 9 22 7 23 8 24
REMARK SMILES IDX 2 25 1 26 18 27 25 29 26 30 27 31 28 33 29 34 30 35 88 36
REMARK SMILES IDX 31 37 87 38 32 39 33 40 34 41 81 42 35 43 86 44 80 45 82 46
REMARK SMILES IDX 36 47 85 48 79 49 78 50 37 52 67 53 48 54 66 55 49 56 52 57
REMARK SMILES IDX 65 58 83 59 50 60 51 61 64 63 84 64 53 65 38 66 39 67 47 68
REMARK SMILES IDX 40 69 46 70 41 71 42 72 43 73 44 74 45 75 68 76 69 77 77 78
REMARK SMILES IDX 70 79 76 80 71 81 72 82 73 83 74 84 75 85 54 86 55 87 63 88
REMARK SMILES IDX 56 89 62 90 57 91 58 92 59 93 60 94 61 95
REMARK H PARENT 22 6 13 16 18 28 26 32 82 51 52 62
REMARK Flexibility Score: inf
ROOT
ATOM      1  C   UNL     1       2.506  -3.107   3.642  1.00  0.00     0.042 C 
ENDROOT
BRANCH   1   2
ATOM      2  C   UNL     1       2.371  -3.219   2.126  1.00  0.00     0.118 C 
BRANCH   2   3
ATOM      3  N   UNL     1       1.123  -3.861   1.756  1.00  0.00    -0.352 N 
ATOM      4  C   UNL     1      -0.090  -3.355   1.362  1.00  0.00     0.255 C 
ATOM      5  O   UNL     1      -0.989  -4.165   1.126  1.00  0.00    -0.269 OA
ATOM      6  H   UNL     1       1.153  -4.844   1.794  1.00  0.00     0.163 HD
BRANCH   4   7
ATOM      7  C   UNL     1      -0.333  -1.920   1.049  1.00  0.00     0.083 A 
ATOM      8  C   UNL     1      -1.154  -0.420  -0.688  1.00  0.00     0.042 A 
ATOM      9  C   UNL     1      -0.758   0.685   0.057  1.00  0.00     0.030 A 
ATOM     10  C   UNL     1      -1.011  -1.706  -0.162  1.00  0.00     0.043 A 
ATOM     11  C   UNL     1      -0.181   0.493   1.313  1.00  0.00     0.049 A 
ATOM     12  C   UNL     1       0.050  -0.803   1.797  1.00  0.00     0.128 A 
BRANCH   8  13
ATOM     13  N   UNL     1      -1.656  -0.331  -1.987  1.00  0.00    -0.322 N 
ATOM     14  C   UNL     1      -1.278   0.447  -3.056  1.00  0.00     0.259 C 
ATOM     15  O   UNL     1      -2.033   0.465  -4.034  1.00  0.00    -0.269 OA
ATOM     16  H   UNL     1      -2.415  -0.931  -2.170  1.00  0.00     0.170 HD
BRANCH  14  17
ATOM     17  C   UNL     1       0.009   1.214  -3.145  1.00  0.00     0.083 A 
ATOM     18  C   UNL     1       1.257   0.829  -2.581  1.00  0.00     0.134 A 
ATOM     19  C   UNL     1       2.378   1.679  -2.737  1.00  0.00    -0.007 A 
ATOM     20  C   UNL     1       3.729   1.490  -2.101  1.00  0.00     0.048 C 
ATOM     21  C   UNL     1       2.275   2.781  -3.612  1.00  0.00     0.023 A 
ATOM     22  C   UNL     1      -0.052   2.333  -3.997  1.00  0.00     0.033 A 
ATOM     23  C   UNL     1       1.084   3.079  -4.258  1.00  0.00     0.019 A 
ATOM     24  Br  UNL     1       1.027   4.481  -5.525  1.00  0.00    -0.051 Br
BRANCH  18  25
ATOM     25  O   UNL     1       1.294  -0.442  -2.073  1.00  0.00    -0.496 OA
ATOM     26  C   UNL     1       2.268  -0.835  -1.123  1.00  0.00     0.278 C 
ENDBRANCH  18  25
ENDBRANCH  14  17
ENDBRANCH   8  13
BRANCH  12  27
ATOM     27  O   UNL     1       0.642  -0.932   3.015  1.00  0.00    -0.507 OA
ATOM     28  H   UNL     1       0.890  -0.169   3.498  1.00  0.00     0.293 HD
ENDBRANCH  12  27
ENDBRANCH   4   7
ENDBRANCH   2   3
ENDBRANCH   1   2
BRANCH   1  29
ATOM     29  C   UNL     1       2.775  -4.427   4.349  1.00  0.00     0.118 C 
BRANCH  29  30
ATOM     30  N   UNL     1       4.162  -4.849   4.240  1.00  0.00    -0.352 N 
ATOM     31  C   UNL     1       5.109  -5.024   5.222  1.00  0.00     0.251 C 
ATOM     32  H   UNL     1       4.470  -5.037   3.324  1.00  0.00     0.163 HD
ATOM     33  O   UNL     1       6.280  -5.195   4.898  1.00  0.00    -0.269 OA
BRANCH  31  34
ATOM     34  C   UNL     1       4.737  -4.984   6.659  1.00  0.00     0.039 A 
ATOM     35  C   UNL     1       5.610  -4.370   7.562  1.00  0.00     0.014 A 
ATOM     36  C   UNL     1       3.560  -5.572   7.131  1.00  0.00     0.014 A 
ATOM     37  C   UNL     1       5.275  -4.292   8.918  1.00  0.00     0.010 A 
ATOM     38  C   UNL     1       3.185  -5.416   8.465  1.00  0.00     0.010 A 
ATOM     39  C   UNL     1       4.042  -4.784   9.377  1.00  0.00    -0.014 A 
BRANCH  39  40
ATOM     40  C   UNL     1       3.641  -4.660  10.804  1.00  0.00     0.031 A 
ATOM     41  C   UNL     1       3.412  -5.895  11.638  1.00  0.00     0.074 A 
ATOM     42  C   UNL     1       3.427  -3.440  11.336  1.00  0.00     0.049 A 
ATOM     43  N   UNL     1       3.008  -5.989  12.879  1.00  0.00    -0.248 NA
ATOM     44  C   UNL     1       3.644  -7.194  10.985  1.00  0.00     0.031 C 
ATOM     45  C   UNL     1       3.576  -2.168  10.624  1.00  0.00     0.029 A 
ATOM     46  N   UNL     1       3.032  -3.068  12.597  1.00  0.00    -0.354 N 
ATOM     47  C   UNL     1       2.921  -7.350  13.148  1.00  0.00     0.074 A 
ATOM     48  C   UNL     1       3.264  -8.044  11.927  1.00  0.00     0.031 C 
ATOM     49  C   UNL     1       3.304  -1.158  11.467  1.00  0.00     0.029 A 
ATOM     50  C   UNL     1       2.920  -1.707  12.763  1.00  0.00     0.049 A 
ATOM     51  H   UNL     1       2.847  -3.715  13.316  1.00  0.00     0.167 HD
ATOM     52  C   UNL     1       2.603  -7.969  14.311  1.00  0.00     0.031 A 
ATOM     53  C   UNL     1       2.542  -0.981  13.834  1.00  0.00     0.031 A 
ATOM     54  C   UNL     1       2.271  -7.276  15.528  1.00  0.00     0.049 A 
ATOM     55  C   UNL     1       2.183  -1.690  15.111  1.00  0.00     0.074 A 
ATOM     56  C   UNL     1       1.987  -7.811  16.773  1.00  0.00     0.029 A 
ATOM     57  N   UNL     1       2.176  -5.898  15.654  1.00  0.00    -0.354 N 
ATOM     58  N   UNL     1       2.168  -2.978  15.361  1.00  0.00    -0.248 NA
ATOM     59  C   UNL     1       1.800  -0.848  16.252  1.00  0.00     0.031 C 
ATOM     60  C   UNL     1       1.667  -6.759  17.637  1.00  0.00     0.029 A 
ATOM     61  C   UNL     1       1.815  -5.566  16.949  1.00  0.00     0.049 A 
ATOM     62  H   UNL     1       2.342  -5.252  14.930  1.00  0.00     0.167 HD
ATOM     63  C   UNL     1       1.803  -3.098  16.698  1.00  0.00     0.074 A 
ATOM     64  C   UNL     1       1.621  -1.753  17.205  1.00  0.00     0.031 C 
ATOM     65  C   UNL     1       1.635  -4.222  17.439  1.00  0.00     0.031 A 
BRANCH  52  66
ATOM     66  C   UNL     1       2.593  -9.477  14.320  1.00  0.00    -0.014 A 
ATOM     67  C   UNL     1       3.787 -10.213  14.206  1.00  0.00     0.010 A 
ATOM     68  C   UNL     1       1.379 -10.168  14.484  1.00  0.00     0.010 A 
ATOM     69  C   UNL     1       3.762 -11.610  14.211  1.00  0.00     0.020 A 
ATOM     70  C   UNL     1       1.353 -11.566  14.521  1.00  0.00     0.020 A 
ATOM     71  C   UNL     1       2.544 -12.278  14.366  1.00  0.00     0.054 A 
BRANCH  71  72
ATOM     72  S   UNL     1       2.545 -14.092  14.389  1.00  0.00     0.124 S 
ATOM     73  O   UNL     1       2.813 -14.411  12.989  1.00  0.00    -0.237 OA
ATOM     74  O   UNL     1       3.627 -14.399  15.320  1.00  0.00    -0.237 OA
ATOM     75  O   UNL     1       1.205 -14.434  14.860  1.00  0.00    -0.744 OA
ENDBRANCH  71  72
ENDBRANCH  52  66
BRANCH  53  76
ATOM     76  C   UNL     1       2.500   0.505  13.746  1.00  0.00    -0.014 A 
ATOM     77  C   UNL     1       3.437   1.290  14.441  1.00  0.00     0.010 A 
ATOM     78  C   UNL     1       1.528   1.145  12.954  1.00  0.00     0.010 A 
ATOM     79  C   UNL     1       3.395   2.685  14.358  1.00  0.00     0.020 A 
ATOM     80  C   UNL     1       1.501   2.538  12.845  1.00  0.00     0.020 A 
ATOM     81  C   UNL     1       2.429   3.300  13.557  1.00  0.00     0.054 A 
BRANCH  81  82
ATOM     82  S   UNL     1       2.428   5.109  13.419  1.00  0.00     0.124 S 
ATOM     83  O   UNL     1       1.907   5.514  14.720  1.00  0.00    -0.237 OA
ATOM     84  O   UNL     1       3.838   5.407  13.180  1.00  0.00    -0.237 OA
ATOM     85  O   UNL     1       1.546   5.364  12.282  1.00  0.00    -0.744 OA
ENDBRANCH  81  82
ENDBRANCH  53  76
BRANCH  65  86
ATOM     86  C   UNL     1       1.270  -4.048  18.889  1.00  0.00    -0.014 A 
ATOM     87  C   UNL     1      -0.011  -3.612  19.274  1.00  0.00     0.010 A 
ATOM     88  C   UNL     1       2.209  -4.379  19.884  1.00  0.00     0.010 A 
ATOM     89  C   UNL     1      -0.334  -3.479  20.627  1.00  0.00     0.020 A 
ATOM     90  C   UNL     1       1.879  -4.275  21.237  1.00  0.00     0.020 A 
ATOM     91  C   UNL     1       0.614  -3.812  21.600  1.00  0.00     0.054 A 
BRANCH  91  92
ATOM     92  S   UNL     1       0.155  -3.670  23.349  1.00  0.00     0.124 S 
ATOM     93  O   UNL     1       0.150  -2.223  23.546  1.00  0.00    -0.237 OA
ATOM     94  O   UNL     1      -1.156  -4.314  23.390  1.00  0.00    -0.237 OA
ATOM     95  O   UNL     1       1.218  -4.390  24.046  1.00  0.00    -0.744 OA
ENDBRANCH  91  92
ENDBRANCH  65  86
ENDBRANCH  39  40
ENDBRANCH  31  34
ENDBRANCH  29  30
ENDBRANCH   1  29
TORSDOF 17
