REMARK SMILES C[C@H](CC(=O)NCCCNC(=O)c1ccc(-c2c3nc(c(-c4ccc(S(=O)(=O)[O-])cc4)c4ccc([nH]4)c(-c4ccc(S(=O)(=O)[O-])cc4)c4nc(c(-c5ccc(S(=O)(=O)[O-])cc5)c5ccc2[nH]5)C=C4)C=C3)cc1)NC(=O)Cn1nc2ccccn2c1=O
REMARK SMILES IDX 7 1 6 2 4 3 5 4 3 6 2 7 1 8 73 9 74 10 75 12 76 13 77 14
REMARK SMILES IDX 78 15 85 16 79 17 84 18 86 19 80 20 83 21 81 22 82 23 8 24
REMARK SMILES IDX 9 25 10 26 11 27 12 29 13 30 14 31 72 32 15 33 71 34 16 35
REMARK SMILES IDX 17 36 18 37 65 38 19 39 70 40 64 41 66 42 20 43 69 44 63 45
REMARK SMILES IDX 62 46 21 48 51 49 32 50 50 51 33 52 36 53 49 54 67 55 34 56
REMARK SMILES IDX 35 57 48 59 68 60 37 61 22 62 23 63 31 64 24 65 30 66 25 67
REMARK SMILES IDX 26 68 27 69 28 70 29 71 52 72 53 73 61 74 54 75 60 76 55 77
REMARK SMILES IDX 56 78 57 79 58 80 59 81 38 82 39 83 47 84 40 85 46 86 41 87
REMARK SMILES IDX 42 88 43 89 44 90 45 91
REMARK H PARENT 6 5 73 11 10 28 66 47 36 58
REMARK Flexibility Score: inf
ROOT
ATOM      1  C   UNL     1       0.082   0.061   2.990  1.00  0.00     0.117 C 
ENDROOT
BRANCH   1   2
ATOM      2  N   UNL     1       1.481  -0.090   2.631  1.00  0.00    -0.356 N 
ATOM      3  C   UNL     1       2.071  -0.227   1.414  1.00  0.00     0.222 C 
ATOM      4  O   UNL     1       3.299  -0.315   1.361  1.00  0.00    -0.275 OA
ATOM      5  H   UNL     1       2.104  -0.095   3.393  1.00  0.00     0.163 HD
BRANCH   3   6
ATOM      6  C   UNL     1       1.236  -0.283   0.160  1.00  0.00     0.124 C 
BRANCH   6   7
ATOM      7  C   UNL     1       0.803  -1.691  -0.277  1.00  0.00     0.088 C 
ATOM      8  C   UNL     1       1.362  -2.861   0.527  1.00  0.00     0.031 C 
BRANCH   7   9
ATOM      9  N   UNL     1      -0.657  -1.788  -0.335  1.00  0.00    -0.352 N 
ATOM     10  C   UNL     1      -1.462  -1.884  -1.437  1.00  0.00     0.242 C 
ATOM     11  H   UNL     1      -1.120  -1.783   0.534  1.00  0.00     0.163 HD
ATOM     12  O   UNL     1      -2.679  -1.977  -1.261  1.00  0.00    -0.273 OA
BRANCH  10  13
ATOM     13  C   UNL     1      -0.846  -1.985  -2.827  1.00  0.00     0.249 C 
BRANCH  13  14
ATOM     14  N   UNL     1      -0.084  -0.826  -3.224  1.00  0.00    -0.203 N 
ATOM     15  N   UNL     1      -0.205   0.414  -2.629  1.00  0.00    -0.149 NA
ATOM     16  C   UNL     1       0.745  -0.749  -4.352  1.00  0.00     0.350 A 
ATOM     17  C   UNL     1       0.526   1.176  -3.377  1.00  0.00     0.161 A 
ATOM     18  N   UNL     1       1.105   0.570  -4.438  1.00  0.00    -0.250 N 
ATOM     19  O   UNL     1       1.051  -1.661  -5.114  1.00  0.00    -0.246 OA
ATOM     20  C   UNL     1       0.758   2.614  -3.219  1.00  0.00     0.050 A 
ATOM     21  C   UNL     1       1.818   1.223  -5.404  1.00  0.00     0.098 A 
ATOM     22  C   UNL     1       1.173   3.272  -4.312  1.00  0.00     0.005 A 
ATOM     23  C   UNL     1       1.851   2.564  -5.378  1.00  0.00     0.019 A 
ENDBRANCH  13  14
ENDBRANCH  10  13
ENDBRANCH   7   9
ENDBRANCH   6   7
ENDBRANCH   3   6
ENDBRANCH   1   2
BRANCH   1  24
ATOM     24  C   UNL     1      -0.566  -1.236   3.466  1.00  0.00     0.042 C 
BRANCH  24  25
ATOM     25  C   UNL     1       0.205  -1.978   4.556  1.00  0.00     0.118 C 
BRANCH  25  26
ATOM     26  N   UNL     1       0.298  -1.215   5.790  1.00  0.00    -0.352 N 
ATOM     27  C   UNL     1      -0.166  -1.514   7.047  1.00  0.00     0.251 C 
ATOM     28  H   UNL     1       0.766  -0.352   5.712  1.00  0.00     0.163 HD
ATOM     29  O   UNL     1      -0.159  -0.643   7.913  1.00  0.00    -0.269 OA
BRANCH  27  30
ATOM     30  C   UNL     1      -0.693  -2.863   7.357  1.00  0.00     0.039 A 
ATOM     31  C   UNL     1      -1.870  -2.968   8.102  1.00  0.00     0.014 A 
ATOM     32  C   UNL     1      -0.022  -4.018   6.946  1.00  0.00     0.014 A 
ATOM     33  C   UNL     1      -2.410  -4.227   8.376  1.00  0.00     0.010 A 
ATOM     34  C   UNL     1      -0.596  -5.271   7.164  1.00  0.00     0.010 A 
ATOM     35  C   UNL     1      -1.798  -5.389   7.877  1.00  0.00    -0.014 A 
BRANCH  35  36
ATOM     36  C   UNL     1      -2.425  -6.725   8.060  1.00  0.00     0.031 A 
ATOM     37  C   UNL     1      -1.747  -7.789   8.878  1.00  0.00     0.074 A 
ATOM     38  C   UNL     1      -3.587  -6.999   7.433  1.00  0.00     0.049 A 
ATOM     39  N   UNL     1      -2.129  -9.020   9.108  1.00  0.00    -0.248 NA
ATOM     40  C   UNL     1      -0.464  -7.432   9.503  1.00  0.00     0.031 C 
ATOM     41  C   UNL     1      -4.330  -6.065   6.583  1.00  0.00     0.029 A 
ATOM     42  N   UNL     1      -4.345  -8.143   7.409  1.00  0.00    -0.354 N 
ATOM     43  C   UNL     1      -1.132  -9.588   9.893  1.00  0.00     0.074 A 
ATOM     44  C   UNL     1      -0.107  -8.580  10.062  1.00  0.00     0.031 C 
ATOM     45  C   UNL     1      -5.448  -6.665   6.144  1.00  0.00     0.029 A 
ATOM     46  C   UNL     1      -5.481  -8.037   6.640  1.00  0.00     0.049 A 
ATOM     47  H   UNL     1      -4.099  -8.963   7.895  1.00  0.00     0.167 HD
ATOM     48  C   UNL     1      -1.081 -10.829  10.436  1.00  0.00     0.031 A 
ATOM     49  C   UNL     1      -6.438  -8.941   6.356  1.00  0.00     0.031 A 
ATOM     50  C   UNL     1      -2.101 -11.831  10.262  1.00  0.00     0.049 A 
ATOM     51  C   UNL     1      -6.342 -10.322   6.940  1.00  0.00     0.074 A 
ATOM     52  C   UNL     1      -2.166 -13.097  10.819  1.00  0.00     0.029 A 
ATOM     53  N   UNL     1      -3.226 -11.689   9.464  1.00  0.00    -0.354 N 
ATOM     54  N   UNL     1      -5.428 -10.816   7.740  1.00  0.00    -0.248 NA
ATOM     55  C   UNL     1      -7.411 -11.267   6.587  1.00  0.00     0.031 C 
ATOM     56  C   UNL     1      -3.299 -13.742  10.310  1.00  0.00     0.029 A 
ATOM     57  C   UNL     1      -3.972 -12.856   9.483  1.00  0.00     0.049 A 
ATOM     58  H   UNL     1      -3.460 -10.878   8.958  1.00  0.00     0.167 HD
ATOM     59  C   UNL     1      -5.819 -12.125   8.000  1.00  0.00     0.074 A 
ATOM     60  C   UNL     1      -7.063 -12.338   7.288  1.00  0.00     0.031 C 
ATOM     61  C   UNL     1      -5.201 -13.064   8.758  1.00  0.00     0.031 A 
BRANCH  48  62
ATOM     62  C   UNL     1       0.132 -11.177  11.260  1.00  0.00    -0.014 A 
ATOM     63  C   UNL     1       0.359 -10.578  12.512  1.00  0.00     0.010 A 
ATOM     64  C   UNL     1       1.044 -12.141  10.790  1.00  0.00     0.010 A 
ATOM     65  C   UNL     1       1.499 -10.897  13.255  1.00  0.00     0.020 A 
ATOM     66  C   UNL     1       2.170 -12.486  11.544  1.00  0.00     0.020 A 
ATOM     67  C   UNL     1       2.401 -11.845  12.763  1.00  0.00     0.054 A 
BRANCH  67  68
ATOM     68  S   UNL     1       3.871 -12.242  13.750  1.00  0.00     0.124 S 
ATOM     69  O   UNL     1       4.684 -11.041  13.572  1.00  0.00    -0.237 OA
ATOM     70  O   UNL     1       3.317 -12.432  15.088  1.00  0.00    -0.237 OA
ATOM     71  O   UNL     1       4.397 -13.449  13.119  1.00  0.00    -0.744 OA
ENDBRANCH  67  68
ENDBRANCH  48  62
BRANCH  49  72
ATOM     72  C   UNL     1      -7.576  -8.558   5.477  1.00  0.00    -0.014 A 
ATOM     73  C   UNL     1      -8.865  -8.393   6.013  1.00  0.00     0.010 A 
ATOM     74  C   UNL     1      -7.371  -8.325   4.104  1.00  0.00     0.010 A 
ATOM     75  C   UNL     1      -9.930  -8.010   5.192  1.00  0.00     0.020 A 
ATOM     76  C   UNL     1      -8.427  -7.914   3.286  1.00  0.00     0.020 A 
ATOM     77  C   UNL     1      -9.702  -7.767   3.834  1.00  0.00     0.054 A 
BRANCH  77  78
ATOM     78  S   UNL     1     -11.086  -7.205   2.804  1.00  0.00     0.124 S 
ATOM     79  O   UNL     1     -11.883  -8.420   2.676  1.00  0.00    -0.237 OA
ATOM     80  O   UNL     1     -11.675  -6.145   3.620  1.00  0.00    -0.237 OA
ATOM     81  O   UNL     1     -10.437  -6.748   1.578  1.00  0.00    -0.744 OA
ENDBRANCH  77  78
ENDBRANCH  49  72
BRANCH  61  82
ATOM     82  C   UNL     1      -5.866 -14.412   8.867  1.00  0.00    -0.014 A 
ATOM     83  C   UNL     1      -5.875 -15.306   7.781  1.00  0.00     0.010 A 
ATOM     84  C   UNL     1      -6.442 -14.810  10.087  1.00  0.00     0.010 A 
ATOM     85  C   UNL     1      -6.473 -16.563   7.906  1.00  0.00     0.020 A 
ATOM     86  C   UNL     1      -7.016 -16.076  10.224  1.00  0.00     0.020 A 
ATOM     87  C   UNL     1      -7.039 -16.941   9.128  1.00  0.00     0.054 A 
BRANCH  87  88
ATOM     88  S   UNL     1      -7.764 -18.597   9.277  1.00  0.00     0.124 S 
ATOM     89  O   UNL     1      -8.996 -18.460   8.506  1.00  0.00    -0.237 OA
ATOM     90  O   UNL     1      -6.740 -19.451   8.681  1.00  0.00    -0.237 OA
ATOM     91  O   UNL     1      -7.947 -18.767  10.717  1.00  0.00    -0.744 OA
ENDBRANCH  87  88
ENDBRANCH  61  82
ENDBRANCH  35  36
ENDBRANCH  27  30
ENDBRANCH  25  26
ENDBRANCH  24  25
ENDBRANCH   1  24
TORSDOF 17
