REMARK SMILES Cc1ccccc1NC(=O)CSc1nc(C(=O)NCCCNC(=O)c2ccc(-c3c4nc(c(-c5ccc(S(=O)(=O)[O-])cc5)c5ccc([nH]5)c(-c5ccc(S(=O)(=O)[O-])cc5)c5nc(c(-c6ccc(S(=O)(=O)[O-])cc6)c6ccc3[nH]6)C=C5)C=C4)cc2)c2ccccc2n1
REMARK SMILES IDX 19 1 18 2 16 3 17 4 15 6 13 7 14 8 91 9 90 10 85 11 89 12
REMARK SMILES IDX 86 13 88 14 87 15 12 16 11 17 9 18 8 19 10 21 7 22 1 23 2 24
REMARK SMILES IDX 3 25 4 26 6 27 5 28 20 29 21 30 22 31 23 32 24 34 25 35
REMARK SMILES IDX 26 36 84 37 27 38 83 39 28 40 29 41 30 42 77 43 31 44 82 45
REMARK SMILES IDX 76 46 78 47 32 48 81 49 75 50 74 51 33 53 63 54 44 55 62 56
REMARK SMILES IDX 45 57 48 58 61 59 79 60 46 61 47 62 60 64 80 65 49 66 34 67
REMARK SMILES IDX 35 68 43 69 36 70 42 71 37 72 38 73 39 74 40 75 41 76 64 77
REMARK SMILES IDX 65 78 73 79 66 80 72 81 67 82 68 83 69 84 70 85 71 86 50 87
REMARK SMILES IDX 51 88 59 89 52 90 58 91 53 92 54 93 55 94 56 95 57 96
REMARK H PARENT 18 5 8 20 22 33 78 52 48 63
REMARK Flexibility Score: inf
ROOT
ATOM      1  C   UNL     1      -0.594   7.461  -6.728  1.00  0.00     0.118 C 
ENDROOT
BRANCH   1   2
ATOM      2  N   UNL     1      -0.709   7.795  -5.315  1.00  0.00    -0.351 N 
ATOM      3  C   UNL     1      -0.561   7.090  -4.141  1.00  0.00     0.270 C 
ATOM      4  O   UNL     1      -0.590   7.736  -3.089  1.00  0.00    -0.267 OA
ATOM      5  H   UNL     1      -0.945   8.739  -5.165  1.00  0.00     0.163 HD
BRANCH   3   6
ATOM      6  C   UNL     1      -0.500   5.591  -4.057  1.00  0.00     0.140 A 
ATOM      7  C   UNL     1      -1.441   3.803  -2.995  1.00  0.00     0.189 A 
ATOM      8  N   UNL     1      -1.294   5.118  -3.063  1.00  0.00    -0.217 NA
ATOM      9  N   UNL     1      -0.985   2.937  -3.904  1.00  0.00    -0.222 NA
ATOM     10  C   UNL     1      -0.184   3.416  -4.859  1.00  0.00     0.076 A 
ATOM     11  C   UNL     1       0.216   4.753  -4.920  1.00  0.00     0.032 A 
ATOM     12  C   UNL     1       0.260   2.542  -5.843  1.00  0.00     0.029 A 
ATOM     13  C   UNL     1       1.254   5.112  -5.818  1.00  0.00     0.013 A 
ATOM     14  C   UNL     1       1.146   2.947  -6.843  1.00  0.00     0.002 A 
ATOM     15  C   UNL     1       1.678   4.226  -6.806  1.00  0.00     0.001 A 
BRANCH   7  16
ATOM     16  S   UNL     1      -2.349   3.132  -1.638  1.00  0.00    -0.076 SA
BRANCH  16  17
ATOM     17  C   UNL     1      -1.440   3.889  -0.254  1.00  0.00     0.178 C 
BRANCH  17  18
ATOM     18  C   UNL     1       0.038   3.558  -0.221  1.00  0.00     0.234 C 
ATOM     19  N   UNL     1       0.570   2.320  -0.024  1.00  0.00    -0.325 N 
ATOM     20  H   UNL     1       1.554   2.340  -0.014  1.00  0.00     0.169 HD
ATOM     21  O   UNL     1       0.870   4.469  -0.341  1.00  0.00    -0.274 OA
BRANCH  19  22
ATOM     22  C   UNL     1       0.069   1.018   0.169  1.00  0.00     0.044 A 
ATOM     23  C   UNL     1       2.441   0.018  -0.172  1.00  0.00     0.046 C 
ATOM     24  C   UNL     1       0.950  -0.082   0.038  1.00  0.00    -0.027 A 
ATOM     25  C   UNL     1       0.429  -1.393   0.072  1.00  0.00     0.005 A 
ATOM     26  C   UNL     1      -0.925  -1.626   0.283  1.00  0.00     0.000 A 
ATOM     27  C   UNL     1      -1.270   0.754   0.472  1.00  0.00     0.026 A 
ATOM     28  C   UNL     1      -1.769  -0.551   0.510  1.00  0.00     0.002 A 
ENDBRANCH  19  22
ENDBRANCH  17  18
ENDBRANCH  16  17
ENDBRANCH   7  16
ENDBRANCH   3   6
ENDBRANCH   1   2
BRANCH   1  29
ATOM     29  C   UNL     1      -1.905   7.434  -7.481  1.00  0.00     0.042 C 
BRANCH  29  30
ATOM     30  C   UNL     1      -1.909   8.446  -8.614  1.00  0.00     0.118 C 
BRANCH  30  31
ATOM     31  N   UNL     1      -1.104   8.078  -9.784  1.00  0.00    -0.352 N 
ATOM     32  C   UNL     1      -1.156   8.663 -11.048  1.00  0.00     0.251 C 
ATOM     33  H   UNL     1      -0.461   7.343  -9.664  1.00  0.00     0.163 HD
ATOM     34  O   UNL     1      -0.534   8.249 -12.006  1.00  0.00    -0.269 OA
BRANCH  32  35
ATOM     35  C   UNL     1      -1.988   9.882 -11.150  1.00  0.00     0.039 A 
ATOM     36  C   UNL     1      -1.326  11.098 -10.944  1.00  0.00     0.014 A 
ATOM     37  C   UNL     1      -3.350   9.738 -10.908  1.00  0.00     0.014 A 
ATOM     38  C   UNL     1      -1.974  12.102 -10.237  1.00  0.00     0.010 A 
ATOM     39  C   UNL     1      -3.955  10.697 -10.118  1.00  0.00     0.010 A 
ATOM     40  C   UNL     1      -3.237  11.837  -9.714  1.00  0.00    -0.014 A 
BRANCH  40  41
ATOM     41  C   UNL     1      -3.856  12.646  -8.669  1.00  0.00     0.031 A 
ATOM     42  C   UNL     1      -5.050  13.454  -9.021  1.00  0.00     0.074 A 
ATOM     43  C   UNL     1      -3.404  12.616  -7.391  1.00  0.00     0.049 A 
ATOM     44  N   UNL     1      -5.503  14.437  -8.319  1.00  0.00    -0.248 NA
ATOM     45  C   UNL     1      -5.786  13.267 -10.274  1.00  0.00     0.031 C 
ATOM     46  C   UNL     1      -4.099  13.136  -6.212  1.00  0.00     0.029 A 
ATOM     47  N   UNL     1      -2.129  12.304  -6.901  1.00  0.00    -0.354 N 
ATOM     48  C   UNL     1      -6.740  14.759  -8.823  1.00  0.00     0.074 A 
ATOM     49  C   UNL     1      -6.799  14.121 -10.112  1.00  0.00     0.031 C 
ATOM     50  C   UNL     1      -3.194  13.404  -5.258  1.00  0.00     0.029 A 
ATOM     51  C   UNL     1      -1.885  13.215  -5.856  1.00  0.00     0.049 A 
ATOM     52  H   UNL     1      -1.528  11.593  -7.221  1.00  0.00     0.167 HD
ATOM     53  C   UNL     1      -7.642  15.387  -8.019  1.00  0.00     0.031 A 
ATOM     54  C   UNL     1      -0.899  14.162  -5.871  1.00  0.00     0.031 A 
ATOM     55  C   UNL     1      -6.989  15.953  -6.837  1.00  0.00     0.049 A 
ATOM     56  C   UNL     1      -1.426  15.579  -5.721  1.00  0.00     0.074 A 
ATOM     57  C   UNL     1      -6.975  15.619  -5.495  1.00  0.00     0.029 A 
ATOM     58  N   UNL     1      -5.957  16.872  -7.022  1.00  0.00    -0.354 N 
ATOM     59  N   UNL     1      -2.681  15.911  -5.863  1.00  0.00    -0.248 NA
ATOM     60  C   UNL     1      -0.580  16.738  -5.440  1.00  0.00     0.031 C 
ATOM     61  C   UNL     1      -5.845  16.252  -4.902  1.00  0.00     0.029 A 
ATOM     62  C   UNL     1      -5.207  17.009  -5.871  1.00  0.00     0.049 A 
ATOM     63  H   UNL     1      -5.787  17.358  -7.861  1.00  0.00     0.167 HD
ATOM     64  C   UNL     1      -2.827  17.267  -5.716  1.00  0.00     0.074 A 
ATOM     65  C   UNL     1      -1.482  17.737  -5.433  1.00  0.00     0.031 C 
ATOM     66  C   UNL     1      -4.038  17.887  -5.856  1.00  0.00     0.031 A 
BRANCH  53  67
ATOM     67  C   UNL     1      -9.147  15.255  -8.191  1.00  0.00    -0.014 A 
ATOM     68  C   UNL     1     -10.018  15.759  -7.201  1.00  0.00     0.010 A 
ATOM     69  C   UNL     1      -9.767  14.529  -9.230  1.00  0.00     0.010 A 
ATOM     70  C   UNL     1     -11.406  15.516  -7.234  1.00  0.00     0.020 A 
ATOM     71  C   UNL     1     -11.147  14.299  -9.290  1.00  0.00     0.020 A 
ATOM     72  C   UNL     1     -11.962  14.778  -8.278  1.00  0.00     0.054 A 
BRANCH  72  73
ATOM     73  S   UNL     1     -13.736  14.414  -8.295  1.00  0.00     0.124 S 
ATOM     74  O   UNL     1     -13.895  13.577  -7.108  1.00  0.00    -0.237 OA
ATOM     75  O   UNL     1     -14.335  15.743  -8.217  1.00  0.00    -0.237 OA
ATOM     76  O   UNL     1     -13.937  13.721  -9.567  1.00  0.00    -0.744 OA
ENDBRANCH  72  73
ENDBRANCH  53  67
BRANCH  54  77
ATOM     77  C   UNL     1       0.325  13.773  -6.625  1.00  0.00    -0.014 A 
ATOM     78  C   UNL     1       1.131  12.760  -6.066  1.00  0.00     0.010 A 
ATOM     79  C   UNL     1       0.442  14.056  -7.997  1.00  0.00     0.010 A 
ATOM     80  C   UNL     1       1.886  11.919  -6.886  1.00  0.00     0.020 A 
ATOM     81  C   UNL     1       1.206  13.216  -8.822  1.00  0.00     0.020 A 
ATOM     82  C   UNL     1       1.859  12.111  -8.267  1.00  0.00     0.054 A 
BRANCH  82  83
ATOM     83  S   UNL     1       2.484  10.764  -9.320  1.00  0.00     0.124 S 
ATOM     84  O   UNL     1       3.898  10.720  -8.967  1.00  0.00    -0.237 OA
ATOM     85  O   UNL     1       1.683   9.629  -8.859  1.00  0.00    -0.237 OA
ATOM     86  O   UNL     1       2.183  11.228 -10.670  1.00  0.00    -0.744 OA
ENDBRANCH  82  83
ENDBRANCH  54  77
BRANCH  66  87
ATOM     87  C   UNL     1      -4.267  19.384  -5.933  1.00  0.00    -0.014 A 
ATOM     88  C   UNL     1      -3.279  20.323  -6.270  1.00  0.00     0.010 A 
ATOM     89  C   UNL     1      -5.585  19.881  -5.777  1.00  0.00     0.010 A 
ATOM     90  C   UNL     1      -3.574  21.693  -6.373  1.00  0.00     0.020 A 
ATOM     91  C   UNL     1      -5.900  21.236  -5.926  1.00  0.00     0.020 A 
ATOM     92  C   UNL     1      -4.882  22.141  -6.195  1.00  0.00     0.054 A 
BRANCH  92  93
ATOM     93  S   UNL     1      -5.263  23.901  -6.388  1.00  0.00     0.124 S 
ATOM     94  O   UNL     1      -5.008  24.414  -5.045  1.00  0.00    -0.237 OA
ATOM     95  O   UNL     1      -4.314  24.333  -7.413  1.00  0.00    -0.237 OA
ATOM     96  O   UNL     1      -6.662  23.904  -6.807  1.00  0.00    -0.744 OA
ENDBRANCH  92  93
ENDBRANCH  66  87
ENDBRANCH  40  41
ENDBRANCH  32  35
ENDBRANCH  30  31
ENDBRANCH  29  30
ENDBRANCH   1  29
TORSDOF 17
