REMARK SMILES Cc1ccc(-c2cc(OCC(=O)NCCCNC(=O)c3ccc(-c4c5nc(c(-c6ccc(S(=O)(=O)[O-])cc6)c6ccc([nH]6)c(-c6ccc(S(=O)(=O)[O-])cc6)c6nc(c(-c7ccc(S(=O)(=O)[O-])cc7)c7ccc4[nH]7)C=C6)C=C5)cc3)nc(NCc3ccc4c(c3)OCO4)n2)cc1
REMARK SMILES IDX 14 1 13 2 11 3 12 4 10 6 9 7 8 8 6 9 7 10 93 11 81 12 80 13
REMARK SMILES IDX 5 14 1 15 2 16 3 17 95 18 4 19 94 20 82 21 83 23 84 24 85 25
REMARK SMILES IDX 89 26 86 27 88 28 87 29 90 30 92 31 91 32 15 33 16 34 17 35
REMARK SMILES IDX 18 36 19 38 20 39 21 40 79 41 22 42 78 43 23 44 24 45 25 46
REMARK SMILES IDX 72 47 26 48 77 49 71 50 73 51 27 52 76 53 70 54 69 55 28 57
REMARK SMILES IDX 58 58 39 59 57 60 40 61 43 62 56 63 74 64 41 65 42 66 55 68
REMARK SMILES IDX 75 69 44 70 29 71 30 72 38 73 31 74 37 75 32 76 33 77 34 78
REMARK SMILES IDX 35 79 36 80 59 81 60 82 68 83 61 84 67 85 62 86 63 87 64 88
REMARK SMILES IDX 65 89 66 90 45 91 46 92 54 93 47 94 53 95 48 96 49 97 50 98
REMARK SMILES IDX 51 99 52 100
REMARK H PARENT 13 5 82 22 17 37 73 56 43 67
REMARK Flexibility Score: inf
ROOT
ATOM      1  C   UNL     1      -7.010   4.335  -2.447  1.00  0.00     0.117 C 
ENDROOT
BRANCH   1   2
ATOM      2  N   UNL     1      -5.559   4.211  -2.432  1.00  0.00    -0.353 N 
ATOM      3  C   UNL     1      -4.779   3.138  -2.750  1.00  0.00     0.258 C 
ATOM      4  O   UNL     1      -3.551   3.257  -2.737  1.00  0.00    -0.271 OA
ATOM      5  H   UNL     1      -5.071   5.018  -2.152  1.00  0.00     0.163 HD
BRANCH   3   6
ATOM      6  C   UNL     1      -5.426   1.801  -3.124  1.00  0.00     0.331 C 
BRANCH   6   7
ATOM      7  O   UNL     1      -6.012   1.077  -2.058  1.00  0.00    -0.467 OA
BRANCH   7   8
ATOM      8  C   UNL     1      -5.196   0.612  -1.066  1.00  0.00     0.219 A 
ATOM      9  C   UNL     1      -3.196   0.003  -0.024  1.00  0.00     0.080 A 
ATOM     10  C   UNL     1      -3.831   0.509  -1.140  1.00  0.00     0.097 A 
ATOM     11  N   UNL     1      -3.869  -0.427   1.062  1.00  0.00    -0.213 NA
ATOM     12  C   UNL     1      -5.195  -0.267   1.053  1.00  0.00     0.226 A 
ATOM     13  N   UNL     1      -5.883   0.236   0.023  1.00  0.00    -0.177 NA
BRANCH   9  14
ATOM     14  C   UNL     1      -1.730  -0.040   0.050  1.00  0.00     0.000 A 
ATOM     15  C   UNL     1       2.599  -0.113   0.089  1.00  0.00     0.044 C 
ATOM     16  C   UNL     1       1.100  -0.083   0.091  1.00  0.00    -0.051 A 
ATOM     17  C   UNL     1       0.367  -1.273   0.178  1.00  0.00     0.004 A 
ATOM     18  C   UNL     1       0.412   1.129  -0.005  1.00  0.00     0.004 A 
ATOM     19  C   UNL     1      -1.034  -1.251   0.167  1.00  0.00     0.010 A 
ATOM     20  C   UNL     1      -0.984   1.149  -0.027  1.00  0.00     0.010 A 
ENDBRANCH   9  14
BRANCH  12  21
ATOM     21  N   UNL     1      -5.951  -0.607   2.141  1.00  0.00    -0.350 N 
ATOM     22  H   UNL     1      -6.831  -0.182   2.259  1.00  0.00     0.164 HD
BRANCH  21  23
ATOM     23  C   UNL     1      -5.505  -1.563   3.117  1.00  0.00     0.152 C 
BRANCH  23  24
ATOM     24  C   UNL     1      -5.811  -3.000   2.724  1.00  0.00    -0.025 A 
ATOM     25  C   UNL     1      -5.207  -4.047   3.464  1.00  0.00     0.009 A 
ATOM     26  C   UNL     1      -6.693  -3.330   1.678  1.00  0.00     0.056 A 
ATOM     27  C   UNL     1      -5.443  -5.391   3.151  1.00  0.00     0.051 A 
ATOM     28  C   UNL     1      -6.894  -4.662   1.382  1.00  0.00     0.166 A 
ATOM     29  C   UNL     1      -6.282  -5.664   2.095  1.00  0.00     0.165 A 
ATOM     30  O   UNL     1      -7.680  -5.141   0.381  1.00  0.00    -0.454 OA
ATOM     31  O   UNL     1      -6.603  -6.901   1.628  1.00  0.00    -0.454 OA
ATOM     32  C   UNL     1      -7.406  -6.551   0.481  1.00  0.00     0.468 C 
ENDBRANCH  23  24
ENDBRANCH  21  23
ENDBRANCH  12  21
ENDBRANCH   7   8
ENDBRANCH   6   7
ENDBRANCH   3   6
ENDBRANCH   1   2
BRANCH   1  33
ATOM     33  C   UNL     1      -7.669   3.902  -1.143  1.00  0.00     0.042 C 
BRANCH  33  34
ATOM     34  C   UNL     1      -7.332   4.812   0.030  1.00  0.00     0.118 C 
BRANCH  34  35
ATOM     35  N   UNL     1      -8.304   5.864   0.261  1.00  0.00    -0.352 N 
ATOM     36  C   UNL     1      -8.455   6.579   1.452  1.00  0.00     0.251 C 
ATOM     37  H   UNL     1      -8.907   6.093  -0.483  1.00  0.00     0.163 HD
ATOM     38  O   UNL     1      -9.511   6.929   1.880  1.00  0.00    -0.269 OA
BRANCH  36  39
ATOM     39  C   UNL     1      -7.180   7.046   2.062  1.00  0.00     0.039 A 
ATOM     40  C   UNL     1      -6.882   8.412   1.980  1.00  0.00     0.014 A 
ATOM     41  C   UNL     1      -6.226   6.134   2.496  1.00  0.00     0.014 A 
ATOM     42  C   UNL     1      -5.573   8.847   2.206  1.00  0.00     0.010 A 
ATOM     43  C   UNL     1      -4.916   6.554   2.633  1.00  0.00     0.010 A 
ATOM     44  C   UNL     1      -4.575   7.905   2.459  1.00  0.00    -0.014 A 
BRANCH  44  45
ATOM     45  C   UNL     1      -3.142   8.196   2.458  1.00  0.00     0.031 A 
ATOM     46  C   UNL     1      -2.333   8.108   3.701  1.00  0.00     0.074 A 
ATOM     47  C   UNL     1      -2.484   8.410   1.295  1.00  0.00     0.049 A 
ATOM     48  N   UNL     1      -1.179   8.675   3.859  1.00  0.00    -0.248 NA
ATOM     49  C   UNL     1      -2.785   7.396   4.891  1.00  0.00     0.031 C 
ATOM     50  C   UNL     1      -1.043   8.289   1.086  1.00  0.00     0.029 A 
ATOM     51  N   UNL     1      -2.944   8.990   0.114  1.00  0.00    -0.354 N 
ATOM     52  C   UNL     1      -0.610   8.143   4.994  1.00  0.00     0.074 A 
ATOM     53  C   UNL     1      -1.685   7.431   5.649  1.00  0.00     0.031 C 
ATOM     54  C   UNL     1      -0.699   9.040   0.032  1.00  0.00     0.029 A 
ATOM     55  C   UNL     1      -1.884   9.768  -0.385  1.00  0.00     0.049 A 
ATOM     56  H   UNL     1      -3.835   8.877  -0.290  1.00  0.00     0.167 HD
ATOM     57  C   UNL     1       0.737   8.230   5.197  1.00  0.00     0.031 A 
ATOM     58  C   UNL     1      -1.950  11.107  -0.640  1.00  0.00     0.031 A 
ATOM     59  C   UNL     1       1.431   8.973   4.143  1.00  0.00     0.049 A 
ATOM     60  C   UNL     1      -0.889  11.927   0.065  1.00  0.00     0.074 A 
ATOM     61  C   UNL     1       2.304   8.621   3.125  1.00  0.00     0.029 A 
ATOM     62  N   UNL     1       1.101  10.298   3.915  1.00  0.00    -0.354 N 
ATOM     63  N   UNL     1       0.035  11.425   0.835  1.00  0.00    -0.248 NA
ATOM     64  C   UNL     1      -0.860  13.392   0.057  1.00  0.00     0.031 C 
ATOM     65  C   UNL     1       2.540   9.768   2.318  1.00  0.00     0.029 A 
ATOM     66  C   UNL     1       1.795  10.809   2.836  1.00  0.00     0.049 A 
ATOM     67  H   UNL     1       0.454  10.810   4.454  1.00  0.00     0.167 HD
ATOM     68  C   UNL     1       0.688  12.438   1.485  1.00  0.00     0.074 A 
ATOM     69  C   UNL     1       0.118  13.655   0.942  1.00  0.00     0.031 C 
ATOM     70  C   UNL     1       1.598  12.200   2.471  1.00  0.00     0.031 A 
BRANCH  57  71
ATOM     71  C   UNL     1       1.481   7.423   6.246  1.00  0.00    -0.014 A 
ATOM     72  C   UNL     1       2.844   7.112   6.054  1.00  0.00     0.010 A 
ATOM     73  C   UNL     1       0.896   6.913   7.419  1.00  0.00     0.010 A 
ATOM     74  C   UNL     1       3.540   6.239   6.903  1.00  0.00     0.020 A 
ATOM     75  C   UNL     1       1.565   6.007   8.258  1.00  0.00     0.020 A 
ATOM     76  C   UNL     1       2.881   5.659   7.981  1.00  0.00     0.054 A 
BRANCH  76  77
ATOM     77  S   UNL     1       3.756   4.445   9.000  1.00  0.00     0.124 S 
ATOM     78  O   UNL     1       4.195   3.462   8.013  1.00  0.00    -0.237 OA
ATOM     79  O   UNL     1       4.816   5.247   9.605  1.00  0.00    -0.237 OA
ATOM     80  O   UNL     1       2.732   3.969   9.928  1.00  0.00    -0.744 OA
ENDBRANCH  76  77
ENDBRANCH  57  71
BRANCH  58  81
ATOM     81  C   UNL     1      -3.317  11.588  -0.973  1.00  0.00    -0.014 A 
ATOM     82  C   UNL     1      -3.851  11.187  -2.215  1.00  0.00     0.010 A 
ATOM     83  C   UNL     1      -4.188  11.994   0.053  1.00  0.00     0.010 A 
ATOM     84  C   UNL     1      -5.226  11.000  -2.362  1.00  0.00     0.020 A 
ATOM     85  C   UNL     1      -5.569  11.815  -0.098  1.00  0.00     0.020 A 
ATOM     86  C   UNL     1      -6.065  11.244  -1.274  1.00  0.00     0.054 A 
BRANCH  86  87
ATOM     87  S   UNL     1      -7.766  10.608  -1.351  1.00  0.00     0.124 S 
ATOM     88  O   UNL     1      -8.268  11.196  -2.589  1.00  0.00    -0.237 OA
ATOM     89  O   UNL     1      -7.547   9.162  -1.384  1.00  0.00    -0.237 OA
ATOM     90  O   UNL     1      -8.368  11.115  -0.122  1.00  0.00    -0.744 OA
ENDBRANCH  86  87
ENDBRANCH  58  81
BRANCH  70  91
ATOM     91  C   UNL     1       2.351  13.267   3.216  1.00  0.00    -0.014 A 
ATOM     92  C   UNL     1       2.887  14.401   2.586  1.00  0.00     0.010 A 
ATOM     93  C   UNL     1       2.660  13.077   4.583  1.00  0.00     0.010 A 
ATOM     94  C   UNL     1       3.653  15.332   3.303  1.00  0.00     0.020 A 
ATOM     95  C   UNL     1       3.437  13.988   5.302  1.00  0.00     0.020 A 
ATOM     96  C   UNL     1       3.918  15.122   4.659  1.00  0.00     0.054 A 
BRANCH  96  97
ATOM     97  S   UNL     1       4.950  16.312   5.555  1.00  0.00     0.124 S 
ATOM     98  O   UNL     1       6.054  16.541   4.626  1.00  0.00    -0.237 OA
ATOM     99  O   UNL     1       4.033  17.437   5.727  1.00  0.00    -0.237 OA
ATOM    100  O   UNL     1       5.311  15.609   6.782  1.00  0.00    -0.744 OA
ENDBRANCH  96  97
ENDBRANCH  70  91
ENDBRANCH  44  45
ENDBRANCH  36  39
ENDBRANCH  34  35
ENDBRANCH  33  34
ENDBRANCH   1  33
TORSDOF 19
