REMARK SMILES Cc1cccc(CC(=O)N2CCC3(CCC(=O)N([C@H](C)C(=O)NCCCNC(=O)c4ccc(-c5c6nc(c(-c7ccc(S(=O)(=O)[O-])cc7)c7ccc([nH]7)c(-c7ccc(S(=O)(=O)[O-])cc7)c7nc(c(-c8ccc(S(=O)(=O)[O-])cc8)c8ccc5[nH]8)C=C7)C=C6)cc4)C3)CC2)c1
REMARK SMILES IDX 25 1 24 2 23 3 21 4 22 5 19 7 20 8 18 9 8 10 9 11 10 12
REMARK SMILES IDX 11 13 92 14 12 15 91 16 13 17 14 18 90 19 15 20 16 21 17 22
REMARK SMILES IDX 7 23 6 24 1 25 2 26 3 27 93 28 4 29 5 30 26 31 27 32 28 33
REMARK SMILES IDX 29 35 30 36 31 37 89 38 32 39 88 40 33 41 34 42 35 43 82 44
REMARK SMILES IDX 36 45 87 46 81 47 83 48 37 49 86 50 80 51 79 52 38 54 68 55
REMARK SMILES IDX 49 56 67 57 50 58 53 59 66 60 84 61 51 62 52 63 65 65 85 66
REMARK SMILES IDX 54 67 39 68 40 69 48 70 41 71 47 72 42 73 43 74 44 75 45 76
REMARK SMILES IDX 46 77 69 78 70 79 78 80 71 81 77 82 72 83 73 84 74 85 75 86
REMARK SMILES IDX 76 87 55 88 56 89 64 90 57 91 63 92 58 93 59 94 60 95 61 96
REMARK SMILES IDX 62 97
REMARK H PARENT 23 6 27 34 83 53 53 64
REMARK Flexibility Score: inf
ROOT
ATOM      1  C   UNL     1      -1.682   4.446  -8.745  1.00  0.00     0.042 C 
ENDROOT
BRANCH   1   2
ATOM      2  C   UNL     1      -1.091   5.836  -8.845  1.00  0.00     0.117 C 
BRANCH   2   3
ATOM      3  N   UNL     1      -1.486   6.709  -7.750  1.00  0.00    -0.354 N 
ATOM      4  C   UNL     1      -0.718   7.302  -6.786  1.00  0.00     0.242 C 
ATOM      5  O   UNL     1      -1.248   8.124  -6.030  1.00  0.00    -0.273 OA
ATOM      6  H   UNL     1      -2.450   6.902  -7.695  1.00  0.00     0.163 HD
BRANCH   4   7
ATOM      7  C   UNL     1       0.762   6.894  -6.559  1.00  0.00     0.171 C 
ATOM      8  C   UNL     1       0.887   5.405  -6.224  1.00  0.00     0.042 C 
BRANCH   7   9
ATOM      9  N   UNL     1       1.782   7.328  -7.535  1.00  0.00    -0.330 N 
ATOM     10  C   UNL     1       7.946   5.239  -6.975  1.00  0.00     0.226 C 
ATOM     11  O   UNL     1       8.142   4.043  -6.724  1.00  0.00    -0.275 OA
ATOM     12  N   UNL     1       6.847   5.633  -7.723  1.00  0.00    -0.342 N 
ATOM     13  C   UNL     1       5.698   4.739  -7.864  1.00  0.00     0.120 C 
ATOM     14  C   UNL     1       6.684   6.893  -8.428  1.00  0.00     0.120 C 
ATOM     15  C   UNL     1       4.416   5.441  -7.378  1.00  0.00     0.030 C 
ATOM     16  C   UNL     1       5.543   7.667  -7.798  1.00  0.00     0.030 C 
ATOM     17  C   UNL     1       4.216   6.881  -7.943  1.00  0.00    -0.008 C 
ATOM     18  C   UNL     1       3.841   6.870  -9.453  1.00  0.00     0.019 C 
ATOM     19  C   UNL     1       3.135   7.622  -7.115  1.00  0.00     0.127 C 
ATOM     20  C   UNL     1       2.384   6.571  -9.719  1.00  0.00     0.101 C 
ATOM     21  C   UNL     1       1.513   7.467  -8.880  1.00  0.00     0.223 C 
ATOM     22  O   UNL     1       0.605   8.142  -9.338  1.00  0.00    -0.275 OA
BRANCH  10  23
ATOM     23  C   UNL     1       8.809   6.276  -6.250  1.00  0.00     0.135 C 
BRANCH  23  24
ATOM     24  C   UNL     1       9.384   7.430  -7.029  1.00  0.00    -0.038 A 
ATOM     25  C   UNL     1       8.867  11.207  -7.247  1.00  0.00     0.044 C 
ATOM     26  C   UNL     1       9.379   9.824  -7.518  1.00  0.00    -0.051 A 
ATOM     27  C   UNL     1      10.210   9.584  -8.618  1.00  0.00     0.003 A 
ATOM     28  C   UNL     1       8.992   8.746  -6.714  1.00  0.00     0.007 A 
ATOM     29  C   UNL     1      10.649   8.290  -8.907  1.00  0.00     0.001 A 
ATOM     30  C   UNL     1      10.242   7.215  -8.115  1.00  0.00     0.004 A 
ENDBRANCH  23  24
ENDBRANCH  10  23
ENDBRANCH   7   9
ENDBRANCH   4   7
ENDBRANCH   2   3
ENDBRANCH   1   2
BRANCH   1  31
ATOM     31  C   UNL     1      -2.957   4.327  -9.553  1.00  0.00     0.118 C 
BRANCH  31  32
ATOM     32  N   UNL     1      -2.753   3.781 -10.894  1.00  0.00    -0.352 N 
ATOM     33  C   UNL     1      -3.739   3.365 -11.786  1.00  0.00     0.251 C 
ATOM     34  H   UNL     1      -1.821   3.699 -11.199  1.00  0.00     0.163 HD
ATOM     35  O   UNL     1      -3.496   2.809 -12.826  1.00  0.00    -0.269 OA
BRANCH  33  36
ATOM     36  C   UNL     1      -5.126   3.713 -11.399  1.00  0.00     0.039 A 
ATOM     37  C   UNL     1      -5.689   4.835 -12.014  1.00  0.00     0.014 A 
ATOM     38  C   UNL     1      -5.622   3.210 -10.201  1.00  0.00     0.014 A 
ATOM     39  C   UNL     1      -6.627   5.586 -11.314  1.00  0.00     0.010 A 
ATOM     40  C   UNL     1      -6.461   4.023  -9.463  1.00  0.00     0.010 A 
ATOM     41  C   UNL     1      -6.922   5.238  -9.997  1.00  0.00    -0.014 A 
BRANCH  41  42
ATOM     42  C   UNL     1      -7.645   6.108  -9.074  1.00  0.00     0.031 A 
ATOM     43  C   UNL     1      -8.997   5.710  -8.617  1.00  0.00     0.074 A 
ATOM     44  C   UNL     1      -7.098   7.247  -8.586  1.00  0.00     0.049 A 
ATOM     45  N   UNL     1      -9.843   6.523  -8.079  1.00  0.00    -0.248 NA
ATOM     46  C   UNL     1      -9.550   4.368  -8.817  1.00  0.00     0.031 C 
ATOM     47  C   UNL     1      -7.570   8.016  -7.433  1.00  0.00     0.029 A 
ATOM     48  N   UNL     1      -6.145   8.085  -9.168  1.00  0.00    -0.354 N 
ATOM     49  C   UNL     1     -10.851   5.761  -7.548  1.00  0.00     0.074 A 
ATOM     50  C   UNL     1     -10.714   4.469  -8.170  1.00  0.00     0.031 C 
ATOM     51  C   UNL     1      -7.171   9.288  -7.572  1.00  0.00     0.029 A 
ATOM     52  C   UNL     1      -6.550   9.403  -8.877  1.00  0.00     0.049 A 
ATOM     53  H   UNL     1      -5.350   7.810  -9.679  1.00  0.00     0.167 HD
ATOM     54  C   UNL     1     -11.589   6.257  -6.518  1.00  0.00     0.031 A 
ATOM     55  C   UNL     1      -6.861  10.337  -9.824  1.00  0.00     0.031 A 
ATOM     56  C   UNL     1     -11.433   7.705  -6.368  1.00  0.00     0.049 A 
ATOM     57  C   UNL     1      -8.276  10.888  -9.704  1.00  0.00     0.074 A 
ATOM     58  C   UNL     1     -10.967   8.559  -5.384  1.00  0.00     0.029 A 
ATOM     59  N   UNL     1     -11.629   8.496  -7.491  1.00  0.00    -0.354 N 
ATOM     60  N   UNL     1      -9.120  10.575  -8.759  1.00  0.00    -0.248 NA
ATOM     61  C   UNL     1      -8.887  11.751 -10.719  1.00  0.00     0.031 C 
ATOM     62  C   UNL     1     -10.870   9.871  -5.945  1.00  0.00     0.029 A 
ATOM     63  C   UNL     1     -11.309   9.816  -7.254  1.00  0.00     0.049 A 
ATOM     64  H   UNL     1     -11.958   8.156  -8.354  1.00  0.00     0.167 HD
ATOM     65  C   UNL     1     -10.361  11.070  -9.068  1.00  0.00     0.074 A 
ATOM     66  C   UNL     1     -10.160  11.825 -10.291  1.00  0.00     0.031 C 
ATOM     67  C   UNL     1     -11.479  10.765  -8.345  1.00  0.00     0.031 A 
BRANCH  54  68
ATOM     68  C   UNL     1     -12.334   5.378  -5.537  1.00  0.00    -0.014 A 
ATOM     69  C   UNL     1     -13.119   5.958  -4.521  1.00  0.00     0.010 A 
ATOM     70  C   UNL     1     -12.197   3.973  -5.485  1.00  0.00     0.010 A 
ATOM     71  C   UNL     1     -13.713   5.183  -3.508  1.00  0.00     0.020 A 
ATOM     72  C   UNL     1     -12.816   3.185  -4.509  1.00  0.00     0.020 A 
ATOM     73  C   UNL     1     -13.552   3.797  -3.507  1.00  0.00     0.054 A 
BRANCH  73  74
ATOM     74  S   UNL     1     -14.270   2.800  -2.177  1.00  0.00     0.124 S 
ATOM     75  O   UNL     1     -13.452   3.182  -1.029  1.00  0.00    -0.237 OA
ATOM     76  O   UNL     1     -15.657   3.254  -2.147  1.00  0.00    -0.237 OA
ATOM     77  O   UNL     1     -14.083   1.424  -2.637  1.00  0.00    -0.744 OA
ENDBRANCH  73  74
ENDBRANCH  54  68
BRANCH  55  78
ATOM     78  C   UNL     1      -6.111  10.167 -11.101  1.00  0.00    -0.014 A 
ATOM     79  C   UNL     1      -4.719  10.404 -11.069  1.00  0.00     0.010 A 
ATOM     80  C   UNL     1      -6.647   9.393 -12.143  1.00  0.00     0.010 A 
ATOM     81  C   UNL     1      -3.865   9.727 -11.942  1.00  0.00     0.020 A 
ATOM     82  C   UNL     1      -5.791   8.724 -13.029  1.00  0.00     0.020 A 
ATOM     83  C   UNL     1      -4.407   8.840 -12.872  1.00  0.00     0.054 A 
BRANCH  83  84
ATOM     84  S   UNL     1      -3.281   7.682 -13.709  1.00  0.00     0.124 S 
ATOM     85  O   UNL     1      -2.359   8.579 -14.398  1.00  0.00    -0.237 OA
ATOM     86  O   UNL     1      -2.724   6.937 -12.581  1.00  0.00    -0.237 OA
ATOM     87  O   UNL     1      -4.174   6.916 -14.573  1.00  0.00    -0.744 OA
ENDBRANCH  83  84
ENDBRANCH  55  78
BRANCH  67  88
ATOM     88  C   UNL     1     -12.866  11.271  -8.659  1.00  0.00    -0.014 A 
ATOM     89  C   UNL     1     -13.126  12.586  -9.076  1.00  0.00     0.010 A 
ATOM     90  C   UNL     1     -13.987  10.442  -8.415  1.00  0.00     0.010 A 
ATOM     91  C   UNL     1     -14.440  13.034  -9.287  1.00  0.00     0.020 A 
ATOM     92  C   UNL     1     -15.300  10.883  -8.604  1.00  0.00     0.020 A 
ATOM     93  C   UNL     1     -15.519  12.177  -9.054  1.00  0.00     0.054 A 
BRANCH  93  94
ATOM     94  S   UNL     1     -17.209  12.789  -9.284  1.00  0.00     0.124 S 
ATOM     95  O   UNL     1     -17.175  14.082  -8.602  1.00  0.00    -0.237 OA
ATOM     96  O   UNL     1     -17.314  12.850 -10.739  1.00  0.00    -0.237 OA
ATOM     97  O   UNL     1     -18.040  11.774  -8.640  1.00  0.00    -0.744 OA
ENDBRANCH  93  94
ENDBRANCH  67  88
ENDBRANCH  41  42
ENDBRANCH  33  36
ENDBRANCH  31  32
ENDBRANCH   1  31
TORSDOF 16
