REMARK SMILES COC(=O)C[C@@H](NC(=O)c1ccccc1C(=O)NCCCNC(=O)c1ccc(-c2c3nc(c(-c4ccc(S(=O)(=O)[O-])cc4)c4ccc([nH]4)c(-c4ccc(S(=O)(=O)[O-])cc4)c4nc(c(-c5ccc(S(=O)(=O)[O-])cc5)c5ccc2[nH]5)C=C4)C=C3)cc1)c1cccc(C)c1C
REMARK SMILES IDX 19 1 18 2 16 3 17 4 15 6 10 7 11 8 12 9 14 10 13 11 8 12
REMARK SMILES IDX 7 13 9 15 6 16 5 17 3 18 4 19 2 20 1 21 85 22 86 23 91 24
REMARK SMILES IDX 87 25 89 26 92 27 88 28 90 29 20 30 21 31 22 32 23 33 24 35
REMARK SMILES IDX 25 36 26 37 84 38 27 39 83 40 28 41 29 42 30 43 77 44 31 45
REMARK SMILES IDX 82 46 76 47 78 48 32 49 81 50 75 51 74 52 33 54 63 55 44 56
REMARK SMILES IDX 62 57 45 58 48 59 61 60 79 61 46 62 47 63 60 65 80 66 49 67
REMARK SMILES IDX 34 68 35 69 43 70 36 71 42 72 37 73 38 74 39 75 40 76 41 77
REMARK SMILES IDX 64 78 65 79 73 80 66 81 72 82 67 83 68 84 69 85 70 86 71 87
REMARK SMILES IDX 50 88 51 89 59 90 52 91 58 92 53 93 54 94 55 95 56 96 57 97
REMARK H PARENT 18 5 7 14 22 34 78 53 48 64
REMARK Flexibility Score: inf
ROOT
ATOM      1  C   UNL     1       1.096   4.047  -2.050  1.00  0.00     0.118 C 
ENDROOT
BRANCH   1   2
ATOM      2  N   UNL     1       1.814   5.188  -1.520  1.00  0.00    -0.352 N 
ATOM      3  C   UNL     1       1.423   6.409  -1.066  1.00  0.00     0.252 C 
ATOM      4  O   UNL     1       2.338   7.166  -0.725  1.00  0.00    -0.269 OA
ATOM      5  H   UNL     1       2.788   5.052  -1.481  1.00  0.00     0.163 HD
BRANCH   3   6
ATOM      6  C   UNL     1       0.026   6.904  -0.975  1.00  0.00     0.052 A 
ATOM      7  C   UNL     1      -1.147   6.197  -0.691  1.00  0.00     0.052 A 
ATOM      8  C   UNL     1      -2.382   6.884  -0.651  1.00  0.00     0.014 A 
ATOM      9  C   UNL     1      -2.459   8.263  -0.830  1.00  0.00     0.001 A 
ATOM     10  C   UNL     1      -0.077   8.309  -1.133  1.00  0.00     0.014 A 
ATOM     11  C   UNL     1      -1.299   8.982  -1.059  1.00  0.00     0.001 A 
BRANCH   7  12
ATOM     12  C   UNL     1      -1.320   4.750  -0.497  1.00  0.00     0.252 C 
ATOM     13  N   UNL     1      -0.875   4.062   0.594  1.00  0.00    -0.345 N 
ATOM     14  H   UNL     1      -1.337   3.204   0.734  1.00  0.00     0.164 HD
ATOM     15  O   UNL     1      -2.014   4.141  -1.314  1.00  0.00    -0.269 OA
BRANCH  13  16
ATOM     16  C   UNL     1       0.152   4.344   1.600  1.00  0.00     0.124 C 
BRANCH  16  17
ATOM     17  C   UNL     1       0.282   3.185   2.595  1.00  0.00     0.152 C 
BRANCH  17  18
ATOM     18  C   UNL     1       0.807   1.979   1.864  1.00  0.00     0.307 C 
ATOM     19  O   UNL     1       1.953   1.880   1.448  1.00  0.00    -0.252 OA
BRANCH  18  20
ATOM     20  O   UNL     1      -0.201   1.086   1.662  1.00  0.00    -0.469 OA
ATOM     21  C   UNL     1       0.170  -0.102   0.954  1.00  0.00     0.282 C 
ENDBRANCH  18  20
ENDBRANCH  17  18
ENDBRANCH  16  17
BRANCH  16  22
ATOM     22  C   UNL     1      -0.041   5.676   2.307  1.00  0.00    -0.022 A 
ATOM     23  C   UNL     1       1.022   6.596   2.193  1.00  0.00     0.006 A 
ATOM     24  C   UNL     1      -1.203   6.057   3.020  1.00  0.00    -0.043 A 
ATOM     25  C   UNL     1       0.912   7.897   2.660  1.00  0.00     0.001 A 
ATOM     26  C   UNL     1      -1.272   7.365   3.567  1.00  0.00    -0.048 A 
ATOM     27  C   UNL     1      -2.332   5.088   3.275  1.00  0.00     0.045 C 
ATOM     28  C   UNL     1      -0.235   8.283   3.333  1.00  0.00     0.004 A 
ATOM     29  C   UNL     1      -2.458   7.843   4.361  1.00  0.00     0.044 C 
ENDBRANCH  16  22
ENDBRANCH  13  16
ENDBRANCH   7  12
ENDBRANCH   3   6
ENDBRANCH   1   2
BRANCH   1  30
ATOM     30  C   UNL     1       1.955   3.182  -2.954  1.00  0.00     0.042 C 
BRANCH  30  31
ATOM     31  C   UNL     1       3.184   2.605  -2.256  1.00  0.00     0.118 C 
BRANCH  31  32
ATOM     32  N   UNL     1       2.909   1.510  -1.328  1.00  0.00    -0.352 N 
ATOM     33  C   UNL     1       3.008   0.149  -1.518  1.00  0.00     0.251 C 
ATOM     34  H   UNL     1       2.607   1.786  -0.432  1.00  0.00     0.163 HD
ATOM     35  O   UNL     1       2.682  -0.652  -0.648  1.00  0.00    -0.269 OA
BRANCH  33  36
ATOM     36  C   UNL     1       3.472  -0.359  -2.817  1.00  0.00     0.039 A 
ATOM     37  C   UNL     1       2.698  -1.297  -3.503  1.00  0.00     0.014 A 
ATOM     38  C   UNL     1       4.642   0.148  -3.374  1.00  0.00     0.014 A 
ATOM     39  C   UNL     1       3.046  -1.641  -4.808  1.00  0.00     0.010 A 
ATOM     40  C   UNL     1       4.903  -0.085  -4.711  1.00  0.00     0.010 A 
ATOM     41  C   UNL     1       4.116  -0.991  -5.439  1.00  0.00    -0.014 A 
BRANCH  41  42
ATOM     42  C   UNL     1       4.492  -1.253  -6.847  1.00  0.00     0.031 A 
ATOM     43  C   UNL     1       5.894  -1.717  -7.138  1.00  0.00     0.074 A 
ATOM     44  C   UNL     1       3.636  -0.953  -7.844  1.00  0.00     0.049 A 
ATOM     45  N   UNL     1       6.529  -1.767  -8.278  1.00  0.00    -0.248 NA
ATOM     46  C   UNL     1       6.713  -2.108  -5.976  1.00  0.00     0.031 C 
ATOM     47  C   UNL     1       2.269  -0.451  -7.676  1.00  0.00     0.029 A 
ATOM     48  N   UNL     1       3.800  -1.009  -9.204  1.00  0.00    -0.354 N 
ATOM     49  C   UNL     1       7.834  -2.127  -7.959  1.00  0.00     0.074 A 
ATOM     50  C   UNL     1       7.912  -2.226  -6.520  1.00  0.00     0.031 C 
ATOM     51  C   UNL     1       1.710  -0.278  -8.885  1.00  0.00     0.029 A 
ATOM     52  C   UNL     1       2.693  -0.603  -9.911  1.00  0.00     0.049 A 
ATOM     53  H   UNL     1       4.633  -1.312  -9.633  1.00  0.00     0.167 HD
ATOM     54  C   UNL     1       8.868  -2.377  -8.796  1.00  0.00     0.031 A 
ATOM     55  C   UNL     1       2.503  -0.496 -11.240  1.00  0.00     0.031 A 
ATOM     56  C   UNL     1       8.745  -2.343 -10.226  1.00  0.00     0.049 A 
ATOM     57  C   UNL     1       3.643  -0.853 -12.155  1.00  0.00     0.074 A 
ATOM     58  C   UNL     1       9.693  -2.654 -11.182  1.00  0.00     0.029 A 
ATOM     59  N   UNL     1       7.582  -2.001 -10.904  1.00  0.00    -0.354 N 
ATOM     60  N   UNL     1       4.863  -1.222 -11.842  1.00  0.00    -0.248 NA
ATOM     61  C   UNL     1       3.381  -0.788 -13.598  1.00  0.00     0.031 C 
ATOM     62  C   UNL     1       9.109  -2.477 -12.442  1.00  0.00     0.029 A 
ATOM     63  C   UNL     1       7.786  -2.096 -12.267  1.00  0.00     0.049 A 
ATOM     64  H   UNL     1       6.738  -1.730 -10.476  1.00  0.00     0.167 HD
ATOM     65  C   UNL     1       5.510  -1.456 -13.049  1.00  0.00     0.074 A 
ATOM     66  C   UNL     1       4.540  -1.200 -14.096  1.00  0.00     0.031 C 
ATOM     67  C   UNL     1       6.789  -1.843 -13.277  1.00  0.00     0.031 A 
BRANCH  54  68
ATOM     68  C   UNL     1      10.197  -2.715  -8.174  1.00  0.00    -0.014 A 
ATOM     69  C   UNL     1      10.384  -3.914  -7.460  1.00  0.00     0.010 A 
ATOM     70  C   UNL     1      11.275  -1.820  -8.295  1.00  0.00     0.010 A 
ATOM     71  C   UNL     1      11.601  -4.181  -6.827  1.00  0.00     0.020 A 
ATOM     72  C   UNL     1      12.506  -2.100  -7.691  1.00  0.00     0.020 A 
ATOM     73  C   UNL     1      12.652  -3.268  -6.941  1.00  0.00     0.054 A 
BRANCH  73  74
ATOM     74  S   UNL     1      14.223  -3.643  -6.114  1.00  0.00     0.124 S 
ATOM     75  O   UNL     1      13.902  -3.359  -4.718  1.00  0.00    -0.237 OA
ATOM     76  O   UNL     1      14.427  -5.054  -6.436  1.00  0.00    -0.237 OA
ATOM     77  O   UNL     1      15.170  -2.722  -6.737  1.00  0.00    -0.744 OA
ENDBRANCH  73  74
ENDBRANCH  54  68
BRANCH  55  78
ATOM     78  C   UNL     1       1.181  -0.071 -11.776  1.00  0.00    -0.014 A 
ATOM     79  C   UNL     1       0.337  -1.008 -12.401  1.00  0.00     0.010 A 
ATOM     80  C   UNL     1       0.739   1.258 -11.640  1.00  0.00     0.010 A 
ATOM     81  C   UNL     1      -0.914  -0.623 -12.892  1.00  0.00     0.020 A 
ATOM     82  C   UNL     1      -0.523   1.642 -12.108  1.00  0.00     0.020 A 
ATOM     83  C   UNL     1      -1.338   0.700 -12.740  1.00  0.00     0.054 A 
BRANCH  83  84
ATOM     84  S   UNL     1      -2.991   1.162 -13.332  1.00  0.00     0.124 S 
ATOM     85  O   UNL     1      -2.797   1.196 -14.778  1.00  0.00    -0.237 OA
ATOM     86  O   UNL     1      -3.823   0.070 -12.831  1.00  0.00    -0.237 OA
ATOM     87  O   UNL     1      -3.231   2.458 -12.700  1.00  0.00    -0.744 OA
ENDBRANCH  83  84
ENDBRANCH  55  78
BRANCH  67  88
ATOM     88  C   UNL     1       7.198  -2.049 -14.707  1.00  0.00    -0.014 A 
ATOM     89  C   UNL     1       7.450  -0.955 -15.552  1.00  0.00     0.010 A 
ATOM     90  C   UNL     1       7.407  -3.355 -15.184  1.00  0.00     0.010 A 
ATOM     91  C   UNL     1       7.883  -1.165 -16.861  1.00  0.00     0.020 A 
ATOM     92  C   UNL     1       7.863  -3.569 -16.485  1.00  0.00     0.020 A 
ATOM     93  C   UNL     1       8.089  -2.471 -17.319  1.00  0.00     0.054 A 
BRANCH  93  94
ATOM     94  S   UNL     1       8.709  -2.717 -19.005  1.00  0.00     0.124 S 
ATOM     95  O   UNL     1       7.519  -2.452 -19.808  1.00  0.00    -0.237 OA
ATOM     96  O   UNL     1       9.771  -1.719 -19.105  1.00  0.00    -0.237 OA
ATOM     97  O   UNL     1       9.166  -4.105 -19.006  1.00  0.00    -0.744 OA
ENDBRANCH  93  94
ENDBRANCH  67  88
ENDBRANCH  41  42
ENDBRANCH  33  36
ENDBRANCH  31  32
ENDBRANCH  30  31
ENDBRANCH   1  30
TORSDOF 19
