REMARK SMILES C[C@@H]1[C@H](C(=O)NCCCNC(=O)c2ccc(-c3c4nc(c(-c5ccc(S(=O)(=O)[O-])cc5)c5ccc([nH]5)c(-c5ccc(S(=O)(=O)[O-])cc5)c5nc(c(-c6ccc(S(=O)(=O)[O-])cc6)c6ccc3[nH]6)C=C5)C=C4)cc2)CC[N@@H+]1Cc1cnn(-c2ccccc2)c1
REMARK SMILES IDX 8 1 7 2 6 3 4 4 5 5 3 7 1 8 2 9 75 10 73 11 74 12 76 14
REMARK SMILES IDX 77 15 78 16 87 17 79 18 80 19 81 20 82 21 86 22 83 23 85 24
REMARK SMILES IDX 84 25 9 26 10 27 11 28 12 30 13 31 14 32 72 33 15 34 71 35
REMARK SMILES IDX 16 36 17 37 18 38 65 39 19 40 70 41 64 42 66 43 20 44 69 45
REMARK SMILES IDX 63 46 62 47 21 49 51 50 32 51 50 52 33 53 36 54 49 55 67 56
REMARK SMILES IDX 34 57 35 58 48 60 68 61 37 62 22 63 23 64 31 65 24 66 30 67
REMARK SMILES IDX 25 68 26 69 27 70 28 71 29 72 52 73 53 74 61 75 54 76 60 77
REMARK SMILES IDX 55 78 56 79 57 80 58 81 59 82 38 83 39 84 47 85 40 86 46 87
REMARK SMILES IDX 41 88 42 89 43 90 44 91 45 92
REMARK H PARENT 6 6 75 13 10 29 66 48 36 59
REMARK Flexibility Score: inf
ROOT
ATOM      1  C   UNL     1       2.663   1.688   2.559  1.00  0.00     0.042 C 
ENDROOT
BRANCH   1   2
ATOM      2  C   UNL     1       1.241   2.040   2.137  1.00  0.00     0.117 C 
BRANCH   2   3
ATOM      3  N   UNL     1       1.206   2.739   0.865  1.00  0.00    -0.356 N 
ATOM      4  C   UNL     1       0.687   2.418  -0.345  1.00  0.00     0.229 C 
ATOM      5  O   UNL     1       0.902   3.225  -1.259  1.00  0.00    -0.275 OA
ATOM      6  H   UNL     1       1.646   3.620   0.885  1.00  0.00     0.163 HD
BRANCH   4   7
ATOM      7  C   UNL     1      -0.132   1.169  -0.640  1.00  0.00     0.142 C 
ATOM      8  C   UNL     1       2.026  -0.297  -0.373  1.00  0.00     0.076 C 
ATOM      9  C   UNL     1       0.564  -0.199  -0.772  1.00  0.00     0.193 C 
ATOM     10  N   UNL     1      -0.378  -1.148  -0.176  1.00  0.00    -0.328 N 
ATOM     11  C   UNL     1      -1.369   0.937   0.221  1.00  0.00     0.081 C 
ATOM     12  C   UNL     1      -1.678  -0.533   0.004  1.00  0.00     0.263 C 
ATOM     13  H   UNL     1      -0.415  -1.876  -0.890  1.00  0.00     0.348 HD
BRANCH  10  14
ATOM     14  C   UNL     1       0.013  -2.259   0.667  1.00  0.00     0.302 C 
BRANCH  14  15
ATOM     15  C   UNL     1       0.253  -1.886   2.092  1.00  0.00     0.045 A 
ATOM     16  C   UNL     1      -0.689  -1.566   3.092  1.00  0.00     0.145 A 
ATOM     17  C   UNL     1       1.451  -1.882   2.780  1.00  0.00     0.124 A 
ATOM     18  N   UNL     1      -0.140  -1.351   4.286  1.00  0.00    -0.176 NA
ATOM     19  N   UNL     1       1.190  -1.533   4.089  1.00  0.00    -0.240 N 
BRANCH  19  20
ATOM     20  C   UNL     1       2.124  -1.330   5.138  1.00  0.00     0.065 A 
ATOM     21  C   UNL     1       1.672  -1.175   6.458  1.00  0.00     0.028 A 
ATOM     22  C   UNL     1       3.492  -1.250   4.865  1.00  0.00     0.028 A 
ATOM     23  C   UNL     1       2.584  -0.960   7.494  1.00  0.00     0.002 A 
ATOM     24  C   UNL     1       4.387  -1.003   5.902  1.00  0.00     0.002 A 
ATOM     25  C   UNL     1       3.944  -0.873   7.214  1.00  0.00     0.000 A 
ENDBRANCH  19  20
ENDBRANCH  14  15
ENDBRANCH  10  14
ENDBRANCH   4   7
ENDBRANCH   2   3
ENDBRANCH   1   2
BRANCH   1  26
ATOM     26  C   UNL     1       3.546   2.857   2.968  1.00  0.00     0.118 C 
BRANCH  26  27
ATOM     27  N   UNL     1       3.305   3.323   4.323  1.00  0.00    -0.352 N 
ATOM     28  C   UNL     1       4.070   3.275   5.466  1.00  0.00     0.251 C 
ATOM     29  H   UNL     1       2.429   3.755   4.447  1.00  0.00     0.163 HD
ATOM     30  O   UNL     1       3.569   3.688   6.513  1.00  0.00    -0.269 OA
BRANCH  28  31
ATOM     31  C   UNL     1       5.450   2.716   5.496  1.00  0.00     0.039 A 
ATOM     32  C   UNL     1       5.877   2.067   6.665  1.00  0.00     0.014 A 
ATOM     33  C   UNL     1       6.353   2.849   4.441  1.00  0.00     0.014 A 
ATOM     34  C   UNL     1       7.145   1.474   6.736  1.00  0.00     0.010 A 
ATOM     35  C   UNL     1       7.588   2.196   4.478  1.00  0.00     0.010 A 
ATOM     36  C   UNL     1       7.998   1.505   5.627  1.00  0.00    -0.014 A 
BRANCH  36  37
ATOM     37  C   UNL     1       9.358   0.906   5.667  1.00  0.00     0.031 A 
ATOM     38  C   UNL     1      10.556   1.811   5.687  1.00  0.00     0.074 A 
ATOM     39  C   UNL     1       9.528  -0.430   5.621  1.00  0.00     0.049 A 
ATOM     40  N   UNL     1      11.825   1.497   5.657  1.00  0.00    -0.248 NA
ATOM     41  C   UNL     1      10.292   3.259   5.728  1.00  0.00     0.031 C 
ATOM     42  C   UNL     1       8.452  -1.414   5.582  1.00  0.00     0.029 A 
ATOM     43  N   UNL     1      10.668  -1.195   5.582  1.00  0.00    -0.354 N 
ATOM     44  C   UNL     1      12.510   2.704   5.675  1.00  0.00     0.074 A 
ATOM     45  C   UNL     1      11.517   3.757   5.662  1.00  0.00     0.031 C 
ATOM     46  C   UNL     1       8.971  -2.650   5.524  1.00  0.00     0.029 A 
ATOM     47  C   UNL     1      10.424  -2.548   5.496  1.00  0.00     0.049 A 
ATOM     48  H   UNL     1      11.574  -0.813   5.611  1.00  0.00     0.167 HD
ATOM     49  C   UNL     1      13.845   2.919   5.720  1.00  0.00     0.031 A 
ATOM     50  C   UNL     1      11.272  -3.590   5.400  1.00  0.00     0.031 A 
ATOM     51  C   UNL     1      14.830   1.873   5.723  1.00  0.00     0.049 A 
ATOM     52  C   UNL     1      12.751  -3.326   5.409  1.00  0.00     0.074 A 
ATOM     53  C   UNL     1      16.207   1.987   5.799  1.00  0.00     0.029 A 
ATOM     54  N   UNL     1      14.543   0.518   5.643  1.00  0.00    -0.354 N 
ATOM     55  N   UNL     1      13.378  -2.177   5.486  1.00  0.00    -0.248 NA
ATOM     56  C   UNL     1      13.636  -4.496   5.335  1.00  0.00     0.031 C 
ATOM     57  C   UNL     1      16.755   0.702   5.722  1.00  0.00     0.029 A 
ATOM     58  C   UNL     1      15.717  -0.214   5.647  1.00  0.00     0.049 A 
ATOM     59  H   UNL     1      13.638   0.135   5.590  1.00  0.00     0.167 HD
ATOM     60  C   UNL     1      14.732  -2.487   5.505  1.00  0.00     0.074 A 
ATOM     61  C   UNL     1      14.832  -3.932   5.436  1.00  0.00     0.031 C 
ATOM     62  C   UNL     1      15.796  -1.652   5.581  1.00  0.00     0.031 A 
BRANCH  49  63
ATOM     63  C   UNL     1      14.304   4.350   5.763  1.00  0.00    -0.014 A 
ATOM     64  C   UNL     1      14.117   5.131   6.918  1.00  0.00     0.010 A 
ATOM     65  C   UNL     1      14.928   4.921   4.640  1.00  0.00     0.010 A 
ATOM     66  C   UNL     1      14.501   6.473   6.933  1.00  0.00     0.020 A 
ATOM     67  C   UNL     1      15.338   6.257   4.660  1.00  0.00     0.020 A 
ATOM     68  C   UNL     1      15.102   7.030   5.800  1.00  0.00     0.054 A 
BRANCH  68  69
ATOM     69  S   UNL     1      15.594   8.775   5.846  1.00  0.00     0.124 S 
ATOM     70  O   UNL     1      14.306   9.452   5.714  1.00  0.00    -0.237 OA
ATOM     71  O   UNL     1      16.235   8.895   7.152  1.00  0.00    -0.237 OA
ATOM     72  O   UNL     1      16.489   8.912   4.700  1.00  0.00    -0.744 OA
ENDBRANCH  68  69
ENDBRANCH  49  63
BRANCH  50  73
ATOM     73  C   UNL     1      10.745  -4.979   5.309  1.00  0.00    -0.014 A 
ATOM     74  C   UNL     1      10.859  -5.857   6.402  1.00  0.00     0.010 A 
ATOM     75  C   UNL     1      10.123  -5.433   4.131  1.00  0.00     0.010 A 
ATOM     76  C   UNL     1      10.382  -7.168   6.312  1.00  0.00     0.020 A 
ATOM     77  C   UNL     1       9.624  -6.736   4.046  1.00  0.00     0.020 A 
ATOM     78  C   UNL     1       9.768  -7.600   5.133  1.00  0.00     0.054 A 
BRANCH  78  79
ATOM     79  S   UNL     1       9.121  -9.294   5.052  1.00  0.00     0.124 S 
ATOM     80  O   UNL     1      10.342 -10.078   4.901  1.00  0.00    -0.237 OA
ATOM     81  O   UNL     1       8.433  -9.432   6.333  1.00  0.00    -0.237 OA
ATOM     82  O   UNL     1       8.244  -9.267   3.883  1.00  0.00    -0.744 OA
ENDBRANCH  78  79
ENDBRANCH  50  73
BRANCH  62  83
ATOM     83  C   UNL     1      17.162  -2.278   5.632  1.00  0.00    -0.014 A 
ATOM     84  C   UNL     1      17.747  -2.840   4.485  1.00  0.00     0.010 A 
ATOM     85  C   UNL     1      17.891  -2.247   6.834  1.00  0.00     0.010 A 
ATOM     86  C   UNL     1      19.033  -3.382   4.545  1.00  0.00     0.020 A 
ATOM     87  C   UNL     1      19.186  -2.767   6.892  1.00  0.00     0.020 A 
ATOM     88  C   UNL     1      19.744  -3.342   5.749  1.00  0.00     0.054 A 
BRANCH  88  89
ATOM     89  S   UNL     1      21.434  -4.000   5.790  1.00  0.00     0.124 S 
ATOM     90  O   UNL     1      21.197  -5.441   5.812  1.00  0.00    -0.237 OA
ATOM     91  O   UNL     1      22.013  -3.477   4.555  1.00  0.00    -0.237 OA
ATOM     92  O   UNL     1      21.993  -3.441   7.018  1.00  0.00    -0.744 OA
ENDBRANCH  88  89
ENDBRANCH  62  83
ENDBRANCH  36  37
ENDBRANCH  28  31
ENDBRANCH  26  27
ENDBRANCH   1  26
TORSDOF 16
