REMARK SMILES CCN(C(=O)c1ccccc1C(=O)NCCCNC(=O)c1ccc(-c2c3nc(c(-c4ccc(S(=O)(=O)[O-])cc4)c4ccc([nH]4)c(-c4ccc(S(=O)(=O)[O-])cc4)c4nc(c(-c5ccc(S(=O)(=O)[O-])cc5)c5ccc2[nH]5)C=C4)C=C3)cc1)[C@H](CCO)c1ccccc1
REMARK SMILES IDX 12 1 13 2 14 3 11 5 6 6 7 7 8 8 10 9 9 10 4 11 5 12 3 13
REMARK SMILES IDX 2 14 1 15 81 16 85 17 86 18 90 19 87 20 89 21 88 22 82 23
REMARK SMILES IDX 83 24 84 25 15 27 16 28 17 29 18 30 19 31 20 33 21 34 22 35
REMARK SMILES IDX 80 36 23 37 79 38 24 39 25 40 26 41 73 42 27 43 78 44 72 45
REMARK SMILES IDX 74 46 28 47 77 48 71 49 70 50 29 52 59 53 40 54 58 55 41 56
REMARK SMILES IDX 44 57 57 58 75 59 42 60 43 61 56 63 76 64 45 65 30 66 31 67
REMARK SMILES IDX 39 68 32 69 38 70 33 71 34 72 35 73 36 74 37 75 60 76 61 77
REMARK SMILES IDX 69 78 62 79 68 80 63 81 64 82 65 83 66 84 67 85 46 86 47 87
REMARK SMILES IDX 55 88 48 89 54 90 49 91 50 92 51 93 52 94 53 95
REMARK H PARENT 14 4 84 26 18 32 74 51 44 62
REMARK Flexibility Score: inf
ROOT
ATOM      1  C   UNL     1       2.994  -2.650  -3.438  1.00  0.00     0.252 C 
ATOM      2  O   UNL     1       2.354  -3.121  -4.388  1.00  0.00    -0.269 OA
ATOM      3  N   UNL     1       2.353  -1.635  -2.761  1.00  0.00    -0.352 N 
ATOM      4  H   UNL     1       1.499  -1.367  -3.171  1.00  0.00     0.163 HD
ENDROOT
BRANCH   1   5
ATOM      5  C   UNL     1       4.367  -3.223  -3.211  1.00  0.00     0.052 A 
ATOM      6  C   UNL     1       5.062  -3.447  -2.017  1.00  0.00     0.052 A 
ATOM      7  C   UNL     1       6.319  -4.107  -2.005  1.00  0.00     0.014 A 
ATOM      8  C   UNL     1       6.888  -4.593  -3.175  1.00  0.00     0.001 A 
ATOM      9  C   UNL     1       4.982  -3.734  -4.384  1.00  0.00     0.014 A 
ATOM     10  C   UNL     1       6.214  -4.408  -4.370  1.00  0.00     0.001 A 
BRANCH   6  11
ATOM     11  C   UNL     1       4.601  -3.081  -0.678  1.00  0.00     0.255 C 
ATOM     12  O   UNL     1       5.266  -2.176  -0.180  1.00  0.00    -0.269 OA
BRANCH  11  13
ATOM     13  N   UNL     1       3.552  -3.794  -0.079  1.00  0.00    -0.332 N 
BRANCH  13  14
ATOM     14  C   UNL     1       3.018  -4.993  -0.760  1.00  0.00     0.117 C 
ATOM     15  C   UNL     1       2.680  -6.206   0.097  1.00  0.00     0.027 C 
ENDBRANCH  13  14
BRANCH  13  16
ATOM     16  C   UNL     1       2.985  -3.378   1.254  1.00  0.00     0.118 C 
BRANCH  16  17
ATOM     17  C   UNL     1       3.651  -2.148   1.954  1.00  0.00    -0.025 A 
ATOM     18  C   UNL     1       4.688  -2.331   2.883  1.00  0.00     0.006 A 
ATOM     19  C   UNL     1       3.377  -0.811   1.634  1.00  0.00     0.006 A 
ATOM     20  C   UNL     1       5.413  -1.244   3.414  1.00  0.00     0.000 A 
ATOM     21  C   UNL     1       4.105   0.281   2.132  1.00  0.00     0.000 A 
ATOM     22  C   UNL     1       5.132   0.063   3.029  1.00  0.00     0.000 A 
ENDBRANCH  16  17
BRANCH  16  23
ATOM     23  C   UNL     1       1.414  -3.466   1.404  1.00  0.00     0.058 C 
BRANCH  23  24
ATOM     24  C   UNL     1       0.458  -3.388   0.202  1.00  0.00     0.158 C 
BRANCH  24  25
ATOM     25  O   UNL     1       0.148  -4.655  -0.369  1.00  0.00    -0.396 OA
ATOM     26  H   UNL     1       0.960  -5.063  -0.709  1.00  0.00     0.210 HD
ENDBRANCH  24  25
ENDBRANCH  23  24
ENDBRANCH  16  23
ENDBRANCH  13  16
ENDBRANCH  11  13
ENDBRANCH   6  11
ENDBRANCH   1   5
BRANCH   3  27
ATOM     27  C   UNL     1       2.683  -0.884  -1.567  1.00  0.00     0.118 C 
BRANCH  27  28
ATOM     28  C   UNL     1       1.887   0.420  -1.306  1.00  0.00     0.042 C 
BRANCH  28  29
ATOM     29  C   UNL     1       0.515   0.420  -0.571  1.00  0.00     0.118 C 
BRANCH  29  30
ATOM     30  N   UNL     1       0.313  -0.263   0.714  1.00  0.00    -0.352 N 
ATOM     31  C   UNL     1       0.250  -0.015   2.067  1.00  0.00     0.251 C 
ATOM     32  H   UNL     1       0.176  -1.225   0.553  1.00  0.00     0.163 HD
ATOM     33  O   UNL     1      -0.216  -0.916   2.772  1.00  0.00    -0.269 OA
BRANCH  31  34
ATOM     34  C   UNL     1       0.740   1.198   2.743  1.00  0.00     0.039 A 
ATOM     35  C   UNL     1       1.154   1.105   4.091  1.00  0.00     0.014 A 
ATOM     36  C   UNL     1       0.779   2.423   2.101  1.00  0.00     0.014 A 
ATOM     37  C   UNL     1       1.624   2.230   4.774  1.00  0.00     0.010 A 
ATOM     38  C   UNL     1       1.317   3.522   2.751  1.00  0.00     0.010 A 
ATOM     39  C   UNL     1       1.720   3.445   4.095  1.00  0.00    -0.014 A 
BRANCH  39  40
ATOM     40  C   UNL     1       2.148   4.706   4.737  1.00  0.00     0.031 A 
ATOM     41  C   UNL     1       1.168   5.846   4.772  1.00  0.00     0.074 A 
ATOM     42  C   UNL     1       3.429   4.869   5.114  1.00  0.00     0.049 A 
ATOM     43  N   UNL     1       1.378   7.114   4.996  1.00  0.00    -0.248 NA
ATOM     44  C   UNL     1      -0.232   5.516   4.441  1.00  0.00     0.031 C 
ATOM     45  C   UNL     1       4.460   3.829   5.103  1.00  0.00     0.029 A 
ATOM     46  N   UNL     1       4.090   5.990   5.543  1.00  0.00    -0.354 N 
ATOM     47  C   UNL     1       0.153   7.737   4.784  1.00  0.00     0.074 A 
ATOM     48  C   UNL     1      -0.777   6.719   4.352  1.00  0.00     0.031 C 
ATOM     49  C   UNL     1       5.626   4.363   5.501  1.00  0.00     0.029 A 
ATOM     50  C   UNL     1       5.434   5.788   5.749  1.00  0.00     0.049 A 
ATOM     51  H   UNL     1       3.646   6.856   5.688  1.00  0.00     0.167 HD
ATOM     52  C   UNL     1      -0.170   9.039   4.958  1.00  0.00     0.031 A 
ATOM     53  C   UNL     1       6.400   6.665   6.081  1.00  0.00     0.031 A 
ATOM     54  C   UNL     1       0.767  10.022   5.428  1.00  0.00     0.049 A 
ATOM     55  C   UNL     1       6.017   8.107   6.284  1.00  0.00     0.074 A 
ATOM     56  C   UNL     1       0.547  11.355   5.719  1.00  0.00     0.029 A 
ATOM     57  N   UNL     1       2.107   9.767   5.687  1.00  0.00    -0.354 N 
ATOM     58  N   UNL     1       4.844   8.677   6.131  1.00  0.00    -0.248 NA
ATOM     59  C   UNL     1       7.081   9.019   6.720  1.00  0.00     0.031 C 
ATOM     60  C   UNL     1       1.766  11.917   6.110  1.00  0.00     0.029 A 
ATOM     61  C   UNL     1       2.732  10.921   6.120  1.00  0.00     0.049 A 
ATOM     62  H   UNL     1       2.547   8.893   5.578  1.00  0.00     0.167 HD
ATOM     63  C   UNL     1       5.020  10.009   6.488  1.00  0.00     0.074 A 
ATOM     64  C   UNL     1       6.410  10.153   6.876  1.00  0.00     0.031 C 
ATOM     65  C   UNL     1       4.119  11.023   6.500  1.00  0.00     0.031 A 
BRANCH  52  66
ATOM     66  C   UNL     1      -1.584   9.455   4.649  1.00  0.00    -0.014 A 
ATOM     67  C   UNL     1      -2.666   8.989   5.419  1.00  0.00     0.010 A 
ATOM     68  C   UNL     1      -1.839  10.334   3.580  1.00  0.00     0.010 A 
ATOM     69  C   UNL     1      -3.977   9.350   5.097  1.00  0.00     0.020 A 
ATOM     70  C   UNL     1      -3.147  10.727   3.276  1.00  0.00     0.020 A 
ATOM     71  C   UNL     1      -4.208  10.217   4.025  1.00  0.00     0.054 A 
BRANCH  71  72
ATOM     72  S   UNL     1      -5.918  10.688   3.647  1.00  0.00     0.124 S 
ATOM     73  O   UNL     1      -6.453   9.452   3.080  1.00  0.00    -0.237 OA
ATOM     74  O   UNL     1      -6.446  11.056   4.959  1.00  0.00    -0.237 OA
ATOM     75  O   UNL     1      -5.774  11.794   2.704  1.00  0.00    -0.744 OA
ENDBRANCH  71  72
ENDBRANCH  52  66
BRANCH  53  76
ATOM     76  C   UNL     1       7.801   6.198   6.274  1.00  0.00    -0.014 A 
ATOM     77  C   UNL     1       8.360   6.156   7.564  1.00  0.00     0.010 A 
ATOM     78  C   UNL     1       8.576   5.767   5.182  1.00  0.00     0.010 A 
ATOM     79  C   UNL     1       9.672   5.714   7.756  1.00  0.00     0.020 A 
ATOM     80  C   UNL     1       9.880   5.297   5.373  1.00  0.00     0.020 A 
ATOM     81  C   UNL     1      10.424   5.285   6.659  1.00  0.00     0.054 A 
BRANCH  81  82
ATOM     82  S   UNL     1      12.108   4.673   6.944  1.00  0.00     0.124 S 
ATOM     83  O   UNL     1      12.824   5.900   7.279  1.00  0.00    -0.237 OA
ATOM     84  O   UNL     1      11.918   3.731   8.044  1.00  0.00    -0.237 OA
ATOM     85  O   UNL     1      12.473   4.064   5.667  1.00  0.00    -0.744 OA
ENDBRANCH  81  82
ENDBRANCH  53  76
BRANCH  65  86
ATOM     86  C   UNL     1       4.601  12.362   6.986  1.00  0.00    -0.014 A 
ATOM     87  C   UNL     1       5.469  13.150   6.210  1.00  0.00     0.010 A 
ATOM     88  C   UNL     1       4.127  12.862   8.213  1.00  0.00     0.010 A 
ATOM     89  C   UNL     1       5.883  14.401   6.671  1.00  0.00     0.020 A 
ATOM     90  C   UNL     1       4.512  14.126   8.661  1.00  0.00     0.020 A 
ATOM     91  C   UNL     1       5.400  14.881   7.893  1.00  0.00     0.054 A 
BRANCH  91  92
ATOM     92  S   UNL     1       5.919  16.527   8.447  1.00  0.00     0.124 S 
ATOM     93  O   UNL     1       7.306  16.292   8.838  1.00  0.00    -0.237 OA
ATOM     94  O   UNL     1       5.732  17.341   7.248  1.00  0.00    -0.237 OA
ATOM     95  O   UNL     1       5.004  16.828   9.546  1.00  0.00    -0.744 OA
ENDBRANCH  91  92
ENDBRANCH  65  86
ENDBRANCH  39  40
ENDBRANCH  31  34
ENDBRANCH  29  30
ENDBRANCH  28  29
ENDBRANCH  27  28
ENDBRANCH   3  27
TORSDOF 21
