REMARK SMILES O=C(NCCCNC(=O)c1ccc(-c2c3nc(c(-c4ccc(S(=O)(=O)[O-])cc4)c4ccc([nH]4)c(-c4ccc(S(=O)(=O)[O-])cc4)c4nc(c(-c5ccc(S(=O)(=O)[O-])cc5)c5ccc2[nH]5)C=C4)C=C3)cc1)C1=Cc2cc(Cl)cc(-c3ccc(Cl)cc3)c2O[C@@H]1C(F)(F)F
REMARK SMILES IDX 6 1 5 2 4 3 3 4 1 5 2 6 70 8 71 9 87 10 72 11 86 12 73 13
REMARK SMILES IDX 85 14 74 15 77 16 75 17 76 18 88 19 89 20 90 21 91 22 78 23
REMARK SMILES IDX 79 24 84 25 80 26 83 27 81 28 82 29 7 30 8 31 9 33 10 34
REMARK SMILES IDX 11 35 69 36 12 37 68 38 13 39 14 40 15 41 62 42 16 43 67 44
REMARK SMILES IDX 61 45 63 46 17 47 66 48 60 49 59 50 18 52 48 53 29 54 47 55
REMARK SMILES IDX 30 56 33 57 46 58 64 59 31 60 32 61 45 63 65 64 34 65 19 66
REMARK SMILES IDX 20 67 28 68 21 69 27 70 22 71 23 72 24 73 25 74 26 75 49 76
REMARK SMILES IDX 50 77 58 78 51 79 57 80 52 81 53 82 54 83 55 84 56 85 35 86
REMARK SMILES IDX 36 87 44 88 37 89 43 90 38 91 39 92 40 93 41 94 42 95
REMARK H PARENT 3 7 7 32 63 51 33 62
REMARK Flexibility Score: inf
ROOT
ATOM      1  C   UNL     1       4.407  -4.091  -0.142  1.00  0.00     0.118 C 
ENDROOT
BRANCH   1   2
ATOM      2  C   UNL     1       3.877  -2.930   0.699  1.00  0.00     0.042 C 
BRANCH   2   3
ATOM      3  C   UNL     1       2.807  -2.114  -0.031  1.00  0.00     0.118 C 
BRANCH   3   4
ATOM      4  N   UNL     1       2.002  -1.283   0.872  1.00  0.00    -0.352 N 
ATOM      5  O   UNL     1       1.174   0.656   1.722  1.00  0.00    -0.270 OA
ATOM      6  C   UNL     1       2.049   0.068   1.098  1.00  0.00     0.251 C 
ATOM      7  H   UNL     1       1.325  -1.771   1.395  1.00  0.00     0.163 HD
BRANCH   6   8
ATOM      8  C   UNL     1       3.172   0.795   0.495  1.00  0.00     0.067 C 
ATOM      9  C   UNL     1       4.402   0.517   0.941  1.00  0.00     0.025 C 
ATOM     10  C   UNL     1       2.922   1.517  -0.788  1.00  0.00     0.314 C 
ATOM     11  C   UNL     1       5.435   0.502  -0.097  1.00  0.00     0.019 A 
ATOM     12  O   UNL     1       3.795   1.028  -1.836  1.00  0.00    -0.475 OA
ATOM     13  C   UNL     1       6.704   0.028   0.243  1.00  0.00     0.032 A 
ATOM     14  C   UNL     1       5.037   0.569  -1.450  1.00  0.00     0.135 A 
ATOM     15  C   UNL     1       7.536  -0.466  -0.755  1.00  0.00     0.042 A 
ATOM     16  C   UNL     1       5.846   0.003  -2.450  1.00  0.00     0.026 A 
ATOM     17  Cl  UNL     1       9.039  -1.182  -0.323  1.00  0.00    -0.084 Cl
ATOM     18  C   UNL     1       7.106  -0.504  -2.081  1.00  0.00     0.033 A 
BRANCH  10  19
ATOM     19  C   UNL     1       3.007   3.044  -0.618  1.00  0.00     0.429 C 
ATOM     20  F   UNL     1       2.686   3.684  -1.769  1.00  0.00    -0.167 F 
ATOM     21  F   UNL     1       2.145   3.493   0.325  1.00  0.00    -0.167 F 
ATOM     22  F   UNL     1       4.243   3.464  -0.261  1.00  0.00    -0.167 F 
ENDBRANCH  10  19
BRANCH  16  23
ATOM     23  C   UNL     1       5.344  -0.277  -3.805  1.00  0.00    -0.015 A 
ATOM     24  C   UNL     1       4.508  -1.388  -4.024  1.00  0.00     0.010 A 
ATOM     25  C   UNL     1       5.757   0.468  -4.914  1.00  0.00     0.010 A 
ATOM     26  C   UNL     1       4.155  -1.793  -5.311  1.00  0.00     0.021 A 
ATOM     27  C   UNL     1       5.385   0.081  -6.207  1.00  0.00     0.021 A 
ATOM     28  C   UNL     1       4.605  -1.060  -6.401  1.00  0.00     0.041 A 
ATOM     29  Cl  UNL     1       4.208  -1.572  -7.994  1.00  0.00    -0.084 Cl
ENDBRANCH  16  23
ENDBRANCH   6   8
ENDBRANCH   3   4
ENDBRANCH   2   3
ENDBRANCH   1   2
BRANCH   1  30
ATOM     30  N   UNL     1       5.144  -3.703  -1.332  1.00  0.00    -0.352 N 
ATOM     31  C   UNL     1       5.836  -4.479  -2.242  1.00  0.00     0.251 C 
ATOM     32  H   UNL     1       5.152  -2.736  -1.519  1.00  0.00     0.163 HD
ATOM     33  O   UNL     1       6.395  -3.920  -3.184  1.00  0.00    -0.269 OA
BRANCH  31  34
ATOM     34  C   UNL     1       6.018  -5.943  -2.047  1.00  0.00     0.039 A 
ATOM     35  C   UNL     1       7.238  -6.507  -2.441  1.00  0.00     0.014 A 
ATOM     36  C   UNL     1       5.074  -6.752  -1.418  1.00  0.00     0.014 A 
ATOM     37  C   UNL     1       7.560  -7.816  -2.071  1.00  0.00     0.010 A 
ATOM     38  C   UNL     1       5.433  -8.014  -0.954  1.00  0.00     0.010 A 
ATOM     39  C   UNL     1       6.695  -8.546  -1.243  1.00  0.00    -0.014 A 
BRANCH  39  40
ATOM     40  C   UNL     1       7.129  -9.807  -0.589  1.00  0.00     0.031 A 
ATOM     41  C   UNL     1       6.370 -11.089  -0.796  1.00  0.00     0.074 A 
ATOM     42  C   UNL     1       8.152  -9.757   0.291  1.00  0.00     0.049 A 
ATOM     43  N   UNL     1       6.571 -12.261  -0.251  1.00  0.00    -0.248 NA
ATOM     44  C   UNL     1       5.208 -11.040  -1.698  1.00  0.00     0.031 C 
ATOM     45  C   UNL     1       8.895  -8.547   0.663  1.00  0.00     0.029 A 
ATOM     46  N   UNL     1       8.743 -10.743   1.040  1.00  0.00    -0.354 N 
ATOM     47  C   UNL     1       5.544 -13.076  -0.713  1.00  0.00     0.074 A 
ATOM     48  C   UNL     1       4.696 -12.253  -1.547  1.00  0.00     0.031 C 
ATOM     49  C   UNL     1       9.870  -8.871   1.525  1.00  0.00     0.029 A 
ATOM     50  C   UNL     1       9.804 -10.301   1.797  1.00  0.00     0.049 A 
ATOM     51  H   UNL     1       8.438 -11.679   1.035  1.00  0.00     0.167 HD
ATOM     52  C   UNL     1       5.339 -14.396  -0.482  1.00  0.00     0.031 A 
ATOM     53  C   UNL     1      10.639 -10.973   2.611  1.00  0.00     0.031 A 
ATOM     54  C   UNL     1       6.213 -15.214   0.316  1.00  0.00     0.049 A 
ATOM     55  C   UNL     1      10.456 -12.456   2.763  1.00  0.00     0.074 A 
ATOM     56  C   UNL     1       6.145 -16.576   0.552  1.00  0.00     0.029 A 
ATOM     57  N   UNL     1       7.326 -14.745   0.998  1.00  0.00    -0.354 N 
ATOM     58  N   UNL     1       9.525 -13.225   2.250  1.00  0.00    -0.248 NA
ATOM     59  C   UNL     1      11.447 -13.164   3.583  1.00  0.00     0.031 C 
ATOM     60  C   UNL     1       7.206 -16.926   1.397  1.00  0.00     0.029 A 
ATOM     61  C   UNL     1       7.954 -15.788   1.655  1.00  0.00     0.049 A 
ATOM     62  H   UNL     1       7.625 -13.807   1.013  1.00  0.00     0.167 HD
ATOM     63  C   UNL     1       9.826 -14.512   2.674  1.00  0.00     0.074 A 
ATOM     64  C   UNL     1      11.039 -14.420   3.463  1.00  0.00     0.031 C 
ATOM     65  C   UNL     1       9.157 -15.668   2.438  1.00  0.00     0.031 A 
BRANCH  52  66
ATOM     66  C   UNL     1       4.128 -15.030  -1.115  1.00  0.00    -0.014 A 
ATOM     67  C   UNL     1       4.058 -15.229  -2.506  1.00  0.00     0.010 A 
ATOM     68  C   UNL     1       3.052 -15.448  -0.311  1.00  0.00     0.010 A 
ATOM     69  C   UNL     1       2.915 -15.781  -3.088  1.00  0.00     0.020 A 
ATOM     70  C   UNL     1       1.916 -16.027  -0.887  1.00  0.00     0.020 A 
ATOM     71  C   UNL     1       1.846 -16.169  -2.275  1.00  0.00     0.054 A 
BRANCH  71  72
ATOM     72  S   UNL     1       0.373 -16.886  -3.054  1.00  0.00     0.124 S 
ATOM     73  O   UNL     1      -0.282 -15.701  -3.602  1.00  0.00    -0.237 OA
ATOM     74  O   UNL     1       0.942 -17.801  -4.041  1.00  0.00    -0.237 OA
ATOM     75  O   UNL     1      -0.327 -17.529  -1.945  1.00  0.00    -0.744 OA
ENDBRANCH  71  72
ENDBRANCH  52  66
BRANCH  53  76
ATOM     76  C   UNL     1      11.750 -10.258   3.295  1.00  0.00    -0.014 A 
ATOM     77  C   UNL     1      13.076 -10.423   2.855  1.00  0.00     0.010 A 
ATOM     78  C   UNL     1      11.490  -9.392   4.372  1.00  0.00     0.010 A 
ATOM     79  C   UNL     1      14.124  -9.751   3.492  1.00  0.00     0.020 A 
ATOM     80  C   UNL     1      12.533  -8.700   4.996  1.00  0.00     0.020 A 
ATOM     81  C   UNL     1      13.845  -8.894   4.560  1.00  0.00     0.054 A 
BRANCH  81  82
ATOM     82  S   UNL     1      15.213  -7.992   5.341  1.00  0.00     0.124 S 
ATOM     83  O   UNL     1      15.814  -9.022   6.182  1.00  0.00    -0.237 OA
ATOM     84  O   UNL     1      16.011  -7.565   4.194  1.00  0.00    -0.237 OA
ATOM     85  O   UNL     1      14.540  -6.910   6.057  1.00  0.00    -0.744 OA
ENDBRANCH  81  82
ENDBRANCH  53  76
BRANCH  65  86
ATOM     86  C   UNL     1       9.741 -16.919   3.027  1.00  0.00    -0.014 A 
ATOM     87  C   UNL     1       9.646 -17.182   4.405  1.00  0.00     0.010 A 
ATOM     88  C   UNL     1      10.375 -17.853   2.188  1.00  0.00     0.010 A 
ATOM     89  C   UNL     1      10.213 -18.339   4.941  1.00  0.00     0.020 A 
ATOM     90  C   UNL     1      10.923 -19.022   2.718  1.00  0.00     0.020 A 
ATOM     91  C   UNL     1      10.855 -19.249   4.095  1.00  0.00     0.054 A 
BRANCH  91  92
ATOM     92  S   UNL     1      11.569 -20.756   4.807  1.00  0.00     0.124 S 
ATOM     93  O   UNL     1      12.821 -20.260   5.369  1.00  0.00    -0.237 OA
ATOM     94  O   UNL     1      10.559 -21.164   5.781  1.00  0.00    -0.237 OA
ATOM     95  O   UNL     1      11.709 -21.646   3.656  1.00  0.00    -0.744 OA
ENDBRANCH  91  92
ENDBRANCH  65  86
ENDBRANCH  39  40
ENDBRANCH  31  34
ENDBRANCH   1  30
TORSDOF 15
