REMARK SMILES O=C(NCCCNC(=O)[C@H]1[C@@H](C(=O)NN2CCOCC2)[C@H]2C=C[C@@H]1CC2)c1ccc(-c2c3nc(c(-c4ccc(S(=O)(=O)[O-])cc4)c4ccc([nH]4)c(-c4ccc(S(=O)(=O)[O-])cc4)c4nc(c(-c5ccc(S(=O)(=O)[O-])cc5)c5ccc2[nH]5)C=C4)C=C3)cc1
REMARK SMILES IDX 4 1 3 2 1 3 2 4 27 6 28 7 86 8 29 9 85 10 30 11 31 12 32 13
REMARK SMILES IDX 79 14 33 15 84 16 78 17 80 18 34 19 83 20 77 21 76 22 35 24
REMARK SMILES IDX 65 25 46 26 64 27 47 28 50 29 63 30 81 31 48 32 49 33 62 35
REMARK SMILES IDX 82 36 51 37 36 38 37 39 45 40 38 41 44 42 39 43 40 44 41 45
REMARK SMILES IDX 42 46 43 47 66 48 67 49 75 50 68 51 74 52 69 53 70 54 71 55
REMARK SMILES IDX 72 56 73 57 52 58 53 59 61 60 54 61 60 62 55 63 56 64 57 65
REMARK SMILES IDX 58 66 59 67 5 68 6 69 7 70 8 71 9 73 10 74 11 75 24 76 21 77
REMARK SMILES IDX 23 78 25 79 22 80 26 81 12 82 13 83 14 84 15 86 16 87 20 88
REMARK SMILES IDX 17 89 19 90 18 91
REMARK H PARENT 3 5 80 23 50 34 7 72 14 85
REMARK Flexibility Score: inf
ROOT
ATOM      1  C   UNL     1       7.768  -2.662   0.502  1.00  0.00     0.118 C 
ENDROOT
BRANCH   1   2
ATOM      2  N   UNL     1       8.032  -1.251   0.736  1.00  0.00    -0.352 N 
ATOM      3  O   UNL     1       7.940   0.693   1.865  1.00  0.00    -0.269 OA
ATOM      4  C   UNL     1       7.975  -0.531   1.905  1.00  0.00     0.251 C 
ATOM      5  H   UNL     1       8.289  -0.736  -0.062  1.00  0.00     0.163 HD
BRANCH   4   6
ATOM      6  C   UNL     1       7.928  -1.236   3.206  1.00  0.00     0.039 A 
ATOM      7  C   UNL     1       8.727  -2.356   3.436  1.00  0.00     0.014 A 
ATOM      8  C   UNL     1       7.095  -0.758   4.221  1.00  0.00     0.014 A 
ATOM      9  C   UNL     1       8.559  -3.102   4.596  1.00  0.00     0.010 A 
ATOM     10  C   UNL     1       7.018  -1.443   5.438  1.00  0.00     0.010 A 
ATOM     11  C   UNL     1       7.717  -2.646   5.622  1.00  0.00    -0.014 A 
BRANCH  11  12
ATOM     12  C   UNL     1       7.634  -3.424   6.887  1.00  0.00     0.031 A 
ATOM     13  C   UNL     1       6.335  -4.027   7.350  1.00  0.00     0.074 A 
ATOM     14  C   UNL     1       8.761  -3.623   7.601  1.00  0.00     0.049 A 
ATOM     15  N   UNL     1       6.107  -4.786   8.393  1.00  0.00    -0.248 NA
ATOM     16  C   UNL     1       5.134  -3.739   6.550  1.00  0.00     0.031 C 
ATOM     17  C   UNL     1      10.083  -3.086   7.260  1.00  0.00     0.029 A 
ATOM     18  N   UNL     1       8.988  -4.352   8.740  1.00  0.00    -0.354 N 
ATOM     19  C   UNL     1       4.740  -5.043   8.391  1.00  0.00     0.074 A 
ATOM     20  C   UNL     1       4.184  -4.337   7.257  1.00  0.00     0.031 C 
ATOM     21  C   UNL     1      10.989  -3.558   8.127  1.00  0.00     0.029 A 
ATOM     22  C   UNL     1      10.308  -4.369   9.129  1.00  0.00     0.049 A 
ATOM     23  H   UNL     1       8.275  -4.819   9.233  1.00  0.00     0.167 HD
ATOM     24  C   UNL     1       4.016  -5.799   9.252  1.00  0.00     0.031 A 
ATOM     25  C   UNL     1      10.908  -4.959  10.179  1.00  0.00     0.031 A 
ATOM     26  C   UNL     1       4.576  -6.499  10.380  1.00  0.00     0.049 A 
ATOM     27  C   UNL     1      10.076  -5.766  11.134  1.00  0.00     0.074 A 
ATOM     28  C   UNL     1       3.931  -7.325  11.285  1.00  0.00     0.029 A 
ATOM     29  N   UNL     1       5.908  -6.451  10.766  1.00  0.00    -0.354 N 
ATOM     30  N   UNL     1       8.793  -6.033  11.085  1.00  0.00    -0.248 NA
ATOM     31  C   UNL     1      10.776  -6.356  12.281  1.00  0.00     0.031 C 
ATOM     32  C   UNL     1       4.858  -7.721  12.255  1.00  0.00     0.029 A 
ATOM     33  C   UNL     1       6.098  -7.205  11.912  1.00  0.00     0.049 A 
ATOM     34  H   UNL     1       6.615  -5.953  10.294  1.00  0.00     0.167 HD
ATOM     35  C   UNL     1       8.537  -6.848  12.181  1.00  0.00     0.074 A 
ATOM     36  C   UNL     1       9.802  -7.044  12.861  1.00  0.00     0.031 C 
ATOM     37  C   UNL     1       7.360  -7.389  12.585  1.00  0.00     0.031 A 
BRANCH  24  38
ATOM     38  C   UNL     1       2.526  -5.879   9.034  1.00  0.00    -0.014 A 
ATOM     39  C   UNL     1       1.977  -6.566   7.936  1.00  0.00     0.010 A 
ATOM     40  C   UNL     1       1.656  -5.293   9.973  1.00  0.00     0.010 A 
ATOM     41  C   UNL     1       0.591  -6.627   7.757  1.00  0.00     0.020 A 
ATOM     42  C   UNL     1       0.269  -5.377   9.815  1.00  0.00     0.020 A 
ATOM     43  C   UNL     1      -0.254  -6.028   8.697  1.00  0.00     0.054 A 
BRANCH  43  44
ATOM     44  S   UNL     1      -2.047  -6.134   8.446  1.00  0.00     0.124 S 
ATOM     45  O   UNL     1      -2.246  -5.232   7.314  1.00  0.00    -0.237 OA
ATOM     46  O   UNL     1      -2.247  -7.552   8.160  1.00  0.00    -0.237 OA
ATOM     47  O   UNL     1      -2.605  -5.672   9.715  1.00  0.00    -0.744 OA
ENDBRANCH  43  44
ENDBRANCH  24  38
BRANCH  25  48
ATOM     48  C   UNL     1      12.376  -4.806  10.377  1.00  0.00    -0.014 A 
ATOM     49  C   UNL     1      13.236  -5.908  10.232  1.00  0.00     0.010 A 
ATOM     50  C   UNL     1      12.922  -3.549  10.697  1.00  0.00     0.010 A 
ATOM     51  C   UNL     1      14.613  -5.759  10.422  1.00  0.00     0.020 A 
ATOM     52  C   UNL     1      14.301  -3.390  10.854  1.00  0.00     0.020 A 
ATOM     53  C   UNL     1      15.137  -4.500  10.728  1.00  0.00     0.054 A 
BRANCH  53  54
ATOM     54  S   UNL     1      16.931  -4.324  10.923  1.00  0.00     0.124 S 
ATOM     55  O   UNL     1      17.165  -4.992  12.199  1.00  0.00    -0.237 OA
ATOM     56  O   UNL     1      17.444  -5.013   9.742  1.00  0.00    -0.237 OA
ATOM     57  O   UNL     1      17.134  -2.876  10.927  1.00  0.00    -0.744 OA
ENDBRANCH  53  54
ENDBRANCH  25  48
BRANCH  37  58
ATOM     58  C   UNL     1       7.395  -8.287  13.794  1.00  0.00    -0.014 A 
ATOM     59  C   UNL     1       7.635  -7.778  15.083  1.00  0.00     0.010 A 
ATOM     60  C   UNL     1       7.155  -9.665  13.636  1.00  0.00     0.010 A 
ATOM     61  C   UNL     1       7.681  -8.638  16.184  1.00  0.00     0.020 A 
ATOM     62  C   UNL     1       7.167 -10.522  14.738  1.00  0.00     0.020 A 
ATOM     63  C   UNL     1       7.449 -10.005  16.004  1.00  0.00     0.054 A 
BRANCH  63  64
ATOM     64  S   UNL     1       7.493 -11.098  17.451  1.00  0.00     0.124 S 
ATOM     65  O   UNL     1       8.922 -11.155  17.745  1.00  0.00    -0.237 OA
ATOM     66  O   UNL     1       6.678 -10.373  18.423  1.00  0.00    -0.237 OA
ATOM     67  O   UNL     1       6.907 -12.344  16.962  1.00  0.00    -0.744 OA
ENDBRANCH  63  64
ENDBRANCH  37  58
ENDBRANCH  11  12
ENDBRANCH   4   6
ENDBRANCH   1   2
BRANCH   1  68
ATOM     68  C   UNL     1       6.310  -2.901   0.141  1.00  0.00     0.042 C 
BRANCH  68  69
ATOM     69  C   UNL     1       6.029  -2.497  -1.297  1.00  0.00     0.117 C 
BRANCH  69  70
ATOM     70  N   UNL     1       6.636  -3.453  -2.193  1.00  0.00    -0.356 N 
ATOM     71  C   UNL     1       6.162  -3.620  -3.463  1.00  0.00     0.224 C 
ATOM     72  H   UNL     1       7.401  -3.990  -1.885  1.00  0.00     0.163 HD
ATOM     73  O   UNL     1       6.016  -2.698  -4.258  1.00  0.00    -0.275 OA
BRANCH  71  74
ATOM     74  C   UNL     1       5.629  -5.009  -3.718  1.00  0.00     0.098 C 
ATOM     75  C   UNL     1       6.237  -5.915  -4.802  1.00  0.00     0.100 C 
ATOM     76  C   UNL     1       5.257  -5.847  -2.443  1.00  0.00     0.025 C 
ATOM     77  C   UNL     1       5.866  -7.393  -4.428  1.00  0.00     0.025 C 
ATOM     78  C   UNL     1       6.335  -6.870  -2.134  1.00  0.00    -0.027 C 
ATOM     79  C   UNL     1       4.011  -6.673  -2.829  1.00  0.00     0.009 C 
ATOM     80  C   UNL     1       6.610  -7.708  -3.147  1.00  0.00    -0.027 C 
ATOM     81  C   UNL     1       4.340  -7.478  -4.109  1.00  0.00     0.009 C 
BRANCH  75  82
ATOM     82  C   UNL     1       7.679  -5.886  -5.329  1.00  0.00     0.238 C 
ATOM     83  O   UNL     1       7.886  -6.389  -6.449  1.00  0.00    -0.273 OA
ATOM     84  N   UNL     1       8.806  -5.475  -4.683  1.00  0.00    -0.288 N 
ATOM     85  H   UNL     1       9.654  -5.699  -5.130  1.00  0.00     0.185 HD
BRANCH  84  86
ATOM     86  N   UNL     1       8.932  -4.780  -3.477  1.00  0.00    -0.217 NA
ATOM     87  C   UNL     1       9.338  -3.365  -3.733  1.00  0.00     0.136 C 
ATOM     88  C   UNL     1       9.956  -5.399  -2.595  1.00  0.00     0.136 C 
ATOM     89  C   UNL     1      10.803  -3.179  -4.149  1.00  0.00     0.177 C 
ATOM     90  C   UNL     1      11.415  -5.148  -3.023  1.00  0.00     0.177 C 
ATOM     91  O   UNL     1      11.685  -3.752  -3.181  1.00  0.00    -0.379 OA
ENDBRANCH  84  86
ENDBRANCH  75  82
ENDBRANCH  71  74
ENDBRANCH  69  70
ENDBRANCH  68  69
ENDBRANCH   1  68
TORSDOF 15
