REMARK SMILES O=C(CCCc1nc(-c2ccc(Cl)c(Cl)c2)c(-c2ccccc2)o1)NCCCNC(=O)c1ccc(-c2c3nc(c(-c4ccc(S(=O)(=O)[O-])cc4)c4ccc([nH]4)c(-c4ccc(S(=O)(=O)[O-])cc4)c4nc(c(-c5ccc(S(=O)(=O)[O-])cc5)c5ccc2[nH]5)C=C4)C=C3)cc1
REMARK SMILES IDX 26 1 25 2 1 3 2 4 3 6 4 7 5 8 6 9 7 10 24 11 8 12 17 13 9 14
REMARK SMILES IDX 10 15 16 16 11 17 14 18 12 19 15 20 13 21 18 22 19 23 23 24
REMARK SMILES IDX 20 25 22 26 21 27 27 28 28 29 29 30 30 31 31 33 32 34 33 35
REMARK SMILES IDX 91 36 34 37 90 38 35 39 36 40 37 41 84 42 38 43 89 44 83 45
REMARK SMILES IDX 85 46 39 47 88 48 82 49 81 50 40 52 70 53 51 54 69 55 52 56
REMARK SMILES IDX 55 57 68 58 86 59 53 60 54 61 67 63 87 64 56 65 41 66 42 67
REMARK SMILES IDX 50 68 43 69 49 70 44 71 45 72 46 73 47 74 48 75 71 76 72 77
REMARK SMILES IDX 80 78 73 79 79 80 74 81 75 82 76 83 77 84 78 85 57 86 58 87
REMARK SMILES IDX 66 88 59 89 65 90 60 91 61 92 62 93 63 94 64 95
REMARK H PARENT 25 5 29 32 85 51 55 62
REMARK Flexibility Score: inf
ROOT
ATOM      1  C   UNL     1       2.018  -0.108   2.355  1.00  0.00     0.117 C 
ENDROOT
BRANCH   1   2
ATOM      2  N   UNL     1       2.571  -0.246   1.023  1.00  0.00    -0.356 N 
ATOM      3  O   UNL     1       0.929   0.975  -0.024  1.00  0.00    -0.275 OA
ATOM      4  C   UNL     1       1.993   0.366  -0.064  1.00  0.00     0.220 C 
ATOM      5  H   UNL     1       3.380  -0.792   0.893  1.00  0.00     0.163 HD
BRANCH   4   6
ATOM      6  C   UNL     1       2.817   0.281  -1.330  1.00  0.00     0.100 C 
BRANCH   6   7
ATOM      7  C   UNL     1       3.898   1.368  -1.394  1.00  0.00     0.020 C 
BRANCH   7   8
ATOM      8  C   UNL     1       5.005   1.319  -0.330  1.00  0.00     0.098 C 
BRANCH   8   9
ATOM      9  C   UNL     1       5.737   0.025  -0.311  1.00  0.00     0.195 A 
ATOM     10  N   UNL     1       5.241  -1.183  -0.111  1.00  0.00    -0.213 NA
ATOM     11  O   UNL     1       7.088   0.063  -0.530  1.00  0.00    -0.440 OA
ATOM     12  C   UNL     1       6.329  -2.003  -0.274  1.00  0.00     0.117 A 
ATOM     13  C   UNL     1       7.463  -1.255  -0.518  1.00  0.00     0.162 A 
BRANCH  12  14
ATOM     14  C   UNL     1       6.262  -3.445  -0.252  1.00  0.00     0.006 A 
ATOM     15  C   UNL     1       5.489  -4.111  -1.209  1.00  0.00     0.012 A 
ATOM     16  C   UNL     1       6.999  -4.182   0.682  1.00  0.00     0.032 A 
ATOM     17  C   UNL     1       5.478  -5.507  -1.251  1.00  0.00     0.023 A 
ATOM     18  C   UNL     1       6.976  -5.580   0.650  1.00  0.00     0.060 A 
ATOM     19  C   UNL     1       6.223  -6.244  -0.325  1.00  0.00     0.059 A 
ATOM     20  Cl  UNL     1       7.902  -6.420   1.839  1.00  0.00    -0.083 Cl
ATOM     21  Cl  UNL     1       6.176  -7.966  -0.451  1.00  0.00    -0.083 Cl
ENDBRANCH  12  14
BRANCH  13  22
ATOM     22  C   UNL     1       8.851  -1.557  -0.803  1.00  0.00     0.020 A 
ATOM     23  C   UNL     1       9.867  -1.100   0.044  1.00  0.00     0.012 A 
ATOM     24  C   UNL     1       9.184  -2.382  -1.887  1.00  0.00     0.012 A 
ATOM     25  C   UNL     1      11.192  -1.484  -0.177  1.00  0.00     0.001 A 
ATOM     26  C   UNL     1      10.510  -2.756  -2.112  1.00  0.00     0.001 A 
ATOM     27  C   UNL     1      11.512  -2.312  -1.252  1.00  0.00     0.000 A 
ENDBRANCH  13  22
ENDBRANCH   8   9
ENDBRANCH   7   8
ENDBRANCH   6   7
ENDBRANCH   4   6
ENDBRANCH   1   2
BRANCH   1  28
ATOM     28  C   UNL     1       2.350  -1.282   3.265  1.00  0.00     0.042 C 
BRANCH  28  29
ATOM     29  C   UNL     1       3.830  -1.438   3.601  1.00  0.00     0.118 C 
BRANCH  29  30
ATOM     30  N   UNL     1       4.360  -0.352   4.412  1.00  0.00    -0.352 N 
ATOM     31  C   UNL     1       5.096  -0.394   5.572  1.00  0.00     0.251 C 
ATOM     32  H   UNL     1       4.160   0.553   4.079  1.00  0.00     0.163 HD
ATOM     33  O   UNL     1       5.348   0.657   6.161  1.00  0.00    -0.269 OA
BRANCH  31  34
ATOM     34  C   UNL     1       5.559  -1.684   6.138  1.00  0.00     0.039 A 
ATOM     35  C   UNL     1       5.481  -1.870   7.521  1.00  0.00     0.014 A 
ATOM     36  C   UNL     1       6.080  -2.701   5.332  1.00  0.00     0.014 A 
ATOM     37  C   UNL     1       5.857  -3.093   8.083  1.00  0.00     0.010 A 
ATOM     38  C   UNL     1       6.377  -3.948   5.884  1.00  0.00     0.010 A 
ATOM     39  C   UNL     1       6.268  -4.161   7.266  1.00  0.00    -0.014 A 
BRANCH  39  40
ATOM     40  C   UNL     1       6.547  -5.500   7.853  1.00  0.00     0.031 A 
ATOM     41  C   UNL     1       7.922  -6.112   7.775  1.00  0.00     0.074 A 
ATOM     42  C   UNL     1       5.543  -6.188   8.435  1.00  0.00     0.049 A 
ATOM     43  N   UNL     1       8.344  -7.254   8.258  1.00  0.00    -0.248 NA
ATOM     44  C   UNL     1       8.952  -5.354   7.046  1.00  0.00     0.031 C 
ATOM     45  C   UNL     1       4.152  -5.736   8.532  1.00  0.00     0.029 A 
ATOM     46  N   UNL     1       5.535  -7.411   9.061  1.00  0.00    -0.354 N 
ATOM     47  C   UNL     1       9.680  -7.355   7.886  1.00  0.00     0.074 A 
ATOM     48  C   UNL     1       9.984  -6.184   7.094  1.00  0.00     0.031 C 
ATOM     49  C   UNL     1       3.439  -6.645   9.214  1.00  0.00     0.029 A 
ATOM     50  C   UNL     1       4.306  -7.764   9.567  1.00  0.00     0.049 A 
ATOM     51  H   UNL     1       6.334  -7.980   9.140  1.00  0.00     0.167 HD
ATOM     52  C   UNL     1      10.579  -8.323   8.192  1.00  0.00     0.031 A 
ATOM     53  C   UNL     1       3.914  -8.863  10.242  1.00  0.00     0.031 A 
ATOM     54  C   UNL     1      10.273  -9.493   8.976  1.00  0.00     0.049 A 
ATOM     55  C   UNL     1       4.928  -9.926  10.564  1.00  0.00     0.074 A 
ATOM     56  C   UNL     1      11.128 -10.505   9.381  1.00  0.00     0.029 A 
ATOM     57  N   UNL     1       9.016  -9.816   9.466  1.00  0.00    -0.354 N 
ATOM     58  N   UNL     1       6.206  -9.965  10.268  1.00  0.00    -0.248 NA
ATOM     59  C   UNL     1       4.450 -11.085  11.329  1.00  0.00     0.031 C 
ATOM     60  C   UNL     1      10.377 -11.467  10.065  1.00  0.00     0.029 A 
ATOM     61  C   UNL     1       9.068 -11.022  10.148  1.00  0.00     0.049 A 
ATOM     62  H   UNL     1       8.207  -9.268   9.348  1.00  0.00     0.167 HD
ATOM     63  C   UNL     1       6.690 -11.138  10.837  1.00  0.00     0.074 A 
ATOM     64  C   UNL     1       5.572 -11.767  11.511  1.00  0.00     0.031 C 
ATOM     65  C   UNL     1       7.947 -11.648  10.805  1.00  0.00     0.031 A 
BRANCH  52  66
ATOM     66  C   UNL     1      11.985  -8.162   7.669  1.00  0.00    -0.014 A 
ATOM     67  C   UNL     1      12.833  -7.152   8.160  1.00  0.00     0.010 A 
ATOM     68  C   UNL     1      12.483  -9.061   6.708  1.00  0.00     0.010 A 
ATOM     69  C   UNL     1      14.136  -7.019   7.671  1.00  0.00     0.020 A 
ATOM     70  C   UNL     1      13.796  -8.951   6.239  1.00  0.00     0.020 A 
ATOM     71  C   UNL     1      14.608  -7.919   6.712  1.00  0.00     0.054 A 
BRANCH  71  72
ATOM     72  S   UNL     1      16.311  -7.735   6.113  1.00  0.00     0.124 S 
ATOM     73  O   UNL     1      16.216  -6.524   5.301  1.00  0.00    -0.237 OA
ATOM     74  O   UNL     1      17.073  -7.601   7.351  1.00  0.00    -0.237 OA
ATOM     75  O   UNL     1      16.553  -8.966   5.365  1.00  0.00    -0.744 OA
ENDBRANCH  71  72
ENDBRANCH  52  66
BRANCH  53  76
ATOM     76  C   UNL     1       2.497  -9.002  10.678  1.00  0.00    -0.014 A 
ATOM     77  C   UNL     1       2.156  -8.938  12.041  1.00  0.00     0.010 A 
ATOM     78  C   UNL     1       1.476  -9.191   9.729  1.00  0.00     0.010 A 
ATOM     79  C   UNL     1       0.826  -9.082  12.448  1.00  0.00     0.020 A 
ATOM     80  C   UNL     1       0.141  -9.302  10.128  1.00  0.00     0.020 A 
ATOM     81  C   UNL     1      -0.174  -9.259  11.487  1.00  0.00     0.054 A 
BRANCH  81  82
ATOM     82  S   UNL     1      -1.899  -9.392  12.033  1.00  0.00     0.124 S 
ATOM     83  O   UNL     1      -1.926 -10.721  12.634  1.00  0.00    -0.237 OA
ATOM     84  O   UNL     1      -2.021  -8.273  12.964  1.00  0.00    -0.237 OA
ATOM     85  O   UNL     1      -2.662  -9.248  10.795  1.00  0.00    -0.744 OA
ENDBRANCH  81  82
ENDBRANCH  53  76
BRANCH  65  86
ATOM     86  C   UNL     1       8.188 -12.933  11.556  1.00  0.00    -0.014 A 
ATOM     87  C   UNL     1       7.632 -14.152  11.126  1.00  0.00     0.010 A 
ATOM     88  C   UNL     1       8.994 -12.921  12.709  1.00  0.00     0.010 A 
ATOM     89  C   UNL     1       7.829 -15.320  11.868  1.00  0.00     0.020 A 
ATOM     90  C   UNL     1       9.223 -14.093  13.434  1.00  0.00     0.020 A 
ATOM     91  C   UNL     1       8.617 -15.281  13.022  1.00  0.00     0.054 A 
BRANCH  91  92
ATOM     92  S   UNL     1       8.858 -16.809  13.969  1.00  0.00     0.124 S 
ATOM     93  O   UNL     1       7.556 -16.978  14.609  1.00  0.00    -0.237 OA
ATOM     94  O   UNL     1       9.178 -17.785  12.929  1.00  0.00    -0.237 OA
ATOM     95  O   UNL     1       9.960 -16.488  14.873  1.00  0.00    -0.744 OA
ENDBRANCH  91  92
ENDBRANCH  65  86
ENDBRANCH  39  40
ENDBRANCH  31  34
ENDBRANCH  29  30
ENDBRANCH  28  29
ENDBRANCH   1  28
TORSDOF 18
