REMARK SMILES O=C(CC[N@H+]1CCC[C@@H](C(=O)NCCCNC(=O)c2ccc(-c3c4nc(c(-c5ccc(S(=O)(=O)[O-])cc5)c5ccc([nH]5)c(-c5ccc(S(=O)(=O)[O-])cc5)c5nc(c(-c6ccc(S(=O)(=O)[O-])cc6)c6ccc3[nH]6)C=C5)C=C4)cc2)C1)Nc1cccc(F)c1
REMARK SMILES IDX 13 1 12 2 10 3 11 4 9 6 5 7 6 8 79 9 7 11 8 12 4 13 3 14
REMARK SMILES IDX 2 15 1 16 80 17 81 19 82 20 87 21 83 22 85 23 84 24 86 25
REMARK SMILES IDX 14 26 15 27 16 28 17 29 18 31 19 32 20 33 78 34 21 35 77 36
REMARK SMILES IDX 22 37 23 38 24 39 71 40 25 41 76 42 70 43 72 44 26 45 75 46
REMARK SMILES IDX 69 47 68 48 27 50 57 51 38 52 56 53 39 54 42 55 55 56 73 57
REMARK SMILES IDX 40 58 41 59 54 61 74 62 43 63 28 64 29 65 37 66 30 67 36 68
REMARK SMILES IDX 31 69 32 70 33 71 34 72 35 73 58 74 59 75 67 76 60 77 66 78
REMARK SMILES IDX 61 79 62 80 63 81 64 82 65 83 44 84 45 85 53 86 46 87 52 88
REMARK SMILES IDX 47 89 48 90 49 91 50 92 51 93
REMARK H PARENT 12 5 5 10 80 18 16 30 72 49 42 60
REMARK Flexibility Score: inf
ROOT
ATOM      1  C   UNL     1       7.476   4.849  -3.115  1.00  0.00     0.117 C 
ENDROOT
BRANCH   1   2
ATOM      2  N   UNL     1       6.234   5.072  -2.405  1.00  0.00    -0.356 N 
ATOM      3  C   UNL     1       5.491   4.310  -1.577  1.00  0.00     0.228 C 
ATOM      4  O   UNL     1       4.468   4.846  -1.129  1.00  0.00    -0.275 OA
ATOM      5  H   UNL     1       5.852   5.966  -2.559  1.00  0.00     0.163 HD
BRANCH   3   6
ATOM      6  C   UNL     1       5.781   2.864  -1.200  1.00  0.00     0.133 C 
ATOM      7  N   UNL     1       4.798   0.619  -1.227  1.00  0.00    -0.334 N 
ATOM      8  C   UNL     1       6.128  -0.011  -1.329  1.00  0.00     0.262 C 
ATOM      9  C   UNL     1       4.786   1.931  -1.907  1.00  0.00     0.275 C 
ATOM     10  H   UNL     1       4.600   0.784  -0.240  1.00  0.00     0.348 HD
ATOM     11  C   UNL     1       7.204   0.875  -0.693  1.00  0.00     0.062 C 
ATOM     12  C   UNL     1       7.185   2.283  -1.291  1.00  0.00     0.025 C 
BRANCH   7  13
ATOM     13  C   UNL     1       3.738  -0.276  -1.731  1.00  0.00     0.272 C 
BRANCH  13  14
ATOM     14  C   UNL     1       3.069  -1.010  -0.564  1.00  0.00     0.161 C 
BRANCH  14  15
ATOM     15  C   UNL     1       2.124  -0.133   0.251  1.00  0.00     0.230 C 
ATOM     16  O   UNL     1       0.983  -0.512   0.500  1.00  0.00    -0.275 OA
ATOM     17  N   UNL     1       2.703   1.044   0.683  1.00  0.00    -0.326 N 
ATOM     18  H   UNL     1       3.624   1.210   0.377  1.00  0.00     0.169 HD
BRANCH  17  19
ATOM     19  C   UNL     1       2.138   2.037   1.506  1.00  0.00     0.044 A 
ATOM     20  C   UNL     1       2.807   3.267   1.587  1.00  0.00     0.026 A 
ATOM     21  C   UNL     1       0.971   1.858   2.246  1.00  0.00     0.065 A 
ATOM     22  C   UNL     1       2.312   4.309   2.377  1.00  0.00     0.005 A 
ATOM     23  C   UNL     1       0.495   2.894   3.047  1.00  0.00     0.125 A 
ATOM     24  C   UNL     1       1.150   4.119   3.116  1.00  0.00     0.039 A 
ATOM     25  F   UNL     1      -0.616   2.708   3.774  1.00  0.00    -0.207 F 
ENDBRANCH  17  19
ENDBRANCH  14  15
ENDBRANCH  13  14
ENDBRANCH   7  13
ENDBRANCH   3   6
ENDBRANCH   1   2
BRANCH   1  26
ATOM     26  C   UNL     1       7.245   4.373  -4.543  1.00  0.00     0.042 C 
BRANCH  26  27
ATOM     27  C   UNL     1       6.639   5.447  -5.447  1.00  0.00     0.118 C 
BRANCH  27  28
ATOM     28  N   UNL     1       7.491   6.626  -5.550  1.00  0.00    -0.352 N 
ATOM     29  C   UNL     1       8.135   7.167  -6.631  1.00  0.00     0.251 C 
ATOM     30  H   UNL     1       7.626   7.112  -4.704  1.00  0.00     0.163 HD
ATOM     31  O   UNL     1       9.008   8.017  -6.446  1.00  0.00    -0.269 OA
BRANCH  29  32
ATOM     32  C   UNL     1       7.793   6.744  -8.004  1.00  0.00     0.039 A 
ATOM     33  C   UNL     1       8.818   6.603  -8.945  1.00  0.00     0.014 A 
ATOM     34  C   UNL     1       6.464   6.538  -8.382  1.00  0.00     0.014 A 
ATOM     35  C   UNL     1       8.513   6.200 -10.246  1.00  0.00     0.010 A 
ATOM     36  C   UNL     1       6.169   6.065  -9.657  1.00  0.00     0.010 A 
ATOM     37  C   UNL     1       7.189   5.899 -10.604  1.00  0.00    -0.014 A 
BRANCH  37  38
ATOM     38  C   UNL     1       6.850   5.405 -11.962  1.00  0.00     0.031 A 
ATOM     39  C   UNL     1       5.965   6.219 -12.866  1.00  0.00     0.074 A 
ATOM     40  C   UNL     1       7.284   4.191 -12.352  1.00  0.00     0.049 A 
ATOM     41  N   UNL     1       5.509   5.923 -14.057  1.00  0.00    -0.248 NA
ATOM     42  C   UNL     1       5.512   7.523 -12.356  1.00  0.00     0.031 C 
ATOM     43  C   UNL     1       8.117   3.291 -11.550  1.00  0.00     0.029 A 
ATOM     44  N   UNL     1       7.079   3.500 -13.520  1.00  0.00    -0.354 N 
ATOM     45  C   UNL     1       4.703   6.993 -14.429  1.00  0.00     0.074 A 
ATOM     46  C   UNL     1       4.693   7.920 -13.318  1.00  0.00     0.031 C 
ATOM     47  C   UNL     1       8.375   2.181 -12.260  1.00  0.00     0.029 A 
ATOM     48  C   UNL     1       7.692   2.270 -13.547  1.00  0.00     0.049 A 
ATOM     49  H   UNL     1       6.544   3.852 -14.267  1.00  0.00     0.167 HD
ATOM     50  C   UNL     1       4.044   7.193 -15.596  1.00  0.00     0.031 A 
ATOM     51  C   UNL     1       7.701   1.317 -14.499  1.00  0.00     0.031 A 
ATOM     52  C   UNL     1       4.063   6.270 -16.699  1.00  0.00     0.049 A 
ATOM     53  C   UNL     1       6.956   1.556 -15.782  1.00  0.00     0.074 A 
ATOM     54  C   UNL     1       3.474   6.404 -17.944  1.00  0.00     0.029 A 
ATOM     55  N   UNL     1       4.701   5.039 -16.690  1.00  0.00    -0.354 N 
ATOM     56  N   UNL     1       6.248   2.601 -16.139  1.00  0.00    -0.248 NA
ATOM     57  C   UNL     1       7.020   0.493 -16.793  1.00  0.00     0.031 C 
ATOM     58  C   UNL     1       3.713   5.232 -18.669  1.00  0.00     0.029 A 
ATOM     59  C   UNL     1       4.501   4.392 -17.898  1.00  0.00     0.049 A 
ATOM     60  H   UNL     1       5.220   4.677 -15.935  1.00  0.00     0.167 HD
ATOM     61  C   UNL     1       5.803   2.332 -17.429  1.00  0.00     0.074 A 
ATOM     62  C   UNL     1       6.333   1.033 -17.791  1.00  0.00     0.031 C 
ATOM     63  C   UNL     1       5.029   3.095 -18.240  1.00  0.00     0.031 A 
BRANCH  50  64
ATOM     64  C   UNL     1       3.236   8.459 -15.727  1.00  0.00    -0.014 A 
ATOM     65  C   UNL     1       3.862   9.717 -15.808  1.00  0.00     0.010 A 
ATOM     66  C   UNL     1       1.833   8.391 -15.788  1.00  0.00     0.010 A 
ATOM     67  C   UNL     1       3.100  10.885 -15.892  1.00  0.00     0.020 A 
ATOM     68  C   UNL     1       1.066   9.555 -15.902  1.00  0.00     0.020 A 
ATOM     69  C   UNL     1       1.705  10.796 -15.931  1.00  0.00     0.054 A 
BRANCH  69  70
ATOM     70  S   UNL     1       0.739  12.328 -16.040  1.00  0.00     0.124 S 
ATOM     71  O   UNL     1       0.875  12.864 -14.688  1.00  0.00    -0.237 OA
ATOM     72  O   UNL     1       1.437  13.074 -17.084  1.00  0.00    -0.237 OA
ATOM     73  O   UNL     1      -0.601  11.869 -16.396  1.00  0.00    -0.744 OA
ENDBRANCH  69  70
ENDBRANCH  50  64
BRANCH  51  74
ATOM     74  C   UNL     1       8.466   0.060 -14.275  1.00  0.00    -0.014 A 
ATOM     75  C   UNL     1       9.662  -0.177 -14.973  1.00  0.00     0.010 A 
ATOM     76  C   UNL     1       8.022  -0.888 -13.335  1.00  0.00     0.010 A 
ATOM     77  C   UNL     1      10.399  -1.342 -14.740  1.00  0.00     0.020 A 
ATOM     78  C   UNL     1       8.769  -2.041 -13.080  1.00  0.00     0.020 A 
ATOM     79  C   UNL     1       9.950  -2.264 -13.791  1.00  0.00     0.054 A 
BRANCH  79  80
ATOM     80  S   UNL     1      10.961  -3.733 -13.452  1.00  0.00     0.124 S 
ATOM     81  O   UNL     1      10.726  -4.545 -14.641  1.00  0.00    -0.237 OA
ATOM     82  O   UNL     1      12.302  -3.169 -13.323  1.00  0.00    -0.237 OA
ATOM     83  O   UNL     1      10.394  -4.258 -12.211  1.00  0.00    -0.744 OA
ENDBRANCH  79  80
ENDBRANCH  51  74
BRANCH  63  84
ATOM     84  C   UNL     1       4.730   2.557 -19.614  1.00  0.00    -0.014 A 
ATOM     85  C   UNL     1       3.839   1.486 -19.801  1.00  0.00     0.010 A 
ATOM     86  C   UNL     1       5.312   3.171 -20.739  1.00  0.00     0.010 A 
ATOM     87  C   UNL     1       3.559   1.018 -21.087  1.00  0.00     0.020 A 
ATOM     88  C   UNL     1       5.013   2.723 -22.028  1.00  0.00     0.020 A 
ATOM     89  C   UNL     1       4.148   1.639 -22.193  1.00  0.00     0.054 A 
BRANCH  89  90
ATOM     90  S   UNL     1       3.735   1.041 -23.854  1.00  0.00     0.124 S 
ATOM     91  O   UNL     1       4.480  -0.213 -23.920  1.00  0.00    -0.237 OA
ATOM     92  O   UNL     1       2.281   0.906 -23.794  1.00  0.00    -0.237 OA
ATOM     93  O   UNL     1       4.220   2.101 -24.735  1.00  0.00    -0.744 OA
ENDBRANCH  89  90
ENDBRANCH  63  84
ENDBRANCH  37  38
ENDBRANCH  29  32
ENDBRANCH  27  28
ENDBRANCH  26  27
ENDBRANCH   1  26
TORSDOF 17
