REMARK SMILES O=C(NCCCNC(=O)[C@H]1CC=CC[C@@H]1C(=O)N[C@@H]1CCCN(c2ccccc2F)C1=O)c1ccc(-c2c3nc(c(-c4ccc(S(=O)(=O)[O-])cc4)c4ccc([nH]4)c(-c4ccc(S(=O)(=O)[O-])cc4)c4nc(c(-c5ccc(S(=O)(=O)[O-])cc5)c5ccc2[nH]5)C=C4)C=C3)cc1
REMARK SMILES IDX 5 1 4 2 3 3 1 4 2 5 33 7 34 8 92 9 35 10 91 11 36 12 37 13
REMARK SMILES IDX 38 14 85 15 39 16 90 17 84 18 86 19 40 20 89 21 83 22 82 23
REMARK SMILES IDX 41 25 71 26 52 27 70 28 53 29 56 30 69 31 87 32 54 33 55 34
REMARK SMILES IDX 68 36 88 37 57 38 42 39 43 40 51 41 44 42 50 43 45 44 46 45
REMARK SMILES IDX 47 46 48 47 49 48 72 49 73 50 81 51 74 52 80 53 75 54 76 55
REMARK SMILES IDX 77 56 78 57 79 58 58 59 59 60 67 61 60 62 66 63 61 64 62 65
REMARK SMILES IDX 63 66 64 67 65 68 6 69 7 70 8 71 9 73 10 74 11 75 15 76
REMARK SMILES IDX 12 77 14 78 13 79 16 80 17 81 18 82 19 84 20 85 31 86 21 87
REMARK SMILES IDX 23 88 32 89 22 90 24 91 25 92 29 93 26 94 28 95 30 96 27 97
REMARK H PARENT 3 6 86 24 56 35 7 72 18 83
REMARK Flexibility Score: inf
ROOT
ATOM      1  C   UNL     1       7.496  -3.075  -2.262  1.00  0.00     0.042 C 
ENDROOT
BRANCH   1   2
ATOM      2  C   UNL     1       8.634  -2.613  -1.356  1.00  0.00     0.118 C 
BRANCH   2   3
ATOM      3  N   UNL     1       9.954  -2.981  -1.844  1.00  0.00    -0.352 N 
ATOM      4  O   UNL     1      11.969  -2.760  -2.807  1.00  0.00    -0.269 OA
ATOM      5  C   UNL     1      10.991  -2.208  -2.311  1.00  0.00     0.251 C 
ATOM      6  H   UNL     1      10.136  -3.949  -1.838  1.00  0.00     0.163 HD
BRANCH   5   7
ATOM      7  C   UNL     1      10.937  -0.729  -2.249  1.00  0.00     0.039 A 
ATOM      8  C   UNL     1      10.482  -0.060  -1.111  1.00  0.00     0.014 A 
ATOM      9  C   UNL     1      11.409   0.008  -3.341  1.00  0.00     0.014 A 
ATOM     10  C   UNL     1      10.365   1.330  -1.119  1.00  0.00     0.010 A 
ATOM     11  C   UNL     1      11.368   1.407  -3.316  1.00  0.00     0.010 A 
ATOM     12  C   UNL     1      10.816   2.081  -2.216  1.00  0.00    -0.014 A 
BRANCH  12  13
ATOM     13  C   UNL     1      10.758   3.567  -2.174  1.00  0.00     0.031 A 
ATOM     14  C   UNL     1       9.902   4.342  -3.141  1.00  0.00     0.074 A 
ATOM     15  C   UNL     1      11.484   4.225  -1.247  1.00  0.00     0.049 A 
ATOM     16  N   UNL     1       9.738   5.637  -3.240  1.00  0.00    -0.248 NA
ATOM     17  C   UNL     1       9.136   3.565  -4.128  1.00  0.00     0.031 C 
ATOM     18  C   UNL     1      12.359   3.591  -0.257  1.00  0.00     0.029 A 
ATOM     19  N   UNL     1      11.597   5.565  -0.977  1.00  0.00    -0.354 N 
ATOM     20  C   UNL     1       8.867   5.834  -4.307  1.00  0.00     0.074 A 
ATOM     21  C   UNL     1       8.559   4.524  -4.841  1.00  0.00     0.031 C 
ATOM     22  C   UNL     1      12.887   4.537   0.534  1.00  0.00     0.029 A 
ATOM     23  C   UNL     1      12.443   5.846   0.070  1.00  0.00     0.049 A 
ATOM     24  H   UNL     1      11.118   6.260  -1.485  1.00  0.00     0.167 HD
ATOM     25  C   UNL     1       8.367   6.997  -4.793  1.00  0.00     0.031 A 
ATOM     26  C   UNL     1      12.839   7.024   0.590  1.00  0.00     0.031 A 
ATOM     27  C   UNL     1       8.684   8.299  -4.263  1.00  0.00     0.049 A 
ATOM     28  C   UNL     1      12.304   8.300   0.005  1.00  0.00     0.074 A 
ATOM     29  C   UNL     1       8.203   9.532  -4.669  1.00  0.00     0.029 A 
ATOM     30  N   UNL     1       9.570   8.541  -3.223  1.00  0.00    -0.354 N 
ATOM     31  N   UNL     1      11.450   8.460  -0.976  1.00  0.00    -0.248 NA
ATOM     32  C   UNL     1      12.784   9.553   0.602  1.00  0.00     0.031 C 
ATOM     33  C   UNL     1       8.842  10.522  -3.914  1.00  0.00     0.029 A 
ATOM     34  C   UNL     1       9.670   9.903  -2.992  1.00  0.00     0.049 A 
ATOM     35  H   UNL     1      10.056   7.846  -2.723  1.00  0.00     0.167 HD
ATOM     36  C   UNL     1      11.271   9.832  -1.101  1.00  0.00     0.074 A 
ATOM     37  C   UNL     1      12.093  10.455  -0.082  1.00  0.00     0.031 C 
ATOM     38  C   UNL     1      10.495  10.514  -1.979  1.00  0.00     0.031 A 
BRANCH  25  39
ATOM     39  C   UNL     1       7.441   6.919  -5.981  1.00  0.00    -0.014 A 
ATOM     40  C   UNL     1       6.141   6.393  -5.861  1.00  0.00     0.010 A 
ATOM     41  C   UNL     1       7.858   7.426  -7.226  1.00  0.00     0.010 A 
ATOM     42  C   UNL     1       5.295   6.335  -6.973  1.00  0.00     0.020 A 
ATOM     43  C   UNL     1       7.005   7.396  -8.333  1.00  0.00     0.020 A 
ATOM     44  C   UNL     1       5.734   6.834  -8.203  1.00  0.00     0.054 A 
BRANCH  44  45
ATOM     45  S   UNL     1       4.608   6.756  -9.624  1.00  0.00     0.124 S 
ATOM     46  O   UNL     1       4.604   5.327  -9.925  1.00  0.00    -0.237 OA
ATOM     47  O   UNL     1       3.362   7.284  -9.073  1.00  0.00    -0.237 OA
ATOM     48  O   UNL     1       5.252   7.602 -10.625  1.00  0.00    -0.744 OA
ENDBRANCH  44  45
ENDBRANCH  25  39
BRANCH  26  49
ATOM     49  C   UNL     1      13.805   7.040   1.722  1.00  0.00    -0.014 A 
ATOM     50  C   UNL     1      13.399   7.442   3.006  1.00  0.00     0.010 A 
ATOM     51  C   UNL     1      15.135   6.623   1.524  1.00  0.00     0.010 A 
ATOM     52  C   UNL     1      14.308   7.438   4.069  1.00  0.00     0.020 A 
ATOM     53  C   UNL     1      16.037   6.587   2.590  1.00  0.00     0.020 A 
ATOM     54  C   UNL     1      15.620   7.005   3.854  1.00  0.00     0.054 A 
BRANCH  54  55
ATOM     55  S   UNL     1      16.763   6.951   5.261  1.00  0.00     0.124 S 
ATOM     56  O   UNL     1      17.036   8.367   5.485  1.00  0.00    -0.237 OA
ATOM     57  O   UNL     1      15.965   6.288   6.290  1.00  0.00    -0.237 OA
ATOM     58  O   UNL     1      17.889   6.167   4.757  1.00  0.00    -0.744 OA
ENDBRANCH  54  55
ENDBRANCH  26  49
BRANCH  38  59
ATOM     59  C   UNL     1      10.466  12.015  -1.857  1.00  0.00    -0.014 A 
ATOM     60  C   UNL     1      11.572  12.802  -2.227  1.00  0.00     0.010 A 
ATOM     61  C   UNL     1       9.294  12.649  -1.406  1.00  0.00     0.010 A 
ATOM     62  C   UNL     1      11.516  14.194  -2.118  1.00  0.00     0.020 A 
ATOM     63  C   UNL     1       9.224  14.042  -1.324  1.00  0.00     0.020 A 
ATOM     64  C   UNL     1      10.341  14.805  -1.668  1.00  0.00     0.054 A 
BRANCH  64  65
ATOM     65  S   UNL     1      10.279  16.616  -1.576  1.00  0.00     0.124 S 
ATOM     66  O   UNL     1      11.123  16.891  -0.417  1.00  0.00    -0.237 OA
ATOM     67  O   UNL     1      10.831  17.021  -2.867  1.00  0.00    -0.237 OA
ATOM     68  O   UNL     1       8.858  16.905  -1.395  1.00  0.00    -0.744 OA
ENDBRANCH  64  65
ENDBRANCH  38  59
ENDBRANCH  12  13
ENDBRANCH   5   7
ENDBRANCH   2   3
ENDBRANCH   1   2
BRANCH   1  69
ATOM     69  C   UNL     1       7.371  -4.584  -2.454  1.00  0.00     0.117 C 
BRANCH  69  70
ATOM     70  N   UNL     1       7.298  -5.328  -1.213  1.00  0.00    -0.356 N 
ATOM     71  C   UNL     1       6.350  -6.197  -0.764  1.00  0.00     0.224 C 
ATOM     72  H   UNL     1       8.052  -5.182  -0.597  1.00  0.00     0.163 HD
ATOM     73  O   UNL     1       6.693  -6.943   0.156  1.00  0.00    -0.275 OA
BRANCH  71  74
ATOM     74  C   UNL     1       4.925  -6.188  -1.347  1.00  0.00     0.095 C 
ATOM     75  C   UNL     1       4.110  -7.372  -0.761  1.00  0.00     0.041 C 
ATOM     76  C   UNL     1       4.222  -4.846  -1.013  1.00  0.00     0.095 C 
ATOM     77  C   UNL     1       3.522  -7.092   0.599  1.00  0.00    -0.030 C 
ATOM     78  C   UNL     1       4.200  -4.707   0.499  1.00  0.00     0.041 C 
ATOM     79  C   UNL     1       3.591  -5.888   1.183  1.00  0.00    -0.030 C 
BRANCH  76  80
ATOM     80  C   UNL     1       2.846  -4.708  -1.695  1.00  0.00     0.224 C 
ATOM     81  O   UNL     1       2.506  -5.466  -2.609  1.00  0.00    -0.275 OA
ATOM     82  N   UNL     1       2.120  -3.549  -1.570  1.00  0.00    -0.344 N 
ATOM     83  H   UNL     1       2.289  -2.870  -2.262  1.00  0.00     0.164 HD
BRANCH  82  84
ATOM     84  C   UNL     1       1.104  -3.166  -0.532  1.00  0.00     0.172 C 
ATOM     85  C   UNL     1       0.279  -1.973  -1.085  1.00  0.00     0.037 C 
ATOM     86  C   UNL     1       1.606  -2.838   0.903  1.00  0.00     0.249 C 
ATOM     87  C   UNL     1       0.342  -0.721  -0.214  1.00  0.00     0.025 C 
ATOM     88  N   UNL     1       2.236  -1.595   1.024  1.00  0.00    -0.308 N 
ATOM     89  O   UNL     1       1.542  -3.670   1.808  1.00  0.00    -0.272 OA
ATOM     90  C   UNL     1       1.786  -0.482   0.208  1.00  0.00     0.126 C 
BRANCH  88  91
ATOM     91  C   UNL     1       3.477  -1.490   1.712  1.00  0.00     0.080 A 
ATOM     92  C   UNL     1       3.577  -1.805   3.069  1.00  0.00     0.029 A 
ATOM     93  C   UNL     1       4.657  -1.237   0.992  1.00  0.00     0.146 A 
ATOM     94  C   UNL     1       4.831  -1.842   3.692  1.00  0.00     0.002 A 
ATOM     95  C   UNL     1       5.908  -1.312   1.599  1.00  0.00     0.041 A 
ATOM     96  F   UNL     1       4.616  -1.059  -0.338  1.00  0.00    -0.205 F 
ATOM     97  C   UNL     1       5.995  -1.609   2.956  1.00  0.00     0.003 A 
ENDBRANCH  88  91
ENDBRANCH  82  84
ENDBRANCH  76  80
ENDBRANCH  71  74
ENDBRANCH  69  70
ENDBRANCH   1  69
TORSDOF 16
