REMARK SMILES O=C1OC(c2ccc(Cl)cc2)=N/C1=C/Nc1ccc(O)c(C(=O)NCCCNC(=O)c2ccc(-c3c4nc(c(-c5ccc(S(=O)(=O)[O-])cc5)c5ccc([nH]5)c(-c5ccc(S(=O)(=O)[O-])cc5)c5nc(c(-c6ccc(S(=O)(=O)[O-])cc6)c6ccc3[nH]6)C=C5)C=C4)cc2)c1
REMARK SMILES IDX 26 1 25 2 24 3 22 4 23 5 21 7 16 8 17 9 91 10 18 11 19 12
REMARK SMILES IDX 15 13 14 15 1 16 2 17 3 18 13 19 4 20 12 21 5 22 6 23 11 24
REMARK SMILES IDX 7 25 10 26 8 27 9 28 20 29 27 31 28 32 29 33 30 35 31 36
REMARK SMILES IDX 32 37 90 38 33 39 89 40 34 41 35 42 36 43 83 44 37 45 88 46
REMARK SMILES IDX 82 47 84 48 38 49 87 50 81 51 80 52 39 54 69 55 50 56 68 57
REMARK SMILES IDX 51 58 54 59 67 60 85 61 52 62 53 63 66 65 86 66 55 67 40 68
REMARK SMILES IDX 41 69 49 70 42 71 48 72 43 73 44 74 45 75 46 76 47 77 70 78
REMARK SMILES IDX 71 79 79 80 72 81 78 82 73 83 74 84 75 85 76 86 77 87 56 88
REMARK SMILES IDX 57 89 65 90 58 91 64 92 59 93 60 94 61 95 62 96 63 97
REMARK H PARENT 24 6 15 14 20 30 28 34 84 53 54 64
REMARK Flexibility Score: inf
ROOT
ATOM      1  C   UNL     1      -2.640 -10.282  -0.215  1.00  0.00     0.042 C 
ENDROOT
BRANCH   1   2
ATOM      2  C   UNL     1      -1.980  -9.459  -1.323  1.00  0.00     0.118 C 
BRANCH   2   3
ATOM      3  N   UNL     1      -2.820  -8.339  -1.691  1.00  0.00    -0.352 N 
ATOM      4  C   UNL     1      -2.854  -7.032  -1.284  1.00  0.00     0.255 C 
ATOM      5  O   UNL     1      -3.757  -6.347  -1.778  1.00  0.00    -0.269 OA
ATOM      6  H   UNL     1      -3.500  -8.561  -2.366  1.00  0.00     0.163 HD
BRANCH   4   7
ATOM      7  C   UNL     1      -1.854  -6.361  -0.395  1.00  0.00     0.083 A 
ATOM      8  C   UNL     1      -0.841  -4.168   0.097  1.00  0.00     0.039 A 
ATOM      9  C   UNL     1       0.009  -4.781   1.016  1.00  0.00     0.030 A 
ATOM     10  C   UNL     1      -1.742  -4.970  -0.612  1.00  0.00     0.043 A 
ATOM     11  C   UNL     1      -0.115  -6.138   1.294  1.00  0.00     0.049 A 
ATOM     12  C   UNL     1      -1.061  -6.917   0.617  1.00  0.00     0.128 A 
BRANCH   8  13
ATOM     13  N   UNL     1      -0.778  -2.797  -0.180  1.00  0.00    -0.360 N 
ATOM     14  H   UNL     1      -1.622  -2.356  -0.432  1.00  0.00     0.166 HD
BRANCH  13  15
ATOM     15  C   UNL     1       0.341  -2.010  -0.135  1.00  0.00     0.119 C 
ATOM     16  O   UNL     1      -1.897   0.022  -0.022  1.00  0.00    -0.244 OA
ATOM     17  C   UNL     1      -0.707   0.256  -0.015  1.00  0.00     0.365 C 
ATOM     18  O   UNL     1      -0.097   1.473   0.084  1.00  0.00    -0.402 OA
ATOM     19  C   UNL     1       0.446  -0.680  -0.108  1.00  0.00     0.168 C 
ATOM     20  C   UNL     1       1.230   1.231  -0.005  1.00  0.00     0.231 C 
ATOM     21  N   UNL     1       1.628   0.008  -0.128  1.00  0.00    -0.204 NA
BRANCH  20  22
ATOM     22  C   UNL     1       2.077   2.416  -0.021  1.00  0.00     0.037 A 
ATOM     23  C   UNL     1       1.980   3.373   0.991  1.00  0.00     0.015 A 
ATOM     24  C   UNL     1       3.015   2.549  -1.050  1.00  0.00     0.015 A 
ATOM     25  C   UNL     1       2.839   4.474   0.972  1.00  0.00     0.021 A 
ATOM     26  C   UNL     1       3.856   3.661  -1.076  1.00  0.00     0.021 A 
ATOM     27  C   UNL     1       3.768   4.616  -0.062  1.00  0.00     0.041 A 
ATOM     28  Cl  UNL     1       4.819   5.977  -0.084  1.00  0.00    -0.084 Cl
ENDBRANCH  20  22
ENDBRANCH  13  15
ENDBRANCH   8  13
BRANCH  12  29
ATOM     29  O   UNL     1      -1.202  -8.203   1.041  1.00  0.00    -0.507 OA
ATOM     30  H   UNL     1      -0.650  -8.535   1.721  1.00  0.00     0.293 HD
ENDBRANCH  12  29
ENDBRANCH   4   7
ENDBRANCH   2   3
ENDBRANCH   1   2
BRANCH   1  31
ATOM     31  C   UNL     1      -3.707 -11.239  -0.733  1.00  0.00     0.118 C 
BRANCH  31  32
ATOM     32  N   UNL     1      -3.122 -12.323  -1.511  1.00  0.00    -0.352 N 
ATOM     33  C   UNL     1      -3.114 -13.673  -1.269  1.00  0.00     0.251 C 
ATOM     34  H   UNL     1      -2.663 -12.044  -2.336  1.00  0.00     0.163 HD
ATOM     35  O   UNL     1      -2.338 -14.394  -1.891  1.00  0.00    -0.269 OA
BRANCH  33  36
ATOM     36  C   UNL     1      -4.024 -14.257  -0.261  1.00  0.00     0.039 A 
ATOM     37  C   UNL     1      -3.550 -15.275   0.571  1.00  0.00     0.014 A 
ATOM     38  C   UNL     1      -5.348 -13.824  -0.153  1.00  0.00     0.014 A 
ATOM     39  C   UNL     1      -4.383 -15.811   1.554  1.00  0.00     0.010 A 
ATOM     40  C   UNL     1      -6.152 -14.303   0.877  1.00  0.00     0.010 A 
ATOM     41  C   UNL     1      -5.678 -15.299   1.742  1.00  0.00    -0.014 A 
BRANCH  41  42
ATOM     42  C   UNL     1      -6.540 -15.768   2.855  1.00  0.00     0.031 A 
ATOM     43  C   UNL     1      -7.842 -16.462   2.569  1.00  0.00     0.074 A 
ATOM     44  C   UNL     1      -6.179 -15.499   4.125  1.00  0.00     0.049 A 
ATOM     45  N   UNL     1      -8.755 -16.880   3.409  1.00  0.00    -0.248 NA
ATOM     46  C   UNL     1      -8.173 -16.698   1.155  1.00  0.00     0.031 C 
ATOM     47  C   UNL     1      -4.952 -14.805   4.526  1.00  0.00     0.029 A 
ATOM     48  N   UNL     1      -6.810 -15.768   5.313  1.00  0.00    -0.354 N 
ATOM     49  C   UNL     1      -9.771 -17.417   2.627  1.00  0.00     0.074 A 
ATOM     50  C   UNL     1      -9.387 -17.222   1.245  1.00  0.00     0.031 C 
ATOM     51  C   UNL     1      -4.906 -14.732   5.865  1.00  0.00     0.029 A 
ATOM     52  C   UNL     1      -6.121 -15.322   6.417  1.00  0.00     0.049 A 
ATOM     53  H   UNL     1      -7.674 -16.237   5.370  1.00  0.00     0.167 HD
ATOM     54  C   UNL     1     -10.912 -18.030   3.023  1.00  0.00     0.031 A 
ATOM     55  C   UNL     1      -6.436 -15.370   7.725  1.00  0.00     0.031 A 
ATOM     56  C   UNL     1     -11.293 -18.205   4.401  1.00  0.00     0.049 A 
ATOM     57  C   UNL     1      -7.733 -16.008   8.140  1.00  0.00     0.074 A 
ATOM     58  C   UNL     1     -12.406 -18.849   4.912  1.00  0.00     0.029 A 
ATOM     59  N   UNL     1     -10.577 -17.722   5.488  1.00  0.00    -0.354 N 
ATOM     60  N   UNL     1      -8.650 -16.570   7.390  1.00  0.00    -0.248 NA
ATOM     61  C   UNL     1      -8.035 -16.021   9.577  1.00  0.00     0.031 C 
ATOM     62  C   UNL     1     -12.399 -18.696   6.302  1.00  0.00     0.029 A 
ATOM     63  C   UNL     1     -11.243 -18.021   6.665  1.00  0.00     0.049 A 
ATOM     64  H   UNL     1      -9.722 -17.238   5.431  1.00  0.00     0.167 HD
ATOM     65  C   UNL     1      -9.628 -17.027   8.267  1.00  0.00     0.074 A 
ATOM     66  C   UNL     1      -9.180 -16.690   9.603  1.00  0.00     0.031 C 
ATOM     67  C   UNL     1     -10.789 -17.670   7.989  1.00  0.00     0.031 A 
BRANCH  54  68
ATOM     68  C   UNL     1     -11.839 -18.537   1.947  1.00  0.00    -0.014 A 
ATOM     69  C   UNL     1     -11.467 -19.602   1.105  1.00  0.00     0.010 A 
ATOM     70  C   UNL     1     -13.110 -17.954   1.784  1.00  0.00     0.010 A 
ATOM     71  C   UNL     1     -12.322 -20.034   0.087  1.00  0.00     0.020 A 
ATOM     72  C   UNL     1     -13.982 -18.407   0.789  1.00  0.00     0.020 A 
ATOM     73  C   UNL     1     -13.572 -19.430  -0.068  1.00  0.00     0.054 A 
BRANCH  73  74
ATOM     74  S   UNL     1     -14.658 -20.011  -1.399  1.00  0.00     0.124 S 
ATOM     75  O   UNL     1     -13.972 -19.511  -2.587  1.00  0.00    -0.237 OA
ATOM     76  O   UNL     1     -14.632 -21.461  -1.223  1.00  0.00    -0.237 OA
ATOM     77  O   UNL     1     -15.940 -19.374  -1.107  1.00  0.00    -0.744 OA
ENDBRANCH  73  74
ENDBRANCH  54  68
BRANCH  55  78
ATOM     78  C   UNL     1      -5.496 -14.807   8.733  1.00  0.00    -0.014 A 
ATOM     79  C   UNL     1      -4.796 -15.658   9.606  1.00  0.00     0.010 A 
ATOM     80  C   UNL     1      -5.267 -13.420   8.802  1.00  0.00     0.010 A 
ATOM     81  C   UNL     1      -3.891 -15.134  10.533  1.00  0.00     0.020 A 
ATOM     82  C   UNL     1      -4.339 -12.895   9.706  1.00  0.00     0.020 A 
ATOM     83  C   UNL     1      -3.662 -13.755  10.571  1.00  0.00     0.054 A 
BRANCH  83  84
ATOM     84  S   UNL     1      -2.429 -13.108  11.734  1.00  0.00     0.124 S 
ATOM     85  O   UNL     1      -3.091 -13.300  13.020  1.00  0.00    -0.237 OA
ATOM     86  O   UNL     1      -1.276 -13.969  11.479  1.00  0.00    -0.237 OA
ATOM     87  O   UNL     1      -2.261 -11.717  11.316  1.00  0.00    -0.744 OA
ENDBRANCH  83  84
ENDBRANCH  55  78
BRANCH  67  88
ATOM     88  C   UNL     1     -11.654 -18.076   9.154  1.00  0.00    -0.014 A 
ATOM     89  C   UNL     1     -12.360 -17.120   9.907  1.00  0.00     0.010 A 
ATOM     90  C   UNL     1     -11.815 -19.441   9.457  1.00  0.00     0.010 A 
ATOM     91  C   UNL     1     -13.194 -17.521  10.954  1.00  0.00     0.020 A 
ATOM     92  C   UNL     1     -12.673 -19.847  10.482  1.00  0.00     0.020 A 
ATOM     93  C   UNL     1     -13.349 -18.883  11.231  1.00  0.00     0.054 A 
BRANCH  93  94
ATOM     94  S   UNL     1     -14.487 -19.378  12.554  1.00  0.00     0.124 S 
ATOM     95  O   UNL     1     -13.768 -18.950  13.751  1.00  0.00    -0.237 OA
ATOM     96  O   UNL     1     -15.693 -18.615  12.239  1.00  0.00    -0.237 OA
ATOM     97  O   UNL     1     -14.610 -20.824  12.385  1.00  0.00    -0.744 OA
ENDBRANCH  93  94
ENDBRANCH  67  88
ENDBRANCH  41  42
ENDBRANCH  33  36
ENDBRANCH  31  32
ENDBRANCH   1  31
TORSDOF 17
