REMARK SMILES COc1cc(Cl)c(C)cc1N1C(=O)C[C@H](Nc2cc(C(=O)NCCCNC(=O)c3ccc(-c4c5nc(c(-c6ccc(S(=O)(=O)[O-])cc6)c6ccc([nH]6)c(-c6ccc(S(=O)(=O)[O-])cc6)c6nc(c(-c7ccc(S(=O)(=O)[O-])cc7)c7ccc4[nH]7)C=C6)C=C5)cc3)ccc2C)C1=O
REMARK SMILES IDX 23 1 22 2 20 3 21 4 19 6 17 7 18 8 91 9 90 10 92 11 89 12
REMARK SMILES IDX 16 13 15 15 11 16 12 17 93 18 13 19 14 20 94 21 10 22 3 23
REMARK SMILES IDX 4 24 5 25 9 26 6 27 7 28 8 29 2 30 1 31 24 32 25 33 26 34
REMARK SMILES IDX 27 35 28 37 29 38 30 39 88 40 31 41 87 42 32 43 33 44 34 45
REMARK SMILES IDX 81 46 35 47 86 48 80 49 82 50 36 51 85 52 79 53 78 54 37 56
REMARK SMILES IDX 67 57 48 58 66 59 49 60 52 61 65 62 83 63 50 64 51 65 64 67
REMARK SMILES IDX 84 68 53 69 38 70 39 71 47 72 40 73 46 74 41 75 42 76 43 77
REMARK SMILES IDX 44 78 45 79 68 80 69 81 77 82 70 83 76 84 71 85 72 86 73 87
REMARK SMILES IDX 74 88 75 89 54 90 55 91 63 92 56 93 62 94 57 95 58 96 59 97
REMARK SMILES IDX 60 98 61 99
REMARK H PARENT 22 5 16 14 26 36 82 55 52 66
REMARK Flexibility Score: inf
ROOT
ATOM      1  C   UNL     1       2.608  -4.177  -3.198  1.00  0.00     0.118 C 
ENDROOT
BRANCH   1   2
ATOM      2  N   UNL     1       3.447  -5.353  -2.967  1.00  0.00    -0.352 N 
ATOM      3  C   UNL     1       4.703  -5.576  -2.468  1.00  0.00     0.251 C 
ATOM      4  O   UNL     1       5.075  -6.753  -2.425  1.00  0.00    -0.269 OA
ATOM      5  H   UNL     1       3.000  -6.188  -3.236  1.00  0.00     0.163 HD
BRANCH   3   6
ATOM      6  C   UNL     1       5.653  -4.529  -1.978  1.00  0.00     0.041 A 
ATOM      7  C   UNL     1       6.307  -2.269  -1.280  1.00  0.00     0.038 A 
ATOM      8  C   UNL     1       5.364  -3.175  -1.805  1.00  0.00     0.039 A 
ATOM      9  C   UNL     1       7.608  -2.718  -0.997  1.00  0.00    -0.028 A 
ATOM     10  C   UNL     1       7.913  -4.073  -1.169  1.00  0.00     0.006 A 
ATOM     11  C   UNL     1       8.674  -1.811  -0.444  1.00  0.00     0.046 C 
ATOM     12  C   UNL     1       6.948  -4.962  -1.648  1.00  0.00     0.014 A 
BRANCH   7  13
ATOM     13  N   UNL     1       6.013  -0.905  -1.202  1.00  0.00    -0.373 N 
ATOM     14  H   UNL     1       6.653  -0.238  -1.542  1.00  0.00     0.161 HD
BRANCH  13  15
ATOM     15  C   UNL     1       4.740  -0.476  -0.608  1.00  0.00     0.179 C 
ATOM     16  N   UNL     1       3.418   1.397  -1.055  1.00  0.00    -0.245 N 
ATOM     17  C   UNL     1       4.112   1.727   0.074  1.00  0.00     0.236 C 
ATOM     18  C   UNL     1       3.854   0.225  -1.621  1.00  0.00     0.256 C 
ATOM     19  O   UNL     1       4.045   2.762   0.726  1.00  0.00    -0.274 OA
ATOM     20  C   UNL     1       5.008   0.586   0.447  1.00  0.00     0.136 C 
ATOM     21  O   UNL     1       3.712  -0.146  -2.779  1.00  0.00    -0.272 OA
BRANCH  16  22
ATOM     22  C   UNL     1       2.420   2.199  -1.633  1.00  0.00     0.094 A 
ATOM     23  C   UNL     1       1.143   1.671  -1.862  1.00  0.00     0.144 A 
ATOM     24  C   UNL     1       0.146   2.443  -2.455  1.00  0.00     0.069 A 
ATOM     25  C   UNL     1       0.418   3.765  -2.809  1.00  0.00     0.047 A 
ATOM     26  C   UNL     1       2.679   3.533  -1.967  1.00  0.00     0.035 A 
ATOM     27  Cl  UNL     1      -0.858   4.701  -3.504  1.00  0.00    -0.084 Cl
ATOM     28  C   UNL     1       1.692   4.320  -2.587  1.00  0.00    -0.030 A 
ATOM     29  C   UNL     1       2.028   5.722  -3.011  1.00  0.00     0.046 C 
BRANCH  23  30
ATOM     30  O   UNL     1       0.828   0.388  -1.506  1.00  0.00    -0.495 OA
ATOM     31  C   UNL     1       0.556   0.268  -0.110  1.00  0.00     0.278 C 
ENDBRANCH  23  30
ENDBRANCH  16  22
ENDBRANCH  13  15
ENDBRANCH   7  13
ENDBRANCH   3   6
ENDBRANCH   1   2
BRANCH   1  32
ATOM     32  C   UNL     1       3.029  -3.405  -4.448  1.00  0.00     0.042 C 
BRANCH  32  33
ATOM     33  C   UNL     1       1.962  -3.430  -5.537  1.00  0.00     0.118 C 
BRANCH  33  34
ATOM     34  N   UNL     1       1.059  -2.281  -5.561  1.00  0.00    -0.352 N 
ATOM     35  C   UNL     1       0.071  -2.000  -6.506  1.00  0.00     0.251 C 
ATOM     36  H   UNL     1       1.159  -1.632  -4.828  1.00  0.00     0.163 HD
ATOM     37  O   UNL     1      -0.571  -0.982  -6.548  1.00  0.00    -0.269 OA
BRANCH  35  38
ATOM     38  C   UNL     1      -0.253  -3.114  -7.427  1.00  0.00     0.039 A 
ATOM     39  C   UNL     1      -1.381  -3.872  -7.090  1.00  0.00     0.014 A 
ATOM     40  C   UNL     1       0.757  -3.618  -8.241  1.00  0.00     0.014 A 
ATOM     41  C   UNL     1      -1.369  -5.232  -7.356  1.00  0.00     0.010 A 
ATOM     42  C   UNL     1       0.811  -4.987  -8.417  1.00  0.00     0.010 A 
ATOM     43  C   UNL     1      -0.210  -5.793  -7.899  1.00  0.00    -0.014 A 
BRANCH  43  44
ATOM     44  C   UNL     1       0.029  -7.229  -7.862  1.00  0.00     0.031 A 
ATOM     45  C   UNL     1      -0.212  -8.005  -9.093  1.00  0.00     0.074 A 
ATOM     46  C   UNL     1       0.396  -7.841  -6.712  1.00  0.00     0.049 A 
ATOM     47  N   UNL     1      -0.650  -9.218  -9.130  1.00  0.00    -0.248 NA
ATOM     48  C   UNL     1      -0.058  -7.403 -10.412  1.00  0.00     0.031 C 
ATOM     49  C   UNL     1       0.742  -9.251  -6.550  1.00  0.00     0.029 A 
ATOM     50  N   UNL     1       0.292  -7.367  -5.399  1.00  0.00    -0.354 N 
ATOM     51  C   UNL     1      -0.536  -9.647 -10.435  1.00  0.00     0.074 A 
ATOM     52  C   UNL     1      -0.294  -8.449 -11.203  1.00  0.00     0.031 C 
ATOM     53  C   UNL     1       0.494  -9.602  -5.278  1.00  0.00     0.029 A 
ATOM     54  C   UNL     1      -0.127  -8.459  -4.625  1.00  0.00     0.049 A 
ATOM     55  H   UNL     1       0.475  -6.452  -5.082  1.00  0.00     0.167 HD
ATOM     56  C   UNL     1      -0.479 -10.983 -10.707  1.00  0.00     0.031 A 
ATOM     57  C   UNL     1      -1.311  -8.493  -3.948  1.00  0.00     0.031 A 
ATOM     58  C   UNL     1      -0.743 -11.779  -9.507  1.00  0.00     0.049 A 
ATOM     59  C   UNL     1      -2.217  -9.620  -4.407  1.00  0.00     0.074 A 
ATOM     60  C   UNL     1       0.084 -12.452  -8.621  1.00  0.00     0.029 A 
ATOM     61  N   UNL     1      -1.982 -11.675  -8.878  1.00  0.00    -0.354 N 
ATOM     62  N   UNL     1      -2.049 -10.289  -5.517  1.00  0.00    -0.248 NA
ATOM     63  C   UNL     1      -3.393 -10.069  -3.667  1.00  0.00     0.031 C 
ATOM     64  C   UNL     1      -0.635 -12.645  -7.410  1.00  0.00     0.029 A 
ATOM     65  C   UNL     1      -1.911 -12.134  -7.574  1.00  0.00     0.049 A 
ATOM     66  H   UNL     1      -2.797 -11.322  -9.303  1.00  0.00     0.167 HD
ATOM     67  C   UNL     1      -3.028 -11.241  -5.643  1.00  0.00     0.074 A 
ATOM     68  C   UNL     1      -3.842 -11.067  -4.451  1.00  0.00     0.031 C 
ATOM     69  C   UNL     1      -3.089 -12.097  -6.709  1.00  0.00     0.031 A 
BRANCH  56  70
ATOM     70  C   UNL     1       0.178 -11.510 -11.974  1.00  0.00    -0.014 A 
ATOM     71  C   UNL     1       0.845 -12.752 -11.962  1.00  0.00     0.010 A 
ATOM     72  C   UNL     1       0.268 -10.783 -13.178  1.00  0.00     0.010 A 
ATOM     73  C   UNL     1       1.655 -13.174 -13.034  1.00  0.00     0.020 A 
ATOM     74  C   UNL     1       1.111 -11.162 -14.233  1.00  0.00     0.020 A 
ATOM     75  C   UNL     1       1.814 -12.355 -14.149  1.00  0.00     0.054 A 
BRANCH  75  76
ATOM     76  S   UNL     1       2.942 -12.850 -15.479  1.00  0.00     0.124 S 
ATOM     77  O   UNL     1       4.192 -13.091 -14.764  1.00  0.00    -0.237 OA
ATOM     78  O   UNL     1       2.285 -14.035 -16.021  1.00  0.00    -0.237 OA
ATOM     79  O   UNL     1       2.960 -11.690 -16.369  1.00  0.00    -0.744 OA
ENDBRANCH  75  76
ENDBRANCH  56  70
BRANCH  57  80
ATOM     80  C   UNL     1      -1.747  -7.199  -3.355  1.00  0.00    -0.014 A 
ATOM     81  C   UNL     1      -1.029  -6.729  -2.235  1.00  0.00     0.010 A 
ATOM     82  C   UNL     1      -2.569  -6.297  -4.051  1.00  0.00     0.010 A 
ATOM     83  C   UNL     1      -1.020  -5.371  -1.903  1.00  0.00     0.020 A 
ATOM     84  C   UNL     1      -2.556  -4.928  -3.725  1.00  0.00     0.020 A 
ATOM     85  C   UNL     1      -1.735  -4.470  -2.690  1.00  0.00     0.054 A 
BRANCH  85  86
ATOM     86  S   UNL     1      -1.469  -2.692  -2.410  1.00  0.00     0.124 S 
ATOM     87  O   UNL     1      -1.583  -2.579  -0.957  1.00  0.00    -0.237 OA
ATOM     88  O   UNL     1      -0.119  -2.512  -2.941  1.00  0.00    -0.237 OA
ATOM     89  O   UNL     1      -2.544  -2.067  -3.172  1.00  0.00    -0.744 OA
ENDBRANCH  85  86
ENDBRANCH  57  80
BRANCH  69  90
ATOM     90  C   UNL     1      -4.219 -13.058  -7.017  1.00  0.00    -0.014 A 
ATOM     91  C   UNL     1      -5.532 -12.922  -6.542  1.00  0.00     0.010 A 
ATOM     92  C   UNL     1      -3.986 -14.105  -7.944  1.00  0.00     0.010 A 
ATOM     93  C   UNL     1      -6.545 -13.817  -6.923  1.00  0.00     0.020 A 
ATOM     94  C   UNL     1      -4.996 -14.971  -8.370  1.00  0.00     0.020 A 
ATOM     95  C   UNL     1      -6.270 -14.837  -7.835  1.00  0.00     0.054 A 
BRANCH  95  96
ATOM     96  S   UNL     1      -7.599 -15.938  -8.385  1.00  0.00     0.124 S 
ATOM     97  O   UNL     1      -7.550 -16.995  -7.379  1.00  0.00    -0.237 OA
ATOM     98  O   UNL     1      -8.780 -15.079  -8.333  1.00  0.00    -0.237 OA
ATOM     99  O   UNL     1      -7.183 -16.329  -9.729  1.00  0.00    -0.744 OA
ENDBRANCH  95  96
ENDBRANCH  69  90
ENDBRANCH  43  44
ENDBRANCH  35  38
ENDBRANCH  33  34
ENDBRANCH  32  33
ENDBRANCH   1  32
TORSDOF 17
