REMARK SMILES CC(C)[C@@H]1CSC[C@@H](C(=O)NCCCNC(=O)c2ccc(-c3c4nc(c(-c5ccc(S(=O)(=O)[O-])cc5)c5ccc([nH]5)c(-c5ccc(S(=O)(=O)[O-])cc5)c5nc(c(-c6ccc(S(=O)(=O)[O-])cc6)c6ccc3[nH]6)C=C5)C=C4)cc2)[NH2+]1
REMARK SMILES IDX 14 1 13 2 12 3 11 4 9 5 10 6 8 8 4 9 5 10 78 11 6 12 7 15
REMARK SMILES IDX 2 16 1 17 3 18 15 19 16 20 17 22 18 23 19 24 77 25 20 26
REMARK SMILES IDX 76 27 21 28 22 29 23 30 70 31 24 32 75 33 69 34 71 35 25 36
REMARK SMILES IDX 74 37 68 38 67 39 26 41 56 42 37 43 55 44 38 45 41 46 54 47
REMARK SMILES IDX 72 48 39 49 40 50 53 52 73 53 42 54 27 55 28 56 36 57 29 58
REMARK SMILES IDX 35 59 30 60 31 61 32 62 33 63 34 64 57 65 58 66 66 67 59 68
REMARK SMILES IDX 65 69 60 70 61 71 62 72 63 73 64 74 43 75 44 76 52 77 45 78
REMARK SMILES IDX 51 79 46 80 47 81 48 82 49 83 50 84
REMARK H PARENT 11 7 78 13 78 14 15 21 71 40 41 51
REMARK Flexibility Score: inf
ROOT
ATOM      1  C   UNL     1      -5.641   4.494   1.438  1.00  0.00     0.118 C 
ENDROOT
BRANCH   1   2
ATOM      2  C   UNL     1      -4.866   3.500   0.588  1.00  0.00     0.042 C 
BRANCH   2   3
ATOM      3  C   UNL     1      -4.030   4.143  -0.504  1.00  0.00     0.118 C 
BRANCH   3   4
ATOM      4  N   UNL     1      -2.980   5.002   0.021  1.00  0.00    -0.351 N 
ATOM      5  C   UNL     1      -1.625   4.895  -0.123  1.00  0.00     0.279 C 
ATOM      6  O   UNL     1      -0.909   5.737   0.424  1.00  0.00    -0.268 OA
ATOM      7  H   UNL     1      -3.289   5.769   0.556  1.00  0.00     0.163 HD
BRANCH   5   8
ATOM      8  C   UNL     1      -1.013   3.755  -0.961  1.00  0.00     0.282 C 
ATOM      9  C   UNL     1      -0.906   1.280  -1.068  1.00  0.00     0.195 C 
ATOM     10  C   UNL     1      -1.529   1.232  -2.476  1.00  0.00     0.135 C 
ATOM     11  N   UNL     1      -1.381   2.464  -0.326  1.00  0.00    -0.332 N 
ATOM     12  S   UNL     1      -1.058   2.607  -3.571  1.00  0.00    -0.149 SA
ATOM     13  H   UNL     1      -0.978   2.440   0.611  1.00  0.00     0.347 HD
ATOM     14  H   UNL     1      -2.400   2.419  -0.312  1.00  0.00     0.347 HD
ATOM     15  C   UNL     1      -1.387   3.989  -2.438  1.00  0.00     0.145 C 
BRANCH   9  16
ATOM     16  C   UNL     1       0.640   1.076  -0.918  1.00  0.00     0.042 C 
ATOM     17  C   UNL     1       0.928  -0.019   0.121  1.00  0.00     0.014 C 
ATOM     18  C   UNL     1       1.409   0.750  -2.199  1.00  0.00     0.014 C 
ENDBRANCH   9  16
ENDBRANCH   5   8
ENDBRANCH   3   4
ENDBRANCH   2   3
ENDBRANCH   1   2
BRANCH   1  19
ATOM     19  N   UNL     1      -6.567   5.305   0.657  1.00  0.00    -0.352 N 
ATOM     20  C   UNL     1      -7.925   5.451   0.769  1.00  0.00     0.251 C 
ATOM     21  H   UNL     1      -6.151   5.831  -0.064  1.00  0.00     0.163 HD
ATOM     22  O   UNL     1      -8.541   6.047  -0.117  1.00  0.00    -0.269 OA
BRANCH  20  23
ATOM     23  C   UNL     1      -8.651   4.892   1.929  1.00  0.00     0.039 A 
ATOM     24  C   UNL     1      -9.916   4.332   1.730  1.00  0.00     0.014 A 
ATOM     25  C   UNL     1      -8.106   4.941   3.214  1.00  0.00     0.014 A 
ATOM     26  C   UNL     1     -10.609   3.784   2.811  1.00  0.00     0.010 A 
ATOM     27  C   UNL     1      -8.748   4.301   4.268  1.00  0.00     0.010 A 
ATOM     28  C   UNL     1     -10.019   3.740   4.085  1.00  0.00    -0.014 A 
BRANCH  28  29
ATOM     29  C   UNL     1     -10.736   3.156   5.247  1.00  0.00     0.031 A 
ATOM     30  C   UNL     1     -11.076   4.020   6.434  1.00  0.00     0.074 A 
ATOM     31  C   UNL     1     -11.043   1.844   5.254  1.00  0.00     0.049 A 
ATOM     32  N   UNL     1     -11.669   3.689   7.552  1.00  0.00    -0.248 NA
ATOM     33  C   UNL     1     -10.668   5.434   6.370  1.00  0.00     0.031 C 
ATOM     34  C   UNL     1     -10.723   0.891   4.188  1.00  0.00     0.029 A 
ATOM     35  N   UNL     1     -11.694   1.083   6.192  1.00  0.00    -0.354 N 
ATOM     36  C   UNL     1     -11.691   4.845   8.325  1.00  0.00     0.074 A 
ATOM     37  C   UNL     1     -10.992   5.867   7.579  1.00  0.00     0.031 C 
ATOM     38  C   UNL     1     -11.208  -0.317   4.517  1.00  0.00     0.029 A 
ATOM     39  C   UNL     1     -11.839  -0.235   5.830  1.00  0.00     0.049 A 
ATOM     40  H   UNL     1     -12.026   1.447   7.044  1.00  0.00     0.167 HD
ATOM     41  C   UNL     1     -12.266   5.049   9.535  1.00  0.00     0.031 A 
ATOM     42  C   UNL     1     -12.415  -1.264   6.482  1.00  0.00     0.031 A 
ATOM     43  C   UNL     1     -12.973   4.033  10.268  1.00  0.00     0.049 A 
ATOM     44  C   UNL     1     -13.054  -1.013   7.821  1.00  0.00     0.074 A 
ATOM     45  C   UNL     1     -13.634   4.148  11.478  1.00  0.00     0.029 A 
ATOM     46  N   UNL     1     -13.114   2.716   9.856  1.00  0.00    -0.354 N 
ATOM     47  N   UNL     1     -13.118   0.103   8.508  1.00  0.00    -0.248 NA
ATOM     48  C   UNL     1     -13.717  -2.156   8.462  1.00  0.00     0.031 C 
ATOM     49  C   UNL     1     -14.131   2.887  11.823  1.00  0.00     0.029 A 
ATOM     50  C   UNL     1     -13.838   2.003  10.797  1.00  0.00     0.049 A 
ATOM     51  H   UNL     1     -12.754   2.344   9.020  1.00  0.00     0.167 HD
ATOM     52  C   UNL     1     -13.856  -0.197   9.648  1.00  0.00     0.074 A 
ATOM     53  C   UNL     1     -14.228  -1.594   9.548  1.00  0.00     0.031 C 
ATOM     54  C   UNL     1     -14.197   0.611  10.683  1.00  0.00     0.031 A 
BRANCH  41  55
ATOM     55  C   UNL     1     -12.150   6.427  10.135  1.00  0.00    -0.014 A 
ATOM     56  C   UNL     1     -12.814   7.528   9.561  1.00  0.00     0.010 A 
ATOM     57  C   UNL     1     -11.391   6.622  11.303  1.00  0.00     0.010 A 
ATOM     58  C   UNL     1     -12.681   8.804  10.114  1.00  0.00     0.020 A 
ATOM     59  C   UNL     1     -11.282   7.892  11.879  1.00  0.00     0.020 A 
ATOM     60  C   UNL     1     -11.913   8.978  11.269  1.00  0.00     0.054 A 
BRANCH  60  61
ATOM     61  S   UNL     1     -11.773  10.643  11.975  1.00  0.00     0.124 S 
ATOM     62  O   UNL     1     -10.902  11.307  11.008  1.00  0.00    -0.237 OA
ATOM     63  O   UNL     1     -13.159  11.102  11.990  1.00  0.00    -0.237 OA
ATOM     64  O   UNL     1     -11.180  10.414  13.290  1.00  0.00    -0.744 OA
ENDBRANCH  60  61
ENDBRANCH  41  55
BRANCH  42  65
ATOM     65  C   UNL     1     -12.432  -2.618   5.863  1.00  0.00    -0.014 A 
ATOM     66  C   UNL     1     -13.633  -3.175   5.389  1.00  0.00     0.010 A 
ATOM     67  C   UNL     1     -11.239  -3.351   5.726  1.00  0.00     0.010 A 
ATOM     68  C   UNL     1     -13.645  -4.447   4.809  1.00  0.00     0.020 A 
ATOM     69  C   UNL     1     -11.242  -4.611   5.120  1.00  0.00     0.020 A 
ATOM     70  C   UNL     1     -12.447  -5.156   4.675  1.00  0.00     0.054 A 
BRANCH  70  71
ATOM     71  S   UNL     1     -12.477  -6.782   3.872  1.00  0.00     0.124 S 
ATOM     72  O   UNL     1     -13.111  -7.613   4.890  1.00  0.00    -0.237 OA
ATOM     73  O   UNL     1     -13.275  -6.527   2.675  1.00  0.00    -0.237 OA
ATOM     74  O   UNL     1     -11.066  -7.066   3.621  1.00  0.00    -0.744 OA
ENDBRANCH  70  71
ENDBRANCH  42  65
BRANCH  54  75
ATOM     75  C   UNL     1     -15.053   0.017  11.771  1.00  0.00    -0.014 A 
ATOM     76  C   UNL     1     -14.542  -0.938  12.668  1.00  0.00     0.010 A 
ATOM     77  C   UNL     1     -16.381   0.456  11.920  1.00  0.00     0.010 A 
ATOM     78  C   UNL     1     -15.359  -1.476  13.665  1.00  0.00     0.020 A 
ATOM     79  C   UNL     1     -17.191  -0.056  12.936  1.00  0.00     0.020 A 
ATOM     80  C   UNL     1     -16.680  -1.034  13.791  1.00  0.00     0.054 A 
BRANCH  80  81
ATOM     81  S   UNL     1     -17.713  -1.730  15.108  1.00  0.00     0.124 S 
ATOM     82  O   UNL     1     -17.989  -3.071  14.600  1.00  0.00    -0.237 OA
ATOM     83  O   UNL     1     -16.833  -1.667  16.273  1.00  0.00    -0.237 OA
ATOM     84  O   UNL     1     -18.866  -0.833  15.156  1.00  0.00    -0.744 OA
ENDBRANCH  80  81
ENDBRANCH  54  75
ENDBRANCH  28  29
ENDBRANCH  20  23
ENDBRANCH   1  19
TORSDOF 14
