REMARK SMILES CC[C@@H]1CCC[C@](CCCCCO)(C(=O)NCCCNC(=O)c2ccc(-c3c4nc(c(-c5ccc(S(=O)(=O)[O-])cc5)c5ccc([nH]5)c(-c5ccc(S(=O)(=O)[O-])cc5)c5nc(c(-c6ccc(S(=O)(=O)[O-])cc6)c6ccc3[nH]6)C=C5)C=C4)cc2)C1
REMARK SMILES IDX 14 1 15 2 16 3 7 5 3 6 4 7 83 8 5 9 6 10 2 11 1 12 8 13 9 14
REMARK SMILES IDX 10 15 11 16 12 17 13 18 17 20 18 21 19 22 20 23 21 24 22 26
REMARK SMILES IDX 23 27 24 28 82 29 25 30 81 31 26 32 27 33 28 34 75 35 29 36
REMARK SMILES IDX 80 37 74 38 76 39 30 40 79 41 73 42 72 43 31 45 61 46 42 47
REMARK SMILES IDX 60 48 43 49 46 50 59 51 77 52 44 53 45 54 58 56 78 57 47 58
REMARK SMILES IDX 32 59 33 60 41 61 34 62 40 63 35 64 36 65 37 66 38 67 39 68
REMARK SMILES IDX 62 69 63 70 71 71 64 72 70 73 65 74 66 75 67 76 68 77 69 78
REMARK SMILES IDX 48 79 49 80 57 81 50 82 56 83 51 84 52 85 53 86 54 87 55 88
REMARK H PARENT 16 4 13 19 20 25 76 44 46 55
REMARK Flexibility Score: inf
ROOT
ATOM      1  C   UNL     1      -0.266  -0.404   4.777  1.00  0.00     0.226 C 
ATOM      2  O   UNL     1      -1.418  -0.153   4.385  1.00  0.00    -0.274 OA
ATOM      3  N   UNL     1       0.048   0.251   5.912  1.00  0.00    -0.356 N 
ATOM      4  H   UNL     1      -0.486   1.066   6.052  1.00  0.00     0.163 HD
ENDROOT
BRANCH   1   5
ATOM      5  C   UNL     1       0.631  -1.400   3.971  1.00  0.00     0.049 C 
ATOM      6  C   UNL     1       0.864  -1.875   1.365  1.00  0.00    -0.010 C 
ATOM      7  C   UNL     1       0.357  -3.305   1.602  1.00  0.00     0.003 C 
ATOM      8  C   UNL     1       0.356  -0.931   2.472  1.00  0.00     0.020 C 
ATOM      9  C   UNL     1       0.583  -3.790   3.034  1.00  0.00     0.001 C 
ATOM     10  C   UNL     1       0.012  -2.813   4.061  1.00  0.00     0.017 C 
BRANCH   6  11
ATOM     11  C   UNL     1       0.443  -1.383  -0.036  1.00  0.00     0.000 C 
ATOM     12  C   UNL     1       1.003  -0.010  -0.388  1.00  0.00     0.004 C 
ENDBRANCH   6  11
BRANCH   5  13
ATOM     13  C   UNL     1       2.184  -1.322   4.126  1.00  0.00     0.017 C 
BRANCH  13  14
ATOM     14  C   UNL     1       3.102  -1.911   5.215  1.00  0.00     0.001 C 
BRANCH  14  15
ATOM     15  C   UNL     1       2.629  -2.928   6.249  1.00  0.00     0.002 C 
BRANCH  15  16
ATOM     16  C   UNL     1       3.264  -4.309   6.087  1.00  0.00     0.028 C 
BRANCH  16  17
ATOM     17  C   UNL     1       4.739  -4.351   6.479  1.00  0.00     0.156 C 
BRANCH  17  18
ATOM     18  O   UNL     1       4.896  -4.080   7.865  1.00  0.00    -0.396 OA
ATOM     19  H   UNL     1       4.551  -3.196   8.063  1.00  0.00     0.210 HD
ENDBRANCH  17  18
ENDBRANCH  16  17
ENDBRANCH  15  16
ENDBRANCH  14  15
ENDBRANCH  13  14
ENDBRANCH   5  13
ENDBRANCH   1   5
BRANCH   3  20
ATOM     20  C   UNL     1       1.001   0.007   6.961  1.00  0.00     0.117 C 
BRANCH  20  21
ATOM     21  C   UNL     1       2.210   0.926   6.897  1.00  0.00     0.042 C 
BRANCH  21  22
ATOM     22  C   UNL     1       2.224   1.958   8.009  1.00  0.00     0.118 C 
BRANCH  22  23
ATOM     23  N   UNL     1       2.462   1.338   9.312  1.00  0.00    -0.352 N 
ATOM     24  C   UNL     1       3.436   1.595  10.247  1.00  0.00     0.251 C 
ATOM     25  H   UNL     1       1.827   0.627   9.557  1.00  0.00     0.163 HD
ATOM     26  O   UNL     1       3.599   0.810  11.179  1.00  0.00    -0.269 OA
BRANCH  24  27
ATOM     27  C   UNL     1       4.297   2.791  10.119  1.00  0.00     0.039 A 
ATOM     28  C   UNL     1       5.638   2.717  10.506  1.00  0.00     0.014 A 
ATOM     29  C   UNL     1       3.785   3.986   9.612  1.00  0.00     0.014 A 
ATOM     30  C   UNL     1       6.473   3.821  10.321  1.00  0.00     0.010 A 
ATOM     31  C   UNL     1       4.641   5.034   9.309  1.00  0.00     0.010 A 
ATOM     32  C   UNL     1       5.990   4.975   9.682  1.00  0.00    -0.014 A 
BRANCH  32  33
ATOM     33  C   UNL     1       6.858   6.150   9.421  1.00  0.00     0.031 A 
ATOM     34  C   UNL     1       6.496   7.490  10.008  1.00  0.00     0.074 A 
ATOM     35  C   UNL     1       7.918   6.028   8.598  1.00  0.00     0.049 A 
ATOM     36  N   UNL     1       7.073   8.650   9.833  1.00  0.00    -0.248 NA
ATOM     37  C   UNL     1       5.307   7.541  10.878  1.00  0.00     0.031 C 
ATOM     38  C   UNL     1       8.335   4.793   7.927  1.00  0.00     0.029 A 
ATOM     39  N   UNL     1       8.838   6.956   8.180  1.00  0.00    -0.354 N 
ATOM     40  C   UNL     1       6.305   9.565  10.545  1.00  0.00     0.074 A 
ATOM     41  C   UNL     1       5.184   8.841  11.098  1.00  0.00     0.031 C 
ATOM     42  C   UNL     1       9.449   5.032   7.216  1.00  0.00     0.029 A 
ATOM     43  C   UNL     1       9.797   6.444   7.339  1.00  0.00     0.049 A 
ATOM     44  H   UNL     1       8.813   7.901   8.457  1.00  0.00     0.167 HD
ATOM     45  C   UNL     1       6.527  10.885  10.746  1.00  0.00     0.031 A 
ATOM     46  C   UNL     1      10.838   7.045   6.730  1.00  0.00     0.031 A 
ATOM     47  C   UNL     1       7.659  11.591  10.210  1.00  0.00     0.049 A 
ATOM     48  C   UNL     1      11.066   8.513   6.968  1.00  0.00     0.074 A 
ATOM     49  C   UNL     1       8.018  12.913  10.403  1.00  0.00     0.029 A 
ATOM     50  N   UNL     1       8.618  11.031   9.378  1.00  0.00    -0.354 N 
ATOM     51  N   UNL     1      10.368   9.346   7.703  1.00  0.00    -0.248 NA
ATOM     52  C   UNL     1      12.229   9.118   6.307  1.00  0.00     0.031 C 
ATOM     53  C   UNL     1       9.160  13.168   9.639  1.00  0.00     0.029 A 
ATOM     54  C   UNL     1       9.554  11.988   9.027  1.00  0.00     0.049 A 
ATOM     55  H   UNL     1       8.630  10.093   9.082  1.00  0.00     0.167 HD
ATOM     56  C   UNL     1      11.025  10.569   7.616  1.00  0.00     0.074 A 
ATOM     57  C   UNL     1      12.184  10.360   6.771  1.00  0.00     0.031 C 
ATOM     58  C   UNL     1      10.701  11.756   8.185  1.00  0.00     0.031 A 
BRANCH  45  59
ATOM     59  C   UNL     1       5.527  11.645  11.579  1.00  0.00    -0.014 A 
ATOM     60  C   UNL     1       5.380  11.390  12.955  1.00  0.00     0.010 A 
ATOM     61  C   UNL     1       4.745  12.653  10.986  1.00  0.00     0.010 A 
ATOM     62  C   UNL     1       4.440  12.095  13.711  1.00  0.00     0.020 A 
ATOM     63  C   UNL     1       3.828  13.385  11.746  1.00  0.00     0.020 A 
ATOM     64  C   UNL     1       3.669  13.089  13.101  1.00  0.00     0.054 A 
BRANCH  64  65
ATOM     65  S   UNL     1       2.477  14.006  14.114  1.00  0.00     0.124 S 
ATOM     66  O   UNL     1       1.451  12.996  14.361  1.00  0.00    -0.237 OA
ATOM     67  O   UNL     1       3.275  14.387  15.277  1.00  0.00    -0.237 OA
ATOM     68  O   UNL     1       2.067  15.112  13.253  1.00  0.00    -0.744 OA
ENDBRANCH  64  65
ENDBRANCH  45  59
BRANCH  46  69
ATOM     69  C   UNL     1      11.749   6.254   5.857  1.00  0.00    -0.014 A 
ATOM     70  C   UNL     1      13.073   5.995   6.254  1.00  0.00     0.010 A 
ATOM     71  C   UNL     1      11.293   5.739   4.629  1.00  0.00     0.010 A 
ATOM     72  C   UNL     1      13.929   5.255   5.432  1.00  0.00     0.020 A 
ATOM     73  C   UNL     1      12.136   4.972   3.820  1.00  0.00     0.020 A 
ATOM     74  C   UNL     1      13.453   4.745   4.221  1.00  0.00     0.054 A 
BRANCH  74  75
ATOM     75  S   UNL     1      14.568   3.747   3.194  1.00  0.00     0.124 S 
ATOM     76  O   UNL     1      15.496   4.752   2.688  1.00  0.00    -0.237 OA
ATOM     77  O   UNL     1      15.122   2.801   4.160  1.00  0.00    -0.237 OA
ATOM     78  O   UNL     1      13.677   3.157   2.197  1.00  0.00    -0.744 OA
ENDBRANCH  74  75
ENDBRANCH  46  69
BRANCH  58  79
ATOM     79  C   UNL     1      11.632  12.915   7.948  1.00  0.00    -0.014 A 
ATOM     80  C   UNL     1      11.717  13.539   6.691  1.00  0.00     0.010 A 
ATOM     81  C   UNL     1      12.384  13.425   9.022  1.00  0.00     0.010 A 
ATOM     82  C   UNL     1      12.564  14.635   6.506  1.00  0.00     0.020 A 
ATOM     83  C   UNL     1      13.206  14.541   8.848  1.00  0.00     0.020 A 
ATOM     84  C   UNL     1      13.301  15.130   7.586  1.00  0.00     0.054 A 
BRANCH  84  85
ATOM     85  S   UNL     1      14.354  16.583   7.329  1.00  0.00     0.124 S 
ATOM     86  O   UNL     1      15.444  16.031   6.530  1.00  0.00    -0.237 OA
ATOM     87  O   UNL     1      13.462  17.503   6.627  1.00  0.00    -0.237 OA
ATOM     88  O   UNL     1      14.719  16.991   8.684  1.00  0.00    -0.744 OA
ENDBRANCH  84  85
ENDBRANCH  58  79
ENDBRANCH  32  33
ENDBRANCH  24  27
ENDBRANCH  22  23
ENDBRANCH  21  22
ENDBRANCH  20  21
ENDBRANCH   3  20
TORSDOF 20
