REMARK SMILES O=C(Cn1cccc1C(=O)NCCC(=O)NC1CC1)NCCCNC(=O)c1ccc(-c2c3nc(c(-c4ccc(S(=O)(=O)[O-])cc4)c4ccc([nH]4)c(-c4ccc(S(=O)(=O)[O-])cc4)c4nc(c(-c5ccc(S(=O)(=O)[O-])cc5)c5ccc2[nH]5)C=C4)C=C3)cc1
REMARK SMILES IDX 1 1 2 2 20 3 3 5 4 6 5 7 8 8 6 9 7 10 9 11 10 12 11 13 12 15
REMARK SMILES IDX 13 16 14 17 15 18 16 19 17 21 18 22 19 23 21 24 22 25 23 26
REMARK SMILES IDX 24 27 25 28 26 30 27 31 28 32 86 33 29 34 85 35 30 36 31 37
REMARK SMILES IDX 32 38 79 39 33 40 84 41 78 42 80 43 34 44 83 45 77 46 76 47
REMARK SMILES IDX 35 49 65 50 46 51 64 52 47 53 50 54 63 55 81 56 48 57 49 58
REMARK SMILES IDX 62 60 82 61 51 62 36 63 37 64 45 65 38 66 44 67 39 68 40 69
REMARK SMILES IDX 41 70 42 71 43 72 66 73 67 74 75 75 68 76 74 77 69 78 70 79
REMARK SMILES IDX 71 80 72 81 73 82 52 83 53 84 61 85 54 86 60 87 55 88 56 89
REMARK SMILES IDX 57 90 58 91 59 92
REMARK H PARENT 20 4 11 14 16 20 24 29 80 48 50 59
REMARK Flexibility Score: inf
ROOT
ATOM      1  O   UNL     1       1.885   1.163   0.458  1.00  0.00    -0.273 OA
ATOM      2  C   UNL     1       2.853   0.567  -0.013  1.00  0.00     0.239 C 
ATOM      3  N   UNL     1       3.091   0.545  -1.373  1.00  0.00    -0.354 N 
ATOM      4  H   UNL     1       3.899   0.091  -1.704  1.00  0.00     0.163 HD
ENDROOT
BRANCH   2   5
ATOM      5  C   UNL     1       3.909  -0.102   0.861  1.00  0.00     0.222 C 
BRANCH   5   6
ATOM      6  N   UNL     1       4.187  -1.472   0.456  1.00  0.00    -0.334 N 
ATOM      7  C   UNL     1       5.277  -1.703  -0.374  1.00  0.00     0.087 A 
ATOM      8  C   UNL     1       3.592  -2.679   0.801  1.00  0.00     0.107 A 
ATOM      9  C   UNL     1       5.352  -3.035  -0.658  1.00  0.00     0.020 A 
ATOM     10  C   UNL     1       4.306  -3.636   0.057  1.00  0.00     0.033 A 
BRANCH   8  11
ATOM     11  C   UNL     1       2.560  -3.140   1.732  1.00  0.00     0.267 C 
ATOM     12  O   UNL     1       2.445  -4.356   1.955  1.00  0.00    -0.268 OA
ATOM     13  N   UNL     1       1.622  -2.436   2.425  1.00  0.00    -0.350 N 
ATOM     14  H   UNL     1       1.150  -3.030   3.051  1.00  0.00     0.163 HD
BRANCH  13  15
ATOM     15  C   UNL     1       1.099  -1.090   2.531  1.00  0.00     0.126 C 
BRANCH  15  16
ATOM     16  C   UNL     1      -0.168  -0.841   1.723  1.00  0.00     0.121 C 
BRANCH  16  17
ATOM     17  C   UNL     1      -1.405  -1.422   2.375  1.00  0.00     0.221 C 
ATOM     18  O   UNL     1      -2.087  -0.765   3.165  1.00  0.00    -0.275 OA
ATOM     19  N   UNL     1      -1.785  -2.704   2.085  1.00  0.00    -0.353 N 
ATOM     20  H   UNL     1      -2.661  -2.980   2.439  1.00  0.00     0.163 HD
BRANCH  19  21
ATOM     21  C   UNL     1      -1.081  -3.691   1.338  1.00  0.00     0.082 C 
ATOM     22  C   UNL     1      -1.013  -5.087   1.898  1.00  0.00     0.027 C 
ATOM     23  C   UNL     1      -1.779  -4.819   0.636  1.00  0.00     0.027 C 
ENDBRANCH  19  21
ENDBRANCH  16  17
ENDBRANCH  15  16
ENDBRANCH  13  15
ENDBRANCH   8  11
ENDBRANCH   5   6
ENDBRANCH   2   5
BRANCH   3  24
ATOM     24  C   UNL     1       2.197   1.163  -2.331  1.00  0.00     0.117 C 
BRANCH  24  25
ATOM     25  C   UNL     1       2.323   2.688  -2.389  1.00  0.00     0.042 C 
BRANCH  25  26
ATOM     26  C   UNL     1       3.728   3.172  -2.745  1.00  0.00     0.118 C 
BRANCH  26  27
ATOM     27  N   UNL     1       4.103   2.780  -4.095  1.00  0.00    -0.352 N 
ATOM     28  C   UNL     1       5.255   3.018  -4.802  1.00  0.00     0.251 C 
ATOM     29  H   UNL     1       3.421   2.260  -4.578  1.00  0.00     0.163 HD
ATOM     30  O   UNL     1       5.222   2.904  -6.023  1.00  0.00    -0.269 OA
BRANCH  28  31
ATOM     31  C   UNL     1       6.520   3.421  -4.144  1.00  0.00     0.039 A 
ATOM     32  C   UNL     1       7.345   4.327  -4.825  1.00  0.00     0.014 A 
ATOM     33  C   UNL     1       6.951   2.859  -2.937  1.00  0.00     0.014 A 
ATOM     34  C   UNL     1       8.562   4.719  -4.272  1.00  0.00     0.010 A 
ATOM     35  C   UNL     1       8.160   3.260  -2.370  1.00  0.00     0.010 A 
ATOM     36  C   UNL     1       8.954   4.208  -3.027  1.00  0.00    -0.014 A 
BRANCH  36  37
ATOM     37  C   UNL     1      10.073   4.864  -2.309  1.00  0.00     0.031 A 
ATOM     38  C   UNL     1       9.595   6.168  -1.619  1.00  0.00     0.074 A 
ATOM     39  C   UNL     1      11.306   4.267  -2.374  1.00  0.00     0.049 A 
ATOM     40  N   UNL     1      10.278   7.193  -1.215  1.00  0.00    -0.248 NA
ATOM     41  C   UNL     1       8.136   6.395  -1.388  1.00  0.00     0.031 C 
ATOM     42  C   UNL     1      11.586   2.977  -3.051  1.00  0.00     0.029 A 
ATOM     43  N   UNL     1      12.564   4.592  -1.899  1.00  0.00    -0.354 N 
ATOM     44  C   UNL     1       9.396   8.074  -0.541  1.00  0.00     0.074 A 
ATOM     45  C   UNL     1       8.077   7.573  -0.761  1.00  0.00     0.031 C 
ATOM     46  C   UNL     1      12.907   2.681  -3.017  1.00  0.00     0.029 A 
ATOM     47  C   UNL     1      13.620   3.720  -2.298  1.00  0.00     0.049 A 
ATOM     48  H   UNL     1      12.720   5.374  -1.323  1.00  0.00     0.167 HD
ATOM     49  C   UNL     1       9.826   9.095   0.260  1.00  0.00     0.031 A 
ATOM     50  C   UNL     1      14.971   3.842  -2.092  1.00  0.00     0.031 A 
ATOM     51  C   UNL     1      11.244   9.175   0.211  1.00  0.00     0.049 A 
ATOM     52  C   UNL     1      15.122   4.961  -1.155  1.00  0.00     0.074 A 
ATOM     53  C   UNL     1      12.104   9.568  -0.781  1.00  0.00     0.029 A 
ATOM     54  N   UNL     1      11.924   8.433   1.147  1.00  0.00    -0.354 N 
ATOM     55  N   UNL     1      14.842   4.906   0.110  1.00  0.00    -0.248 NA
ATOM     56  C   UNL     1      15.587   6.259  -1.661  1.00  0.00     0.031 C 
ATOM     57  C   UNL     1      13.130   8.608  -0.691  1.00  0.00     0.029 A 
ATOM     58  C   UNL     1      12.985   7.868   0.490  1.00  0.00     0.049 A 
ATOM     59  H   UNL     1      11.695   8.329   2.098  1.00  0.00     0.167 HD
ATOM     60  C   UNL     1      14.695   6.230   0.425  1.00  0.00     0.074 A 
ATOM     61  C   UNL     1      15.480   6.972  -0.541  1.00  0.00     0.031 C 
ATOM     62  C   UNL     1      13.540   6.642   1.009  1.00  0.00     0.031 A 
BRANCH  49  63
ATOM     63  C   UNL     1       9.141   9.930   1.310  1.00  0.00    -0.014 A 
ATOM     64  C   UNL     1       9.848  11.070   1.780  1.00  0.00     0.010 A 
ATOM     65  C   UNL     1       8.067   9.472   2.084  1.00  0.00     0.010 A 
ATOM     66  C   UNL     1       9.599  11.628   3.034  1.00  0.00     0.020 A 
ATOM     67  C   UNL     1       7.784  10.057   3.332  1.00  0.00     0.020 A 
ATOM     68  C   UNL     1       8.588  11.092   3.821  1.00  0.00     0.054 A 
BRANCH  68  69
ATOM     69  S   UNL     1       8.404  11.715   5.515  1.00  0.00     0.124 S 
ATOM     70  O   UNL     1       9.610  11.208   6.162  1.00  0.00    -0.237 OA
ATOM     71  O   UNL     1       8.364  13.163   5.315  1.00  0.00    -0.237 OA
ATOM     72  O   UNL     1       7.149  11.120   5.965  1.00  0.00    -0.744 OA
ENDBRANCH  68  69
ENDBRANCH  49  63
BRANCH  50  73
ATOM     73  C   UNL     1      16.286   3.249  -2.572  1.00  0.00    -0.014 A 
ATOM     74  C   UNL     1      16.455   2.192  -3.473  1.00  0.00     0.010 A 
ATOM     75  C   UNL     1      17.489   3.922  -2.193  1.00  0.00     0.010 A 
ATOM     76  C   UNL     1      17.717   1.946  -4.079  1.00  0.00     0.020 A 
ATOM     77  C   UNL     1      18.720   3.732  -2.822  1.00  0.00     0.020 A 
ATOM     78  C   UNL     1      18.822   2.760  -3.797  1.00  0.00     0.054 A 
BRANCH  78  79
ATOM     79  S   UNL     1      20.340   2.678  -4.795  1.00  0.00     0.124 S 
ATOM     80  O   UNL     1      21.071   1.579  -4.173  1.00  0.00    -0.237 OA
ATOM     81  O   UNL     1      19.828   2.417  -6.138  1.00  0.00    -0.237 OA
ATOM     82  O   UNL     1      20.936   4.003  -4.620  1.00  0.00    -0.744 OA
ENDBRANCH  78  79
ENDBRANCH  50  73
BRANCH  62  83
ATOM     83  C   UNL     1      12.784   5.576   1.802  1.00  0.00    -0.014 A 
ATOM     84  C   UNL     1      13.451   4.872   2.824  1.00  0.00     0.010 A 
ATOM     85  C   UNL     1      11.465   5.174   1.508  1.00  0.00     0.010 A 
ATOM     86  C   UNL     1      12.845   3.807   3.510  1.00  0.00     0.020 A 
ATOM     87  C   UNL     1      10.844   4.109   2.192  1.00  0.00     0.020 A 
ATOM     88  C   UNL     1      11.541   3.429   3.191  1.00  0.00     0.054 A 
BRANCH  88  89
ATOM     89  S   UNL     1      10.788   2.040   4.093  1.00  0.00     0.124 S 
ATOM     90  O   UNL     1      11.693   0.932   3.799  1.00  0.00    -0.237 OA
ATOM     91  O   UNL     1      10.809   2.512   5.475  1.00  0.00    -0.237 OA
ATOM     92  O   UNL     1       9.455   1.917   3.502  1.00  0.00    -0.744 OA
ENDBRANCH  88  89
ENDBRANCH  62  83
ENDBRANCH  36  37
ENDBRANCH  28  31
ENDBRANCH  26  27
ENDBRANCH  25  26
ENDBRANCH  24  25
ENDBRANCH   3  24
TORSDOF 19
