REMARK SMILES C[C@H]1[C@H](C(=O)NCCCNC(=O)c2ccc(-c3c4nc(c(-c5ccc(S(=O)(=O)[O-])cc5)c5ccc([nH]5)c(-c5ccc(S(=O)(=O)[O-])cc5)c5nc(c(-c6ccc(S(=O)(=O)[O-])cc6)c6ccc3[nH]6)C=C5)C=C4)cc2)CCN1C(=O)[C@H]1CC=CCC1
REMARK SMILES IDX 8 1 7 2 6 3 4 4 5 5 3 7 1 8 2 9 75 10 73 11 74 12 76 13
REMARK SMILES IDX 77 14 78 15 79 16 83 17 80 18 82 19 81 20 9 21 10 22 11 23
REMARK SMILES IDX 12 25 13 26 14 27 72 28 15 29 71 30 16 31 17 32 18 33 65 34
REMARK SMILES IDX 19 35 70 36 64 37 66 38 20 39 69 40 63 41 62 42 21 44 51 45
REMARK SMILES IDX 32 46 50 47 33 48 36 49 49 50 67 51 34 52 35 53 48 55 68 56
REMARK SMILES IDX 37 57 22 58 23 59 31 60 24 61 30 62 25 63 26 64 27 65 28 66
REMARK SMILES IDX 29 67 52 68 53 69 61 70 54 71 60 72 55 73 56 74 57 75 58 76
REMARK SMILES IDX 59 77 38 78 39 79 47 80 40 81 46 82 41 83 42 84 43 85 44 86
REMARK SMILES IDX 45 87
REMARK H PARENT 6 6 10 24 66 43 36 54
REMARK Flexibility Score: inf
ROOT
ATOM      1  C   UNL     1      -0.669   0.091   4.119  1.00  0.00     0.042 C 
ENDROOT
BRANCH   1   2
ATOM      2  C   UNL     1      -1.379   0.680   2.906  1.00  0.00     0.117 C 
BRANCH   2   3
ATOM      3  N   UNL     1      -0.698   1.847   2.367  1.00  0.00    -0.356 N 
ATOM      4  C   UNL     1      -0.282   2.185   1.124  1.00  0.00     0.225 C 
ATOM      5  O   UNL     1       0.241   3.300   1.009  1.00  0.00    -0.275 OA
ATOM      6  H   UNL     1      -0.498   2.532   3.046  1.00  0.00     0.163 HD
BRANCH   4   7
ATOM      7  C   UNL     1      -0.375   1.288  -0.099  1.00  0.00     0.102 C 
ATOM      8  C   UNL     1       1.442   0.269  -1.468  1.00  0.00     0.032 C 
ATOM      9  C   UNL     1       0.709   0.197  -0.122  1.00  0.00     0.094 C 
ATOM     10  N   UNL     1      -0.024  -1.056   0.028  1.00  0.00    -0.339 N 
ATOM     11  C   UNL     1      -1.708   0.594  -0.361  1.00  0.00     0.037 C 
ATOM     12  C   UNL     1      -1.386  -0.891  -0.457  1.00  0.00     0.120 C 
BRANCH  10  13
ATOM     13  C   UNL     1       0.374  -2.300   0.463  1.00  0.00     0.226 C 
ATOM     14  O   UNL     1      -0.443  -3.233   0.405  1.00  0.00    -0.275 OA
BRANCH  13  15
ATOM     15  C   UNL     1       1.758  -2.621   1.061  1.00  0.00     0.083 C 
ATOM     16  C   UNL     1       2.966  -2.486   0.136  1.00  0.00     0.040 C 
ATOM     17  C   UNL     1       1.996  -2.128   2.491  1.00  0.00     0.018 C 
ATOM     18  C   UNL     1       3.895  -1.353   0.451  1.00  0.00    -0.030 C 
ATOM     19  C   UNL     1       2.796  -0.833   2.634  1.00  0.00     0.028 C 
ATOM     20  C   UNL     1       3.819  -0.616   1.566  1.00  0.00    -0.031 C 
ENDBRANCH  13  15
ENDBRANCH  10  13
ENDBRANCH   4   7
ENDBRANCH   2   3
ENDBRANCH   1   2
BRANCH   1  21
ATOM     21  C   UNL     1      -0.530   1.015   5.322  1.00  0.00     0.118 C 
BRANCH  21  22
ATOM     22  N   UNL     1      -1.733   1.070   6.131  1.00  0.00    -0.352 N 
ATOM     23  C   UNL     1      -1.984   0.564   7.383  1.00  0.00     0.251 C 
ATOM     24  H   UNL     1      -2.489   1.545   5.717  1.00  0.00     0.163 HD
ATOM     25  O   UNL     1      -3.144   0.568   7.798  1.00  0.00    -0.269 OA
BRANCH  23  26
ATOM     26  C   UNL     1      -0.906  -0.004   8.232  1.00  0.00     0.039 A 
ATOM     27  C   UNL     1      -1.194  -1.133   9.007  1.00  0.00     0.014 A 
ATOM     28  C   UNL     1       0.356   0.588   8.334  1.00  0.00     0.014 A 
ATOM     29  C   UNL     1      -0.214  -1.688   9.838  1.00  0.00     0.010 A 
ATOM     30  C   UNL     1       1.359  -0.013   9.101  1.00  0.00     0.010 A 
ATOM     31  C   UNL     1       1.082  -1.149   9.876  1.00  0.00    -0.014 A 
BRANCH  31  32
ATOM     32  C   UNL     1       2.137  -1.747  10.740  1.00  0.00     0.031 A 
ATOM     33  C   UNL     1       2.729  -0.962  11.883  1.00  0.00     0.074 A 
ATOM     34  C   UNL     1       2.592  -2.990  10.484  1.00  0.00     0.049 A 
ATOM     35  N   UNL     1       3.665  -1.313  12.729  1.00  0.00    -0.248 NA
ATOM     36  C   UNL     1       2.219   0.404  12.089  1.00  0.00     0.031 C 
ATOM     37  C   UNL     1       2.145  -3.847   9.384  1.00  0.00     0.029 A 
ATOM     38  N   UNL     1       3.536  -3.749  11.132  1.00  0.00    -0.354 N 
ATOM     39  C   UNL     1       3.867  -0.212  13.554  1.00  0.00     0.074 A 
ATOM     40  C   UNL     1       2.991   0.836  13.076  1.00  0.00     0.031 C 
ATOM     41  C   UNL     1       2.793  -5.022   9.451  1.00  0.00     0.029 A 
ATOM     42  C   UNL     1       3.721  -4.993  10.577  1.00  0.00     0.049 A 
ATOM     43  H   UNL     1       4.033  -3.432  11.921  1.00  0.00     0.167 HD
ATOM     44  C   UNL     1       4.689  -0.085  14.624  1.00  0.00     0.031 A 
ATOM     45  C   UNL     1       4.543  -6.001  10.931  1.00  0.00     0.031 A 
ATOM     46  C   UNL     1       5.551  -1.126  15.117  1.00  0.00     0.049 A 
ATOM     47  C   UNL     1       5.429  -5.848  12.134  1.00  0.00     0.074 A 
ATOM     48  C   UNL     1       6.382  -1.105  16.224  1.00  0.00     0.029 A 
ATOM     49  N   UNL     1       5.690  -2.378  14.538  1.00  0.00    -0.354 N 
ATOM     50  N   UNL     1       5.564  -4.815  12.932  1.00  0.00    -0.248 NA
ATOM     51  C   UNL     1       6.264  -7.003  12.495  1.00  0.00     0.031 C 
ATOM     52  C   UNL     1       7.051  -2.333  16.294  1.00  0.00     0.029 A 
ATOM     53  C   UNL     1       6.603  -3.133  15.256  1.00  0.00     0.049 A 
ATOM     54  H   UNL     1       5.211  -2.685  13.734  1.00  0.00     0.167 HD
ATOM     55  C   UNL     1       6.486  -5.202  13.898  1.00  0.00     0.074 A 
ATOM     56  C   UNL     1       6.861  -6.569  13.597  1.00  0.00     0.031 C 
ATOM     57  C   UNL     1       6.977  -4.488  14.941  1.00  0.00     0.031 A 
BRANCH  44  58
ATOM     58  C   UNL     1       4.691   1.242  15.338  1.00  0.00    -0.014 A 
ATOM     59  C   UNL     1       3.594   1.643  16.121  1.00  0.00     0.010 A 
ATOM     60  C   UNL     1       5.811   2.088  15.243  1.00  0.00     0.010 A 
ATOM     61  C   UNL     1       3.594   2.887  16.756  1.00  0.00     0.020 A 
ATOM     62  C   UNL     1       5.825   3.324  15.899  1.00  0.00     0.020 A 
ATOM     63  C   UNL     1       4.707   3.724  16.634  1.00  0.00     0.054 A 
BRANCH  63  64
ATOM     64  S   UNL     1       4.685   5.333  17.471  1.00  0.00     0.124 S 
ATOM     65  O   UNL     1       3.816   6.115  16.594  1.00  0.00    -0.237 OA
ATOM     66  O   UNL     1       4.126   5.009  18.781  1.00  0.00    -0.237 OA
ATOM     67  O   UNL     1       6.089   5.738  17.479  1.00  0.00    -0.744 OA
ENDBRANCH  63  64
ENDBRANCH  44  58
BRANCH  45  68
ATOM     68  C   UNL     1       4.545  -7.260  10.139  1.00  0.00    -0.014 A 
ATOM     69  C   UNL     1       3.947  -8.425  10.651  1.00  0.00     0.010 A 
ATOM     70  C   UNL     1       5.125  -7.292   8.858  1.00  0.00     0.010 A 
ATOM     71  C   UNL     1       3.938  -9.604   9.900  1.00  0.00     0.020 A 
ATOM     72  C   UNL     1       5.098  -8.462   8.095  1.00  0.00     0.020 A 
ATOM     73  C   UNL     1       4.512  -9.614   8.625  1.00  0.00     0.054 A 
BRANCH  73  74
ATOM     74  S   UNL     1       4.431 -11.135   7.637  1.00  0.00     0.124 S 
ATOM     75  O   UNL     1       5.483 -11.945   8.242  1.00  0.00    -0.237 OA
ATOM     76  O   UNL     1       3.064 -11.594   7.872  1.00  0.00    -0.237 OA
ATOM     77  O   UNL     1       4.698 -10.671   6.278  1.00  0.00    -0.744 OA
ENDBRANCH  73  74
ENDBRANCH  45  68
BRANCH  57  78
ATOM     78  C   UNL     1       7.962  -5.179  15.844  1.00  0.00    -0.014 A 
ATOM     79  C   UNL     1       9.284  -5.417  15.429  1.00  0.00     0.010 A 
ATOM     80  C   UNL     1       7.569  -5.566  17.138  1.00  0.00     0.010 A 
ATOM     81  C   UNL     1      10.186  -6.064  16.279  1.00  0.00     0.020 A 
ATOM     82  C   UNL     1       8.474  -6.192  17.999  1.00  0.00     0.020 A 
ATOM     83  C   UNL     1       9.773  -6.453  17.557  1.00  0.00     0.054 A 
BRANCH  83  84
ATOM     84  S   UNL     1      10.967  -7.268  18.654  1.00  0.00     0.124 S 
ATOM     85  O   UNL     1      10.991  -8.626  18.119  1.00  0.00    -0.237 OA
ATOM     86  O   UNL     1      12.184  -6.488  18.444  1.00  0.00    -0.237 OA
ATOM     87  O   UNL     1      10.367  -7.129  19.979  1.00  0.00    -0.744 OA
ENDBRANCH  83  84
ENDBRANCH  57  78
ENDBRANCH  31  32
ENDBRANCH  23  26
ENDBRANCH  21  22
ENDBRANCH   1  21
TORSDOF 15
