REMARK SMILES CC(=O)N[C@@H](CS[C@H]1CC(=O)N(c2ccc(Cl)cc2Cl)C1=O)C(=O)NCCCNC(=O)c1ccc(-c2c3nc(c(-c4ccc(S(=O)(=O)[O-])cc4)c4ccc([nH]4)c(-c4ccc(S(=O)(=O)[O-])cc4)c4nc(c(-c5ccc(S(=O)(=O)[O-])cc5)c5ccc2[nH]5)C=C4)C=C3)cc1
REMARK SMILES IDX 26 1 25 2 23 3 24 4 5 6 4 7 1 8 2 9 3 10 6 12 7 13 8 14 9 15
REMARK SMILES IDX 21 16 10 17 12 18 22 19 11 20 13 21 14 22 19 23 15 24 18 25
REMARK SMILES IDX 20 26 16 27 17 28 27 29 28 30 29 31 30 32 31 34 32 35 33 36
REMARK SMILES IDX 91 37 34 38 90 39 35 40 36 41 37 42 84 43 38 44 89 45 83 46
REMARK SMILES IDX 85 47 39 48 88 49 82 50 81 51 40 53 70 54 51 55 69 56 52 57
REMARK SMILES IDX 55 58 68 59 86 60 53 61 54 62 67 64 87 65 56 66 41 67 42 68
REMARK SMILES IDX 50 69 43 70 49 71 44 72 45 73 46 74 47 75 48 76 71 77 72 78
REMARK SMILES IDX 80 79 73 80 79 81 74 82 75 83 76 84 77 85 78 86 57 87 58 88
REMARK SMILES IDX 66 89 59 90 65 91 60 92 61 93 62 94 63 95 64 96
REMARK H PARENT 25 5 4 11 29 33 85 52 55 63
REMARK Flexibility Score: inf
ROOT
ATOM      1  C   UNL     1      -0.001  -4.845   2.189  1.00  0.00     0.117 C 
ENDROOT
BRANCH   1   2
ATOM      2  N   UNL     1      -0.291  -3.570   1.511  1.00  0.00    -0.354 N 
ATOM      3  C   UNL     1       0.407  -2.484   1.091  1.00  0.00     0.243 C 
ATOM      4  O   UNL     1      -0.237  -1.671   0.415  1.00  0.00    -0.273 OA
ATOM      5  H   UNL     1      -1.250  -3.482   1.307  1.00  0.00     0.163 HD
BRANCH   3   6
ATOM      6  C   UNL     1       1.877  -2.177   1.421  1.00  0.00     0.181 C 
BRANCH   6   7
ATOM      7  N   UNL     1       2.003  -2.171   2.878  1.00  0.00    -0.344 N 
ATOM      8  C   UNL     1       1.857   0.293   3.107  1.00  0.00     0.114 C 
ATOM      9  C   UNL     1       1.764  -1.095   3.692  1.00  0.00     0.217 C 
ATOM     10  O   UNL     1       1.534  -1.281   4.884  1.00  0.00    -0.275 OA
ATOM     11  H   UNL     1       2.282  -3.010   3.311  1.00  0.00     0.164 HD
ENDBRANCH   6   7
BRANCH   6  12
ATOM     12  C   UNL     1       3.017  -2.883   0.673  1.00  0.00     0.105 C 
BRANCH  12  13
ATOM     13  S   UNL     1       2.844  -4.626   0.230  1.00  0.00    -0.145 SA
BRANCH  13  14
ATOM     14  C   UNL     1       2.443  -4.539  -1.577  1.00  0.00     0.146 C 
ATOM     15  C   UNL     1       2.033  -5.931  -2.000  1.00  0.00     0.125 C 
ATOM     16  C   UNL     1       1.173  -3.764  -1.897  1.00  0.00     0.247 C 
ATOM     17  C   UNL     1       0.598  -5.894  -1.584  1.00  0.00     0.235 C 
ATOM     18  N   UNL     1       0.119  -4.651  -1.889  1.00  0.00    -0.248 N 
ATOM     19  O   UNL     1       1.155  -2.549  -2.032  1.00  0.00    -0.273 OA
ATOM     20  O   UNL     1       0.065  -6.812  -1.001  1.00  0.00    -0.274 OA
BRANCH  18  21
ATOM     21  C   UNL     1      -1.247  -4.266  -1.916  1.00  0.00     0.070 A 
ATOM     22  C   UNL     1      -2.093  -4.559  -0.842  1.00  0.00     0.030 A 
ATOM     23  C   UNL     1      -1.807  -3.581  -3.006  1.00  0.00     0.066 A 
ATOM     24  C   UNL     1      -3.400  -4.064  -0.773  1.00  0.00     0.023 A 
ATOM     25  C   UNL     1      -3.145  -3.158  -2.984  1.00  0.00     0.043 A 
ATOM     26  Cl  UNL     1      -0.930  -3.379  -4.485  1.00  0.00    -0.082 Cl
ATOM     27  C   UNL     1      -3.926  -3.373  -1.853  1.00  0.00     0.042 A 
ATOM     28  Cl  UNL     1      -5.553  -2.821  -1.800  1.00  0.00    -0.084 Cl
ENDBRANCH  18  21
ENDBRANCH  13  14
ENDBRANCH  12  13
ENDBRANCH   6  12
ENDBRANCH   3   6
ENDBRANCH   1   2
BRANCH   1  29
ATOM     29  C   UNL     1      -1.282  -5.463   2.784  1.00  0.00     0.042 C 
BRANCH  29  30
ATOM     30  C   UNL     1      -1.860  -6.816   2.290  1.00  0.00     0.118 C 
BRANCH  30  31
ATOM     31  N   UNL     1      -1.478  -7.351   0.991  1.00  0.00    -0.352 N 
ATOM     32  C   UNL     1      -2.181  -8.233   0.188  1.00  0.00     0.251 C 
ATOM     33  H   UNL     1      -0.610  -7.046   0.639  1.00  0.00     0.163 HD
ATOM     34  O   UNL     1      -1.688  -8.851  -0.747  1.00  0.00    -0.269 OA
BRANCH  32  35
ATOM     35  C   UNL     1      -3.596  -8.431   0.468  1.00  0.00     0.039 A 
ATOM     36  C   UNL     1      -4.002  -9.592   1.118  1.00  0.00     0.014 A 
ATOM     37  C   UNL     1      -4.484  -7.406   0.152  1.00  0.00     0.014 A 
ATOM     38  C   UNL     1      -5.312  -9.675   1.563  1.00  0.00     0.010 A 
ATOM     39  C   UNL     1      -5.766  -7.454   0.663  1.00  0.00     0.010 A 
ATOM     40  C   UNL     1      -6.174  -8.578   1.394  1.00  0.00    -0.014 A 
BRANCH  40  41
ATOM     41  C   UNL     1      -7.500  -8.562   2.035  1.00  0.00     0.031 A 
ATOM     42  C   UNL     1      -8.730  -8.541   1.184  1.00  0.00     0.074 A 
ATOM     43  C   UNL     1      -7.554  -8.469   3.378  1.00  0.00     0.049 A 
ATOM     44  N   UNL     1      -9.979  -8.461   1.552  1.00  0.00    -0.248 NA
ATOM     45  C   UNL     1      -8.530  -8.573  -0.276  1.00  0.00     0.031 C 
ATOM     46  C   UNL     1      -6.389  -8.404   4.271  1.00  0.00     0.029 A 
ATOM     47  N   UNL     1      -8.623  -8.408   4.229  1.00  0.00    -0.354 N 
ATOM     48  C   UNL     1     -10.711  -8.410   0.373  1.00  0.00     0.074 A 
ATOM     49  C   UNL     1      -9.766  -8.408  -0.720  1.00  0.00     0.031 C 
ATOM     50  C   UNL     1      -6.811  -8.353   5.544  1.00  0.00     0.029 A 
ATOM     51  C   UNL     1      -8.267  -8.346   5.556  1.00  0.00     0.049 A 
ATOM     52  H   UNL     1      -9.558  -8.409   3.921  1.00  0.00     0.167 HD
ATOM     53  C   UNL     1     -12.056  -8.393   0.224  1.00  0.00     0.031 A 
ATOM     54  C   UNL     1      -9.041  -8.299   6.656  1.00  0.00     0.031 A 
ATOM     55  C   UNL     1     -12.965  -8.415   1.337  1.00  0.00     0.049 A 
ATOM     56  C   UNL     1     -10.531  -8.335   6.464  1.00  0.00     0.074 A 
ATOM     57  C   UNL     1     -14.346  -8.461   1.325  1.00  0.00     0.029 A 
ATOM     58  N   UNL     1     -12.572  -8.403   2.670  1.00  0.00    -0.354 N 
ATOM     59  N   UNL     1     -11.213  -8.363   5.342  1.00  0.00    -0.248 NA
ATOM     60  C   UNL     1     -11.354  -8.356   7.677  1.00  0.00     0.031 C 
ATOM     61  C   UNL     1     -14.789  -8.441   2.652  1.00  0.00     0.029 A 
ATOM     62  C   UNL     1     -13.683  -8.434   3.491  1.00  0.00     0.049 A 
ATOM     63  H   UNL     1     -11.639  -8.376   2.983  1.00  0.00     0.167 HD
ATOM     64  C   UNL     1     -12.549  -8.428   5.713  1.00  0.00     0.074 A 
ATOM     65  C   UNL     1     -12.574  -8.454   7.164  1.00  0.00     0.031 C 
ATOM     66  C   UNL     1     -13.658  -8.460   4.933  1.00  0.00     0.031 A 
BRANCH  53  67
ATOM     67  C   UNL     1     -12.598  -8.354  -1.180  1.00  0.00    -0.014 A 
ATOM     68  C   UNL     1     -12.439  -9.450  -2.049  1.00  0.00     0.010 A 
ATOM     69  C   UNL     1     -13.276  -7.212  -1.642  1.00  0.00     0.010 A 
ATOM     70  C   UNL     1     -12.901  -9.387  -3.366  1.00  0.00     0.020 A 
ATOM     71  C   UNL     1     -13.768  -7.156  -2.950  1.00  0.00     0.020 A 
ATOM     72  C   UNL     1     -13.560  -8.237  -3.810  1.00  0.00     0.054 A 
BRANCH  72  73
ATOM     73  S   UNL     1     -14.165  -8.189  -5.519  1.00  0.00     0.124 S 
ATOM     74  O   UNL     1     -12.924  -8.025  -6.274  1.00  0.00    -0.237 OA
ATOM     75  O   UNL     1     -14.818  -9.488  -5.664  1.00  0.00    -0.237 OA
ATOM     76  O   UNL     1     -15.063  -7.038  -5.538  1.00  0.00    -0.744 OA
ENDBRANCH  72  73
ENDBRANCH  53  67
BRANCH  54  77
ATOM     77  C   UNL     1      -8.419  -8.267   8.008  1.00  0.00    -0.014 A 
ATOM     78  C   UNL     1      -8.480  -9.394   8.846  1.00  0.00     0.010 A 
ATOM     79  C   UNL     1      -7.728  -7.125   8.453  1.00  0.00     0.010 A 
ATOM     80  C   UNL     1      -7.881  -9.375  10.109  1.00  0.00     0.020 A 
ATOM     81  C   UNL     1      -7.104  -7.111   9.706  1.00  0.00     0.020 A 
ATOM     82  C   UNL     1      -7.195  -8.233  10.531  1.00  0.00     0.054 A 
BRANCH  82  83
ATOM     83  S   UNL     1      -6.380  -8.250  12.153  1.00  0.00     0.124 S 
ATOM     84  O   UNL     1      -7.516  -8.150  13.064  1.00  0.00    -0.237 OA
ATOM     85  O   UNL     1      -5.687  -9.536  12.144  1.00  0.00    -0.237 OA
ATOM     86  O   UNL     1      -5.506  -7.080  12.109  1.00  0.00    -0.744 OA
ENDBRANCH  82  83
ENDBRANCH  54  77
BRANCH  66  87
ATOM     87  C   UNL     1     -14.980  -8.556   5.638  1.00  0.00    -0.014 A 
ATOM     88  C   UNL     1     -15.522  -7.448   6.312  1.00  0.00     0.010 A 
ATOM     89  C   UNL     1     -15.714  -9.753   5.568  1.00  0.00     0.010 A 
ATOM     90  C   UNL     1     -16.767  -7.547   6.933  1.00  0.00     0.020 A 
ATOM     91  C   UNL     1     -16.972  -9.846   6.163  1.00  0.00     0.020 A 
ATOM     92  C   UNL     1     -17.485  -8.745   6.853  1.00  0.00     0.054 A 
BRANCH  92  93
ATOM     93  S   UNL     1     -19.122  -8.832   7.625  1.00  0.00     0.124 S 
ATOM     94  O   UNL     1     -18.784  -8.924   9.042  1.00  0.00    -0.237 OA
ATOM     95  O   UNL     1     -19.741  -7.577   7.205  1.00  0.00    -0.237 OA
ATOM     96  O   UNL     1     -19.714 -10.036   7.045  1.00  0.00    -0.744 OA
ENDBRANCH  92  93
ENDBRANCH  66  87
ENDBRANCH  40  41
ENDBRANCH  32  35
ENDBRANCH  30  31
ENDBRANCH  29  30
ENDBRANCH   1  29
TORSDOF 18
