REMARK SMILES O=C(NCCCNC(=O)c1csc([C@H]2CCCc3cccnc32)c1)c1ccc(-c2c3nc(c(-c4ccc(S(=O)(=O)[O-])cc4)c4ccc([nH]4)c(-c4ccc(S(=O)(=O)[O-])cc4)c4nc(c(-c5ccc(S(=O)(=O)[O-])cc5)c5ccc2[nH]5)C=C4)C=C3)cc1
REMARK SMILES IDX 4 1 3 2 1 3 2 4 25 6 26 7 84 8 27 9 83 10 28 11 29 12 30 13
REMARK SMILES IDX 77 14 31 15 82 16 76 17 78 18 32 19 81 20 75 21 74 22 33 24
REMARK SMILES IDX 63 25 44 26 62 27 45 28 48 29 61 30 79 31 46 32 47 33 60 35
REMARK SMILES IDX 80 36 49 37 34 38 35 39 43 40 36 41 42 42 37 43 38 44 39 45
REMARK SMILES IDX 40 46 41 47 64 48 65 49 73 50 66 51 72 52 67 53 68 54 69 55
REMARK SMILES IDX 70 56 71 57 50 58 51 59 59 60 52 61 58 62 53 63 54 64 55 65
REMARK SMILES IDX 56 66 57 67 5 68 6 69 7 70 8 71 9 73 10 74 11 75 24 76 12 77
REMARK SMILES IDX 13 78 14 79 15 80 23 81 16 82 18 83 22 84 17 85 19 86 21 87
REMARK SMILES IDX 20 88
REMARK H PARENT 3 5 78 23 48 34 7 72
REMARK Flexibility Score: inf
ROOT
ATOM      1  C   UNL     1       5.761  -2.184  14.657  1.00  0.00     0.118 C 
ENDROOT
BRANCH   1   2
ATOM      2  N   UNL     1       5.471  -1.137  15.626  1.00  0.00    -0.352 N 
ATOM      3  O   UNL     1       4.250   0.184  16.959  1.00  0.00    -0.269 OA
ATOM      4  C   UNL     1       4.356  -0.899  16.387  1.00  0.00     0.251 C 
ATOM      5  H   UNL     1       6.200  -0.489  15.757  1.00  0.00     0.163 HD
BRANCH   4   6
ATOM      6  C   UNL     1       3.284  -1.911  16.527  1.00  0.00     0.039 A 
ATOM      7  C   UNL     1       3.574  -3.264  16.726  1.00  0.00     0.014 A 
ATOM      8  C   UNL     1       1.955  -1.475  16.553  1.00  0.00     0.014 A 
ATOM      9  C   UNL     1       2.539  -4.191  16.844  1.00  0.00     0.010 A 
ATOM     10  C   UNL     1       0.920  -2.396  16.731  1.00  0.00     0.010 A 
ATOM     11  C   UNL     1       1.202  -3.765  16.856  1.00  0.00    -0.014 A 
BRANCH  11  12
ATOM     12  C   UNL     1       0.103  -4.743  17.047  1.00  0.00     0.031 A 
ATOM     13  C   UNL     1      -0.870  -5.027  15.938  1.00  0.00     0.074 A 
ATOM     14  C   UNL     1      -0.037  -5.357  18.237  1.00  0.00     0.049 A 
ATOM     15  N   UNL     1      -1.924  -5.802  15.946  1.00  0.00    -0.248 NA
ATOM     16  C   UNL     1      -0.634  -4.344  14.657  1.00  0.00     0.031 C 
ATOM     17  C   UNL     1       0.836  -5.159  19.396  1.00  0.00     0.029 A 
ATOM     18  N   UNL     1      -0.969  -6.264  18.672  1.00  0.00    -0.354 N 
ATOM     19  C   UNL     1      -2.494  -5.681  14.685  1.00  0.00     0.074 A 
ATOM     20  C   UNL     1      -1.674  -4.747  13.941  1.00  0.00     0.031 C 
ATOM     21  C   UNL     1       0.406  -5.931  20.405  1.00  0.00     0.029 A 
ATOM     22  C   UNL     1      -0.797  -6.642  19.981  1.00  0.00     0.049 A 
ATOM     23  H   UNL     1      -1.692  -6.611  18.101  1.00  0.00     0.167 HD
ATOM     24  C   UNL     1      -3.600  -6.289  14.192  1.00  0.00     0.031 A 
ATOM     25  C   UNL     1      -1.533  -7.452  20.766  1.00  0.00     0.031 A 
ATOM     26  C   UNL     1      -4.412  -7.218  14.930  1.00  0.00     0.049 A 
ATOM     27  C   UNL     1      -2.757  -8.112  20.204  1.00  0.00     0.074 A 
ATOM     28  C   UNL     1      -5.532  -7.911  14.503  1.00  0.00     0.029 A 
ATOM     29  N   UNL     1      -4.196  -7.582  16.250  1.00  0.00    -0.354 N 
ATOM     30  N   UNL     1      -3.261  -8.010  18.998  1.00  0.00    -0.248 NA
ATOM     31  C   UNL     1      -3.509  -8.997  21.103  1.00  0.00     0.031 C 
ATOM     32  C   UNL     1      -6.012  -8.670  15.577  1.00  0.00     0.029 A 
ATOM     33  C   UNL     1      -5.170  -8.476  16.661  1.00  0.00     0.049 A 
ATOM     34  H   UNL     1      -3.458  -7.253  16.813  1.00  0.00     0.167 HD
ATOM     35  C   UNL     1      -4.385  -8.826  18.988  1.00  0.00     0.074 A 
ATOM     36  C   UNL     1      -4.482  -9.422  20.306  1.00  0.00     0.031 C 
ATOM     37  C   UNL     1      -5.254  -9.060  17.975  1.00  0.00     0.031 A 
BRANCH  24  38
ATOM     38  C   UNL     1      -4.008  -5.930  12.790  1.00  0.00    -0.014 A 
ATOM     39  C   UNL     1      -3.303  -6.426  11.678  1.00  0.00     0.010 A 
ATOM     40  C   UNL     1      -5.109  -5.081  12.583  1.00  0.00     0.010 A 
ATOM     41  C   UNL     1      -3.659  -6.032  10.385  1.00  0.00     0.020 A 
ATOM     42  C   UNL     1      -5.480  -4.701  11.290  1.00  0.00     0.020 A 
ATOM     43  C   UNL     1      -4.735  -5.159  10.201  1.00  0.00     0.054 A 
BRANCH  43  44
ATOM     44  S   UNL     1      -5.167  -4.638   8.517  1.00  0.00     0.124 S 
ATOM     45  O   UNL     1      -4.188  -3.581   8.273  1.00  0.00    -0.237 OA
ATOM     46  O   UNL     1      -4.978  -5.859   7.738  1.00  0.00    -0.237 OA
ATOM     47  O   UNL     1      -6.552  -4.190   8.640  1.00  0.00    -0.744 OA
ENDBRANCH  43  44
ENDBRANCH  24  38
BRANCH  25  48
ATOM     48  C   UNL     1      -1.112  -7.663  22.175  1.00  0.00    -0.014 A 
ATOM     49  C   UNL     1      -0.447  -8.841  22.550  1.00  0.00     0.010 A 
ATOM     50  C   UNL     1      -1.291  -6.640  23.125  1.00  0.00     0.010 A 
ATOM     51  C   UNL     1       0.050  -8.988  23.848  1.00  0.00     0.020 A 
ATOM     52  C   UNL     1      -0.780  -6.776  24.418  1.00  0.00     0.020 A 
ATOM     53  C   UNL     1      -0.112  -7.950  24.772  1.00  0.00     0.054 A 
BRANCH  53  54
ATOM     54  S   UNL     1       0.643  -8.107  26.415  1.00  0.00     0.124 S 
ATOM     55  O   UNL     1      -0.325  -8.947  27.114  1.00  0.00    -0.237 OA
ATOM     56  O   UNL     1       1.928  -8.736  26.118  1.00  0.00    -0.237 OA
ATOM     57  O   UNL     1       0.730  -6.725  26.881  1.00  0.00    -0.744 OA
ENDBRANCH  53  54
ENDBRANCH  25  48
BRANCH  37  58
ATOM     58  C   UNL     1      -6.381 -10.019  18.238  1.00  0.00    -0.014 A 
ATOM     59  C   UNL     1      -7.527  -9.610  18.940  1.00  0.00     0.010 A 
ATOM     60  C   UNL     1      -6.326 -11.319  17.703  1.00  0.00     0.010 A 
ATOM     61  C   UNL     1      -8.600 -10.489  19.110  1.00  0.00     0.020 A 
ATOM     62  C   UNL     1      -7.402 -12.195  17.859  1.00  0.00     0.020 A 
ATOM     63  C   UNL     1      -8.531 -11.777  18.568  1.00  0.00     0.054 A 
BRANCH  63  64
ATOM     64  S   UNL     1      -9.962 -12.879  18.735  1.00  0.00     0.124 S 
ATOM     65  O   UNL     1      -9.812 -13.367  20.104  1.00  0.00    -0.237 OA
ATOM     66  O   UNL     1     -11.092 -11.982  18.509  1.00  0.00    -0.237 OA
ATOM     67  O   UNL     1      -9.751 -13.878  17.690  1.00  0.00    -0.744 OA
ENDBRANCH  63  64
ENDBRANCH  37  58
ENDBRANCH  11  12
ENDBRANCH   4   6
ENDBRANCH   1   2
BRANCH   1  68
ATOM     68  C   UNL     1       5.737  -1.672  13.218  1.00  0.00     0.042 C 
BRANCH  68  69
ATOM     69  C   UNL     1       6.715  -0.534  12.937  1.00  0.00     0.118 C 
BRANCH  69  70
ATOM     70  N   UNL     1       8.099  -0.918  13.170  1.00  0.00    -0.352 N 
ATOM     71  C   UNL     1       9.058  -1.340  12.289  1.00  0.00     0.252 C 
ATOM     72  H   UNL     1       8.391  -0.868  14.109  1.00  0.00     0.163 HD
ATOM     73  O   UNL     1      10.081  -1.864  12.741  1.00  0.00    -0.269 OA
BRANCH  71  74
ATOM     74  C   UNL     1       8.857  -1.180  10.857  1.00  0.00     0.050 A 
ATOM     75  C   UNL     1       8.429  -0.021  10.239  1.00  0.00     0.079 A 
ATOM     76  C   UNL     1       9.181  -2.173   9.875  1.00  0.00     0.030 A 
ATOM     77  S   UNL     1       8.265  -0.190   8.550  1.00  0.00    -0.147 S 
ATOM     78  C   UNL     1       8.926  -1.776   8.572  1.00  0.00     0.014 A 
BRANCH  78  79
ATOM     79  C   UNL     1       9.130  -2.544   7.267  1.00  0.00     0.079 C 
ATOM     80  C   UNL     1      10.064  -1.797   6.293  1.00  0.00     0.016 C 
ATOM     81  C   UNL     1       9.655  -3.957   7.498  1.00  0.00     0.052 A 
ATOM     82  C   UNL     1      11.504  -1.817   6.798  1.00  0.00     0.006 C 
ATOM     83  C   UNL     1      11.022  -4.250   7.388  1.00  0.00    -0.026 A 
ATOM     84  N   UNL     1       8.739  -4.888   7.875  1.00  0.00    -0.260 NA
ATOM     85  C   UNL     1      12.029  -3.247   6.893  1.00  0.00     0.037 C 
ATOM     86  C   UNL     1      11.440  -5.550   7.690  1.00  0.00     0.007 A 
ATOM     87  C   UNL     1       9.183  -6.130   8.160  1.00  0.00     0.111 A 
ATOM     88  C   UNL     1      10.512  -6.504   8.089  1.00  0.00     0.020 A 
ENDBRANCH  78  79
ENDBRANCH  71  74
ENDBRANCH  69  70
ENDBRANCH  68  69
ENDBRANCH   1  68
TORSDOF 14
