REMARK SMILES Cc1c(-c2nn(-c3ccccc3)cc2/C=N/O)nnn1-c1ccc(C(=O)NCCCNC(=O)c2ccc(-c3c4nc(c(-c5ccc(S(=O)(=O)[O-])cc5)c5ccc([nH]5)c(-c5ccc(S(=O)(=O)[O-])cc5)c5nc(c(-c6ccc(S(=O)(=O)[O-])cc6)c6ccc3[nH]6)C=C5)C=C4)cc2)cc1
REMARK SMILES IDX 28 1 27 2 25 3 26 4 24 6 21 7 22 8 95 9 23 10 94 11 20 12
REMARK SMILES IDX 1 13 2 14 3 15 18 16 19 17 4 18 5 19 14 20 6 21 13 22 15 23
REMARK SMILES IDX 16 24 17 25 7 27 8 28 12 29 9 30 11 31 10 32 29 33 30 34
REMARK SMILES IDX 31 35 32 36 33 38 34 39 35 40 93 41 36 42 92 43 37 44 38 45
REMARK SMILES IDX 39 46 86 47 40 48 91 49 85 50 87 51 41 52 90 53 84 54 83 55
REMARK SMILES IDX 42 57 72 58 53 59 71 60 54 61 57 62 70 63 88 64 55 65 56 66
REMARK SMILES IDX 69 68 89 69 58 70 43 71 44 72 52 73 45 74 51 75 46 76 47 77
REMARK SMILES IDX 48 78 49 79 50 80 73 81 74 82 82 83 75 84 81 85 76 86 77 87
REMARK SMILES IDX 78 88 79 89 80 90 59 91 60 92 68 93 61 94 67 95 62 96 63 97
REMARK SMILES IDX 64 98 65 99 66 100
REMARK H PARENT 27 5 17 26 31 37 87 56 57 67
REMARK Flexibility Score: inf
ROOT
ATOM      1  C   UNL     1       6.652   1.302   2.500  1.00  0.00     0.118 C 
ENDROOT
BRANCH   1   2
ATOM      2  N   UNL     1       6.241   2.426   3.325  1.00  0.00    -0.352 N 
ATOM      3  C   UNL     1       5.129   3.232   3.325  1.00  0.00     0.251 C 
ATOM      4  O   UNL     1       5.039   4.064   4.228  1.00  0.00    -0.269 OA
ATOM      5  H   UNL     1       6.892   2.656   4.027  1.00  0.00     0.163 HD
BRANCH   3   6
ATOM      6  C   UNL     1       4.014   3.117   2.339  1.00  0.00     0.039 A 
ATOM      7  C   UNL     1       1.769   2.844   0.672  1.00  0.00     0.067 A 
ATOM      8  C   UNL     1       1.661   3.579   1.853  1.00  0.00     0.029 A 
ATOM      9  C   UNL     1       3.004   2.329   0.275  1.00  0.00     0.029 A 
ATOM     10  C   UNL     1       2.775   3.683   2.695  1.00  0.00     0.016 A 
ATOM     11  C   UNL     1       4.125   2.509   1.087  1.00  0.00     0.016 A 
BRANCH   7  12
ATOM     12  N   UNL     1       0.635   2.636  -0.137  1.00  0.00    -0.217 N 
ATOM     13  C   UNL     1       0.708   0.108  -0.391  1.00  0.00     0.069 C 
ATOM     14  C   UNL     1       0.212   1.463  -0.734  1.00  0.00     0.071 A 
ATOM     15  C   UNL     1      -0.829   1.882  -1.538  1.00  0.00     0.137 A 
ATOM     16  N   UNL     1      -1.073   3.209  -1.343  1.00  0.00    -0.128 NA
ATOM     17  N   UNL     1      -0.220   3.645  -0.423  1.00  0.00    -0.061 NA
BRANCH  15  18
ATOM     18  C   UNL     1      -1.694   1.067  -2.380  1.00  0.00     0.124 A 
ATOM     19  N   UNL     1      -2.687   0.337  -1.862  1.00  0.00    -0.165 NA
ATOM     20  C   UNL     1      -1.568   0.895  -3.779  1.00  0.00     0.044 A 
ATOM     21  N   UNL     1      -3.135  -0.402  -2.895  1.00  0.00    -0.240 N 
ATOM     22  C   UNL     1      -2.479  -0.105  -4.066  1.00  0.00     0.125 A 
BRANCH  20  23
ATOM     23  C   UNL     1      -0.729   1.547  -4.752  1.00  0.00     0.166 C 
ATOM     24  N   UNL     1       0.169   2.394  -4.373  1.00  0.00    -0.097 NA
BRANCH  24  25
ATOM     25  O   UNL     1       0.814   2.918  -5.500  1.00  0.00    -0.411 OA
ATOM     26  H   UNL     1       1.497   3.551  -5.397  1.00  0.00     0.330 HD
ENDBRANCH  24  25
ENDBRANCH  20  23
BRANCH  21  27
ATOM     27  C   UNL     1      -4.143  -1.371  -2.700  1.00  0.00     0.065 A 
ATOM     28  C   UNL     1      -5.188  -1.095  -1.810  1.00  0.00     0.028 A 
ATOM     29  C   UNL     1      -4.079  -2.601  -3.364  1.00  0.00     0.028 A 
ATOM     30  C   UNL     1      -6.191  -2.043  -1.609  1.00  0.00     0.002 A 
ATOM     31  C   UNL     1      -5.056  -3.565  -3.110  1.00  0.00     0.002 A 
ATOM     32  C   UNL     1      -6.116  -3.281  -2.246  1.00  0.00     0.000 A 
ENDBRANCH  21  27
ENDBRANCH  15  18
ENDBRANCH   7  12
ENDBRANCH   3   6
ENDBRANCH   1   2
BRANCH   1  33
ATOM     33  C   UNL     1       7.572   1.744   1.355  1.00  0.00     0.042 C 
BRANCH  33  34
ATOM     34  C   UNL     1       9.021   1.879   1.801  1.00  0.00     0.118 C 
BRANCH  34  35
ATOM     35  N   UNL     1       9.640   0.575   2.048  1.00  0.00    -0.352 N 
ATOM     36  C   UNL     1      10.908   0.306   2.507  1.00  0.00     0.251 C 
ATOM     37  H   UNL     1       9.076  -0.210   1.860  1.00  0.00     0.163 HD
ATOM     38  O   UNL     1      11.411  -0.805   2.311  1.00  0.00    -0.269 OA
BRANCH  36  39
ATOM     39  C   UNL     1      11.658   1.349   3.224  1.00  0.00     0.039 A 
ATOM     40  C   UNL     1      13.025   1.530   3.002  1.00  0.00     0.014 A 
ATOM     41  C   UNL     1      10.967   2.171   4.112  1.00  0.00     0.014 A 
ATOM     42  C   UNL     1      13.668   2.604   3.612  1.00  0.00     0.010 A 
ATOM     43  C   UNL     1      11.568   3.306   4.604  1.00  0.00     0.010 A 
ATOM     44  C   UNL     1      12.926   3.511   4.388  1.00  0.00    -0.014 A 
BRANCH  44  45
ATOM     45  C   UNL     1      13.517   4.783   4.805  1.00  0.00     0.031 A 
ATOM     46  C   UNL     1      14.093   5.551   3.668  1.00  0.00     0.074 A 
ATOM     47  C   UNL     1      13.355   5.327   6.032  1.00  0.00     0.049 A 
ATOM     48  N   UNL     1      15.343   5.714   3.385  1.00  0.00    -0.248 NA
ATOM     49  C   UNL     1      13.180   6.015   2.606  1.00  0.00     0.031 C 
ATOM     50  C   UNL     1      12.538   4.805   7.136  1.00  0.00     0.029 A 
ATOM     51  N   UNL     1      13.778   6.528   6.523  1.00  0.00    -0.354 N 
ATOM     52  C   UNL     1      15.361   6.557   2.279  1.00  0.00     0.074 A 
ATOM     53  C   UNL     1      14.043   6.489   1.704  1.00  0.00     0.031 C 
ATOM     54  C   UNL     1      12.319   5.782   8.043  1.00  0.00     0.029 A 
ATOM     55  C   UNL     1      13.118   6.938   7.683  1.00  0.00     0.049 A 
ATOM     56  H   UNL     1      14.488   7.060   6.096  1.00  0.00     0.167 HD
ATOM     57  C   UNL     1      16.326   7.511   2.151  1.00  0.00     0.031 A 
ATOM     58  C   UNL     1      13.202   8.148   8.295  1.00  0.00     0.031 A 
ATOM     59  C   UNL     1      17.407   7.283   3.079  1.00  0.00     0.049 A 
ATOM     60  C   UNL     1      14.471   8.762   7.852  1.00  0.00     0.074 A 
ATOM     61  C   UNL     1      18.329   6.285   3.312  1.00  0.00     0.029 A 
ATOM     62  N   UNL     1      17.341   8.042   4.221  1.00  0.00    -0.354 N 
ATOM     63  N   UNL     1      15.644   8.276   8.149  1.00  0.00    -0.248 NA
ATOM     64  C   UNL     1      14.447   9.702   6.743  1.00  0.00     0.031 C 
ATOM     65  C   UNL     1      18.536   6.282   4.724  1.00  0.00     0.029 A 
ATOM     66  C   UNL     1      17.795   7.322   5.290  1.00  0.00     0.049 A 
ATOM     67  H   UNL     1      17.013   8.969   4.264  1.00  0.00     0.167 HD
ATOM     68  C   UNL     1      16.401   8.477   7.007  1.00  0.00     0.074 A 
ATOM     69  C   UNL     1      15.671   9.491   6.250  1.00  0.00     0.031 C 
ATOM     70  C   UNL     1      17.374   7.586   6.653  1.00  0.00     0.031 A 
BRANCH  57  71
ATOM     71  C   UNL     1      16.048   8.908   1.620  1.00  0.00    -0.014 A 
ATOM     72  C   UNL     1      17.114   9.833   1.568  1.00  0.00     0.010 A 
ATOM     73  C   UNL     1      14.748   9.436   1.472  1.00  0.00     0.010 A 
ATOM     74  C   UNL     1      16.882  11.210   1.444  1.00  0.00     0.020 A 
ATOM     75  C   UNL     1      14.508  10.801   1.304  1.00  0.00     0.020 A 
ATOM     76  C   UNL     1      15.577  11.684   1.319  1.00  0.00     0.054 A 
BRANCH  76  77
ATOM     77  S   UNL     1      15.281  13.466   1.220  1.00  0.00     0.124 S 
ATOM     78  O   UNL     1      15.699  13.913   2.544  1.00  0.00    -0.237 OA
ATOM     79  O   UNL     1      16.148  13.858   0.112  1.00  0.00    -0.237 OA
ATOM     80  O   UNL     1      13.849  13.557   0.946  1.00  0.00    -0.744 OA
ENDBRANCH  76  77
ENDBRANCH  57  71
BRANCH  58  81
ATOM     81  C   UNL     1      12.152   8.919   9.013  1.00  0.00    -0.014 A 
ATOM     82  C   UNL     1      12.479  10.076   9.751  1.00  0.00     0.010 A 
ATOM     83  C   UNL     1      10.791   8.698   8.722  1.00  0.00     0.010 A 
ATOM     84  C   UNL     1      11.493  11.014  10.110  1.00  0.00     0.020 A 
ATOM     85  C   UNL     1       9.803   9.625   9.082  1.00  0.00     0.020 A 
ATOM     86  C   UNL     1      10.162  10.794   9.749  1.00  0.00     0.054 A 
BRANCH  86  87
ATOM     87  S   UNL     1       8.926  12.099  10.037  1.00  0.00     0.124 S 
ATOM     88  O   UNL     1       8.780  12.076  11.489  1.00  0.00    -0.237 OA
ATOM     89  O   UNL     1       9.579  13.284   9.487  1.00  0.00    -0.237 OA
ATOM     90  O   UNL     1       7.758  11.637   9.289  1.00  0.00    -0.744 OA
ENDBRANCH  86  87
ENDBRANCH  58  81
BRANCH  70  91
ATOM     91  C   UNL     1      17.952   6.700   7.730  1.00  0.00    -0.014 A 
ATOM     92  C   UNL     1      17.224   5.764   8.488  1.00  0.00     0.010 A 
ATOM     93  C   UNL     1      19.344   6.775   7.917  1.00  0.00     0.010 A 
ATOM     94  C   UNL     1      17.872   4.954   9.436  1.00  0.00     0.020 A 
ATOM     95  C   UNL     1      19.997   5.959   8.839  1.00  0.00     0.020 A 
ATOM     96  C   UNL     1      19.257   5.063   9.608  1.00  0.00     0.054 A 
BRANCH  96  97
ATOM     97  S   UNL     1      20.098   4.017  10.829  1.00  0.00     0.124 S 
ATOM     98  O   UNL     1      19.575   4.522  12.095  1.00  0.00    -0.237 OA
ATOM     99  O   UNL     1      19.664   2.672  10.459  1.00  0.00    -0.237 OA
ATOM    100  O   UNL     1      21.518   4.285  10.598  1.00  0.00    -0.744 OA
ENDBRANCH  96  97
ENDBRANCH  70  91
ENDBRANCH  44  45
ENDBRANCH  36  39
ENDBRANCH  34  35
ENDBRANCH  33  34
ENDBRANCH   1  33
TORSDOF 18
