REMARK SMILES CC(C)CCc1cc2c(cc1Cl)C=C(C(=O)NCCCNC(=O)c1ccc(-c3c4nc(c(-c5ccc(S(=O)(=O)[O-])cc5)c5ccc([nH]5)c(-c5ccc(S(=O)(=O)[O-])cc5)c5nc(c(-c6ccc(S(=O)(=O)[O-])cc6)c6ccc3[nH]6)C=C5)C=C4)cc1)[C@H](C(F)(F)F)O2
REMARK SMILES IDX 19 1 18 2 17 3 15 4 16 5 14 7 6 8 7 9 11 10 8 11 10 12 12 13
REMARK SMILES IDX 9 14 89 15 13 16 84 17 5 18 4 19 2 20 1 21 3 22 85 23 86 24
REMARK SMILES IDX 87 25 88 26 20 27 21 28 22 29 23 31 24 32 25 33 83 34 26 35
REMARK SMILES IDX 82 36 27 37 28 38 29 39 76 40 30 41 81 42 75 43 77 44 31 45
REMARK SMILES IDX 80 46 74 47 73 48 32 50 62 51 43 52 61 53 44 54 47 55 60 56
REMARK SMILES IDX 78 57 45 58 46 59 59 61 79 62 48 63 33 64 34 65 42 66 35 67
REMARK SMILES IDX 41 68 36 69 37 70 38 71 39 72 40 73 63 74 64 75 72 76 65 77
REMARK SMILES IDX 71 78 66 79 67 80 68 81 69 82 70 83 49 84 50 85 58 86 51 87
REMARK SMILES IDX 57 88 52 89 53 90 54 91 55 92 56 93
REMARK H PARENT 17 6 21 30 77 49 47 60
REMARK Flexibility Score: inf
ROOT
ATOM      1  C   UNL     1      -1.607   8.707   6.671  1.00  0.00     0.042 C 
ENDROOT
BRANCH   1   2
ATOM      2  C   UNL     1      -0.238   8.079   6.439  1.00  0.00     0.118 C 
BRANCH   2   3
ATOM      3  N   UNL     1      -0.022   6.921   7.293  1.00  0.00    -0.352 N 
ATOM      4  C   UNL     1      -0.036   5.575   7.154  1.00  0.00     0.251 C 
ATOM      5  O   UNL     1       0.324   4.940   8.151  1.00  0.00    -0.270 OA
ATOM      6  H   UNL     1       0.191   7.187   8.216  1.00  0.00     0.163 HD
BRANCH   4   7
ATOM      7  C   UNL     1      -0.440   4.840   5.921  1.00  0.00     0.067 C 
ATOM      8  C   UNL     1      -1.256   1.246   2.462  1.00  0.00    -0.026 A 
ATOM      9  C   UNL     1      -1.437   2.638   2.516  1.00  0.00     0.052 A 
ATOM     10  C   UNL     1      -0.723   0.607   3.595  1.00  0.00     0.045 A 
ATOM     11  C   UNL     1      -1.055   3.367   3.637  1.00  0.00     0.128 A 
ATOM     12  C   UNL     1      -0.343   1.348   4.725  1.00  0.00     0.032 A 
ATOM     13  Cl  UNL     1      -0.490  -1.104   3.666  1.00  0.00    -0.084 Cl
ATOM     14  C   UNL     1      -0.501   2.735   4.744  1.00  0.00     0.019 A 
ATOM     15  O   UNL     1      -1.206   4.721   3.555  1.00  0.00    -0.475 OA
ATOM     16  C   UNL     1      -0.076   3.543   5.879  1.00  0.00     0.025 C 
ATOM     17  C   UNL     1      -1.290   5.423   4.824  1.00  0.00     0.314 C 
BRANCH   8  18
ATOM     18  C   UNL     1      -1.651   0.520   1.194  1.00  0.00     0.037 C 
BRANCH  18  19
ATOM     19  C   UNL     1      -1.071   1.136  -0.095  1.00  0.00     0.008 C 
BRANCH  19  20
ATOM     20  C   UNL     1       0.468   1.239  -0.130  1.00  0.00    -0.017 C 
ATOM     21  C   UNL     1       1.133  -0.136  -0.128  1.00  0.00     0.007 C 
ATOM     22  C   UNL     1       0.909   2.033  -1.362  1.00  0.00     0.007 C 
ENDBRANCH  19  20
ENDBRANCH  18  19
ENDBRANCH   8  18
BRANCH  17  23
ATOM     23  C   UNL     1      -2.763   5.623   5.214  1.00  0.00     0.429 C 
ATOM     24  F   UNL     1      -3.558   4.614   4.795  1.00  0.00    -0.167 F 
ATOM     25  F   UNL     1      -2.934   5.733   6.551  1.00  0.00    -0.167 F 
ATOM     26  F   UNL     1      -3.236   6.769   4.661  1.00  0.00    -0.167 F 
ENDBRANCH  17  23
ENDBRANCH   4   7
ENDBRANCH   2   3
ENDBRANCH   1   2
BRANCH   1  27
ATOM     27  C   UNL     1      -1.660   9.548   7.941  1.00  0.00     0.118 C 
BRANCH  27  28
ATOM     28  N   UNL     1      -0.941  10.809   7.792  1.00  0.00    -0.352 N 
ATOM     29  C   UNL     1      -1.417  12.097   7.723  1.00  0.00     0.251 C 
ATOM     30  H   UNL     1       0.038  10.724   7.729  1.00  0.00     0.163 HD
ATOM     31  O   UNL     1      -0.667  12.998   7.352  1.00  0.00    -0.269 OA
BRANCH  29  32
ATOM     32  C   UNL     1      -2.824  12.395   8.070  1.00  0.00     0.039 A 
ATOM     33  C   UNL     1      -3.438  11.767   9.153  1.00  0.00     0.014 A 
ATOM     34  C   UNL     1      -3.541  13.324   7.309  1.00  0.00     0.014 A 
ATOM     35  C   UNL     1      -4.804  11.914   9.355  1.00  0.00     0.010 A 
ATOM     36  C   UNL     1      -4.893  13.556   7.585  1.00  0.00     0.010 A 
ATOM     37  C   UNL     1      -5.550  12.816   8.580  1.00  0.00    -0.014 A 
BRANCH  37  38
ATOM     38  C   UNL     1      -7.007  12.972   8.840  1.00  0.00     0.031 A 
ATOM     39  C   UNL     1      -8.020  12.636   7.777  1.00  0.00     0.074 A 
ATOM     40  C   UNL     1      -7.418  13.361  10.065  1.00  0.00     0.049 A 
ATOM     41  N   UNL     1      -9.325  12.710   7.838  1.00  0.00    -0.248 NA
ATOM     42  C   UNL     1      -7.513  12.160   6.478  1.00  0.00     0.031 C 
ATOM     43  C   UNL     1      -6.529  13.691  11.183  1.00  0.00     0.029 A 
ATOM     44  N   UNL     1      -8.677  13.516  10.591  1.00  0.00    -0.354 N 
ATOM     45  C   UNL     1      -9.791  12.308   6.591  1.00  0.00     0.074 A 
ATOM     46  C   UNL     1      -8.631  12.021   5.778  1.00  0.00     0.031 C 
ATOM     47  C   UNL     1      -7.266  13.943  12.274  1.00  0.00     0.029 A 
ATOM     48  C   UNL     1      -8.680  13.880  11.918  1.00  0.00     0.049 A 
ATOM     49  H   UNL     1      -9.499  13.380  10.067  1.00  0.00     0.167 HD
ATOM     50  C   UNL     1     -11.071  12.174   6.172  1.00  0.00     0.031 A 
ATOM     51  C   UNL     1      -9.697  14.154  12.758  1.00  0.00     0.031 A 
ATOM     52  C   UNL     1     -12.221  12.434   7.001  1.00  0.00     0.049 A 
ATOM     53  C   UNL     1     -11.107  14.044  12.252  1.00  0.00     0.074 A 
ATOM     54  C   UNL     1     -13.558  12.309   6.666  1.00  0.00     0.029 A 
ATOM     55  N   UNL     1     -12.177  12.856   8.321  1.00  0.00    -0.354 N 
ATOM     56  N   UNL     1     -11.524  13.659  11.069  1.00  0.00    -0.248 NA
ATOM     57  C   UNL     1     -12.184  14.402  13.184  1.00  0.00     0.031 C 
ATOM     58  C   UNL     1     -14.322  12.720   7.758  1.00  0.00     0.029 A 
ATOM     59  C   UNL     1     -13.464  13.023   8.804  1.00  0.00     0.049 A 
ATOM     60  H   UNL     1     -11.354  13.012   8.838  1.00  0.00     0.167 HD
ATOM     61  C   UNL     1     -12.911  13.717  11.119  1.00  0.00     0.074 A 
ATOM     62  C   UNL     1     -13.264  14.149  12.455  1.00  0.00     0.031 C 
ATOM     63  C   UNL     1     -13.807  13.446  10.139  1.00  0.00     0.031 A 
BRANCH  50  64
ATOM     64  C   UNL     1     -11.332  11.712   4.760  1.00  0.00    -0.014 A 
ATOM     65  C   UNL     1     -11.954  12.584   3.847  1.00  0.00     0.010 A 
ATOM     66  C   UNL     1     -11.119  10.373   4.389  1.00  0.00     0.010 A 
ATOM     67  C   UNL     1     -12.409  12.114   2.611  1.00  0.00     0.020 A 
ATOM     68  C   UNL     1     -11.546   9.906   3.141  1.00  0.00     0.020 A 
ATOM     69  C   UNL     1     -12.216  10.773   2.274  1.00  0.00     0.054 A 
BRANCH  69  70
ATOM     70  S   UNL     1     -12.880  10.164   0.699  1.00  0.00     0.124 S 
ATOM     71  O   UNL     1     -14.316  10.138   0.958  1.00  0.00    -0.237 OA
ATOM     72  O   UNL     1     -12.427  11.179  -0.250  1.00  0.00    -0.237 OA
ATOM     73  O   UNL     1     -12.249   8.855   0.544  1.00  0.00    -0.744 OA
ENDBRANCH  69  70
ENDBRANCH  50  64
BRANCH  51  74
ATOM     74  C   UNL     1      -9.397  14.559  14.161  1.00  0.00    -0.014 A 
ATOM     75  C   UNL     1      -8.704  15.758  14.420  1.00  0.00     0.010 A 
ATOM     76  C   UNL     1      -9.727  13.720  15.239  1.00  0.00     0.010 A 
ATOM     77  C   UNL     1      -8.293  16.079  15.715  1.00  0.00     0.020 A 
ATOM     78  C   UNL     1      -9.351  14.057  16.544  1.00  0.00     0.020 A 
ATOM     79  C   UNL     1      -8.609  15.219  16.768  1.00  0.00     0.054 A 
BRANCH  79  80
ATOM     80  S   UNL     1      -8.028  15.636  18.436  1.00  0.00     0.124 S 
ATOM     81  O   UNL     1      -6.613  15.284  18.356  1.00  0.00    -0.237 OA
ATOM     82  O   UNL     1      -8.317  17.065  18.526  1.00  0.00    -0.237 OA
ATOM     83  O   UNL     1      -8.838  14.783  19.302  1.00  0.00    -0.744 OA
ENDBRANCH  79  80
ENDBRANCH  51  74
BRANCH  63  84
ATOM     84  C   UNL     1     -15.273  13.598  10.451  1.00  0.00    -0.014 A 
ATOM     85  C   UNL     1     -16.107  12.463  10.450  1.00  0.00     0.010 A 
ATOM     86  C   UNL     1     -15.850  14.872  10.592  1.00  0.00     0.010 A 
ATOM     87  C   UNL     1     -17.493  12.602  10.537  1.00  0.00     0.020 A 
ATOM     88  C   UNL     1     -17.235  15.012  10.713  1.00  0.00     0.020 A 
ATOM     89  C   UNL     1     -18.049  13.878  10.655  1.00  0.00     0.054 A 
BRANCH  89  90
ATOM     90  S   UNL     1     -19.855  14.042  10.712  1.00  0.00     0.124 S 
ATOM     91  O   UNL     1     -20.230  13.798   9.323  1.00  0.00    -0.237 OA
ATOM     92  O   UNL     1     -20.241  13.000  11.661  1.00  0.00    -0.237 OA
ATOM     93  O   UNL     1     -20.060  15.410  11.184  1.00  0.00    -0.744 OA
ENDBRANCH  89  90
ENDBRANCH  63  84
ENDBRANCH  37  38
ENDBRANCH  29  32
ENDBRANCH  27  28
ENDBRANCH   1  27
TORSDOF 17
