REMARK SMILES CCN(CC(C)(C)O)C(=O)Nc1ccc(C(=O)NCCCNC(=O)c2ccc(-c3c4nc(c(-c5ccc(S(=O)(=O)[O-])cc5)c5ccc([nH]5)c(-c5ccc(S(=O)(=O)[O-])cc5)c5nc(c(-c6ccc(S(=O)(=O)[O-])cc6)c6ccc3[nH]6)C=C5)C=C4)cc2)c(O)c1
REMARK SMILES IDX 19 1 18 2 16 3 17 4 15 6 12 7 13 8 87 9 14 10 85 11 11 12
REMARK SMILES IDX 9 13 10 14 3 16 2 17 1 18 4 19 5 20 6 21 7 22 8 23 86 25
REMARK SMILES IDX 20 27 21 28 22 29 23 30 24 32 25 33 26 34 84 35 27 36 83 37
REMARK SMILES IDX 28 38 29 39 30 40 77 41 31 42 82 43 76 44 78 45 32 46 81 47
REMARK SMILES IDX 75 48 74 49 33 51 63 52 44 53 62 54 45 55 48 56 61 57 79 58
REMARK SMILES IDX 46 59 47 60 60 62 80 63 49 64 34 65 35 66 43 67 36 68 42 69
REMARK SMILES IDX 37 70 38 71 39 72 40 73 41 74 64 75 65 76 73 77 66 78 72 79
REMARK SMILES IDX 67 80 68 81 69 82 70 83 71 84 50 85 51 86 59 87 52 88 58 89
REMARK SMILES IDX 53 90 54 91 55 92 56 93 57 94
REMARK H PARENT 18 5 11 15 8 24 86 26 22 31 78 50 48 61
REMARK Flexibility Score: inf
ROOT
ATOM      1  C   UNL     1       0.752  -9.478   1.705  1.00  0.00     0.118 C 
ENDROOT
BRANCH   1   2
ATOM      2  N   UNL     1       0.255  -9.698   0.359  1.00  0.00    -0.352 N 
ATOM      3  C   UNL     1       0.563  -9.038  -0.790  1.00  0.00     0.255 C 
ATOM      4  O   UNL     1       0.097  -9.425  -1.860  1.00  0.00    -0.269 OA
ATOM      5  H   UNL     1      -0.397 -10.429   0.265  1.00  0.00     0.163 HD
BRANCH   3   6
ATOM      6  C   UNL     1       1.307  -7.773  -0.729  1.00  0.00     0.081 A 
ATOM      7  C   UNL     1       2.276  -5.122  -0.564  1.00  0.00     0.046 A 
ATOM      8  C   UNL     1       1.183  -5.481  -1.303  1.00  0.00     0.027 A 
ATOM      9  C   UNL     1       2.968  -6.168   0.055  1.00  0.00     0.073 A 
ATOM     10  C   UNL     1       0.660  -6.752  -1.383  1.00  0.00     0.020 A 
ATOM     11  C   UNL     1       2.508  -7.495  -0.069  1.00  0.00     0.130 A 
BRANCH   7  12
ATOM     12  N   UNL     1       2.754  -3.806  -0.509  1.00  0.00    -0.308 N 
ATOM     13  C   UNL     1       2.451  -2.551  -0.911  1.00  0.00     0.321 C 
ATOM     14  O   UNL     1       3.409  -1.774  -0.750  1.00  0.00    -0.248 OA
ATOM     15  H   UNL     1       3.600  -3.789  -0.006  1.00  0.00     0.171 HD
BRANCH  13  16
ATOM     16  N   UNL     1       1.259  -2.061  -1.391  1.00  0.00    -0.322 N 
BRANCH  16  17
ATOM     17  C   UNL     1       1.191  -0.590  -1.480  1.00  0.00     0.118 C 
ATOM     18  C   UNL     1       1.177   0.074  -0.102  1.00  0.00     0.027 C 
ENDBRANCH  16  17
BRANCH  16  19
ATOM     19  C   UNL     1      -0.028  -2.699  -1.739  1.00  0.00     0.155 C 
BRANCH  19  20
ATOM     20  C   UNL     1      -0.213  -3.132  -3.260  1.00  0.00     0.077 C 
ATOM     21  C   UNL     1       1.039  -3.649  -4.010  1.00  0.00     0.043 C 
ATOM     22  C   UNL     1      -1.362  -4.163  -3.365  1.00  0.00     0.043 C 
BRANCH  20  23
ATOM     23  O   UNL     1      -0.640  -1.972  -4.000  1.00  0.00    -0.389 OA
ATOM     24  H   UNL     1       0.052  -1.292  -3.963  1.00  0.00     0.211 HD
ENDBRANCH  20  23
ENDBRANCH  19  20
ENDBRANCH  16  19
ENDBRANCH  13  16
ENDBRANCH   7  12
BRANCH  11  25
ATOM     25  O   UNL     1       3.303  -8.471   0.465  1.00  0.00    -0.507 OA
ATOM     26  H   UNL     1       3.042  -9.370   0.409  1.00  0.00     0.293 HD
ENDBRANCH  11  25
ENDBRANCH   3   6
ENDBRANCH   1   2
BRANCH   1  27
ATOM     27  C   UNL     1      -0.296  -9.639   2.785  1.00  0.00     0.042 C 
BRANCH  27  28
ATOM     28  C   UNL     1      -1.152 -10.882   2.636  1.00  0.00     0.118 C 
BRANCH  28  29
ATOM     29  N   UNL     1      -0.363 -12.102   2.479  1.00  0.00    -0.352 N 
ATOM     30  C   UNL     1       0.089 -13.004   3.409  1.00  0.00     0.251 C 
ATOM     31  H   UNL     1      -0.114 -12.312   1.550  1.00  0.00     0.163 HD
ATOM     32  O   UNL     1       0.946 -13.829   3.087  1.00  0.00    -0.269 OA
BRANCH  30  33
ATOM     33  C   UNL     1      -0.421 -12.959   4.792  1.00  0.00     0.039 A 
ATOM     34  C   UNL     1       0.447 -13.180   5.863  1.00  0.00     0.014 A 
ATOM     35  C   UNL     1      -1.763 -12.677   5.031  1.00  0.00     0.014 A 
ATOM     36  C   UNL     1      -0.022 -13.028   7.169  1.00  0.00     0.010 A 
ATOM     37  C   UNL     1      -2.184 -12.367   6.313  1.00  0.00     0.010 A 
ATOM     38  C   UNL     1      -1.330 -12.569   7.403  1.00  0.00    -0.014 A 
BRANCH  38  39
ATOM     39  C   UNL     1      -1.851 -12.332   8.773  1.00  0.00     0.031 A 
ATOM     40  C   UNL     1      -3.092 -13.055   9.235  1.00  0.00     0.074 A 
ATOM     41  C   UNL     1      -1.262 -11.414   9.564  1.00  0.00     0.049 A 
ATOM     42  N   UNL     1      -3.753 -12.923  10.356  1.00  0.00    -0.248 NA
ATOM     43  C   UNL     1      -3.697 -14.019   8.298  1.00  0.00     0.031 C 
ATOM     44  C   UNL     1      -0.095 -10.602   9.206  1.00  0.00     0.029 A 
ATOM     45  N   UNL     1      -1.567 -11.004  10.838  1.00  0.00    -0.354 N 
ATOM     46  C   UNL     1      -4.858 -13.760  10.241  1.00  0.00     0.074 A 
ATOM     47  C   UNL     1      -4.823 -14.335   8.918  1.00  0.00     0.031 C 
ATOM     48  C   UNL     1       0.244  -9.829  10.250  1.00  0.00     0.029 A 
ATOM     49  C   UNL     1      -0.708 -10.050  11.332  1.00  0.00     0.049 A 
ATOM     50  H   UNL     1      -2.328 -11.361  11.350  1.00  0.00     0.167 HD
ATOM     51  C   UNL     1      -5.802 -14.052  11.166  1.00  0.00     0.031 A 
ATOM     52  C   UNL     1      -0.692  -9.421  12.524  1.00  0.00     0.031 A 
ATOM     53  C   UNL     1      -5.811 -13.502  12.494  1.00  0.00     0.049 A 
ATOM     54  C   UNL     1      -1.742  -9.773  13.543  1.00  0.00     0.074 A 
ATOM     55  C   UNL     1      -6.675 -13.785  13.536  1.00  0.00     0.029 A 
ATOM     56  N   UNL     1      -4.908 -12.560  12.963  1.00  0.00    -0.354 N 
ATOM     57  N   UNL     1      -2.734 -10.627  13.443  1.00  0.00    -0.248 NA
ATOM     58  C   UNL     1      -1.661  -9.089  14.839  1.00  0.00     0.031 C 
ATOM     59  C   UNL     1      -6.331 -12.969  14.617  1.00  0.00     0.029 A 
ATOM     60  C   UNL     1      -5.210 -12.230  14.273  1.00  0.00     0.049 A 
ATOM     61  H   UNL     1      -4.163 -12.182  12.443  1.00  0.00     0.167 HD
ATOM     62  C   UNL     1      -3.378 -10.603  14.674  1.00  0.00     0.074 A 
ATOM     63  C   UNL     1      -2.652  -9.665  15.507  1.00  0.00     0.031 C 
ATOM     64  C   UNL     1      -4.472 -11.293  15.082  1.00  0.00     0.031 A 
BRANCH  51  65
ATOM     65  C   UNL     1      -6.896 -15.011  10.772  1.00  0.00    -0.014 A 
ATOM     66  C   UNL     1      -6.621 -16.369  10.523  1.00  0.00     0.010 A 
ATOM     67  C   UNL     1      -8.224 -14.557  10.681  1.00  0.00     0.010 A 
ATOM     68  C   UNL     1      -7.644 -17.243  10.147  1.00  0.00     0.020 A 
ATOM     69  C   UNL     1      -9.256 -15.435  10.340  1.00  0.00     0.020 A 
ATOM     70  C   UNL     1      -8.957 -16.770  10.058  1.00  0.00     0.054 A 
BRANCH  70  71
ATOM     71  S   UNL     1     -10.268 -17.934   9.599  1.00  0.00     0.124 S 
ATOM     72  O   UNL     1      -9.984 -18.166   8.185  1.00  0.00    -0.237 OA
ATOM     73  O   UNL     1     -10.012 -19.068  10.484  1.00  0.00    -0.237 OA
ATOM     74  O   UNL     1     -11.499 -17.198   9.874  1.00  0.00    -0.744 OA
ENDBRANCH  70  71
ENDBRANCH  51  65
BRANCH  52  75
ATOM     75  C   UNL     1       0.365  -8.416  12.823  1.00  0.00    -0.014 A 
ATOM     76  C   UNL     1       1.364  -8.688  13.775  1.00  0.00     0.010 A 
ATOM     77  C   UNL     1       0.388  -7.183  12.145  1.00  0.00     0.010 A 
ATOM     78  C   UNL     1       2.350  -7.739  14.061  1.00  0.00     0.020 A 
ATOM     79  C   UNL     1       1.391  -6.244  12.405  1.00  0.00     0.020 A 
ATOM     80  C   UNL     1       2.359  -6.524  13.372  1.00  0.00     0.054 A 
BRANCH  80  81
ATOM     81  S   UNL     1       3.675  -5.326  13.727  1.00  0.00     0.124 S 
ATOM     82  O   UNL     1       3.300  -4.848  15.054  1.00  0.00    -0.237 OA
ATOM     83  O   UNL     1       4.877  -6.155  13.668  1.00  0.00    -0.237 OA
ATOM     84  O   UNL     1       3.548  -4.349  12.649  1.00  0.00    -0.744 OA
ENDBRANCH  80  81
ENDBRANCH  52  75
BRANCH  64  85
ATOM     85  C   UNL     1      -4.929 -11.092  16.502  1.00  0.00    -0.014 A 
ATOM     86  C   UNL     1      -5.525  -9.887  16.914  1.00  0.00     0.010 A 
ATOM     87  C   UNL     1      -4.809 -12.150  17.422  1.00  0.00     0.010 A 
ATOM     88  C   UNL     1      -5.960  -9.733  18.233  1.00  0.00     0.020 A 
ATOM     89  C   UNL     1      -5.274 -12.011  18.731  1.00  0.00     0.020 A 
ATOM     90  C   UNL     1      -5.832 -10.796  19.132  1.00  0.00     0.054 A 
BRANCH  90  91
ATOM     91  S   UNL     1      -6.442 -10.582  20.826  1.00  0.00     0.124 S 
ATOM     92  O   UNL     1      -5.447  -9.676  21.394  1.00  0.00    -0.237 OA
ATOM     93  O   UNL     1      -7.769 -10.009  20.618  1.00  0.00    -0.237 OA
ATOM     94  O   UNL     1      -6.433 -11.938  21.372  1.00  0.00    -0.744 OA
ENDBRANCH  90  91
ENDBRANCH  64  85
ENDBRANCH  38  39
ENDBRANCH  30  33
ENDBRANCH  28  29
ENDBRANCH  27  28
ENDBRANCH   1  27
TORSDOF 20
