REMARK SMILES Cc1c(C)c2c(c(C)c1O)CC[C@@](C)(C(=O)NCCCNC(=O)c1ccc(-c3c4nc(c(-c5ccc(S(=O)(=O)[O-])cc5)c5ccc([nH]5)c(-c5ccc(S(=O)(=O)[O-])cc5)c5nc(c(-c6ccc(S(=O)(=O)[O-])cc6)c6ccc3[nH]6)C=C5)C=C4)cc1)O2
REMARK SMILES IDX 20 1 19 2 18 3 17 4 15 5 16 6 13 8 1 9 2 10 3 11 9 12 4 13
REMARK SMILES IDX 5 14 7 15 6 16 84 17 8 18 11 19 12 20 14 21 10 22 21 24
REMARK SMILES IDX 22 25 23 27 24 28 25 29 83 30 26 31 82 32 27 33 28 34 29 35
REMARK SMILES IDX 76 36 30 37 81 38 75 39 77 40 31 41 80 42 74 43 73 44 32 46
REMARK SMILES IDX 62 47 43 48 61 49 44 50 47 51 60 52 78 53 45 54 46 55 59 57
REMARK SMILES IDX 79 58 48 59 33 60 34 61 42 62 35 63 41 64 36 65 37 66 38 67
REMARK SMILES IDX 39 68 40 69 63 70 64 71 72 72 65 73 71 74 66 75 67 76 68 77
REMARK SMILES IDX 69 78 70 79 49 80 50 81 58 82 51 83 57 84 52 85 53 86 54 87
REMARK SMILES IDX 55 88 56 89
REMARK H PARENT 17 7 10 23 21 26 77 45 47 56
REMARK Flexibility Score: inf
ROOT
ATOM      1  C   UNL     1      -4.731   8.453   5.107  1.00  0.00     0.118 C 
ENDROOT
BRANCH   1   2
ATOM      2  C   UNL     1      -3.454   7.976   4.436  1.00  0.00     0.042 C 
BRANCH   2   3
ATOM      3  C   UNL     1      -2.892   6.692   5.032  1.00  0.00     0.118 C 
BRANCH   3   4
ATOM      4  N   UNL     1      -3.698   5.521   4.716  1.00  0.00    -0.353 N 
ATOM      5  C   UNL     1      -3.428   4.411   3.954  1.00  0.00     0.263 C 
ATOM      6  O   UNL     1      -4.314   3.554   3.897  1.00  0.00    -0.270 OA
ATOM      7  H   UNL     1      -4.596   5.525   5.120  1.00  0.00     0.163 HD
BRANCH   5   8
ATOM      8  C   UNL     1      -2.064   4.254   3.223  1.00  0.00     0.184 C 
ATOM      9  C   UNL     1       0.859  -0.100   0.021  1.00  0.00     0.049 C 
ATOM     10  C   UNL     1       0.462   1.298   0.420  1.00  0.00    -0.002 A 
ATOM     11  C   UNL     1      -0.679   1.533   1.227  1.00  0.00    -0.002 A 
ATOM     12  C   UNL     1       1.220   2.400  -0.027  1.00  0.00     0.122 A 
ATOM     13  C   UNL     1      -1.529   0.385   1.715  1.00  0.00     0.049 C 
ATOM     14  C   UNL     1      -0.992   2.853   1.604  1.00  0.00     0.127 A 
ATOM     15  C   UNL     1       0.902   3.716   0.330  1.00  0.00    -0.002 A 
ATOM     16  C   UNL     1      -0.231   3.942   1.135  1.00  0.00     0.001 A 
ATOM     17  O   UNL     1      -2.060   3.021   2.464  1.00  0.00    -0.477 OA
ATOM     18  C   UNL     1       1.743   4.880  -0.136  1.00  0.00     0.049 C 
ATOM     19  C   UNL     1      -0.596   5.347   1.525  1.00  0.00     0.044 C 
ATOM     20  C   UNL     1      -1.944   5.387   2.202  1.00  0.00     0.063 C 
ATOM     21  C   UNL     1      -0.972   4.101   4.304  1.00  0.00     0.067 C 
BRANCH  12  22
ATOM     22  O   UNL     1       2.315   2.225  -0.834  1.00  0.00    -0.507 OA
ATOM     23  H   UNL     1       2.568   1.362  -1.099  1.00  0.00     0.293 HD
ENDBRANCH  12  22
ENDBRANCH   5   8
ENDBRANCH   3   4
ENDBRANCH   2   3
ENDBRANCH   1   2
BRANCH   1  24
ATOM     24  N   UNL     1      -4.522   8.810   6.503  1.00  0.00    -0.352 N 
ATOM     25  C   UNL     1      -4.673  10.018   7.137  1.00  0.00     0.251 C 
ATOM     26  H   UNL     1      -4.226   8.071   7.082  1.00  0.00     0.163 HD
ATOM     27  O   UNL     1      -4.239  10.157   8.280  1.00  0.00    -0.269 OA
BRANCH  25  28
ATOM     28  C   UNL     1      -5.335  11.147   6.450  1.00  0.00     0.039 A 
ATOM     29  C   UNL     1      -4.815  12.435   6.606  1.00  0.00     0.014 A 
ATOM     30  C   UNL     1      -6.473  10.942   5.665  1.00  0.00     0.014 A 
ATOM     31  C   UNL     1      -5.393  13.503   5.917  1.00  0.00     0.010 A 
ATOM     32  C   UNL     1      -6.993  11.989   4.912  1.00  0.00     0.010 A 
ATOM     33  C   UNL     1      -6.461  13.280   5.033  1.00  0.00    -0.014 A 
BRANCH  33  34
ATOM     34  C   UNL     1      -7.042  14.378   4.221  1.00  0.00     0.031 A 
ATOM     35  C   UNL     1      -8.476  14.785   4.422  1.00  0.00     0.074 A 
ATOM     36  C   UNL     1      -6.297  14.960   3.261  1.00  0.00     0.049 A 
ATOM     37  N   UNL     1      -9.187  15.655   3.752  1.00  0.00    -0.248 NA
ATOM     38  C   UNL     1      -9.215  14.112   5.504  1.00  0.00     0.031 C 
ATOM     39  C   UNL     1      -4.900  14.639   2.960  1.00  0.00     0.029 A 
ATOM     40  N   UNL     1      -6.613  15.942   2.356  1.00  0.00    -0.354 N 
ATOM     41  C   UNL     1     -10.453  15.630   4.325  1.00  0.00     0.074 A 
ATOM     42  C   UNL     1     -10.430  14.620   5.360  1.00  0.00     0.031 C 
ATOM     43  C   UNL     1      -4.471  15.432   1.965  1.00  0.00     0.029 A 
ATOM     44  C   UNL     1      -5.574  16.278   1.521  1.00  0.00     0.049 A 
ATOM     45  H   UNL     1      -7.501  16.365   2.308  1.00  0.00     0.167 HD
ATOM     46  C   UNL     1     -11.531  16.394   4.029  1.00  0.00     0.031 A 
ATOM     47  C   UNL     1      -5.515  17.163   0.507  1.00  0.00     0.031 A 
ATOM     48  C   UNL     1     -11.548  17.395   2.995  1.00  0.00     0.049 A 
ATOM     49  C   UNL     1      -6.739  17.968   0.169  1.00  0.00     0.074 A 
ATOM     50  C   UNL     1     -12.585  18.236   2.631  1.00  0.00     0.029 A 
ATOM     51  N   UNL     1     -10.479  17.695   2.164  1.00  0.00    -0.354 N 
ATOM     52  N   UNL     1      -7.923  17.943   0.734  1.00  0.00    -0.248 NA
ATOM     53  C   UNL     1      -6.615  18.930  -0.934  1.00  0.00     0.031 C 
ATOM     54  C   UNL     1     -12.160  19.006   1.543  1.00  0.00     0.029 A 
ATOM     55  C   UNL     1     -10.836  18.697   1.277  1.00  0.00     0.049 A 
ATOM     56  H   UNL     1      -9.597  17.259   2.199  1.00  0.00     0.167 HD
ATOM     57  C   UNL     1      -8.675  18.913   0.079  1.00  0.00     0.074 A 
ATOM     58  C   UNL     1      -7.808  19.510  -0.917  1.00  0.00     0.031 C 
ATOM     59  C   UNL     1      -9.963  19.280   0.289  1.00  0.00     0.031 A 
BRANCH  46  60
ATOM     60  C   UNL     1     -12.785  16.177   4.836  1.00  0.00    -0.014 A 
ATOM     61  C   UNL     1     -12.848  16.552   6.191  1.00  0.00     0.010 A 
ATOM     62  C   UNL     1     -13.935  15.651   4.219  1.00  0.00     0.010 A 
ATOM     63  C   UNL     1     -14.026  16.377   6.921  1.00  0.00     0.020 A 
ATOM     64  C   UNL     1     -15.125  15.502   4.938  1.00  0.00     0.020 A 
ATOM     65  C   UNL     1     -15.159  15.856   6.288  1.00  0.00     0.054 A 
BRANCH  65  66
ATOM     66  S   UNL     1     -16.685  15.681   7.253  1.00  0.00     0.124 S 
ATOM     67  O   UNL     1     -16.332  14.612   8.184  1.00  0.00    -0.237 OA
ATOM     68  O   UNL     1     -16.838  17.006   7.848  1.00  0.00    -0.237 OA
ATOM     69  O   UNL     1     -17.690  15.329   6.254  1.00  0.00    -0.744 OA
ENDBRANCH  65  66
ENDBRANCH  46  60
BRANCH  47  70
ATOM     70  C   UNL     1      -4.240  17.351  -0.239  1.00  0.00    -0.014 A 
ATOM     71  C   UNL     1      -3.501  18.538  -0.094  1.00  0.00     0.010 A 
ATOM     72  C   UNL     1      -3.741  16.333  -1.073  1.00  0.00     0.010 A 
ATOM     73  C   UNL     1      -2.292  18.709  -0.776  1.00  0.00     0.020 A 
ATOM     74  C   UNL     1      -2.518  16.488  -1.733  1.00  0.00     0.020 A 
ATOM     75  C   UNL     1      -1.805  17.679  -1.585  1.00  0.00     0.054 A 
BRANCH  75  76
ATOM     76  S   UNL     1      -0.203  17.902  -2.407  1.00  0.00     0.124 S 
ATOM     77  O   UNL     1      -0.509  18.927  -3.400  1.00  0.00    -0.237 OA
ATOM     78  O   UNL     1       0.658  18.323  -1.305  1.00  0.00    -0.237 OA
ATOM     79  O   UNL     1       0.092  16.576  -2.947  1.00  0.00    -0.744 OA
ENDBRANCH  75  76
ENDBRANCH  47  70
BRANCH  59  80
ATOM     80  C   UNL     1     -10.505  20.416  -0.538  1.00  0.00    -0.014 A 
ATOM     81  C   UNL     1     -10.764  20.269  -1.912  1.00  0.00     0.010 A 
ATOM     82  C   UNL     1     -10.806  21.641   0.088  1.00  0.00     0.010 A 
ATOM     83  C   UNL     1     -11.274  21.339  -2.652  1.00  0.00     0.020 A 
ATOM     84  C   UNL     1     -11.347  22.702  -0.642  1.00  0.00     0.020 A 
ATOM     85  C   UNL     1     -11.561  22.549  -2.012  1.00  0.00     0.054 A 
BRANCH  85  86
ATOM     86  S   UNL     1     -12.244  23.913  -2.993  1.00  0.00     0.124 S 
ATOM     87  O   UNL     1     -11.099  24.301  -3.812  1.00  0.00    -0.237 OA
ATOM     88  O   UNL     1     -13.342  23.270  -3.711  1.00  0.00    -0.237 OA
ATOM     89  O   UNL     1     -12.652  24.893  -1.990  1.00  0.00    -0.744 OA
ENDBRANCH  85  86
ENDBRANCH  59  80
ENDBRANCH  33  34
ENDBRANCH  25  28
ENDBRANCH   1  24
TORSDOF 14
