REMARK SMILES COc1cc2c(cc1OC)[C@H](C(=O)NCCCNC(=O)c1ccc(-c3c4nc(c(-c5ccc(S(=O)(=O)[O-])cc5)c5ccc([nH]5)c(-c5ccc(S(=O)(=O)[O-])cc5)c5nc(c(-c6ccc(S(=O)(=O)[O-])cc6)c6ccc3[nH]6)C=C5)C=C4)cc1)[C@H](c1cccc(Cl)c1)N(C)C2=O
REMARK SMILES IDX 17 1 16 2 15 3 14 4 12 5 13 6 11 8 3 9 4 10 8 11 5 12 7 13
REMARK SMILES IDX 6 14 91 15 89 16 92 17 81 18 90 19 2 20 1 21 9 22 10 23
REMARK SMILES IDX 82 24 83 25 88 26 84 27 86 28 85 29 87 30 18 31 19 32 20 34
REMARK SMILES IDX 21 35 22 36 80 37 23 38 79 39 24 40 25 41 26 42 73 43 27 44
REMARK SMILES IDX 78 45 72 46 74 47 28 48 77 49 71 50 70 51 29 53 59 54 40 55
REMARK SMILES IDX 58 56 41 57 44 58 57 59 75 60 42 61 43 62 56 64 76 65 45 66
REMARK SMILES IDX 30 67 31 68 39 69 32 70 38 71 33 72 34 73 35 74 36 75 37 76
REMARK SMILES IDX 60 77 61 78 69 79 62 80 68 81 63 82 64 83 65 84 66 85 67 86
REMARK SMILES IDX 46 87 47 88 55 89 48 90 54 91 49 92 50 93 51 94 52 95 53 96
REMARK H PARENT 14 7 18 33 74 52 44 63
REMARK Flexibility Score: inf
ROOT
ATOM      1  C   UNL     1      -2.869  -7.463  -1.280  1.00  0.00     0.118 C 
ENDROOT
BRANCH   1   2
ATOM      2  C   UNL     1      -1.605  -6.846  -1.860  1.00  0.00     0.042 C 
BRANCH   2   3
ATOM      3  C   UNL     1      -0.678  -6.254  -0.815  1.00  0.00     0.117 C 
BRANCH   3   4
ATOM      4  N   UNL     1      -0.179  -7.251   0.122  1.00  0.00    -0.355 N 
ATOM      5  C   UNL     1       1.044  -7.333   0.728  1.00  0.00     0.230 C 
ATOM      6  O   UNL     1       1.261  -8.341   1.397  1.00  0.00    -0.274 OA
ATOM      7  H   UNL     1      -0.813  -7.968   0.352  1.00  0.00     0.163 HD
BRANCH   5   8
ATOM      8  C   UNL     1       2.096  -6.279   0.433  1.00  0.00     0.136 C 
ATOM      9  C   UNL     1       1.265  -2.058   0.862  1.00  0.00     0.161 A 
ATOM     10  C   UNL     1       2.471  -2.519   0.317  1.00  0.00     0.064 A 
ATOM     11  C   UNL     1       0.353  -2.978   1.401  1.00  0.00     0.161 A 
ATOM     12  C   UNL     1       2.728  -3.892   0.244  1.00  0.00     0.048 A 
ATOM     13  C   UNL     1       0.634  -4.349   1.347  1.00  0.00     0.056 A 
ATOM     14  C   UNL     1       1.773  -4.819   0.691  1.00  0.00    -0.016 A 
ATOM     15  C   UNL     1       4.069  -4.383  -0.217  1.00  0.00     0.254 C 
ATOM     16  N   UNL     1       4.421  -5.689   0.157  1.00  0.00    -0.333 N 
ATOM     17  O   UNL     1       4.806  -3.633  -0.847  1.00  0.00    -0.269 OA
ATOM     18  C   UNL     1       3.517  -6.523   1.001  1.00  0.00     0.132 C 
ATOM     19  C   UNL     1       5.728  -6.206  -0.198  1.00  0.00     0.147 C 
BRANCH   9  20
ATOM     20  O   UNL     1       1.004  -0.718   0.984  1.00  0.00    -0.493 OA
ATOM     21  C   UNL     1       1.319   0.044  -0.180  1.00  0.00     0.278 C 
ENDBRANCH   9  20
BRANCH  11  22
ATOM     22  O   UNL     1      -0.833  -2.691   2.024  1.00  0.00    -0.493 OA
ATOM     23  C   UNL     1      -1.578  -1.609   1.476  1.00  0.00     0.278 C 
ENDBRANCH  11  22
BRANCH  18  24
ATOM     24  C   UNL     1       3.675  -6.239   2.507  1.00  0.00    -0.023 A 
ATOM     25  C   UNL     1       3.067  -7.080   3.455  1.00  0.00     0.006 A 
ATOM     26  C   UNL     1       4.375  -5.122   3.001  1.00  0.00     0.026 A 
ATOM     27  C   UNL     1       3.072  -6.776   4.819  1.00  0.00     0.002 A 
ATOM     28  C   UNL     1       4.391  -4.826   4.367  1.00  0.00     0.041 A 
ATOM     29  C   UNL     1       3.725  -5.638   5.276  1.00  0.00     0.020 A 
ATOM     30  Cl  UNL     1       5.233  -3.433   4.927  1.00  0.00    -0.084 Cl
ENDBRANCH  18  24
ENDBRANCH   5   8
ENDBRANCH   3   4
ENDBRANCH   2   3
ENDBRANCH   1   2
BRANCH   1  31
ATOM     31  N   UNL     1      -3.719  -6.502  -0.586  1.00  0.00    -0.352 N 
ATOM     32  C   UNL     1      -5.017  -6.134  -0.855  1.00  0.00     0.251 C 
ATOM     33  H   UNL     1      -3.305  -6.053   0.186  1.00  0.00     0.163 HD
ATOM     34  O   UNL     1      -5.533  -5.200  -0.250  1.00  0.00    -0.269 OA
BRANCH  32  35
ATOM     35  C   UNL     1      -5.766  -6.849  -1.909  1.00  0.00     0.039 A 
ATOM     36  C   UNL     1      -6.445  -6.113  -2.881  1.00  0.00     0.014 A 
ATOM     37  C   UNL     1      -5.737  -8.243  -1.970  1.00  0.00     0.014 A 
ATOM     38  C   UNL     1      -7.013  -6.777  -3.971  1.00  0.00     0.010 A 
ATOM     39  C   UNL     1      -6.210  -8.889  -3.104  1.00  0.00     0.010 A 
ATOM     40  C   UNL     1      -6.853  -8.165  -4.118  1.00  0.00    -0.014 A 
BRANCH  40  41
ATOM     41  C   UNL     1      -7.347  -8.886  -5.319  1.00  0.00     0.031 A 
ATOM     42  C   UNL     1      -8.359  -9.990  -5.164  1.00  0.00     0.074 A 
ATOM     43  C   UNL     1      -6.820  -8.613  -6.531  1.00  0.00     0.049 A 
ATOM     44  N   UNL     1      -8.825 -10.813  -6.067  1.00  0.00    -0.248 NA
ATOM     45  C   UNL     1      -8.887 -10.227  -3.809  1.00  0.00     0.031 C 
ATOM     46  C   UNL     1      -5.787  -7.610  -6.807  1.00  0.00     0.029 A 
ATOM     47  N   UNL     1      -7.074  -9.168  -7.761  1.00  0.00    -0.354 N 
ATOM     48  C   UNL     1      -9.667 -11.684  -5.385  1.00  0.00     0.074 A 
ATOM     49  C   UNL     1      -9.615 -11.320  -3.988  1.00  0.00     0.031 C 
ATOM     50  C   UNL     1      -5.517  -7.603  -8.123  1.00  0.00     0.029 A 
ATOM     51  C   UNL     1      -6.325  -8.625  -8.780  1.00  0.00     0.049 A 
ATOM     52  H   UNL     1      -7.731  -9.887  -7.902  1.00  0.00     0.167 HD
ATOM     53  C   UNL     1     -10.434 -12.684  -5.881  1.00  0.00     0.031 A 
ATOM     54  C   UNL     1      -6.288  -8.921 -10.094  1.00  0.00     0.031 A 
ATOM     55  C   UNL     1     -10.527 -13.008  -7.277  1.00  0.00     0.049 A 
ATOM     56  C   UNL     1      -7.186 -10.005 -10.624  1.00  0.00     0.074 A 
ATOM     57  C   UNL     1     -11.340 -13.946  -7.888  1.00  0.00     0.029 A 
ATOM     58  N   UNL     1      -9.793 -12.397  -8.281  1.00  0.00    -0.354 N 
ATOM     59  N   UNL     1      -8.028 -10.769  -9.971  1.00  0.00    -0.248 NA
ATOM     60  C   UNL     1      -7.138 -10.259 -12.071  1.00  0.00     0.031 C 
ATOM     61  C   UNL     1     -11.073 -13.926  -9.261  1.00  0.00     0.029 A 
ATOM     62  C   UNL     1     -10.126 -12.945  -9.507  1.00  0.00     0.049 A 
ATOM     63  H   UNL     1      -9.133 -11.679  -8.143  1.00  0.00     0.167 HD
ATOM     64  C   UNL     1      -8.630 -11.574 -10.931  1.00  0.00     0.074 A 
ATOM     65  C   UNL     1      -8.067 -11.195 -12.210  1.00  0.00     0.031 C 
ATOM     66  C   UNL     1      -9.564 -12.542 -10.770  1.00  0.00     0.031 A 
BRANCH  53  67
ATOM     67  C   UNL     1     -11.249 -13.491  -4.907  1.00  0.00    -0.014 A 
ATOM     68  C   UNL     1     -12.381 -12.941  -4.281  1.00  0.00     0.010 A 
ATOM     69  C   UNL     1     -10.914 -14.835  -4.663  1.00  0.00     0.010 A 
ATOM     70  C   UNL     1     -13.149 -13.713  -3.406  1.00  0.00     0.020 A 
ATOM     71  C   UNL     1     -11.695 -15.618  -3.809  1.00  0.00     0.020 A 
ATOM     72  C   UNL     1     -12.802 -15.047  -3.176  1.00  0.00     0.054 A 
BRANCH  72  73
ATOM     73  S   UNL     1     -13.847 -16.041  -2.076  1.00  0.00     0.124 S 
ATOM     74  O   UNL     1     -13.474 -15.524  -0.761  1.00  0.00    -0.237 OA
ATOM     75  O   UNL     1     -15.196 -15.703  -2.523  1.00  0.00    -0.237 OA
ATOM     76  O   UNL     1     -13.429 -17.414  -2.347  1.00  0.00    -0.744 OA
ENDBRANCH  72  73
ENDBRANCH  53  67
BRANCH  54  77
ATOM     77  C   UNL     1      -5.380  -8.176 -11.008  1.00  0.00    -0.014 A 
ATOM     78  C   UNL     1      -5.903  -7.271 -11.949  1.00  0.00     0.010 A 
ATOM     79  C   UNL     1      -3.990  -8.383 -10.959  1.00  0.00     0.010 A 
ATOM     80  C   UNL     1      -5.057  -6.613 -12.847  1.00  0.00     0.020 A 
ATOM     81  C   UNL     1      -3.138  -7.707 -11.837  1.00  0.00     0.020 A 
ATOM     82  C   UNL     1      -3.679  -6.840 -12.789  1.00  0.00     0.054 A 
BRANCH  82  83
ATOM     83  S   UNL     1      -2.594  -5.962 -13.948  1.00  0.00     0.124 S 
ATOM     84  O   UNL     1      -2.790  -6.720 -15.179  1.00  0.00    -0.237 OA
ATOM     85  O   UNL     1      -3.147  -4.610 -13.941  1.00  0.00    -0.237 OA
ATOM     86  O   UNL     1      -1.273  -6.088 -13.336  1.00  0.00    -0.744 OA
ENDBRANCH  82  83
ENDBRANCH  54  77
BRANCH  66  87
ATOM     87  C   UNL     1     -10.069 -13.230 -12.007  1.00  0.00    -0.014 A 
ATOM     88  C   UNL     1      -9.280 -14.176 -12.685  1.00  0.00     0.010 A 
ATOM     89  C   UNL     1     -11.375 -12.970 -12.459  1.00  0.00     0.010 A 
ATOM     90  C   UNL     1      -9.781 -14.829 -13.814  1.00  0.00     0.020 A 
ATOM     91  C   UNL     1     -11.888 -13.639 -13.572  1.00  0.00     0.020 A 
ATOM     92  C   UNL     1     -11.081 -14.556 -14.251  1.00  0.00     0.054 A 
BRANCH  92  93
ATOM     93  S   UNL     1     -11.727 -15.451 -15.689  1.00  0.00     0.124 S 
ATOM     94  O   UNL     1     -11.060 -14.771 -16.795  1.00  0.00    -0.237 OA
ATOM     95  O   UNL     1     -11.289 -16.823 -15.438  1.00  0.00    -0.237 OA
ATOM     96  O   UNL     1     -13.171 -15.241 -15.607  1.00  0.00    -0.744 OA
ENDBRANCH  92  93
ENDBRANCH  66  87
ENDBRANCH  40  41
ENDBRANCH  32  35
ENDBRANCH   1  31
TORSDOF 16
