REMARK SMILES CCc1ccc(C(=O)NCCCNC(=O)c2ccc(-c3c4nc(c(-c5ccc(S(=O)(=O)[O-])cc5)c5ccc([nH]5)c(-c5ccc(S(=O)(=O)[O-])cc5)c5nc(c(-c6ccc(S(=O)(=O)[O-])cc6)c6ccc3[nH]6)C=C5)C=C4)cc2)cc1S(=O)(=O)Nc1ccc(F)c(F)c1F
REMARK SMILES IDX 11 1 10 2 9 3 7 4 8 5 6 7 3 8 4 9 77 10 5 11 76 12 2 13 1 14
REMARK SMILES IDX 78 15 79 16 80 17 81 18 82 20 83 21 89 22 84 23 87 24 90 25
REMARK SMILES IDX 85 26 88 27 86 28 12 29 13 30 14 31 15 33 16 34 17 35 75 36
REMARK SMILES IDX 18 37 74 38 19 39 20 40 21 41 68 42 22 43 73 44 67 45 69 46
REMARK SMILES IDX 23 47 72 48 66 49 65 50 24 52 54 53 35 54 53 55 36 56 39 57
REMARK SMILES IDX 52 58 70 59 37 60 38 61 51 63 71 64 40 65 25 66 26 67 34 68
REMARK SMILES IDX 27 69 33 70 28 71 29 72 30 73 31 74 32 75 55 76 56 77 64 78
REMARK SMILES IDX 57 79 63 80 58 81 59 82 60 83 61 84 62 85 41 86 42 87 50 88
REMARK SMILES IDX 43 89 49 90 44 91 45 92 46 93 47 94 48 95
REMARK H PARENT 9 6 81 19 13 32 69 51 39 62
REMARK Flexibility Score: inf
ROOT
ATOM      1  C   UNL     1       0.804   7.856  -2.761  1.00  0.00     0.042 C 
ENDROOT
BRANCH   1   2
ATOM      2  C   UNL     1       0.461   6.670  -3.660  1.00  0.00     0.118 C 
BRANCH   2   3
ATOM      3  N   UNL     1       1.668   6.149  -4.283  1.00  0.00    -0.352 N 
ATOM      4  C   UNL     1       2.441   5.052  -4.006  1.00  0.00     0.251 C 
ATOM      5  O   UNL     1       3.459   4.862  -4.667  1.00  0.00    -0.269 OA
ATOM      6  H   UNL     1       1.990   6.685  -5.044  1.00  0.00     0.163 HD
BRANCH   4   7
ATOM      7  C   UNL     1       1.990   4.016  -3.050  1.00  0.00     0.041 A 
ATOM      8  C   UNL     1       0.675   1.950  -1.627  1.00  0.00    -0.028 A 
ATOM      9  C   UNL     1       1.446   1.690  -2.784  1.00  0.00     0.006 A 
ATOM     10  C   UNL     1       0.725   3.260  -1.098  1.00  0.00     0.091 A 
ATOM     11  C   UNL     1       2.091   2.702  -3.485  1.00  0.00     0.014 A 
ATOM     12  C   UNL     1       1.405   4.277  -1.814  1.00  0.00     0.036 A 
BRANCH   8  13
ATOM     13  C   UNL     1      -0.273   0.846  -1.220  1.00  0.00     0.033 C 
ATOM     14  C   UNL     1       0.302  -0.571  -1.260  1.00  0.00     0.009 C 
ENDBRANCH   8  13
BRANCH  10  15
ATOM     15  S   UNL     1      -0.078   3.908   0.372  1.00  0.00     0.262 S 
ATOM     16  O   UNL     1       0.901   4.654   1.124  1.00  0.00    -0.201 OA
ATOM     17  O   UNL     1      -1.272   4.571  -0.126  1.00  0.00    -0.201 OA
BRANCH  15  18
ATOM     18  N   UNL     1      -0.668   2.697   1.340  1.00  0.00    -0.277 N 
ATOM     19  H   UNL     1      -1.640   2.704   1.499  1.00  0.00     0.180 HD
BRANCH  18  20
ATOM     20  C   UNL     1       0.062   1.648   1.968  1.00  0.00     0.088 A 
ATOM     21  C   UNL     1      -0.732   0.602   2.473  1.00  0.00     0.033 A 
ATOM     22  C   UNL     1       1.451   1.486   1.931  1.00  0.00     0.185 A 
ATOM     23  C   UNL     1      -0.156  -0.614   2.840  1.00  0.00     0.045 A 
ATOM     24  C   UNL     1       2.024   0.280   2.322  1.00  0.00     0.196 A 
ATOM     25  F   UNL     1       2.251   2.440   1.440  1.00  0.00    -0.201 F 
ATOM     26  C   UNL     1       1.221  -0.770   2.746  1.00  0.00     0.162 A 
ATOM     27  F   UNL     1       3.350   0.106   2.224  1.00  0.00    -0.200 F 
ATOM     28  F   UNL     1       1.762  -1.962   3.032  1.00  0.00    -0.204 F 
ENDBRANCH  18  20
ENDBRANCH  15  18
ENDBRANCH  10  15
ENDBRANCH   4   7
ENDBRANCH   2   3
ENDBRANCH   1   2
BRANCH   1  29
ATOM     29  C   UNL     1       1.271   9.077  -3.548  1.00  0.00     0.118 C 
BRANCH  29  30
ATOM     30  N   UNL     1       0.184   9.692  -4.295  1.00  0.00    -0.352 N 
ATOM     31  C   UNL     1      -0.184  11.013  -4.353  1.00  0.00     0.251 C 
ATOM     32  H   UNL     1      -0.364   9.075  -4.832  1.00  0.00     0.163 HD
ATOM     33  O   UNL     1      -1.255  11.322  -4.867  1.00  0.00    -0.269 OA
BRANCH  31  34
ATOM     34  C   UNL     1       0.702  12.055  -3.791  1.00  0.00     0.039 A 
ATOM     35  C   UNL     1       0.132  13.095  -3.052  1.00  0.00     0.014 A 
ATOM     36  C   UNL     1       2.080  12.033  -4.026  1.00  0.00     0.014 A 
ATOM     37  C   UNL     1       0.948  14.099  -2.525  1.00  0.00     0.010 A 
ATOM     38  C   UNL     1       2.899  12.999  -3.446  1.00  0.00     0.010 A 
ATOM     39  C   UNL     1       2.339  14.052  -2.708  1.00  0.00    -0.014 A 
BRANCH  39  40
ATOM     40  C   UNL     1       3.221  15.120  -2.174  1.00  0.00     0.031 A 
ATOM     41  C   UNL     1       3.974  16.012  -3.126  1.00  0.00     0.074 A 
ATOM     42  C   UNL     1       3.383  15.255  -0.843  1.00  0.00     0.049 A 
ATOM     43  N   UNL     1       4.844  16.953  -2.862  1.00  0.00    -0.248 NA
ATOM     44  C   UNL     1       3.739  15.801  -4.565  1.00  0.00     0.031 C 
ATOM     45  C   UNL     1       2.736  14.428   0.179  1.00  0.00     0.029 A 
ATOM     46  N   UNL     1       4.152  16.133  -0.121  1.00  0.00    -0.354 N 
ATOM     47  C   UNL     1       5.277  17.425  -4.096  1.00  0.00     0.074 A 
ATOM     48  C   UNL     1       4.605  16.643  -5.109  1.00  0.00     0.031 C 
ATOM     49  C   UNL     1       3.121  14.851   1.395  1.00  0.00     0.029 A 
ATOM     50  C   UNL     1       4.066  15.953   1.240  1.00  0.00     0.049 A 
ATOM     51  H   UNL     1       4.712  16.826  -0.538  1.00  0.00     0.167 HD
ATOM     52  C   UNL     1       6.144  18.431  -4.362  1.00  0.00     0.031 A 
ATOM     53  C   UNL     1       4.683  16.599   2.248  1.00  0.00     0.031 A 
ATOM     54  C   UNL     1       6.785  19.228  -3.350  1.00  0.00     0.049 A 
ATOM     55  C   UNL     1       5.623  17.730   1.925  1.00  0.00     0.074 A 
ATOM     56  C   UNL     1       7.634  20.308  -3.517  1.00  0.00     0.029 A 
ATOM     57  N   UNL     1       6.640  19.038  -1.985  1.00  0.00    -0.354 N 
ATOM     58  N   UNL     1       5.976  18.198   0.751  1.00  0.00    -0.248 NA
ATOM     59  C   UNL     1       6.233  18.431   3.063  1.00  0.00     0.031 C 
ATOM     60  C   UNL     1       8.032  20.749  -2.251  1.00  0.00     0.029 A 
ATOM     61  C   UNL     1       7.391  19.975  -1.297  1.00  0.00     0.049 A 
ATOM     62  H   UNL     1       6.085  18.340  -1.567  1.00  0.00     0.167 HD
ATOM     63  C   UNL     1       6.822  19.270   1.012  1.00  0.00     0.074 A 
ATOM     64  C   UNL     1       6.919  19.387   2.452  1.00  0.00     0.031 C 
ATOM     65  C   UNL     1       7.461  20.086   0.137  1.00  0.00     0.031 A 
BRANCH  52  66
ATOM     66  C   UNL     1       6.448  18.733  -5.805  1.00  0.00    -0.014 A 
ATOM     67  C   UNL     1       5.491  19.342  -6.636  1.00  0.00     0.010 A 
ATOM     68  C   UNL     1       7.727  18.458  -6.322  1.00  0.00     0.010 A 
ATOM     69  C   UNL     1       5.797  19.643  -7.966  1.00  0.00     0.020 A 
ATOM     70  C   UNL     1       8.046  18.782  -7.644  1.00  0.00     0.020 A 
ATOM     71  C   UNL     1       7.074  19.361  -8.462  1.00  0.00     0.054 A 
BRANCH  71  72
ATOM     72  S   UNL     1       7.457  19.803 -10.179  1.00  0.00     0.124 S 
ATOM     73  O   UNL     1       6.728  18.780 -10.924  1.00  0.00    -0.237 OA
ATOM     74  O   UNL     1       6.925  21.159 -10.288  1.00  0.00    -0.237 OA
ATOM     75  O   UNL     1       8.913  19.703 -10.246  1.00  0.00    -0.744 OA
ENDBRANCH  71  72
ENDBRANCH  52  66
BRANCH  53  76
ATOM     76  C   UNL     1       4.423  16.207   3.660  1.00  0.00    -0.014 A 
ATOM     77  C   UNL     1       3.691  17.054   4.512  1.00  0.00     0.010 A 
ATOM     78  C   UNL     1       4.915  14.990   4.164  1.00  0.00     0.010 A 
ATOM     79  C   UNL     1       3.486  16.707   5.850  1.00  0.00     0.020 A 
ATOM     80  C   UNL     1       4.688  14.627   5.495  1.00  0.00     0.020 A 
ATOM     81  C   UNL     1       3.989  15.497   6.335  1.00  0.00     0.054 A 
BRANCH  81  82
ATOM     82  S   UNL     1       3.690  15.054   8.069  1.00  0.00     0.124 S 
ATOM     83  O   UNL     1       4.646  15.907   8.768  1.00  0.00    -0.237 OA
ATOM     84  O   UNL     1       2.283  15.400   8.248  1.00  0.00    -0.237 OA
ATOM     85  O   UNL     1       3.981  13.622   8.110  1.00  0.00    -0.744 OA
ENDBRANCH  81  82
ENDBRANCH  53  76
BRANCH  65  86
ATOM     86  C   UNL     1       8.277  21.212   0.710  1.00  0.00    -0.014 A 
ATOM     87  C   UNL     1       9.514  20.977   1.332  1.00  0.00     0.010 A 
ATOM     88  C   UNL     1       7.817  22.535   0.572  1.00  0.00     0.010 A 
ATOM     89  C   UNL     1      10.264  22.043   1.836  1.00  0.00     0.020 A 
ATOM     90  C   UNL     1       8.576  23.605   1.050  1.00  0.00     0.020 A 
ATOM     91  C   UNL     1       9.789  23.351   1.693  1.00  0.00     0.054 A 
BRANCH  91  92
ATOM     92  S   UNL     1      10.798  24.722   2.317  1.00  0.00     0.124 S 
ATOM     93  O   UNL     1      10.573  24.634   3.757  1.00  0.00    -0.237 OA
ATOM     94  O   UNL     1      12.142  24.364   1.868  1.00  0.00    -0.237 OA
ATOM     95  O   UNL     1      10.224  25.898   1.667  1.00  0.00    -0.744 OA
ENDBRANCH  91  92
ENDBRANCH  65  86
ENDBRANCH  39  40
ENDBRANCH  31  34
ENDBRANCH  29  30
ENDBRANCH   1  29
TORSDOF 17
