REMARK SMILES Cc1cc([N+](=O)[O-])ccc1NC(=O)[C@@H]1[C@@H](C(=O)NCCCNC(=O)c2ccc(-c3c4nc(c(-c5ccc(S(=O)(=O)[O-])cc5)c5ccc([nH]5)c(-c5ccc(S(=O)(=O)[O-])cc5)c5nc(c(-c6ccc(S(=O)(=O)[O-])cc6)c6ccc3[nH]6)C=C5)C=C4)cc2)[C@H]2C=C[C@@H]1C2
REMARK SMILES IDX 20 1 19 2 18 3 16 4 17 5 15 7 14 8 88 9 85 10 87 11 89 12
REMARK SMILES IDX 86 13 12 14 11 15 13 17 10 18 1 19 2 20 3 21 4 22 9 23 8 24
REMARK SMILES IDX 5 25 6 26 7 27 21 28 22 29 23 30 24 32 25 33 26 34 84 35
REMARK SMILES IDX 27 36 83 37 28 38 29 39 30 40 77 41 31 42 82 43 76 44 78 45
REMARK SMILES IDX 32 46 81 47 75 48 74 49 33 51 63 52 44 53 62 54 45 55 48 56
REMARK SMILES IDX 61 57 79 58 46 59 47 60 60 62 80 63 49 64 34 65 35 66 43 67
REMARK SMILES IDX 36 68 42 69 37 70 38 71 39 72 40 73 41 74 64 75 65 76 73 77
REMARK SMILES IDX 66 78 72 79 67 80 68 81 69 82 70 83 71 84 50 85 51 86 59 87
REMARK SMILES IDX 52 88 58 89 53 90 54 91 55 92 56 93 57 94
REMARK H PARENT 18 6 11 16 22 31 78 50 48 61
REMARK Flexibility Score: inf
ROOT
ATOM      1  C   UNL     1      -3.466   8.529   0.881  1.00  0.00     0.042 C 
ENDROOT
BRANCH   1   2
ATOM      2  C   UNL     1      -4.241   7.248   0.608  1.00  0.00     0.117 C 
BRANCH   2   3
ATOM      3  N   UNL     1      -3.692   6.516  -0.525  1.00  0.00    -0.356 N 
ATOM      4  C   UNL     1      -2.713   5.585  -0.640  1.00  0.00     0.224 C 
ATOM      5  O   UNL     1      -2.474   5.179  -1.784  1.00  0.00    -0.275 OA
ATOM      6  H   UNL     1      -4.120   6.743  -1.382  1.00  0.00     0.163 HD
BRANCH   4   7
ATOM      7  C   UNL     1      -1.848   5.109   0.529  1.00  0.00     0.098 C 
ATOM      8  C   UNL     1      -1.354   3.627   0.235  1.00  0.00     0.099 C 
ATOM      9  C   UNL     1      -1.717   2.884   1.546  1.00  0.00     0.025 C 
ATOM     10  C   UNL     1      -2.496   4.940   1.923  1.00  0.00     0.025 C 
ATOM     11  C   UNL     1      -3.222   2.778   1.597  1.00  0.00    -0.027 C 
ATOM     12  C   UNL     1      -1.516   3.976   2.593  1.00  0.00     0.017 C 
ATOM     13  C   UNL     1      -3.690   4.012   1.828  1.00  0.00    -0.027 C 
BRANCH   8  14
ATOM     14  C   UNL     1       0.123   3.478  -0.091  1.00  0.00     0.228 C 
ATOM     15  N   UNL     1       0.685   2.251  -0.355  1.00  0.00    -0.326 N 
ATOM     16  H   UNL     1       1.651   2.297  -0.540  1.00  0.00     0.169 HD
ATOM     17  O   UNL     1       0.893   4.443  -0.056  1.00  0.00    -0.274 OA
BRANCH  15  18
ATOM     18  C   UNL     1       0.165   0.940  -0.417  1.00  0.00     0.044 A 
ATOM     19  C   UNL     1       2.492  -0.046   0.126  1.00  0.00     0.047 C 
ATOM     20  C   UNL     1       1.007  -0.154  -0.109  1.00  0.00    -0.021 A 
ATOM     21  C   UNL     1       0.453  -1.452  -0.017  1.00  0.00     0.091 A 
ATOM     22  C   UNL     1      -0.911  -1.663  -0.241  1.00  0.00     0.269 A 
ATOM     23  C   UNL     1      -1.171   0.674  -0.750  1.00  0.00     0.033 A 
ATOM     24  C   UNL     1      -1.721  -0.606  -0.639  1.00  0.00     0.088 A 
BRANCH  22  25
ATOM     25  N   UNL     1      -1.490  -2.997  -0.056  1.00  0.00     0.062 N 
ATOM     26  O   UNL     1      -0.710  -3.945   0.116  1.00  0.00    -0.258 OA
ATOM     27  O   UNL     1      -2.725  -3.097  -0.067  1.00  0.00    -0.258 OA
ENDBRANCH  22  25
ENDBRANCH  15  18
ENDBRANCH   8  14
ENDBRANCH   4   7
ENDBRANCH   2   3
ENDBRANCH   1   2
BRANCH   1  28
ATOM     28  C   UNL     1      -4.139   9.724   0.221  1.00  0.00     0.118 C 
BRANCH  28  29
ATOM     29  N   UNL     1      -4.959  10.514   1.135  1.00  0.00    -0.352 N 
ATOM     30  C   UNL     1      -5.638  11.687   0.853  1.00  0.00     0.251 C 
ATOM     31  H   UNL     1      -5.037  10.175   2.056  1.00  0.00     0.163 HD
ATOM     32  O   UNL     1      -6.125  12.398   1.715  1.00  0.00    -0.269 OA
BRANCH  30  33
ATOM     33  C   UNL     1      -5.853  11.983  -0.577  1.00  0.00     0.039 A 
ATOM     34  C   UNL     1      -7.143  11.776  -1.080  1.00  0.00     0.014 A 
ATOM     35  C   UNL     1      -4.752  12.107  -1.420  1.00  0.00     0.014 A 
ATOM     36  C   UNL     1      -7.306  11.518  -2.437  1.00  0.00     0.010 A 
ATOM     37  C   UNL     1      -4.904  11.744  -2.743  1.00  0.00     0.010 A 
ATOM     38  C   UNL     1      -6.172  11.410  -3.242  1.00  0.00    -0.014 A 
BRANCH  38  39
ATOM     39  C   UNL     1      -6.206  10.895  -4.606  1.00  0.00     0.031 A 
ATOM     40  C   UNL     1      -6.050  11.837  -5.738  1.00  0.00     0.074 A 
ATOM     41  C   UNL     1      -6.324   9.567  -4.838  1.00  0.00     0.049 A 
ATOM     42  N   UNL     1      -6.508  11.633  -6.928  1.00  0.00    -0.248 NA
ATOM     43  C   UNL     1      -5.390  13.133  -5.591  1.00  0.00     0.031 C 
ATOM     44  C   UNL     1      -6.126   8.884  -6.114  1.00  0.00     0.029 A 
ATOM     45  N   UNL     1      -6.861   8.578  -4.009  1.00  0.00    -0.354 N 
ATOM     46  C   UNL     1      -5.961  12.597  -7.747  1.00  0.00     0.074 A 
ATOM     47  C   UNL     1      -5.332  13.545  -6.859  1.00  0.00     0.031 C 
ATOM     48  C   UNL     1      -6.802   7.724  -6.088  1.00  0.00     0.029 A 
ATOM     49  C   UNL     1      -7.563   7.699  -4.849  1.00  0.00     0.049 A 
ATOM     50  H   UNL     1      -6.766   8.511  -3.031  1.00  0.00     0.167 HD
ATOM     51  C   UNL     1      -5.962  12.430  -9.098  1.00  0.00     0.031 A 
ATOM     52  C   UNL     1      -8.905   7.467  -4.756  1.00  0.00     0.031 A 
ATOM     53  C   UNL     1      -6.657  11.211  -9.493  1.00  0.00     0.049 A 
ATOM     54  C   UNL     1      -9.652   7.817  -6.029  1.00  0.00     0.074 A 
ATOM     55  C   UNL     1      -6.216   9.937  -9.807  1.00  0.00     0.029 A 
ATOM     56  N   UNL     1      -8.027  11.117  -9.287  1.00  0.00    -0.354 N 
ATOM     57  N   UNL     1      -9.143   8.527  -7.000  1.00  0.00    -0.248 NA
ATOM     58  C   UNL     1     -11.040   7.443  -6.290  1.00  0.00     0.031 C 
ATOM     59  C   UNL     1      -7.319   9.052  -9.685  1.00  0.00     0.029 A 
ATOM     60  C   UNL     1      -8.431   9.796  -9.334  1.00  0.00     0.049 A 
ATOM     61  H   UNL     1      -8.626  11.882  -9.129  1.00  0.00     0.167 HD
ATOM     62  C   UNL     1     -10.083   8.717  -7.978  1.00  0.00     0.074 A 
ATOM     63  C   UNL     1     -11.253   8.008  -7.493  1.00  0.00     0.031 C 
ATOM     64  C   UNL     1      -9.826   9.450  -9.101  1.00  0.00     0.031 A 
BRANCH  51  65
ATOM     65  C   UNL     1      -5.051  13.224 -10.002  1.00  0.00    -0.014 A 
ATOM     66  C   UNL     1      -4.433  12.590 -11.098  1.00  0.00     0.010 A 
ATOM     67  C   UNL     1      -4.717  14.575  -9.786  1.00  0.00     0.010 A 
ATOM     68  C   UNL     1      -3.455  13.232 -11.871  1.00  0.00     0.020 A 
ATOM     69  C   UNL     1      -3.711  15.217 -10.525  1.00  0.00     0.020 A 
ATOM     70  C   UNL     1      -3.077  14.536 -11.560  1.00  0.00     0.054 A 
BRANCH  70  71
ATOM     71  S   UNL     1      -1.740  15.312 -12.506  1.00  0.00     0.124 S 
ATOM     72  O   UNL     1      -0.665  14.327 -12.406  1.00  0.00    -0.237 OA
ATOM     73  O   UNL     1      -2.338  15.458 -13.830  1.00  0.00    -0.237 OA
ATOM     74  O   UNL     1      -1.492  16.564 -11.793  1.00  0.00    -0.744 OA
ENDBRANCH  70  71
ENDBRANCH  51  65
BRANCH  52  75
ATOM     75  C   UNL     1      -9.458   7.588  -3.378  1.00  0.00    -0.014 A 
ATOM     76  C   UNL     1      -9.084   6.605  -2.437  1.00  0.00     0.010 A 
ATOM     77  C   UNL     1      -9.954   8.818  -2.913  1.00  0.00     0.010 A 
ATOM     78  C   UNL     1      -9.043   6.902  -1.072  1.00  0.00     0.020 A 
ATOM     79  C   UNL     1      -9.917   9.117  -1.542  1.00  0.00     0.020 A 
ATOM     80  C   UNL     1      -9.400   8.180  -0.642  1.00  0.00     0.054 A 
BRANCH  80  81
ATOM     81  S   UNL     1      -8.998   8.650   1.069  1.00  0.00     0.124 S 
ATOM     82  O   UNL     1      -9.763   7.682   1.848  1.00  0.00    -0.237 OA
ATOM     83  O   UNL     1      -7.546   8.472   1.103  1.00  0.00    -0.237 OA
ATOM     84  O   UNL     1      -9.455  10.033   1.153  1.00  0.00    -0.744 OA
ENDBRANCH  80  81
ENDBRANCH  52  75
BRANCH  64  85
ATOM     85  C   UNL     1     -10.841   9.863 -10.137  1.00  0.00    -0.014 A 
ATOM     86  C   UNL     1     -12.204  10.056  -9.867  1.00  0.00     0.010 A 
ATOM     87  C   UNL     1     -10.383  10.216 -11.430  1.00  0.00     0.010 A 
ATOM     88  C   UNL     1     -13.080  10.525 -10.858  1.00  0.00     0.020 A 
ATOM     89  C   UNL     1     -11.239  10.725 -12.410  1.00  0.00     0.020 A 
ATOM     90  C   UNL     1     -12.592  10.853 -12.124  1.00  0.00     0.054 A 
BRANCH  90  91
ATOM     91  S   UNL     1     -13.716  11.520 -13.378  1.00  0.00     0.124 S 
ATOM     92  O   UNL     1     -14.202  10.303 -14.023  1.00  0.00    -0.237 OA
ATOM     93  O   UNL     1     -14.705  12.245 -12.583  1.00  0.00    -0.237 OA
ATOM     94  O   UNL     1     -12.850  12.363 -14.198  1.00  0.00    -0.744 OA
ENDBRANCH  90  91
ENDBRANCH  64  85
ENDBRANCH  38  39
ENDBRANCH  30  33
ENDBRANCH  28  29
ENDBRANCH   1  28
TORSDOF 16
