REMARK SMILES C[C@]12CCC(=O)N1[C@H](C(=O)N1CCC[C@@H]1C(=O)NCCCNC(=O)c1ccc(-c3c4nc(c(-c5ccc(S(=O)(=O)[O-])cc5)c5ccc([nH]5)c(-c5ccc(S(=O)(=O)[O-])cc5)c5nc(c(-c6ccc(S(=O)(=O)[O-])cc6)c6ccc3[nH]6)C=C5)C=C4)cc1)CS2
REMARK SMILES IDX 20 1 19 2 18 3 16 4 17 5 15 7 11 8 12 9 13 10 14 11 9 12
REMARK SMILES IDX 10 13 8 14 1 15 2 16 3 17 7 18 86 19 4 20 5 21 85 22 6 23
REMARK SMILES IDX 21 24 22 25 23 26 24 28 25 29 26 30 84 31 27 32 83 33 28 34
REMARK SMILES IDX 29 35 30 36 77 37 31 38 82 39 76 40 78 41 32 42 81 43 75 44
REMARK SMILES IDX 74 45 33 47 63 48 44 49 62 50 45 51 48 52 61 53 79 54 46 55
REMARK SMILES IDX 47 56 60 58 80 59 49 60 34 61 35 62 43 63 36 64 42 65 37 66
REMARK SMILES IDX 38 67 39 68 40 69 41 70 64 71 65 72 73 73 66 74 72 75 67 76
REMARK SMILES IDX 68 77 69 78 70 79 71 80 50 81 51 82 59 83 52 84 58 85 53 86
REMARK SMILES IDX 54 87 55 88 56 89 57 90
REMARK H PARENT 18 6 22 27 78 46 48 57
REMARK Flexibility Score: inf
ROOT
ATOM      1  C   UNL     1       4.049  -7.622  -2.242  1.00  0.00     0.042 C 
ENDROOT
BRANCH   1   2
ATOM      2  C   UNL     1       3.982  -6.294  -2.980  1.00  0.00     0.117 C 
BRANCH   2   3
ATOM      3  N   UNL     1       2.670  -5.927  -3.491  1.00  0.00    -0.354 N 
ATOM      4  C   UNL     1       2.084  -4.690  -3.601  1.00  0.00     0.242 C 
ATOM      5  O   UNL     1       1.038  -4.619  -4.253  1.00  0.00    -0.273 OA
ATOM      6  H   UNL     1       2.118  -6.679  -3.804  1.00  0.00     0.163 HD
BRANCH   4   7
ATOM      7  C   UNL     1       2.657  -3.465  -2.838  1.00  0.00     0.174 C 
ATOM      8  N   UNL     1       1.983  -2.186  -3.170  1.00  0.00    -0.329 N 
ATOM      9  C   UNL     1       2.917  -1.209  -3.692  1.00  0.00     0.120 C 
ATOM     10  C   UNL     1       4.082  -2.017  -4.191  1.00  0.00     0.024 C 
ATOM     11  C   UNL     1       4.129  -3.179  -3.213  1.00  0.00     0.037 C 
BRANCH   8  12
ATOM     12  C   UNL     1       0.687  -1.773  -2.939  1.00  0.00     0.246 C 
ATOM     13  O   UNL     1       0.295  -0.705  -3.427  1.00  0.00    -0.272 OA
BRANCH  12  14
ATOM     14  C   UNL     1      -0.233  -2.594  -2.016  1.00  0.00     0.186 C 
ATOM     15  C   UNL     1       1.050  -0.257  -0.144  1.00  0.00     0.047 C 
ATOM     16  C   UNL     1      -0.058  -1.289   0.062  1.00  0.00     0.087 C 
ATOM     17  C   UNL     1      -0.168  -1.660   1.538  1.00  0.00     0.049 C 
ATOM     18  N   UNL     1       0.176  -2.549  -0.607  1.00  0.00    -0.315 N 
ATOM     19  S   UNL     1      -1.642  -0.709  -0.664  1.00  0.00    -0.131 SA
ATOM     20  C   UNL     1      -0.657  -3.096   1.537  1.00  0.00     0.103 C 
ATOM     21  C   UNL     1      -0.170  -3.628   0.211  1.00  0.00     0.224 C 
ATOM     22  C   UNL     1      -1.651  -1.986  -2.001  1.00  0.00     0.107 C 
ATOM     23  O   UNL     1      -0.225  -4.797  -0.137  1.00  0.00    -0.275 OA
ENDBRANCH  12  14
ENDBRANCH   8  12
ENDBRANCH   4   7
ENDBRANCH   2   3
ENDBRANCH   1   2
BRANCH   1  24
ATOM     24  C   UNL     1       3.624  -8.853  -3.031  1.00  0.00     0.118 C 
BRANCH  24  25
ATOM     25  N   UNL     1       4.495  -9.172  -4.155  1.00  0.00    -0.352 N 
ATOM     26  C   UNL     1       5.328 -10.245  -4.385  1.00  0.00     0.251 C 
ATOM     27  H   UNL     1       4.487  -8.503  -4.877  1.00  0.00     0.163 HD
ATOM     28  O   UNL     1       6.040 -10.237  -5.387  1.00  0.00    -0.269 OA
BRANCH  26  29
ATOM     29  C   UNL     1       5.416 -11.381  -3.434  1.00  0.00     0.039 A 
ATOM     30  C   UNL     1       6.671 -11.946  -3.176  1.00  0.00     0.014 A 
ATOM     31  C   UNL     1       4.288 -11.912  -2.808  1.00  0.00     0.014 A 
ATOM     32  C   UNL     1       6.802 -12.964  -2.224  1.00  0.00     0.010 A 
ATOM     33  C   UNL     1       4.431 -12.855  -1.791  1.00  0.00     0.010 A 
ATOM     34  C   UNL     1       5.690 -13.391  -1.483  1.00  0.00    -0.014 A 
BRANCH  34  35
ATOM     35  C   UNL     1       5.815 -14.383  -0.380  1.00  0.00     0.031 A 
ATOM     36  C   UNL     1       5.066 -15.688  -0.438  1.00  0.00     0.074 A 
ATOM     37  C   UNL     1       6.529 -14.073   0.722  1.00  0.00     0.049 A 
ATOM     38  N   UNL     1       4.962 -16.623   0.472  1.00  0.00    -0.248 NA
ATOM     39  C   UNL     1       4.307 -15.962  -1.669  1.00  0.00     0.031 C 
ATOM     40  C   UNL     1       7.259 -12.822   0.937  1.00  0.00     0.029 A 
ATOM     41  N   UNL     1       6.743 -14.783   1.878  1.00  0.00    -0.354 N 
ATOM     42  C   UNL     1       4.107 -17.579  -0.063  1.00  0.00     0.074 A 
ATOM     43  C   UNL     1       3.683 -17.087  -1.356  1.00  0.00     0.031 C 
ATOM     44  C   UNL     1       7.851 -12.859   2.142  1.00  0.00     0.029 A 
ATOM     45  C   UNL     1       7.514 -14.116   2.801  1.00  0.00     0.049 A 
ATOM     46  H   UNL     1       6.378 -15.685   2.032  1.00  0.00     0.167 HD
ATOM     47  C   UNL     1       3.722 -18.769   0.461  1.00  0.00     0.031 A 
ATOM     48  C   UNL     1       7.900 -14.466   4.044  1.00  0.00     0.031 A 
ATOM     49  C   UNL     1       4.154 -19.268   1.739  1.00  0.00     0.049 A 
ATOM     50  C   UNL     1       7.486 -15.799   4.598  1.00  0.00     0.074 A 
ATOM     51  C   UNL     1       3.861 -20.484   2.333  1.00  0.00     0.029 A 
ATOM     52  N   UNL     1       4.973 -18.580   2.621  1.00  0.00    -0.354 N 
ATOM     53  N   UNL     1       6.721 -16.714   4.051  1.00  0.00    -0.248 NA
ATOM     54  C   UNL     1       7.997 -16.153   5.929  1.00  0.00     0.031 C 
ATOM     55  C   UNL     1       4.476 -20.516   3.590  1.00  0.00     0.029 A 
ATOM     56  C   UNL     1       5.188 -19.339   3.759  1.00  0.00     0.049 A 
ATOM     57  H   UNL     1       5.347 -17.683   2.461  1.00  0.00     0.167 HD
ATOM     58  C   UNL     1       6.672 -17.761   4.965  1.00  0.00     0.074 A 
ATOM     59  C   UNL     1       7.497 -17.372   6.092  1.00  0.00     0.031 C 
ATOM     60  C   UNL     1       6.005 -18.937   4.877  1.00  0.00     0.031 A 
BRANCH  47  61
ATOM     61  C   UNL     1       2.777 -19.605  -0.362  1.00  0.00    -0.014 A 
ATOM     62  C   UNL     1       3.204 -20.217  -1.555  1.00  0.00     0.010 A 
ATOM     63  C   UNL     1       1.444 -19.775   0.055  1.00  0.00     0.010 A 
ATOM     64  C   UNL     1       2.301 -20.927  -2.350  1.00  0.00     0.020 A 
ATOM     65  C   UNL     1       0.544 -20.510  -0.723  1.00  0.00     0.020 A 
ATOM     66  C   UNL     1       0.973 -21.058  -1.934  1.00  0.00     0.054 A 
BRANCH  66  67
ATOM     67  S   UNL     1      -0.187 -21.967  -2.993  1.00  0.00     0.124 S 
ATOM     68  O   UNL     1      -0.467 -20.986  -4.039  1.00  0.00    -0.237 OA
ATOM     69  O   UNL     1       0.598 -23.125  -3.413  1.00  0.00    -0.237 OA
ATOM     70  O   UNL     1      -1.306 -22.266  -2.103  1.00  0.00    -0.744 OA
ENDBRANCH  66  67
ENDBRANCH  47  61
BRANCH  48  71
ATOM     71  C   UNL     1       8.744 -13.532   4.836  1.00  0.00    -0.014 A 
ATOM     72  C   UNL     1      10.117 -13.781   5.003  1.00  0.00     0.010 A 
ATOM     73  C   UNL     1       8.188 -12.359   5.379  1.00  0.00     0.010 A 
ATOM     74  C   UNL     1      10.921 -12.872   5.699  1.00  0.00     0.020 A 
ATOM     75  C   UNL     1       8.993 -11.438   6.056  1.00  0.00     0.020 A 
ATOM     76  C   UNL     1      10.355 -11.703   6.215  1.00  0.00     0.054 A 
BRANCH  76  77
ATOM     77  S   UNL     1      11.433 -10.492   7.031  1.00  0.00     0.124 S 
ATOM     78  O   UNL     1      11.657 -11.114   8.332  1.00  0.00    -0.237 OA
ATOM     79  O   UNL     1      12.591 -10.448   6.141  1.00  0.00    -0.237 OA
ATOM     80  O   UNL     1      10.625  -9.274   7.047  1.00  0.00    -0.744 OA
ENDBRANCH  76  77
ENDBRANCH  48  71
BRANCH  60  81
ATOM     81  C   UNL     1       6.152 -19.903   6.021  1.00  0.00    -0.014 A 
ATOM     82  C   UNL     1       5.500 -19.683   7.246  1.00  0.00     0.010 A 
ATOM     83  C   UNL     1       6.912 -21.075   5.847  1.00  0.00     0.010 A 
ATOM     84  C   UNL     1       5.625 -20.606   8.288  1.00  0.00     0.020 A 
ATOM     85  C   UNL     1       7.021 -22.010   6.879  1.00  0.00     0.020 A 
ATOM     86  C   UNL     1       6.387 -21.763   8.098  1.00  0.00     0.054 A 
BRANCH  86  87
ATOM     87  S   UNL     1       6.499 -22.969   9.449  1.00  0.00     0.124 S 
ATOM     88  O   UNL     1       7.442 -22.322  10.356  1.00  0.00    -0.237 OA
ATOM     89  O   UNL     1       5.120 -23.047   9.927  1.00  0.00    -0.237 OA
ATOM     90  O   UNL     1       6.992 -24.178   8.793  1.00  0.00    -0.744 OA
ENDBRANCH  86  87
ENDBRANCH  60  81
ENDBRANCH  34  35
ENDBRANCH  26  29
ENDBRANCH  24  25
ENDBRANCH   1  24
TORSDOF 15
