REMARK SMILES CC(C)(O)CCOc1ccc(C(=O)NCCCNC(=O)c2ccc(-c3c4nc(c(-c5ccc(S(=O)(=O)[O-])cc5)c5ccc([nH]5)c(-c5ccc(S(=O)(=O)[O-])cc5)c5nc(c(-c6ccc(S(=O)(=O)[O-])cc6)c6ccc3[nH]6)C=C5)C=C4)cc2)cc1
REMARK SMILES IDX 15 1 14 2 12 3 13 4 11 6 8 7 9 8 82 9 10 10 81 11 7 12 6 13
REMARK SMILES IDX 5 14 2 15 1 16 3 17 4 18 16 20 17 21 18 22 19 23 20 25 21 26
REMARK SMILES IDX 22 27 80 28 23 29 79 30 24 31 25 32 26 33 73 34 27 35 78 36
REMARK SMILES IDX 72 37 74 38 28 39 77 40 71 41 70 42 29 44 59 45 40 46 58 47
REMARK SMILES IDX 41 48 44 49 57 50 75 51 42 52 43 53 56 55 76 56 45 57 30 58
REMARK SMILES IDX 31 59 39 60 32 61 38 62 33 63 34 64 35 65 36 66 37 67 60 68
REMARK SMILES IDX 61 69 69 70 62 71 68 72 63 73 64 74 65 75 66 76 67 77 46 78
REMARK SMILES IDX 47 79 55 80 48 81 54 82 49 83 50 84 51 85 52 86 53 87
REMARK H PARENT 14 5 4 19 18 24 74 43 44 54
REMARK Flexibility Score: inf
ROOT
ATOM      1  C   UNL     1      -0.158   3.728   0.895  1.00  0.00     0.118 C 
ENDROOT
BRANCH   1   2
ATOM      2  N   UNL     1      -0.367   4.317  -0.422  1.00  0.00    -0.352 N 
ATOM      3  C   UNL     1      -0.486   3.730  -1.662  1.00  0.00     0.251 C 
ATOM      4  O   UNL     1      -0.555   4.438  -2.664  1.00  0.00    -0.269 OA
ATOM      5  H   UNL     1      -0.433   5.300  -0.425  1.00  0.00     0.163 HD
BRANCH   3   6
ATOM      6  C   UNL     1      -0.480   2.258  -1.815  1.00  0.00     0.040 A 
ATOM      7  C   UNL     1      -0.079  -0.505  -1.837  1.00  0.00     0.119 A 
ATOM      8  C   UNL     1       0.550   0.301  -2.790  1.00  0.00     0.047 A 
ATOM      9  C   UNL     1      -1.080   0.050  -1.044  1.00  0.00     0.047 A 
ATOM     10  C   UNL     1       0.348   1.684  -2.784  1.00  0.00     0.017 A 
ATOM     11  C   UNL     1      -1.268   1.434  -1.013  1.00  0.00     0.017 A 
BRANCH   7  12
ATOM     12  O   UNL     1       0.441  -1.761  -1.703  1.00  0.00    -0.493 OA
BRANCH  12  13
ATOM     13  C   UNL     1       0.133  -2.523  -0.531  1.00  0.00     0.232 C 
BRANCH  13  14
ATOM     14  C   UNL     1       1.076  -2.350   0.682  1.00  0.00     0.076 C 
BRANCH  14  15
ATOM     15  C   UNL     1       1.001  -1.051   1.518  1.00  0.00     0.062 C 
ATOM     16  C   UNL     1       1.862   0.070   0.925  1.00  0.00     0.042 C 
ATOM     17  C   UNL     1       1.481  -1.294   2.958  1.00  0.00     0.042 C 
BRANCH  15  18
ATOM     18  O   UNL     1      -0.360  -0.640   1.641  1.00  0.00    -0.390 OA
ATOM     19  H   UNL     1      -0.406   0.175   2.165  1.00  0.00     0.211 HD
ENDBRANCH  15  18
ENDBRANCH  14  15
ENDBRANCH  13  14
ENDBRANCH  12  13
ENDBRANCH   7  12
ENDBRANCH   3   6
ENDBRANCH   1   2
BRANCH   1  20
ATOM     20  C   UNL     1       1.071   4.274   1.620  1.00  0.00     0.042 C 
BRANCH  20  21
ATOM     21  C   UNL     1       0.964   5.724   2.083  1.00  0.00     0.118 C 
BRANCH  21  22
ATOM     22  N   UNL     1      -0.026   5.918   3.135  1.00  0.00    -0.352 N 
ATOM     23  C   UNL     1       0.097   6.482   4.383  1.00  0.00     0.251 C 
ATOM     24  H   UNL     1      -0.929   5.594   2.916  1.00  0.00     0.163 HD
ATOM     25  O   UNL     1      -0.848   6.398   5.168  1.00  0.00    -0.269 OA
BRANCH  23  26
ATOM     26  C   UNL     1       1.346   7.160   4.806  1.00  0.00     0.039 A 
ATOM     27  C   UNL     1       1.790   6.998   6.123  1.00  0.00     0.014 A 
ATOM     28  C   UNL     1       2.064   7.982   3.935  1.00  0.00     0.014 A 
ATOM     29  C   UNL     1       2.984   7.597   6.540  1.00  0.00     0.010 A 
ATOM     30  C   UNL     1       3.294   8.511   4.326  1.00  0.00     0.010 A 
ATOM     31  C   UNL     1       3.769   8.327   5.633  1.00  0.00    -0.014 A 
BRANCH  31  32
ATOM     32  C   UNL     1       5.084   8.902   6.029  1.00  0.00     0.031 A 
ATOM     33  C   UNL     1       5.305  10.392   5.994  1.00  0.00     0.074 A 
ATOM     34  C   UNL     1       6.101   8.080   6.357  1.00  0.00     0.049 A 
ATOM     35  N   UNL     1       6.399  11.070   6.236  1.00  0.00    -0.248 NA
ATOM     36  C   UNL     1       4.154  11.228   5.616  1.00  0.00     0.031 C 
ATOM     37  C   UNL     1       6.030   6.617   6.397  1.00  0.00     0.029 A 
ATOM     38  N   UNL     1       7.399   8.355   6.713  1.00  0.00    -0.354 N 
ATOM     39  C   UNL     1       6.073  12.405   6.025  1.00  0.00     0.074 A 
ATOM     40  C   UNL     1       4.696  12.437   5.583  1.00  0.00     0.031 C 
ATOM     41  C   UNL     1       7.219   6.127   6.784  1.00  0.00     0.029 A 
ATOM     42  C   UNL     1       8.152   7.233   6.972  1.00  0.00     0.049 A 
ATOM     43  H   UNL     1       7.757   9.270   6.776  1.00  0.00     0.167 HD
ATOM     44  C   UNL     1       6.842  13.507   6.201  1.00  0.00     0.031 A 
ATOM     45  C   UNL     1       9.450   7.105   7.314  1.00  0.00     0.031 A 
ATOM     46  C   UNL     1       8.211  13.473   6.644  1.00  0.00     0.049 A 
ATOM     47  C   UNL     1      10.291   8.342   7.476  1.00  0.00     0.074 A 
ATOM     48  C   UNL     1       9.060  14.537   6.898  1.00  0.00     0.029 A 
ATOM     49  N   UNL     1       8.934  12.317   6.897  1.00  0.00    -0.354 N 
ATOM     50  N   UNL     1       9.946   9.599   7.330  1.00  0.00    -0.248 NA
ATOM     51  C   UNL     1      11.695   8.143   7.862  1.00  0.00     0.031 C 
ATOM     52  C   UNL     1      10.312  14.023   7.247  1.00  0.00     0.029 A 
ATOM     53  C   UNL     1      10.225  12.640   7.280  1.00  0.00     0.049 A 
ATOM     54  H   UNL     1       8.581  11.401   6.817  1.00  0.00     0.167 HD
ATOM     55  C   UNL     1      11.081  10.341   7.639  1.00  0.00     0.074 A 
ATOM     56  C   UNL     1      12.117   9.394   7.993  1.00  0.00     0.031 C 
ATOM     57  C   UNL     1      11.248  11.687   7.633  1.00  0.00     0.031 A 
BRANCH  44  58
ATOM     58  C   UNL     1       6.219  14.849   5.905  1.00  0.00    -0.014 A 
ATOM     59  C   UNL     1       5.194  15.370   6.717  1.00  0.00     0.010 A 
ATOM     60  C   UNL     1       6.692  15.619   4.827  1.00  0.00     0.010 A 
ATOM     61  C   UNL     1       4.625  16.613   6.431  1.00  0.00     0.020 A 
ATOM     62  C   UNL     1       6.147  16.878   4.556  1.00  0.00     0.020 A 
ATOM     63  C   UNL     1       5.104  17.359   5.350  1.00  0.00     0.054 A 
BRANCH  63  64
ATOM     64  S   UNL     1       4.359  18.979   5.016  1.00  0.00     0.124 S 
ATOM     65  O   UNL     1       3.042  18.605   4.506  1.00  0.00    -0.237 OA
ATOM     66  O   UNL     1       4.367  19.611   6.332  1.00  0.00    -0.237 OA
ATOM     67  O   UNL     1       5.258  19.580   4.034  1.00  0.00    -0.744 OA
ENDBRANCH  63  64
ENDBRANCH  44  58
BRANCH  45  68
ATOM     68  C   UNL     1      10.033   5.752   7.538  1.00  0.00    -0.014 A 
ATOM     69  C   UNL     1      10.419   5.344   8.827  1.00  0.00     0.010 A 
ATOM     70  C   UNL     1      10.203   4.861   6.462  1.00  0.00     0.010 A 
ATOM     71  C   UNL     1      10.985   4.082   9.033  1.00  0.00     0.020 A 
ATOM     72  C   UNL     1      10.738   3.586   6.668  1.00  0.00     0.020 A 
ATOM     73  C   UNL     1      11.138   3.209   7.952  1.00  0.00     0.054 A 
BRANCH  73  74
ATOM     74  S   UNL     1      11.832   1.560   8.250  1.00  0.00     0.124 S 
ATOM     75  O   UNL     1      13.236   1.863   8.507  1.00  0.00    -0.237 OA
ATOM     76  O   UNL     1      11.062   1.099   9.403  1.00  0.00    -0.237 OA
ATOM     77  O   UNL     1      11.562   0.845   7.005  1.00  0.00    -0.744 OA
ENDBRANCH  73  74
ENDBRANCH  45  68
BRANCH  57  78
ATOM     78  C   UNL     1      12.588  12.224   8.065  1.00  0.00    -0.014 A 
ATOM     79  C   UNL     1      13.732  12.075   7.262  1.00  0.00     0.010 A 
ATOM     80  C   UNL     1      12.688  12.939   9.273  1.00  0.00     0.010 A 
ATOM     81  C   UNL     1      14.959  12.601   7.677  1.00  0.00     0.020 A 
ATOM     82  C   UNL     1      13.905  13.494   9.675  1.00  0.00     0.020 A 
ATOM     83  C   UNL     1      15.037  13.309   8.881  1.00  0.00     0.054 A 
BRANCH  83  84
ATOM     84  S   UNL     1      16.631  14.020   9.373  1.00  0.00     0.124 S 
ATOM     85  O   UNL     1      17.389  12.831   9.754  1.00  0.00    -0.237 OA
ATOM     86  O   UNL     1      17.076  14.685   8.151  1.00  0.00    -0.237 OA
ATOM     87  O   UNL     1      16.286  14.917  10.474  1.00  0.00    -0.744 OA
ENDBRANCH  83  84
ENDBRANCH  57  78
ENDBRANCH  31  32
ENDBRANCH  23  26
ENDBRANCH  21  22
ENDBRANCH  20  21
ENDBRANCH   1  20
TORSDOF 18
