REMARK SMILES Cc1ccccc1/[NH+]=C1\S[C@@H](CC(=O)Nc2ccc(C(=O)NCCCNC(=O)c3ccc(-c4c5nc(c(-c6ccc(S(=O)(=O)[O-])cc6)c6ccc([nH]6)c(-c6ccc(S(=O)(=O)[O-])cc6)c6nc(c(-c7ccc(S(=O)(=O)[O-])cc7)c7ccc4[nH]7)C=C6)C=C5)cc3)cc2)C(=O)N1C
REMARK SMILES IDX 23 1 22 2 20 3 21 4 19 6 16 7 17 8 90 9 18 10 89 11 15 12
REMARK SMILES IDX 13 13 14 14 12 16 11 17 8 18 9 19 10 21 93 22 91 23 94 24
REMARK SMILES IDX 92 25 7 26 1 27 2 28 3 29 4 30 6 31 5 32 24 33 25 34 26 35
REMARK SMILES IDX 27 36 28 38 29 39 30 40 88 41 31 42 87 43 32 44 33 45 34 46
REMARK SMILES IDX 81 47 35 48 86 49 80 50 82 51 36 52 85 53 79 54 78 55 37 57
REMARK SMILES IDX 67 58 48 59 66 60 49 61 52 62 65 63 83 64 50 65 51 66 64 68
REMARK SMILES IDX 84 69 53 70 38 71 39 72 47 73 40 74 46 75 41 76 42 77 43 78
REMARK SMILES IDX 44 79 45 80 68 81 69 82 77 83 70 84 76 85 71 86 72 87 73 88
REMARK SMILES IDX 74 89 75 90 54 91 55 92 63 93 56 94 62 95 57 96 58 97 59 98
REMARK SMILES IDX 60 99 61 100
REMARK H PARENT 22 5 15 15 8 20 26 37 82 56 52 67
REMARK Flexibility Score: inf
ROOT
ATOM      1  C   UNL     1       3.163   4.903  -3.030  1.00  0.00     0.118 C 
ENDROOT
BRANCH   1   2
ATOM      2  N   UNL     1       4.048   5.965  -3.498  1.00  0.00    -0.352 N 
ATOM      3  C   UNL     1       5.392   6.161  -3.253  1.00  0.00     0.251 C 
ATOM      4  O   UNL     1       6.060   6.881  -3.990  1.00  0.00    -0.269 OA
ATOM      5  H   UNL     1       3.624   6.642  -4.074  1.00  0.00     0.163 HD
BRANCH   3   6
ATOM      6  C   UNL     1       6.069   5.505  -2.108  1.00  0.00     0.039 A 
ATOM      7  C   UNL     1       7.322   4.178   0.007  1.00  0.00     0.041 A 
ATOM      8  C   UNL     1       6.085   4.790   0.189  1.00  0.00     0.027 A 
ATOM      9  C   UNL     1       8.017   4.366  -1.183  1.00  0.00     0.027 A 
ATOM     10  C   UNL     1       5.460   5.455  -0.859  1.00  0.00     0.016 A 
ATOM     11  C   UNL     1       7.380   5.020  -2.248  1.00  0.00     0.016 A 
BRANCH   7  12
ATOM     12  N   UNL     1       7.828   3.336   1.004  1.00  0.00    -0.326 N 
ATOM     13  C   UNL     1       7.186   2.218   1.497  1.00  0.00     0.226 C 
ATOM     14  O   UNL     1       7.572   1.670   2.529  1.00  0.00    -0.275 OA
ATOM     15  H   UNL     1       8.709   3.558   1.383  1.00  0.00     0.169 HD
BRANCH  13  16
ATOM     16  C   UNL     1       6.130   1.570   0.611  1.00  0.00     0.128 C 
BRANCH  16  17
ATOM     17  C   UNL     1       4.738   1.478   1.198  1.00  0.00     0.183 C 
ATOM     18  N   UNL     1       1.028   1.755   0.806  1.00  0.00    -0.234 N 
ATOM     19  C   UNL     1       2.292   1.959   0.726  1.00  0.00     0.319 C 
ATOM     20  H   UNL     1       0.523   2.409   1.341  1.00  0.00     0.313 HD
ATOM     21  S   UNL     1       3.531   1.102  -0.130  1.00  0.00    -0.022 SA
ATOM     22  N   UNL     1       2.876   2.963   1.443  1.00  0.00    -0.193 N 
ATOM     23  C   UNL     1       4.171   2.726   1.848  1.00  0.00     0.324 C 
ATOM     24  C   UNL     1       2.145   4.118   1.925  1.00  0.00     0.301 C 
ATOM     25  O   UNL     1       4.751   3.367   2.718  1.00  0.00    -0.245 OA
BRANCH  18  26
ATOM     26  C   UNL     1       0.268   0.724   0.234  1.00  0.00     0.128 A 
ATOM     27  C   UNL     1       1.737  -1.283   0.932  1.00  0.00     0.049 C 
ATOM     28  C   UNL     1       0.503  -0.664   0.342  1.00  0.00    -0.004 A 
ATOM     29  C   UNL     1      -0.471  -1.569  -0.132  1.00  0.00     0.008 A 
ATOM     30  C   UNL     1      -1.692  -1.124  -0.633  1.00  0.00     0.001 A 
ATOM     31  C   UNL     1      -0.969   1.144  -0.287  1.00  0.00     0.052 A 
ATOM     32  C   UNL     1      -1.944   0.237  -0.706  1.00  0.00     0.004 A 
ENDBRANCH  18  26
ENDBRANCH  16  17
ENDBRANCH  13  16
ENDBRANCH   7  12
ENDBRANCH   3   6
ENDBRANCH   1   2
BRANCH   1  33
ATOM     33  C   UNL     1       2.123   5.345  -1.998  1.00  0.00     0.042 C 
BRANCH  33  34
ATOM     34  C   UNL     1       0.895   6.021  -2.604  1.00  0.00     0.118 C 
BRANCH  34  35
ATOM     35  N   UNL     1      -0.339   5.606  -1.929  1.00  0.00    -0.352 N 
ATOM     36  C   UNL     1      -1.607   6.154  -2.044  1.00  0.00     0.251 C 
ATOM     37  H   UNL     1      -0.256   4.839  -1.316  1.00  0.00     0.163 HD
ATOM     38  O   UNL     1      -2.564   5.692  -1.454  1.00  0.00    -0.269 OA
BRANCH  36  39
ATOM     39  C   UNL     1      -1.746   7.322  -2.934  1.00  0.00     0.039 A 
ATOM     40  C   UNL     1      -2.394   7.161  -4.162  1.00  0.00     0.014 A 
ATOM     41  C   UNL     1      -0.988   8.454  -2.655  1.00  0.00     0.014 A 
ATOM     42  C   UNL     1      -2.125   8.059  -5.195  1.00  0.00     0.010 A 
ATOM     43  C   UNL     1      -0.654   9.287  -3.705  1.00  0.00     0.010 A 
ATOM     44  C   UNL     1      -1.179   9.064  -4.990  1.00  0.00    -0.014 A 
BRANCH  44  45
ATOM     45  C   UNL     1      -0.575   9.858  -6.059  1.00  0.00     0.031 A 
ATOM     46  C   UNL     1      -0.788  11.327  -6.124  1.00  0.00     0.074 A 
ATOM     47  C   UNL     1       0.315   9.301  -6.914  1.00  0.00     0.049 A 
ATOM     48  N   UNL     1      -0.521  12.052  -7.161  1.00  0.00    -0.248 NA
ATOM     49  C   UNL     1      -1.372  12.095  -5.029  1.00  0.00     0.031 C 
ATOM     50  C   UNL     1       1.314  10.015  -7.707  1.00  0.00     0.029 A 
ATOM     51  N   UNL     1       0.366   7.999  -7.414  1.00  0.00    -0.354 N 
ATOM     52  C   UNL     1      -0.601  13.371  -6.779  1.00  0.00     0.074 A 
ATOM     53  C   UNL     1      -1.205  13.347  -5.467  1.00  0.00     0.031 C 
ATOM     54  C   UNL     1       1.645   9.261  -8.764  1.00  0.00     0.029 A 
ATOM     55  C   UNL     1       0.767   8.106  -8.760  1.00  0.00     0.049 A 
ATOM     56  H   UNL     1       0.162   7.170  -6.923  1.00  0.00     0.167 HD
ATOM     57  C   UNL     1      -0.041  14.340  -7.556  1.00  0.00     0.031 A 
ATOM     58  C   UNL     1       0.049   7.649  -9.828  1.00  0.00     0.031 A 
ATOM     59  C   UNL     1       0.516  13.818  -8.802  1.00  0.00     0.049 A 
ATOM     60  C   UNL     1      -0.254   8.706 -10.874  1.00  0.00     0.074 A 
ATOM     61  C   UNL     1       1.795  13.590  -9.284  1.00  0.00     0.029 A 
ATOM     62  N   UNL     1      -0.342  13.221  -9.706  1.00  0.00    -0.354 N 
ATOM     63  N   UNL     1       0.150   9.944 -10.812  1.00  0.00    -0.248 NA
ATOM     64  C   UNL     1      -1.149   8.475 -12.011  1.00  0.00     0.031 C 
ATOM     65  C   UNL     1       1.687  12.882 -10.515  1.00  0.00     0.029 A 
ATOM     66  C   UNL     1       0.345  12.683 -10.774  1.00  0.00     0.049 A 
ATOM     67  H   UNL     1      -1.320  13.184  -9.601  1.00  0.00     0.167 HD
ATOM     68  C   UNL     1      -0.494  10.679 -11.772  1.00  0.00     0.074 A 
ATOM     69  C   UNL     1      -1.268   9.712 -12.525  1.00  0.00     0.031 C 
ATOM     70  C   UNL     1      -0.416  12.038 -11.828  1.00  0.00     0.031 A 
BRANCH  57  71
ATOM     71  C   UNL     1       0.182  15.760  -7.089  1.00  0.00    -0.014 A 
ATOM     72  C   UNL     1       1.253  16.508  -7.620  1.00  0.00     0.010 A 
ATOM     73  C   UNL     1      -0.606  16.405  -6.118  1.00  0.00     0.010 A 
ATOM     74  C   UNL     1       1.585  17.780  -7.134  1.00  0.00     0.020 A 
ATOM     75  C   UNL     1      -0.263  17.660  -5.593  1.00  0.00     0.020 A 
ATOM     76  C   UNL     1       0.841  18.336  -6.098  1.00  0.00     0.054 A 
BRANCH  76  77
ATOM     77  S   UNL     1       1.340  19.938  -5.416  1.00  0.00     0.124 S 
ATOM     78  O   UNL     1       2.734  19.703  -5.046  1.00  0.00    -0.237 OA
ATOM     79  O   UNL     1       1.130  20.838  -6.545  1.00  0.00    -0.237 OA
ATOM     80  O   UNL     1       0.431  20.132  -4.288  1.00  0.00    -0.744 OA
ENDBRANCH  76  77
ENDBRANCH  57  71
BRANCH  58  81
ATOM     81  C   UNL     1      -0.842   6.503  -9.509  1.00  0.00    -0.014 A 
ATOM     82  C   UNL     1      -0.225   5.269  -9.217  1.00  0.00     0.010 A 
ATOM     83  C   UNL     1      -2.157   6.739  -9.071  1.00  0.00     0.010 A 
ATOM     84  C   UNL     1      -0.833   4.373  -8.339  1.00  0.00     0.020 A 
ATOM     85  C   UNL     1      -2.771   5.835  -8.198  1.00  0.00     0.020 A 
ATOM     86  C   UNL     1      -2.070   4.698  -7.782  1.00  0.00     0.054 A 
BRANCH  86  87
ATOM     87  S   UNL     1      -2.621   3.751  -6.333  1.00  0.00     0.124 S 
ATOM     88  O   UNL     1      -2.698   2.392  -6.857  1.00  0.00    -0.237 OA
ATOM     89  O   UNL     1      -1.534   4.007  -5.389  1.00  0.00    -0.237 OA
ATOM     90  O   UNL     1      -3.897   4.372  -5.990  1.00  0.00    -0.744 OA
ENDBRANCH  86  87
ENDBRANCH  58  81
BRANCH  70  91
ATOM     91  C   UNL     1      -1.123  12.885 -12.850  1.00  0.00    -0.014 A 
ATOM     92  C   UNL     1      -1.166  12.547 -14.212  1.00  0.00     0.010 A 
ATOM     93  C   UNL     1      -1.667  14.135 -12.474  1.00  0.00     0.010 A 
ATOM     94  C   UNL     1      -1.773  13.397 -15.148  1.00  0.00     0.020 A 
ATOM     95  C   UNL     1      -2.259  14.996 -13.401  1.00  0.00     0.020 A 
ATOM     96  C   UNL     1      -2.323  14.613 -14.735  1.00  0.00     0.054 A 
BRANCH  96  97
ATOM     97  S   UNL     1      -3.066  15.716 -15.964  1.00  0.00     0.124 S 
ATOM     98  O   UNL     1      -2.100  15.672 -17.060  1.00  0.00    -0.237 OA
ATOM     99  O   UNL     1      -4.343  15.056 -16.228  1.00  0.00    -0.237 OA
ATOM    100  O   UNL     1      -3.158  16.999 -15.273  1.00  0.00    -0.744 OA
ENDBRANCH  96  97
ENDBRANCH  70  91
ENDBRANCH  44  45
ENDBRANCH  36  39
ENDBRANCH  34  35
ENDBRANCH  33  34
ENDBRANCH   1  33
TORSDOF 17
