REMARK SMILES CC(C)C(=O)Nc1ccc2c([C@H](C(=O)NCCCNC(=O)c3ccc(-c4c5nc(c(-c6ccc(S(=O)(=O)[O-])cc6)c6ccc([nH]6)c(-c6ccc(S(=O)(=O)[O-])cc6)c6nc(c(-c7ccc(S(=O)(=O)[O-])cc7)c7ccc4[nH]7)C=C6)C=C5)cc3)[NH+]3CC[NH+](CC(=O)N(C)C)CC3)c[nH]c2c1
REMARK SMILES IDX 17 1 16 2 15 3 13 4 14 5 12 7 11 8 7 9 8 10 97 11 9 12 96 13
REMARK SMILES IDX 10 14 95 15 94 16 6 18 4 19 5 20 2 22 1 23 3 24 82 25 83 26
REMARK SMILES IDX 93 27 84 29 92 30 85 31 86 33 87 34 88 35 89 36 90 37 91 38
REMARK SMILES IDX 18 39 19 40 20 41 21 43 22 44 23 45 81 46 24 47 80 48 25 49
REMARK SMILES IDX 26 50 27 51 74 52 28 53 79 54 73 55 75 56 29 57 78 58 72 59
REMARK SMILES IDX 71 60 30 62 60 63 41 64 59 65 42 66 45 67 58 68 76 69 43 70
REMARK SMILES IDX 44 71 57 73 77 74 46 75 31 76 32 77 40 78 33 79 39 80 34 81
REMARK SMILES IDX 35 82 36 83 37 84 38 85 61 86 62 87 70 88 63 89 69 90 64 91
REMARK SMILES IDX 65 92 66 93 67 94 68 95 47 96 48 97 56 98 49 99 55 100
REMARK SMILES IDX 50 101 51 102 52 103 53 104 54 105
REMARK H PARENT 15 6 95 17 6 21 82 28 85 32 19 42 75 61 45 72
REMARK Flexibility Score: inf
ROOT
ATOM      1  C   UNL     1       0.909   2.451  -0.630  1.00  0.00     0.042 C 
ENDROOT
BRANCH   1   2
ATOM      2  C   UNL     1       0.512   3.901  -0.880  1.00  0.00     0.118 C 
BRANCH   2   3
ATOM      3  N   UNL     1      -0.041   4.537   0.306  1.00  0.00    -0.351 N 
ATOM      4  C   UNL     1       0.358   5.654   0.989  1.00  0.00     0.283 C 
ATOM      5  O   UNL     1      -0.383   6.042   1.897  1.00  0.00    -0.268 OA
ATOM      6  H   UNL     1      -0.834   4.089   0.680  1.00  0.00     0.163 HD
BRANCH   4   7
ATOM      7  C   UNL     1       1.678   6.353   0.610  1.00  0.00     0.308 C 
BRANCH   7   8
ATOM      8  C   UNL     1       1.475   7.733   0.033  1.00  0.00     0.044 A 
ATOM      9  C   UNL     1       3.941  10.250  -2.223  1.00  0.00     0.043 A 
ATOM     10  C   UNL     1       4.598   9.248  -1.521  1.00  0.00     0.027 A 
ATOM     11  C   UNL     1       2.596  10.540  -1.966  1.00  0.00     0.052 A 
ATOM     12  C   UNL     1       3.890   8.364  -0.711  1.00  0.00     0.013 A 
ATOM     13  C   UNL     1       1.894   9.636  -1.158  1.00  0.00     0.048 A 
ATOM     14  C   UNL     1       2.500   8.524  -0.577  1.00  0.00     0.009 A 
ATOM     15  N   UNL     1       0.566   9.594  -0.807  1.00  0.00    -0.361 N 
ATOM     16  C   UNL     1       0.298   8.445  -0.114  1.00  0.00     0.094 A 
ATOM     17  H   UNL     1      -0.096  10.290  -1.023  1.00  0.00     0.166 HD
BRANCH   9  18
ATOM     18  N   UNL     1       4.602  11.003  -3.195  1.00  0.00    -0.326 N 
ATOM     19  C   UNL     1       5.431  10.600  -4.203  1.00  0.00     0.226 C 
ATOM     20  O   UNL     1       6.030  11.486  -4.827  1.00  0.00    -0.274 OA
ATOM     21  H   UNL     1       4.447  11.974  -3.146  1.00  0.00     0.169 HD
BRANCH  19  22
ATOM     22  C   UNL     1       5.554   9.138  -4.671  1.00  0.00     0.072 C 
ATOM     23  C   UNL     1       6.499   8.261  -3.861  1.00  0.00     0.018 C 
ATOM     24  C   UNL     1       4.213   8.458  -4.943  1.00  0.00     0.018 C 
ENDBRANCH  19  22
ENDBRANCH   9  18
ENDBRANCH   7   8
BRANCH   7  25
ATOM     25  N   UNL     1       2.696   6.322   1.674  1.00  0.00    -0.312 N 
ATOM     26  C   UNL     1       2.547   7.254   2.795  1.00  0.00     0.325 C 
ATOM     27  C   UNL     1       3.064   4.968   2.091  1.00  0.00     0.325 C 
ATOM     28  H   UNL     1       3.499   6.721   1.188  1.00  0.00     0.349 HD
ATOM     29  C   UNL     1       1.933   6.702   4.101  1.00  0.00     0.325 C 
ATOM     30  C   UNL     1       2.403   4.440   3.383  1.00  0.00     0.325 C 
ATOM     31  N   UNL     1       2.369   5.362   4.517  1.00  0.00    -0.318 N 
ATOM     32  H   UNL     1       1.650   4.996   5.141  1.00  0.00     0.348 HD
BRANCH  31  33
ATOM     33  C   UNL     1       3.542   5.340   5.408  1.00  0.00     0.364 C 
BRANCH  33  34
ATOM     34  C   UNL     1       4.822   5.939   4.817  1.00  0.00     0.277 C 
ATOM     35  O   UNL     1       5.040   7.150   4.945  1.00  0.00    -0.268 OA
ATOM     36  N   UNL     1       5.700   5.124   4.112  1.00  0.00    -0.344 N 
ATOM     37  C   UNL     1       5.734   3.669   4.135  1.00  0.00     0.146 C 
ATOM     38  C   UNL     1       6.716   5.775   3.301  1.00  0.00     0.146 C 
ENDBRANCH  33  34
ENDBRANCH  31  33
ENDBRANCH   7  25
ENDBRANCH   4   7
ENDBRANCH   2   3
ENDBRANCH   1   2
BRANCH   1  39
ATOM     39  C   UNL     1      -0.210   1.589  -0.056  1.00  0.00     0.118 C 
BRANCH  39  40
ATOM     40  N   UNL     1      -1.433   1.659  -0.845  1.00  0.00    -0.352 N 
ATOM     41  C   UNL     1      -2.123   0.669  -1.498  1.00  0.00     0.251 C 
ATOM     42  H   UNL     1      -1.826   2.558  -0.921  1.00  0.00     0.163 HD
ATOM     43  O   UNL     1      -3.022   0.969  -2.274  1.00  0.00    -0.269 OA
BRANCH  41  44
ATOM     44  C   UNL     1      -1.766  -0.747  -1.278  1.00  0.00     0.039 A 
ATOM     45  C   UNL     1      -1.705  -1.605  -2.378  1.00  0.00     0.014 A 
ATOM     46  C   UNL     1      -1.496  -1.226   0.006  1.00  0.00     0.014 A 
ATOM     47  C   UNL     1      -1.306  -2.930  -2.196  1.00  0.00     0.010 A 
ATOM     48  C   UNL     1      -1.013  -2.519   0.173  1.00  0.00     0.010 A 
ATOM     49  C   UNL     1      -0.917  -3.386  -0.925  1.00  0.00    -0.014 A 
BRANCH  49  50
ATOM     50  C   UNL     1      -0.408  -4.766  -0.725  1.00  0.00     0.031 A 
ATOM     51  C   UNL     1      -1.147  -5.723   0.171  1.00  0.00     0.074 A 
ATOM     52  C   UNL     1       0.752  -5.137  -1.302  1.00  0.00     0.049 A 
ATOM     53  N   UNL     1      -0.826  -6.944   0.515  1.00  0.00    -0.248 NA
ATOM     54  C   UNL     1      -2.396  -5.237   0.782  1.00  0.00     0.031 C 
ATOM     55  C   UNL     1       1.584  -4.285  -2.157  1.00  0.00     0.029 A 
ATOM     56  N   UNL     1       1.438  -6.324  -1.252  1.00  0.00    -0.354 N 
ATOM     57  C   UNL     1      -1.824  -7.366   1.385  1.00  0.00     0.074 A 
ATOM     58  C   UNL     1      -2.727  -6.252   1.566  1.00  0.00     0.031 C 
ATOM     59  C   UNL     1       2.651  -4.986  -2.572  1.00  0.00     0.029 A 
ATOM     60  C   UNL     1       2.607  -6.318  -1.978  1.00  0.00     0.049 A 
ATOM     61  H   UNL     1       1.124  -7.107  -0.745  1.00  0.00     0.167 HD
ATOM     62  C   UNL     1      -1.989  -8.581   1.962  1.00  0.00     0.031 A 
ATOM     63  C   UNL     1       3.545  -7.272  -2.138  1.00  0.00     0.031 A 
ATOM     64  C   UNL     1      -1.088  -9.687   1.777  1.00  0.00     0.049 A 
ATOM     65  C   UNL     1       3.352  -8.605  -1.469  1.00  0.00     0.074 A 
ATOM     66  C   UNL     1      -1.188 -10.971   2.284  1.00  0.00     0.029 A 
ATOM     67  N   UNL     1       0.079  -9.643   1.029  1.00  0.00    -0.354 N 
ATOM     68  N   UNL     1       2.369  -9.005  -0.698  1.00  0.00    -0.248 NA
ATOM     69  C   UNL     1       4.389  -9.620  -1.701  1.00  0.00     0.031 C 
ATOM     70  C   UNL     1      -0.052 -11.685   1.891  1.00  0.00     0.029 A 
ATOM     71  C   UNL     1       0.721 -10.868   1.080  1.00  0.00     0.049 A 
ATOM     72  H   UNL     1       0.403  -8.855   0.534  1.00  0.00     0.167 HD
ATOM     73  C   UNL     1       2.654 -10.328  -0.377  1.00  0.00     0.074 A 
ATOM     74  C   UNL     1       3.891 -10.664  -1.051  1.00  0.00     0.031 C 
ATOM     75  C   UNL     1       1.954 -11.187   0.405  1.00  0.00     0.031 A 
BRANCH  62  76
ATOM     76  C   UNL     1      -3.192  -8.772   2.850  1.00  0.00    -0.014 A 
ATOM     77  C   UNL     1      -4.494  -8.783   2.316  1.00  0.00     0.010 A 
ATOM     78  C   UNL     1      -3.019  -8.984   4.230  1.00  0.00     0.010 A 
ATOM     79  C   UNL     1      -5.601  -8.958   3.150  1.00  0.00     0.020 A 
ATOM     80  C   UNL     1      -4.122  -9.193   5.064  1.00  0.00     0.020 A 
ATOM     81  C   UNL     1      -5.407  -9.161   4.520  1.00  0.00     0.054 A 
BRANCH  81  82
ATOM     82  S   UNL     1      -6.863  -9.411   5.572  1.00  0.00     0.124 S 
ATOM     83  O   UNL     1      -7.456  -8.076   5.586  1.00  0.00    -0.237 OA
ATOM     84  O   UNL     1      -7.616 -10.425   4.840  1.00  0.00    -0.237 OA
ATOM     85  O   UNL     1      -6.299  -9.854   6.845  1.00  0.00    -0.744 OA
ENDBRANCH  81  82
ENDBRANCH  62  76
BRANCH  63  86
ATOM     86  C   UNL     1       4.749  -6.997  -2.970  1.00  0.00    -0.014 A 
ATOM     87  C   UNL     1       4.936  -7.647  -4.202  1.00  0.00     0.010 A 
ATOM     88  C   UNL     1       5.714  -6.069  -2.535  1.00  0.00     0.010 A 
ATOM     89  C   UNL     1       6.075  -7.392  -4.973  1.00  0.00     0.020 A 
ATOM     90  C   UNL     1       6.837  -5.787  -3.317  1.00  0.00     0.020 A 
ATOM     91  C   UNL     1       7.017  -6.460  -4.526  1.00  0.00     0.054 A 
BRANCH  91  92
ATOM     92  S   UNL     1       8.462  -6.108  -5.565  1.00  0.00     0.124 S 
ATOM     93  O   UNL     1       9.249  -7.327  -5.413  1.00  0.00    -0.237 OA
ATOM     94  O   UNL     1       7.860  -5.901  -6.880  1.00  0.00    -0.237 OA
ATOM     95  O   UNL     1       9.036  -4.910  -4.955  1.00  0.00    -0.744 OA
ENDBRANCH  91  92
ENDBRANCH  63  86
BRANCH  75  96
ATOM     96  C   UNL     1       2.488 -12.589   0.547  1.00  0.00    -0.014 A 
ATOM     97  C   UNL     1       3.655 -12.857   1.283  1.00  0.00     0.010 A 
ATOM     98  C   UNL     1       1.775 -13.660  -0.022  1.00  0.00     0.010 A 
ATOM     99  C   UNL     1       4.117 -14.169   1.419  1.00  0.00     0.020 A 
ATOM    100  C   UNL     1       2.216 -14.976   0.139  1.00  0.00     0.020 A 
ATOM    101  C   UNL     1       3.394 -15.220   0.847  1.00  0.00     0.054 A 
BRANCH 101 102
ATOM    102  S   UNL     1       3.992 -16.916   1.077  1.00  0.00     0.124 S 
ATOM    103  O   UNL     1       5.171 -16.942   0.215  1.00  0.00    -0.237 OA
ATOM    104  O   UNL     1       4.261 -16.969   2.512  1.00  0.00    -0.237 OA
ATOM    105  O   UNL     1       2.875 -17.743   0.627  1.00  0.00    -0.744 OA
ENDBRANCH 101 102
ENDBRANCH  75  96
ENDBRANCH  49  50
ENDBRANCH  41  44
ENDBRANCH  39  40
ENDBRANCH   1  39
TORSDOF 19
