REMARK SMILES CCCCN(c1ccccc1C(=O)NCCCNC(=O)c1ccc(-c2c3nc(c(-c4ccc(S(=O)(=O)[O-])cc4)c4ccc([nH]4)c(-c4ccc(S(=O)(=O)[O-])cc4)c4nc(c(-c5ccc(S(=O)(=O)[O-])cc5)c5ccc2[nH]5)C=C4)C=C3)cc1)S(=O)(=O)c1ccc2c(c1)oc(=O)n2C
REMARK SMILES IDX 15 1 14 2 12 3 13 4 11 6 6 7 7 8 8 9 10 10 9 11 5 12 4 13
REMARK SMILES IDX 3 14 2 15 1 16 81 17 82 18 83 19 84 20 85 21 89 22 86 23
REMARK SMILES IDX 88 24 87 25 90 26 93 27 91 28 94 29 92 30 16 31 17 32 18 33
REMARK SMILES IDX 19 34 20 36 21 37 22 38 80 39 23 40 79 41 24 42 25 43 26 44
REMARK SMILES IDX 73 45 27 46 78 47 72 48 74 49 28 50 77 51 71 52 70 53 29 55
REMARK SMILES IDX 59 56 40 57 58 58 41 59 44 60 57 61 75 62 42 63 43 64 56 66
REMARK SMILES IDX 76 67 45 68 30 69 31 70 39 71 32 72 38 73 33 74 34 75 35 76
REMARK SMILES IDX 36 77 37 78 60 79 61 80 69 81 62 82 68 83 63 84 64 85 65 86
REMARK SMILES IDX 66 87 67 88 46 89 47 90 55 91 48 92 54 93 49 94 50 95 51 96
REMARK SMILES IDX 52 97 53 98
REMARK H PARENT 14 5 18 35 74 54 44 65
REMARK Flexibility Score: inf
ROOT
ATOM      1  C   UNL     1       0.361   1.148   2.992  1.00  0.00     0.118 C 
ENDROOT
BRANCH   1   2
ATOM      2  N   UNL     1       0.781   0.875   4.331  1.00  0.00    -0.352 N 
ATOM      3  C   UNL     1       0.126   0.097   5.248  1.00  0.00     0.253 C 
ATOM      4  O   UNL     1       0.676  -0.039   6.346  1.00  0.00    -0.269 OA
ATOM      5  H   UNL     1       1.625   1.288   4.623  1.00  0.00     0.163 HD
BRANCH   3   6
ATOM      6  C   UNL     1      -1.206  -0.567   5.036  1.00  0.00     0.064 A 
ATOM      7  C   UNL     1      -1.692  -1.267   3.911  1.00  0.00     0.065 A 
ATOM      8  C   UNL     1      -2.720  -2.209   4.149  1.00  0.00     0.028 A 
ATOM      9  C   UNL     1      -3.430  -2.290   5.346  1.00  0.00     0.002 A 
ATOM     10  C   UNL     1      -1.950  -0.649   6.248  1.00  0.00     0.016 A 
ATOM     11  C   UNL     1      -3.070  -1.468   6.392  1.00  0.00     0.001 A 
BRANCH   7  12
ATOM     12  N   UNL     1      -1.121  -1.279   2.551  1.00  0.00    -0.266 N 
BRANCH  12  13
ATOM     13  C   UNL     1      -0.166  -2.416   2.331  1.00  0.00     0.136 C 
BRANCH  13  14
ATOM     14  C   UNL     1       0.935  -2.441   1.255  1.00  0.00     0.022 C 
BRANCH  14  15
ATOM     15  C   UNL     1       0.640  -2.315  -0.235  1.00  0.00    -0.002 C 
ATOM     16  C   UNL     1       0.894  -0.902  -0.747  1.00  0.00     0.004 C 
ENDBRANCH  14  15
ENDBRANCH  13  14
ENDBRANCH  12  13
BRANCH  12  17
ATOM     17  S   UNL     1      -2.106  -0.558   1.292  1.00  0.00     0.264 S 
ATOM     18  O   UNL     1      -2.075   0.878   1.449  1.00  0.00    -0.201 OA
ATOM     19  O   UNL     1      -1.811  -1.141   0.005  1.00  0.00    -0.201 OA
BRANCH  17  20
ATOM     20  C   UNL     1      -3.800  -1.011   1.559  1.00  0.00     0.091 A 
ATOM     21  C   UNL     1      -4.746  -0.020   1.912  1.00  0.00     0.025 A 
ATOM     22  C   UNL     1      -4.172  -2.340   1.350  1.00  0.00     0.071 A 
ATOM     23  C   UNL     1      -6.075  -0.373   2.154  1.00  0.00     0.032 A 
ATOM     24  C   UNL     1      -5.463  -2.667   1.682  1.00  0.00     0.157 A 
ATOM     25  C   UNL     1      -6.387  -1.713   2.067  1.00  0.00     0.090 A 
ATOM     26  O   UNL     1      -5.958  -3.957   1.729  1.00  0.00    -0.408 OA
ATOM     27  N   UNL     1      -7.538  -2.410   2.336  1.00  0.00    -0.277 N 
ATOM     28  C   UNL     1      -7.270  -3.754   2.175  1.00  0.00     0.419 A 
ATOM     29  C   UNL     1      -8.813  -1.865   2.685  1.00  0.00     0.157 C 
ATOM     30  O   UNL     1      -8.040  -4.677   2.404  1.00  0.00    -0.223 OA
ENDBRANCH  17  20
ENDBRANCH  12  17
ENDBRANCH   7  12
ENDBRANCH   3   6
ENDBRANCH   1   2
BRANCH   1  31
ATOM     31  C   UNL     1       0.890   2.387   2.310  1.00  0.00     0.042 C 
BRANCH  31  32
ATOM     32  C   UNL     1       2.403   2.482   2.246  1.00  0.00     0.118 C 
BRANCH  32  33
ATOM     33  N   UNL     1       3.079   1.409   1.523  1.00  0.00    -0.352 N 
ATOM     34  C   UNL     1       3.564   1.293   0.238  1.00  0.00     0.251 C 
ATOM     35  H   UNL     1       3.219   0.600   2.067  1.00  0.00     0.163 HD
ATOM     36  O   UNL     1       4.156   0.262  -0.078  1.00  0.00    -0.269 OA
BRANCH  34  37
ATOM     37  C   UNL     1       3.321   2.336  -0.786  1.00  0.00     0.039 A 
ATOM     38  C   UNL     1       3.008   1.953  -2.097  1.00  0.00     0.014 A 
ATOM     39  C   UNL     1       3.376   3.687  -0.474  1.00  0.00     0.014 A 
ATOM     40  C   UNL     1       2.619   2.914  -3.038  1.00  0.00     0.010 A 
ATOM     41  C   UNL     1       2.858   4.624  -1.358  1.00  0.00     0.010 A 
ATOM     42  C   UNL     1       2.466   4.253  -2.652  1.00  0.00    -0.014 A 
BRANCH  42  43
ATOM     43  C   UNL     1       1.906   5.301  -3.547  1.00  0.00     0.031 A 
ATOM     44  C   UNL     1       2.693   6.564  -3.797  1.00  0.00     0.074 A 
ATOM     45  C   UNL     1       0.646   5.190  -4.015  1.00  0.00     0.049 A 
ATOM     46  N   UNL     1       2.304   7.687  -4.343  1.00  0.00    -0.248 NA
ATOM     47  C   UNL     1       4.089   6.579  -3.326  1.00  0.00     0.031 C 
ATOM     48  C   UNL     1      -0.239   4.038  -3.820  1.00  0.00     0.029 A 
ATOM     49  N   UNL     1      -0.124   6.075  -4.731  1.00  0.00    -0.354 N 
ATOM     50  C   UNL     1       3.390   8.551  -4.241  1.00  0.00     0.074 A 
ATOM     51  C   UNL     1       4.431   7.841  -3.533  1.00  0.00     0.031 C 
ATOM     52  C   UNL     1      -1.417   4.278  -4.417  1.00  0.00     0.029 A 
ATOM     53  C   UNL     1      -1.401   5.625  -4.978  1.00  0.00     0.049 A 
ATOM     54  H   UNL     1       0.207   6.950  -5.039  1.00  0.00     0.167 HD
ATOM     55  C   UNL     1       3.516   9.815  -4.710  1.00  0.00     0.031 A 
ATOM     56  C   UNL     1      -2.453   6.234  -5.560  1.00  0.00     0.031 A 
ATOM     57  C   UNL     1       2.486  10.506  -5.438  1.00  0.00     0.049 A 
ATOM     58  C   UNL     1      -2.298   7.649  -6.050  1.00  0.00     0.074 A 
ATOM     59  C   UNL     1       2.539  11.759  -6.020  1.00  0.00     0.029 A 
ATOM     60  N   UNL     1       1.216  10.003  -5.682  1.00  0.00    -0.354 N 
ATOM     61  N   UNL     1      -1.242   8.426  -6.005  1.00  0.00    -0.248 NA
ATOM     62  C   UNL     1      -3.478   8.270  -6.669  1.00  0.00     0.031 C 
ATOM     63  C   UNL     1       1.280  12.042  -6.559  1.00  0.00     0.029 A 
ATOM     64  C   UNL     1       0.464  10.938  -6.372  1.00  0.00     0.049 A 
ATOM     65  H   UNL     1       0.898   9.114  -5.406  1.00  0.00     0.167 HD
ATOM     66  C   UNL     1      -1.625   9.622  -6.603  1.00  0.00     0.074 A 
ATOM     67  C   UNL     1      -3.001   9.455  -7.026  1.00  0.00     0.031 C 
ATOM     68  C   UNL     1      -0.906  10.758  -6.781  1.00  0.00     0.031 A 
BRANCH  55  69
ATOM     69  C   UNL     1       4.814  10.534  -4.446  1.00  0.00    -0.014 A 
ATOM     70  C   UNL     1       6.015  10.122  -5.053  1.00  0.00     0.010 A 
ATOM     71  C   UNL     1       4.828  11.667  -3.610  1.00  0.00     0.010 A 
ATOM     72  C   UNL     1       7.209  10.800  -4.796  1.00  0.00     0.020 A 
ATOM     73  C   UNL     1       6.014  12.368  -3.377  1.00  0.00     0.020 A 
ATOM     74  C   UNL     1       7.201  11.919  -3.960  1.00  0.00     0.054 A 
BRANCH  74  75
ATOM     75  S   UNL     1       8.762  12.795  -3.671  1.00  0.00     0.124 S 
ATOM     76  O   UNL     1       9.495  11.841  -2.842  1.00  0.00    -0.237 OA
ATOM     77  O   UNL     1       9.281  12.977  -5.024  1.00  0.00    -0.237 OA
ATOM     78  O   UNL     1       8.353  14.022  -2.992  1.00  0.00    -0.744 OA
ENDBRANCH  74  75
ENDBRANCH  55  69
BRANCH  56  79
ATOM     79  C   UNL     1      -3.752   5.515  -5.700  1.00  0.00    -0.014 A 
ATOM     80  C   UNL     1      -4.223   5.137  -6.970  1.00  0.00     0.010 A 
ATOM     81  C   UNL     1      -4.522   5.196  -4.566  1.00  0.00     0.010 A 
ATOM     82  C   UNL     1      -5.444   4.469  -7.105  1.00  0.00     0.020 A 
ATOM     83  C   UNL     1      -5.727   4.499  -4.694  1.00  0.00     0.020 A 
ATOM     84  C   UNL     1      -6.186   4.150  -5.965  1.00  0.00     0.054 A 
BRANCH  84  85
ATOM     85  S   UNL     1      -7.743   3.237  -6.163  1.00  0.00     0.124 S 
ATOM     86  O   UNL     1      -8.612   4.244  -6.763  1.00  0.00    -0.237 OA
ATOM     87  O   UNL     1      -7.352   2.135  -7.038  1.00  0.00    -0.237 OA
ATOM     88  O   UNL     1      -8.088   2.846  -4.797  1.00  0.00    -0.744 OA
ENDBRANCH  84  85
ENDBRANCH  56  79
BRANCH  68  89
ATOM     89  C   UNL     1      -1.586  11.910  -7.472  1.00  0.00    -0.014 A 
ATOM     90  C   UNL     1      -2.592  12.650  -6.826  1.00  0.00     0.010 A 
ATOM     91  C   UNL     1      -1.160  12.305  -8.754  1.00  0.00     0.010 A 
ATOM     92  C   UNL     1      -3.174  13.752  -7.458  1.00  0.00     0.020 A 
ATOM     93  C   UNL     1      -1.718  13.425  -9.376  1.00  0.00     0.020 A 
ATOM     94  C   UNL     1      -2.729  14.136  -8.726  1.00  0.00     0.054 A 
BRANCH  94  95
ATOM     95  S   UNL     1      -3.459  15.608  -9.494  1.00  0.00     0.124 S 
ATOM     96  O   UNL     1      -4.808  15.149  -9.813  1.00  0.00    -0.237 OA
ATOM     97  O   UNL     1      -3.369  16.601  -8.426  1.00  0.00    -0.237 OA
ATOM     98  O   UNL     1      -2.598  15.862 -10.647  1.00  0.00    -0.744 OA
ENDBRANCH  94  95
ENDBRANCH  68  89
ENDBRANCH  42  43
ENDBRANCH  34  37
ENDBRANCH  32  33
ENDBRANCH  31  32
ENDBRANCH   1  31
TORSDOF 19
