REMARK SMILES Cn1cc(SCC[C@@H]2CCC[C@@]2([NH3+])C(=O)NCCCNC(=O)c2ccc(-c3c4nc(c(-c5ccc(S(=O)(=O)[O-])cc5)c5ccc([nH]5)c(-c5ccc(S(=O)(=O)[O-])cc5)c5nc(c(-c6ccc(S(=O)(=O)[O-])cc6)c6ccc3[nH]6)C=C5)C=C4)cc2)cn1
REMARK SMILES IDX 17 1 16 2 14 3 15 4 12 6 8 7 9 8 10 9 11 10 7 11 6 12 5 13
REMARK SMILES IDX 4 14 1 15 2 16 3 17 84 18 83 19 13 20 18 24 19 25 20 26
REMARK SMILES IDX 21 27 22 29 23 30 24 31 82 32 25 33 81 34 26 35 27 36 28 37
REMARK SMILES IDX 75 38 29 39 80 40 74 41 76 42 30 43 79 44 73 45 72 46 31 48
REMARK SMILES IDX 61 49 42 50 60 51 43 52 46 53 59 54 77 55 44 56 45 57 58 59
REMARK SMILES IDX 78 60 47 61 32 62 33 63 41 64 34 65 40 66 35 67 36 68 37 69
REMARK SMILES IDX 38 70 39 71 62 72 63 73 71 74 64 75 70 76 65 77 66 78 67 79
REMARK SMILES IDX 68 80 69 81 48 82 49 83 57 84 50 85 56 86 51 87 52 88 53 89
REMARK SMILES IDX 54 90 55 91
REMARK H PARENT 16 5 13 21 13 22 13 23 20 28 76 47 46 58
REMARK Flexibility Score: inf
ROOT
ATOM      1  C   UNL     1      -0.377  -5.546   0.156  1.00  0.00     0.118 C 
ENDROOT
BRANCH   1   2
ATOM      2  N   UNL     1      -1.218  -5.444   1.320  1.00  0.00    -0.351 N 
ATOM      3  C   UNL     1      -1.199  -4.668   2.422  1.00  0.00     0.281 C 
ATOM      4  O   UNL     1      -2.077  -4.954   3.254  1.00  0.00    -0.268 OA
ATOM      5  H   UNL     1      -1.970  -6.080   1.310  1.00  0.00     0.163 HD
BRANCH   3   6
ATOM      6  C   UNL     1      -0.204  -3.499   2.751  1.00  0.00     0.176 C 
ATOM      7  C   UNL     1       0.655  -2.741   1.701  1.00  0.00     0.061 C 
ATOM      8  C   UNL     1       0.878  -1.371   2.381  1.00  0.00     0.011 C 
ATOM      9  C   UNL     1      -0.420  -1.035   3.082  1.00  0.00     0.008 C 
ATOM     10  C   UNL     1      -1.173  -2.349   3.180  1.00  0.00     0.079 C 
BRANCH   7  11
ATOM     11  C   UNL     1       2.026  -3.335   1.292  1.00  0.00     0.022 C 
BRANCH  11  12
ATOM     12  C   UNL     1       2.422  -3.127  -0.190  1.00  0.00     0.075 C 
BRANCH  12  13
ATOM     13  S   UNL     1       2.951  -1.467  -0.716  1.00  0.00    -0.123 SA
BRANCH  13  14
ATOM     14  C   UNL     1       1.476  -0.561  -0.874  1.00  0.00     0.045 A 
ATOM     15  C   UNL     1      -2.029   0.074  -0.649  1.00  0.00     0.173 C 
ATOM     16  N   UNL     1      -0.603   0.096  -0.869  1.00  0.00    -0.275 N 
ATOM     17  C   UNL     1       0.197  -0.980  -1.144  1.00  0.00     0.123 A 
ATOM     18  N   UNL     1       0.085   1.234  -0.654  1.00  0.00    -0.181 NA
ATOM     19  C   UNL     1       1.359   0.827  -0.655  1.00  0.00     0.150 A 
ENDBRANCH  13  14
ENDBRANCH  12  13
ENDBRANCH  11  12
ENDBRANCH   7  11
BRANCH   6  20
ATOM     20  N   UNL     1       0.620  -3.935   3.898  1.00  0.00    -0.345 N 
ATOM     21  H   UNL     1       1.282  -3.198   4.142  1.00  0.00     0.345 HD
ATOM     22  H   UNL     1       1.132  -4.781   3.647  1.00  0.00     0.345 HD
ATOM     23  H   UNL     1       0.016  -4.128   4.697  1.00  0.00     0.345 HD
ENDBRANCH   6  20
ENDBRANCH   3   6
ENDBRANCH   1   2
BRANCH   1  24
ATOM     24  C   UNL     1       0.335  -6.889   0.070  1.00  0.00     0.042 C 
BRANCH  24  25
ATOM     25  C   UNL     1      -0.597  -8.063  -0.215  1.00  0.00     0.118 C 
BRANCH  25  26
ATOM     26  N   UNL     1      -1.258  -7.952  -1.510  1.00  0.00    -0.352 N 
ATOM     27  C   UNL     1      -1.294  -8.835  -2.559  1.00  0.00     0.251 C 
ATOM     28  H   UNL     1      -1.754  -7.114  -1.654  1.00  0.00     0.163 HD
ATOM     29  O   UNL     1      -1.755  -8.467  -3.640  1.00  0.00    -0.269 OA
BRANCH  27  30
ATOM     30  C   UNL     1      -0.771 -10.208  -2.405  1.00  0.00     0.039 A 
ATOM     31  C   UNL     1      -0.019 -10.768  -3.441  1.00  0.00     0.014 A 
ATOM     32  C   UNL     1      -1.032 -10.952  -1.251  1.00  0.00     0.014 A 
ATOM     33  C   UNL     1       0.526 -12.045  -3.292  1.00  0.00     0.010 A 
ATOM     34  C   UNL     1      -0.422 -12.190  -1.070  1.00  0.00     0.010 A 
ATOM     35  C   UNL     1       0.362 -12.752  -2.089  1.00  0.00    -0.014 A 
BRANCH  35  36
ATOM     36  C   UNL     1       1.004 -14.075  -1.874  1.00  0.00     0.031 A 
ATOM     37  C   UNL     1       0.159 -15.299  -1.641  1.00  0.00     0.074 A 
ATOM     38  C   UNL     1       2.348 -14.162  -1.819  1.00  0.00     0.049 A 
ATOM     39  N   UNL     1       0.536 -16.521  -1.365  1.00  0.00    -0.248 NA
ATOM     40  C   UNL     1      -1.302 -15.123  -1.703  1.00  0.00     0.031 C 
ATOM     41  C   UNL     1       3.278 -13.043  -1.993  1.00  0.00     0.029 A 
ATOM     42  N   UNL     1       3.168 -15.239  -1.593  1.00  0.00    -0.354 N 
ATOM     43  C   UNL     1      -0.634 -17.252  -1.203  1.00  0.00     0.074 A 
ATOM     44  C   UNL     1      -1.735 -16.327  -1.362  1.00  0.00     0.031 C 
ATOM     45  C   UNL     1       4.537 -13.497  -1.893  1.00  0.00     0.029 A 
ATOM     46  C   UNL     1       4.507 -14.926  -1.600  1.00  0.00     0.049 A 
ATOM     47  H   UNL     1       2.829 -16.151  -1.439  1.00  0.00     0.167 HD
ATOM     48  C   UNL     1      -0.781 -18.577  -0.963  1.00  0.00     0.031 A 
ATOM     49  C   UNL     1       5.591 -15.697  -1.383  1.00  0.00     0.031 A 
ATOM     50  C   UNL     1       0.317 -19.495  -0.810  1.00  0.00     0.049 A 
ATOM     51  C   UNL     1       5.401 -17.161  -1.094  1.00  0.00     0.074 A 
ATOM     52  C   UNL     1       0.272 -20.864  -0.616  1.00  0.00     0.029 A 
ATOM     53  N   UNL     1       1.657 -19.137  -0.829  1.00  0.00    -0.354 N 
ATOM     54  N   UNL     1       4.286 -17.847  -1.010  1.00  0.00    -0.248 NA
ATOM     55  C   UNL     1       6.617 -17.958  -0.881  1.00  0.00     0.031 C 
ATOM     56  C   UNL     1       1.582 -21.326  -0.457  1.00  0.00     0.029 A 
ATOM     57  C   UNL     1       2.447 -20.256  -0.622  1.00  0.00     0.049 A 
ATOM     58  H   UNL     1       1.997 -18.224  -0.969  1.00  0.00     0.167 HD
ATOM     59  C   UNL     1       4.668 -19.162  -0.766  1.00  0.00     0.074 A 
ATOM     60  C   UNL     1       6.116 -19.177  -0.730  1.00  0.00     0.031 C 
ATOM     61  C   UNL     1       3.889 -20.258  -0.591  1.00  0.00     0.031 A 
BRANCH  48  62
ATOM     62  C   UNL     1      -2.185 -19.114  -0.839  1.00  0.00    -0.014 A 
ATOM     63  C   UNL     1      -3.044 -19.171  -1.952  1.00  0.00     0.010 A 
ATOM     64  C   UNL     1      -2.637 -19.610   0.398  1.00  0.00     0.010 A 
ATOM     65  C   UNL     1      -4.342 -19.673  -1.821  1.00  0.00     0.020 A 
ATOM     66  C   UNL     1      -3.924 -20.143   0.526  1.00  0.00     0.020 A 
ATOM     67  C   UNL     1      -4.774 -20.154  -0.581  1.00  0.00     0.054 A 
BRANCH  67  68
ATOM     68  S   UNL     1      -6.455 -20.820  -0.448  1.00  0.00     0.124 S 
ATOM     69  O   UNL     1      -7.267 -19.610  -0.551  1.00  0.00    -0.237 OA
ATOM     70  O   UNL     1      -6.531 -21.727  -1.590  1.00  0.00    -0.237 OA
ATOM     71  O   UNL     1      -6.470 -21.469   0.861  1.00  0.00    -0.744 OA
ENDBRANCH  67  68
ENDBRANCH  48  62
BRANCH  49  72
ATOM     72  C   UNL     1       6.954 -15.098  -1.441  1.00  0.00    -0.014 A 
ATOM     73  C   UNL     1       7.836 -15.428  -2.485  1.00  0.00     0.010 A 
ATOM     74  C   UNL     1       7.373 -14.185  -0.456  1.00  0.00     0.010 A 
ATOM     75  C   UNL     1       9.118 -14.871  -2.532  1.00  0.00     0.020 A 
ATOM     76  C   UNL     1       8.642 -13.602  -0.516  1.00  0.00     0.020 A 
ATOM     77  C   UNL     1       9.511 -13.959  -1.548  1.00  0.00     0.054 A 
BRANCH  77  78
ATOM     78  S   UNL     1      11.161 -13.213  -1.659  1.00  0.00     0.124 S 
ATOM     79  O   UNL     1      12.026 -14.333  -1.303  1.00  0.00    -0.237 OA
ATOM     80  O   UNL     1      11.220 -12.785  -3.054  1.00  0.00    -0.237 OA
ATOM     81  O   UNL     1      11.110 -12.126  -0.683  1.00  0.00    -0.744 OA
ENDBRANCH  77  78
ENDBRANCH  49  72
BRANCH  61  82
ATOM     82  C   UNL     1       4.582 -21.580  -0.385  1.00  0.00    -0.014 A 
ATOM     83  C   UNL     1       5.261 -21.875   0.810  1.00  0.00     0.010 A 
ATOM     84  C   UNL     1       4.496 -22.566  -1.386  1.00  0.00     0.010 A 
ATOM     85  C   UNL     1       5.867 -23.121   0.988  1.00  0.00     0.020 A 
ATOM     86  C   UNL     1       5.073 -23.824  -1.198  1.00  0.00     0.020 A 
ATOM     87  C   UNL     1       5.766 -24.090  -0.016  1.00  0.00     0.054 A 
BRANCH  87  88
ATOM     88  S   UNL     1       6.517 -25.717   0.262  1.00  0.00     0.124 S 
ATOM     89  O   UNL     1       7.942 -25.416   0.158  1.00  0.00    -0.237 OA
ATOM     90  O   UNL     1       6.044 -26.062   1.601  1.00  0.00    -0.237 OA
ATOM     91  O   UNL     1       5.974 -26.539  -0.816  1.00  0.00    -0.744 OA
ENDBRANCH  87  88
ENDBRANCH  61  82
ENDBRANCH  35  36
ENDBRANCH  27  30
ENDBRANCH  25  26
ENDBRANCH  24  25
ENDBRANCH   1  24
TORSDOF 18
