REMARK SMILES [NH3+]CCC1=c2cc([N+](=O)[O-])ccc2=N[C@H]1C(=O)NCCCNC(=O)c1ccc(-c2c3nc(c(-c4ccc(S(=O)(=O)[O-])cc4)c4ccc([nH]4)c(-c4ccc(S(=O)(=O)[O-])cc4)c4nc(c(-c5ccc(S(=O)(=O)[O-])cc5)c5ccc2[nH]5)C=C4)C=C3)cc1
REMARK SMILES IDX 20 1 19 2 18 3 16 4 17 5 15 7 4 8 5 9 6 10 13 11 14 12 7 13
REMARK SMILES IDX 12 14 11 15 3 16 2 17 1 18 8 22 9 23 10 24 21 25 22 26 23 27
REMARK SMILES IDX 24 29 25 30 26 31 84 32 27 33 83 34 28 35 29 36 30 37 77 38
REMARK SMILES IDX 31 39 82 40 76 41 78 42 32 43 81 44 75 45 74 46 33 48 63 49
REMARK SMILES IDX 44 50 62 51 45 52 48 53 61 54 79 55 46 56 47 57 60 59 80 60
REMARK SMILES IDX 49 61 34 62 35 63 43 64 36 65 42 66 37 67 38 68 39 69 40 70
REMARK SMILES IDX 41 71 64 72 65 73 73 74 66 75 72 76 67 77 68 78 69 79 70 80
REMARK SMILES IDX 71 81 50 82 51 83 59 84 52 85 58 86 53 87 54 88 55 89 56 90
REMARK SMILES IDX 57 91
REMARK H PARENT 18 6 1 19 1 20 1 21 22 28 78 47 48 58
REMARK Flexibility Score: inf
ROOT
ATOM      1  C   UNL     1       3.171  -0.032  -0.634  1.00  0.00     0.042 C 
ENDROOT
BRANCH   1   2
ATOM      2  C   UNL     1       2.828  -1.406  -0.056  1.00  0.00     0.117 C 
BRANCH   2   3
ATOM      3  N   UNL     1       1.642  -1.400   0.788  1.00  0.00    -0.354 N 
ATOM      4  C   UNL     1       0.355  -1.821   0.639  1.00  0.00     0.249 C 
ATOM      5  O   UNL     1      -0.364  -1.679   1.639  1.00  0.00    -0.272 OA
ATOM      6  H   UNL     1       1.809  -1.000   1.672  1.00  0.00     0.163 HD
BRANCH   4   7
ATOM      7  C   UNL     1      -0.243  -2.463  -0.648  1.00  0.00     0.222 C 
ATOM      8  C   UNL     1       0.384  -2.189  -1.984  1.00  0.00    -0.021 C 
ATOM      9  C   UNL     1       0.959  -3.302  -2.451  1.00  0.00     0.009 A 
ATOM     10  C   UNL     1       1.809  -3.617  -3.560  1.00  0.00     0.096 A 
ATOM     11  C   UNL     1       0.557  -4.328  -1.474  1.00  0.00     0.067 A 
ATOM     12  N   UNL     1      -0.138  -3.946  -0.455  1.00  0.00    -0.267 NA
ATOM     13  C   UNL     1       2.233  -4.891  -3.691  1.00  0.00     0.270 A 
ATOM     14  C   UNL     1       0.965  -5.718  -1.756  1.00  0.00     0.035 A 
ATOM     15  C   UNL     1       1.762  -5.957  -2.810  1.00  0.00     0.088 A 
BRANCH   8  16
ATOM     16  C   UNL     1       0.325  -0.866  -2.696  1.00  0.00     0.096 C 
BRANCH  16  17
ATOM     17  C   UNL     1      -0.597   0.262  -2.179  1.00  0.00     0.263 C 
BRANCH  17  18
ATOM     18  N   UNL     1      -0.441   0.702  -0.802  1.00  0.00    -0.357 N 
ATOM     19  H   UNL     1      -1.111   1.445  -0.604  1.00  0.00     0.344 HD
ATOM     20  H   UNL     1       0.506   1.053  -0.662  1.00  0.00     0.344 HD
ATOM     21  H   UNL     1      -0.609  -0.083  -0.173  1.00  0.00     0.344 HD
ENDBRANCH  17  18
ENDBRANCH  16  17
ENDBRANCH   8  16
BRANCH  13  22
ATOM     22  N   UNL     1       3.243  -5.178  -4.718  1.00  0.00     0.062 N 
ATOM     23  O   UNL     1       3.754  -4.225  -5.322  1.00  0.00    -0.258 OA
ATOM     24  O   UNL     1       3.545  -6.366  -4.895  1.00  0.00    -0.258 OA
ENDBRANCH  13  22
ENDBRANCH   4   7
ENDBRANCH   2   3
ENDBRANCH   1   2
BRANCH   1  25
ATOM     25  C   UNL     1       3.366   1.072   0.397  1.00  0.00     0.118 C 
BRANCH  25  26
ATOM     26  N   UNL     1       4.674   1.014   1.024  1.00  0.00    -0.352 N 
ATOM     27  C   UNL     1       5.712   1.917   0.963  1.00  0.00     0.251 C 
ATOM     28  H   UNL     1       4.843   0.214   1.572  1.00  0.00     0.163 HD
ATOM     29  O   UNL     1       6.819   1.587   1.373  1.00  0.00    -0.269 OA
BRANCH  27  30
ATOM     30  C   UNL     1       5.505   3.265   0.378  1.00  0.00     0.039 A 
ATOM     31  C   UNL     1       4.358   4.010   0.658  1.00  0.00     0.014 A 
ATOM     32  C   UNL     1       6.487   3.798  -0.462  1.00  0.00     0.014 A 
ATOM     33  C   UNL     1       4.114   5.198  -0.029  1.00  0.00     0.010 A 
ATOM     34  C   UNL     1       6.281   5.037  -1.081  1.00  0.00     0.010 A 
ATOM     35  C   UNL     1       5.069   5.725  -0.913  1.00  0.00    -0.014 A 
BRANCH  35  36
ATOM     36  C   UNL     1       4.779   6.979  -1.665  1.00  0.00     0.031 A 
ATOM     37  C   UNL     1       4.696   6.966  -3.172  1.00  0.00     0.074 A 
ATOM     38  C   UNL     1       4.546   8.126  -0.995  1.00  0.00     0.049 A 
ATOM     39  N   UNL     1       4.444   7.957  -3.990  1.00  0.00    -0.248 NA
ATOM     40  C   UNL     1       4.926   5.680  -3.850  1.00  0.00     0.031 C 
ATOM     41  C   UNL     1       4.572   8.266   0.462  1.00  0.00     0.029 A 
ATOM     42  N   UNL     1       4.218   9.383  -1.442  1.00  0.00    -0.354 N 
ATOM     43  C   UNL     1       4.498   7.420  -5.271  1.00  0.00     0.074 A 
ATOM     44  C   UNL     1       4.849   6.024  -5.128  1.00  0.00     0.031 C 
ATOM     45  C   UNL     1       4.221   9.519   0.789  1.00  0.00     0.029 A 
ATOM     46  C   UNL     1       4.014  10.294  -0.431  1.00  0.00     0.049 A 
ATOM     47  H   UNL     1       4.137   9.611  -2.397  1.00  0.00     0.167 HD
ATOM     48  C   UNL     1       4.257   8.027  -6.457  1.00  0.00     0.031 A 
ATOM     49  C   UNL     1       3.703  11.607  -0.469  1.00  0.00     0.031 A 
ATOM     50  C   UNL     1       3.890   9.414  -6.593  1.00  0.00     0.049 A 
ATOM     51  C   UNL     1       3.488  12.273  -1.800  1.00  0.00     0.074 A 
ATOM     52  C   UNL     1       3.611  10.113  -7.755  1.00  0.00     0.029 A 
ATOM     53  N   UNL     1       3.741  10.309  -5.544  1.00  0.00    -0.354 N 
ATOM     54  N   UNL     1       3.533  11.742  -2.999  1.00  0.00    -0.248 NA
ATOM     55  C   UNL     1       3.168  13.707  -1.789  1.00  0.00     0.031 C 
ATOM     56  C   UNL     1       3.368  11.444  -7.416  1.00  0.00     0.029 A 
ATOM     57  C   UNL     1       3.399  11.558  -6.035  1.00  0.00     0.049 A 
ATOM     58  H   UNL     1       3.860  10.089  -4.591  1.00  0.00     0.167 HD
ATOM     59  C   UNL     1       3.216  12.769  -3.882  1.00  0.00     0.074 A 
ATOM     60  C   UNL     1       2.971  13.950  -3.079  1.00  0.00     0.031 C 
ATOM     61  C   UNL     1       3.137  12.730  -5.234  1.00  0.00     0.031 A 
BRANCH  48  62
ATOM     62  C   UNL     1       4.365   7.210  -7.722  1.00  0.00    -0.014 A 
ATOM     63  C   UNL     1       5.343   7.533  -8.682  1.00  0.00     0.010 A 
ATOM     64  C   UNL     1       3.417   6.215  -8.025  1.00  0.00     0.010 A 
ATOM     65  C   UNL     1       5.348   6.909  -9.932  1.00  0.00     0.020 A 
ATOM     66  C   UNL     1       3.440   5.564  -9.262  1.00  0.00     0.020 A 
ATOM     67  C   UNL     1       4.388   5.935 -10.218  1.00  0.00     0.054 A 
BRANCH  67  68
ATOM     68  S   UNL     1       4.383   5.166 -11.861  1.00  0.00     0.124 S 
ATOM     69  O   UNL     1       3.866   6.240 -12.703  1.00  0.00    -0.237 OA
ATOM     70  O   UNL     1       5.791   4.829 -12.059  1.00  0.00    -0.237 OA
ATOM     71  O   UNL     1       3.496   4.016 -11.698  1.00  0.00    -0.744 OA
ENDBRANCH  67  68
ENDBRANCH  48  62
BRANCH  49  72
ATOM     72  C   UNL     1       3.543  12.352   0.814  1.00  0.00    -0.014 A 
ATOM     73  C   UNL     1       4.642  12.529   1.677  1.00  0.00     0.010 A 
ATOM     74  C   UNL     1       2.277  12.805   1.224  1.00  0.00     0.010 A 
ATOM     75  C   UNL     1       4.466  13.077   2.950  1.00  0.00     0.020 A 
ATOM     76  C   UNL     1       2.104  13.389   2.484  1.00  0.00     0.020 A 
ATOM     77  C   UNL     1       3.194  13.489   3.351  1.00  0.00     0.054 A 
BRANCH  77  78
ATOM     78  S   UNL     1       2.979  14.129   5.035  1.00  0.00     0.124 S 
ATOM     79  O   UNL     1       3.090  12.911   5.834  1.00  0.00    -0.237 OA
ATOM     80  O   UNL     1       4.091  15.068   5.162  1.00  0.00    -0.237 OA
ATOM     81  O   UNL     1       1.652  14.738   5.005  1.00  0.00    -0.744 OA
ENDBRANCH  77  78
ENDBRANCH  49  72
BRANCH  61  82
ATOM     82  C   UNL     1       2.738  13.984  -5.973  1.00  0.00    -0.014 A 
ATOM     83  C   UNL     1       1.535  13.999  -6.707  1.00  0.00     0.010 A 
ATOM     84  C   UNL     1       3.611  15.081  -6.074  1.00  0.00     0.010 A 
ATOM     85  C   UNL     1       1.237  15.060  -7.565  1.00  0.00     0.020 A 
ATOM     86  C   UNL     1       3.299  16.162  -6.905  1.00  0.00     0.020 A 
ATOM     87  C   UNL     1       2.129  16.130  -7.668  1.00  0.00     0.054 A 
BRANCH  87  88
ATOM     88  S   UNL     1       1.751  17.470  -8.830  1.00  0.00     0.124 S 
ATOM     89  O   UNL     1       2.029  16.846 -10.120  1.00  0.00    -0.237 OA
ATOM     90  O   UNL     1       0.343  17.746  -8.554  1.00  0.00    -0.237 OA
ATOM     91  O   UNL     1       2.674  18.534  -8.440  1.00  0.00    -0.744 OA
ENDBRANCH  87  88
ENDBRANCH  61  82
ENDBRANCH  35  36
ENDBRANCH  27  30
ENDBRANCH  25  26
ENDBRANCH   1  25
TORSDOF 17
