REMARK SMILES COc1ccc([C@H]2[C@@H](C(=O)NCCCNC(=O)c3ccc(-c4c5nc(c(-c6ccc(S(=O)(=O)[O-])cc6)c6ccc([nH]6)c(-c6ccc(S(=O)(=O)[O-])cc6)c6nc(c(-c7ccc(S(=O)(=O)[O-])cc7)c7ccc4[nH]7)C=C6)C=C5)cc3)CC(=O)N2Cc2ccccc2)cc1
REMARK SMILES IDX 13 1 12 2 11 3 9 4 10 5 8 7 7 8 81 9 78 10 79 11 80 12 6 13
REMARK SMILES IDX 3 14 4 15 90 16 5 17 89 18 2 19 1 20 82 21 83 22 84 23 88 24
REMARK SMILES IDX 85 25 87 26 86 27 14 28 15 29 16 30 17 32 18 33 19 34 77 35
REMARK SMILES IDX 20 36 76 37 21 38 22 39 23 40 70 41 24 42 75 43 69 44 71 45
REMARK SMILES IDX 25 46 74 47 68 48 67 49 26 51 56 52 37 53 55 54 38 55 41 56
REMARK SMILES IDX 54 57 72 58 39 59 40 60 53 62 73 63 42 64 27 65 28 66 36 67
REMARK SMILES IDX 29 68 35 69 30 70 31 71 32 72 33 73 34 74 57 75 58 76 66 77
REMARK SMILES IDX 59 78 65 79 60 80 61 81 62 82 63 83 64 84 43 85 44 86 52 87
REMARK SMILES IDX 45 88 51 89 46 90 47 91 48 92 49 93 50 94
REMARK H PARENT 11 6 15 31 71 50 41 61
REMARK Flexibility Score: inf
ROOT
ATOM      1  C   UNL     1       1.881  -4.977 -10.073  1.00  0.00     0.042 C 
ENDROOT
BRANCH   1   2
ATOM      2  C   UNL     1       1.635  -4.360  -8.719  1.00  0.00     0.117 C 
BRANCH   2   3
ATOM      3  N   UNL     1       2.232  -5.053  -7.596  1.00  0.00    -0.356 N 
ATOM      4  C   UNL     1       2.563  -4.551  -6.376  1.00  0.00     0.226 C 
ATOM      5  O   UNL     1       2.663  -5.356  -5.444  1.00  0.00    -0.275 OA
ATOM      6  H   UNL     1       2.421  -6.010  -7.734  1.00  0.00     0.163 HD
BRANCH   4   7
ATOM      7  C   UNL     1       2.841  -3.080  -6.123  1.00  0.00     0.115 C 
ATOM      8  C   UNL     1       1.667  -2.095  -5.972  1.00  0.00     0.128 C 
ATOM      9  N   UNL     1       2.259  -0.823  -6.388  1.00  0.00    -0.330 N 
ATOM     10  C   UNL     1       3.832  -2.435  -7.088  1.00  0.00     0.116 C 
ATOM     11  C   UNL     1       3.465  -0.978  -7.051  1.00  0.00     0.224 C 
ATOM     12  O   UNL     1       4.158  -0.084  -7.510  1.00  0.00    -0.275 OA
BRANCH   8  13
ATOM     13  C   UNL     1       0.363  -2.446  -6.665  1.00  0.00    -0.024 A 
ATOM     14  C   UNL     1      -2.047  -3.191  -7.955  1.00  0.00     0.118 A 
ATOM     15  C   UNL     1      -1.698  -3.746  -6.721  1.00  0.00     0.047 A 
ATOM     16  C   UNL     1      -1.211  -2.242  -8.531  1.00  0.00     0.047 A 
ATOM     17  C   UNL     1      -0.510  -3.376  -6.078  1.00  0.00     0.010 A 
ATOM     18  C   UNL     1      -0.014  -1.888  -7.901  1.00  0.00     0.010 A 
BRANCH  14  19
ATOM     19  O   UNL     1      -3.209  -3.661  -8.500  1.00  0.00    -0.497 OA
ATOM     20  C   UNL     1      -3.446  -3.325  -9.866  1.00  0.00     0.278 C 
ENDBRANCH  14  19
ENDBRANCH   8  13
BRANCH   9  21
ATOM     21  C   UNL     1       1.789   0.488  -5.939  1.00  0.00     0.155 C 
BRANCH  21  22
ATOM     22  C   UNL     1       0.405   0.859  -6.407  1.00  0.00    -0.029 A 
ATOM     23  C   UNL     1       0.221   1.522  -7.631  1.00  0.00     0.005 A 
ATOM     24  C   UNL     1      -0.725   0.455  -5.679  1.00  0.00     0.005 A 
ATOM     25  C   UNL     1      -1.065   1.733  -8.135  1.00  0.00     0.000 A 
ATOM     26  C   UNL     1      -2.007   0.650  -6.194  1.00  0.00     0.000 A 
ATOM     27  C   UNL     1      -2.177   1.283  -7.424  1.00  0.00     0.000 A 
ENDBRANCH  21  22
ENDBRANCH   9  21
ENDBRANCH   4   7
ENDBRANCH   2   3
ENDBRANCH   1   2
BRANCH   1  28
ATOM     28  C   UNL     1       1.118  -6.277 -10.266  1.00  0.00     0.118 C 
BRANCH  28  29
ATOM     29  N   UNL     1      -0.340  -6.125 -10.257  1.00  0.00    -0.352 N 
ATOM     30  C   UNL     1      -1.263  -6.298 -11.264  1.00  0.00     0.251 C 
ATOM     31  H   UNL     1      -0.721  -5.855  -9.390  1.00  0.00     0.163 HD
ATOM     32  O   UNL     1      -2.453  -6.067 -11.073  1.00  0.00    -0.269 OA
BRANCH  30  33
ATOM     33  C   UNL     1      -0.808  -6.714 -12.601  1.00  0.00     0.039 A 
ATOM     34  C   UNL     1      -1.240  -6.002 -13.723  1.00  0.00     0.014 A 
ATOM     35  C   UNL     1       0.102  -7.760 -12.732  1.00  0.00     0.014 A 
ATOM     36  C   UNL     1      -0.665  -6.270 -14.965  1.00  0.00     0.010 A 
ATOM     37  C   UNL     1       0.767  -7.931 -13.935  1.00  0.00     0.010 A 
ATOM     38  C   UNL     1       0.388  -7.193 -15.066  1.00  0.00    -0.014 A 
BRANCH  38  39
ATOM     39  C   UNL     1       1.108  -7.435 -16.339  1.00  0.00     0.031 A 
ATOM     40  C   UNL     1       1.137  -8.826 -16.912  1.00  0.00     0.074 A 
ATOM     41  C   UNL     1       1.816  -6.442 -16.914  1.00  0.00     0.049 A 
ATOM     42  N   UNL     1       1.833  -9.291 -17.916  1.00  0.00    -0.248 NA
ATOM     43  C   UNL     1       0.306  -9.840 -16.238  1.00  0.00     0.031 C 
ATOM     44  C   UNL     1       1.901  -5.061 -16.427  1.00  0.00     0.029 A 
ATOM     45  N   UNL     1       2.612  -6.445 -18.031  1.00  0.00    -0.354 N 
ATOM     46  C   UNL     1       1.552 -10.651 -17.967  1.00  0.00     0.074 A 
ATOM     47  C   UNL     1       0.673 -10.949 -16.860  1.00  0.00     0.031 C 
ATOM     48  C   UNL     1       2.676  -4.347 -17.259  1.00  0.00     0.029 A 
ATOM     49  C   UNL     1       3.188  -5.226 -18.305  1.00  0.00     0.049 A 
ATOM     50  H   UNL     1       2.759  -7.245 -18.585  1.00  0.00     0.167 HD
ATOM     51  C   UNL     1       1.966 -11.568 -18.872  1.00  0.00     0.031 A 
ATOM     52  C   UNL     1       4.040  -4.861 -19.282  1.00  0.00     0.031 A 
ATOM     53  C   UNL     1       2.812 -11.255 -19.991  1.00  0.00     0.049 A 
ATOM     54  C   UNL     1       4.486  -5.897 -20.278  1.00  0.00     0.074 A 
ATOM     55  C   UNL     1       3.240 -12.092 -21.005  1.00  0.00     0.029 A 
ATOM     56  N   UNL     1       3.350 -10.003 -20.247  1.00  0.00    -0.354 N 
ATOM     57  N   UNL     1       4.167  -7.168 -20.343  1.00  0.00    -0.248 NA
ATOM     58  C   UNL     1       5.401  -5.448 -21.337  1.00  0.00     0.031 C 
ATOM     59  C   UNL     1       4.078 -11.356 -21.849  1.00  0.00     0.029 A 
ATOM     60  C   UNL     1       4.123 -10.047 -21.393  1.00  0.00     0.049 A 
ATOM     61  H   UNL     1       3.203  -9.201 -19.695  1.00  0.00     0.167 HD
ATOM     62  C   UNL     1       4.821  -7.665 -21.465  1.00  0.00     0.074 A 
ATOM     63  C   UNL     1       5.541  -6.554 -22.055  1.00  0.00     0.031 C 
ATOM     64  C   UNL     1       4.826  -8.926 -21.963  1.00  0.00     0.031 A 
BRANCH  51  65
ATOM     65  C   UNL     1       1.503 -12.988 -18.686  1.00  0.00    -0.014 A 
ATOM     66  C   UNL     1       0.152 -13.341 -18.862  1.00  0.00     0.010 A 
ATOM     67  C   UNL     1       2.433 -13.989 -18.352  1.00  0.00     0.010 A 
ATOM     68  C   UNL     1      -0.268 -14.658 -18.663  1.00  0.00     0.020 A 
ATOM     69  C   UNL     1       2.022 -15.315 -18.184  1.00  0.00     0.020 A 
ATOM     70  C   UNL     1       0.670 -15.636 -18.323  1.00  0.00     0.054 A 
BRANCH  70  71
ATOM     71  S   UNL     1       0.099 -17.342 -18.096  1.00  0.00     0.124 S 
ATOM     72  O   UNL     1      -0.608 -17.255 -16.820  1.00  0.00    -0.237 OA
ATOM     73  O   UNL     1      -0.746 -17.556 -19.267  1.00  0.00    -0.237 OA
ATOM     74  O   UNL     1       1.334 -18.122 -18.071  1.00  0.00    -0.744 OA
ENDBRANCH  70  71
ENDBRANCH  51  65
BRANCH  52  75
ATOM     75  C   UNL     1       4.512  -3.452 -19.376  1.00  0.00    -0.014 A 
ATOM     76  C   UNL     1       4.071  -2.624 -20.424  1.00  0.00     0.010 A 
ATOM     77  C   UNL     1       5.392  -2.923 -18.413  1.00  0.00     0.010 A 
ATOM     78  C   UNL     1       4.514  -1.302 -20.518  1.00  0.00     0.020 A 
ATOM     79  C   UNL     1       5.815  -1.593 -18.489  1.00  0.00     0.020 A 
ATOM     80  C   UNL     1       5.382  -0.793 -19.549  1.00  0.00     0.054 A 
BRANCH  80  81
ATOM     81  S   UNL     1       5.903   0.941 -19.666  1.00  0.00     0.124 S 
ATOM     82  O   UNL     1       6.834   0.904 -20.788  1.00  0.00    -0.237 OA
ATOM     83  O   UNL     1       4.640   1.633 -19.913  1.00  0.00    -0.237 OA
ATOM     84  O   UNL     1       6.504   1.206 -18.360  1.00  0.00    -0.744 OA
ENDBRANCH  80  81
ENDBRANCH  52  75
BRANCH  64  85
ATOM     85  C   UNL     1       5.605  -9.169 -23.226  1.00  0.00    -0.014 A 
ATOM     86  C   UNL     1       7.010  -9.200 -23.220  1.00  0.00     0.010 A 
ATOM     87  C   UNL     1       4.914  -9.443 -24.421  1.00  0.00     0.010 A 
ATOM     88  C   UNL     1       7.712  -9.479 -24.395  1.00  0.00     0.020 A 
ATOM     89  C   UNL     1       5.613  -9.751 -25.590  1.00  0.00     0.020 A 
ATOM     90  C   UNL     1       7.009  -9.756 -25.572  1.00  0.00     0.054 A 
BRANCH  90  91
ATOM     91  S   UNL     1       7.944 -10.175 -27.068  1.00  0.00     0.124 S 
ATOM     92  O   UNL     1       8.494  -8.878 -27.454  1.00  0.00    -0.237 OA
ATOM     93  O   UNL     1       8.915 -11.149 -26.576  1.00  0.00    -0.237 OA
ATOM     94  O   UNL     1       6.930 -10.716 -27.971  1.00  0.00    -0.744 OA
ENDBRANCH  90  91
ENDBRANCH  64  85
ENDBRANCH  38  39
ENDBRANCH  30  33
ENDBRANCH  28  29
ENDBRANCH   1  28
TORSDOF 17
