REMARK SMILES [NH3+][C@@H](Cc1ccc(F)cc1C(F)(F)F)C(=O)NCCCNC(=O)c1ccc(-c2c3nc(c(-c4ccc(S(=O)(=O)[O-])cc4)c4ccc([nH]4)c(-c4ccc(S(=O)(=O)[O-])cc4)c4nc(c(-c5ccc(S(=O)(=O)[O-])cc5)c5ccc2[nH]5)C=C4)C=C3)cc1
REMARK SMILES IDX 19 1 18 2 17 3 15 4 16 5 2 7 1 8 3 12 4 13 5 14 10 15 6 16
REMARK SMILES IDX 9 17 7 18 8 19 11 20 12 21 13 22 14 23 20 24 21 25 22 26
REMARK SMILES IDX 23 28 24 29 25 30 83 31 26 32 82 33 27 34 28 35 29 36 76 37
REMARK SMILES IDX 30 38 81 39 75 40 77 41 31 42 80 43 74 44 73 45 32 47 62 48
REMARK SMILES IDX 43 49 61 50 44 51 47 52 60 53 78 54 45 55 46 56 59 58 79 59
REMARK SMILES IDX 48 60 33 61 34 62 42 63 35 64 41 65 36 66 37 67 38 68 39 69
REMARK SMILES IDX 40 70 63 71 64 72 72 73 65 74 71 75 66 76 67 77 68 78 69 79
REMARK SMILES IDX 70 80 49 81 50 82 58 83 51 84 57 85 52 86 53 87 54 88 55 89
REMARK SMILES IDX 56 90
REMARK H PARENT 17 6 1 9 1 10 1 11 21 27 77 46 47 57
REMARK Flexibility Score: inf
ROOT
ATOM      1  C   UNL     1      -2.247  -2.417   0.218  1.00  0.00     0.042 C 
ENDROOT
BRANCH   1   2
ATOM      2  C   UNL     1      -2.119  -2.049  -1.260  1.00  0.00     0.118 C 
BRANCH   2   3
ATOM      3  N   UNL     1      -2.096  -0.615  -1.464  1.00  0.00    -0.351 N 
ATOM      4  C   UNL     1      -1.156   0.306  -1.773  1.00  0.00     0.278 C 
ATOM      5  O   UNL     1      -1.618   1.452  -1.905  1.00  0.00    -0.268 OA
ATOM      6  H   UNL     1      -2.986  -0.210  -1.349  1.00  0.00     0.163 HD
BRANCH   4   7
ATOM      7  C   UNL     1       0.381   0.095  -1.949  1.00  0.00     0.275 C 
BRANCH   7   8
ATOM      8  N   UNL     1       1.129   0.979  -1.030  1.00  0.00    -0.347 N 
ATOM      9  H   UNL     1       2.131   0.831  -1.155  1.00  0.00     0.345 HD
ATOM     10  H   UNL     1       0.872   0.763  -0.066  1.00  0.00     0.345 HD
ATOM     11  H   UNL     1       0.901   1.952  -1.233  1.00  0.00     0.345 HD
ENDBRANCH   7   8
BRANCH   7  12
ATOM     12  C   UNL     1       1.078  -1.246  -2.241  1.00  0.00     0.111 C 
BRANCH  12  13
ATOM     13  C   UNL     1       1.159  -2.498  -1.379  1.00  0.00    -0.029 A 
ATOM     14  C   UNL     1       1.260  -3.700  -2.136  1.00  0.00     0.007 A 
ATOM     15  C   UNL     1       1.174  -2.605   0.030  1.00  0.00     0.062 A 
ATOM     16  C   UNL     1       1.262  -4.958  -1.541  1.00  0.00     0.039 A 
ATOM     17  C   UNL     1       1.161  -3.898   0.612  1.00  0.00     0.052 A 
ATOM     18  C   UNL     1       1.187  -5.046  -0.168  1.00  0.00     0.123 A 
ATOM     19  F   UNL     1       1.151  -6.248   0.418  1.00  0.00    -0.207 F 
BRANCH  15  20
ATOM     20  C   UNL     1       1.227  -1.438   0.989  1.00  0.00     0.416 C 
ATOM     21  F   UNL     1       0.183  -0.580   0.844  1.00  0.00    -0.166 F 
ATOM     22  F   UNL     1       1.201  -1.804   2.300  1.00  0.00    -0.166 F 
ATOM     23  F   UNL     1       2.357  -0.695   0.835  1.00  0.00    -0.166 F 
ENDBRANCH  15  20
ENDBRANCH  12  13
ENDBRANCH   7  12
ENDBRANCH   4   7
ENDBRANCH   2   3
ENDBRANCH   1   2
BRANCH   1  24
ATOM     24  C   UNL     1      -3.679  -2.701   0.664  1.00  0.00     0.118 C 
BRANCH  24  25
ATOM     25  N   UNL     1      -4.123  -4.025   0.249  1.00  0.00    -0.352 N 
ATOM     26  C   UNL     1      -4.411  -5.157   0.974  1.00  0.00     0.251 C 
ATOM     27  H   UNL     1      -4.237  -4.127  -0.723  1.00  0.00     0.163 HD
ATOM     28  O   UNL     1      -4.546  -6.217   0.362  1.00  0.00    -0.269 OA
BRANCH  26  29
ATOM     29  C   UNL     1      -4.557  -5.145   2.454  1.00  0.00     0.039 A 
ATOM     30  C   UNL     1      -4.202  -6.295   3.172  1.00  0.00     0.014 A 
ATOM     31  C   UNL     1      -5.118  -4.067   3.141  1.00  0.00     0.014 A 
ATOM     32  C   UNL     1      -4.374  -6.347   4.562  1.00  0.00     0.010 A 
ATOM     33  C   UNL     1      -5.204  -4.085   4.535  1.00  0.00     0.010 A 
ATOM     34  C   UNL     1      -4.856  -5.232   5.263  1.00  0.00    -0.014 A 
BRANCH  34  35
ATOM     35  C   UNL     1      -5.051  -5.256   6.741  1.00  0.00     0.031 A 
ATOM     36  C   UNL     1      -6.427  -5.042   7.326  1.00  0.00     0.074 A 
ATOM     37  C   UNL     1      -3.995  -5.404   7.567  1.00  0.00     0.049 A 
ATOM     38  N   UNL     1      -6.784  -4.905   8.579  1.00  0.00    -0.248 NA
ATOM     39  C   UNL     1      -7.544  -4.934   6.373  1.00  0.00     0.031 C 
ATOM     40  C   UNL     1      -2.605  -5.587   7.145  1.00  0.00     0.029 A 
ATOM     41  N   UNL     1      -3.927  -5.413   8.940  1.00  0.00    -0.354 N 
ATOM     42  C   UNL     1      -8.152  -4.651   8.560  1.00  0.00     0.074 A 
ATOM     43  C   UNL     1      -8.553  -4.616   7.170  1.00  0.00     0.031 C 
ATOM     44  C   UNL     1      -1.827  -5.716   8.233  1.00  0.00     0.029 A 
ATOM     45  C   UNL     1      -2.653  -5.583   9.429  1.00  0.00     0.049 A 
ATOM     46  H   UNL     1      -4.716  -5.308   9.518  1.00  0.00     0.167 HD
ATOM     47  C   UNL     1      -9.003  -4.480   9.600  1.00  0.00     0.031 A 
ATOM     48  C   UNL     1      -2.195  -5.622  10.697  1.00  0.00     0.031 A 
ATOM     49  C   UNL     1      -8.617  -4.563  10.983  1.00  0.00     0.049 A 
ATOM     50  C   UNL     1      -3.164  -5.468  11.837  1.00  0.00     0.074 A 
ATOM     51  C   UNL     1      -9.418  -4.468  12.108  1.00  0.00     0.029 A 
ATOM     52  N   UNL     1      -7.323  -4.778  11.431  1.00  0.00    -0.354 N 
ATOM     53  N   UNL     1      -4.459  -5.265  11.796  1.00  0.00    -0.248 NA
ATOM     54  C   UNL     1      -2.610  -5.561  13.196  1.00  0.00     0.031 C 
ATOM     55  C   UNL     1      -8.602  -4.594  13.238  1.00  0.00     0.029 A 
ATOM     56  C   UNL     1      -7.301  -4.811  12.815  1.00  0.00     0.049 A 
ATOM     57  H   UNL     1      -6.536  -4.890  10.851  1.00  0.00     0.167 HD
ATOM     58  C   UNL     1      -4.878  -5.228  13.121  1.00  0.00     0.074 A 
ATOM     59  C   UNL     1      -3.702  -5.444  13.940  1.00  0.00     0.031 C 
ATOM     60  C   UNL     1      -6.125  -5.033  13.616  1.00  0.00     0.031 A 
BRANCH  47  61
ATOM     61  C   UNL     1     -10.445  -4.183   9.277  1.00  0.00    -0.014 A 
ATOM     62  C   UNL     1     -11.286  -5.169   8.728  1.00  0.00     0.010 A 
ATOM     63  C   UNL     1     -10.974  -2.908   9.547  1.00  0.00     0.010 A 
ATOM     64  C   UNL     1     -12.612  -4.870   8.406  1.00  0.00     0.020 A 
ATOM     65  C   UNL     1     -12.309  -2.613   9.253  1.00  0.00     0.020 A 
ATOM     66  C   UNL     1     -13.113  -3.590   8.663  1.00  0.00     0.054 A 
BRANCH  66  67
ATOM     67  S   UNL     1     -14.840  -3.228   8.239  1.00  0.00     0.124 S 
ATOM     68  O   UNL     1     -14.766  -3.075   6.788  1.00  0.00    -0.237 OA
ATOM     69  O   UNL     1     -15.544  -4.419   8.709  1.00  0.00    -0.237 OA
ATOM     70  O   UNL     1     -15.129  -2.004   8.982  1.00  0.00    -0.744 OA
ENDBRANCH  66  67
ENDBRANCH  47  61
BRANCH  48  71
ATOM     71  C   UNL     1      -0.746  -5.838  10.955  1.00  0.00    -0.014 A 
ATOM     72  C   UNL     1      -0.290  -7.074  11.449  1.00  0.00     0.010 A 
ATOM     73  C   UNL     1       0.189  -4.820  10.691  1.00  0.00     0.010 A 
ATOM     74  C   UNL     1       1.071  -7.284  11.687  1.00  0.00     0.020 A 
ATOM     75  C   UNL     1       1.554  -5.035  10.905  1.00  0.00     0.020 A 
ATOM     76  C   UNL     1       1.985  -6.263  11.411  1.00  0.00     0.054 A 
BRANCH  76  77
ATOM     77  S   UNL     1       3.754  -6.579  11.667  1.00  0.00     0.124 S 
ATOM     78  O   UNL     1       3.873  -6.479  13.117  1.00  0.00    -0.237 OA
ATOM     79  O   UNL     1       3.922  -7.917  11.107  1.00  0.00    -0.237 OA
ATOM     80  O   UNL     1       4.403  -5.510  10.909  1.00  0.00    -0.744 OA
ENDBRANCH  76  77
ENDBRANCH  48  71
BRANCH  60  81
ATOM     81  C   UNL     1      -6.293  -5.077  15.110  1.00  0.00    -0.014 A 
ATOM     82  C   UNL     1      -5.869  -4.011  15.921  1.00  0.00     0.010 A 
ATOM     83  C   UNL     1      -6.937  -6.179  15.702  1.00  0.00     0.010 A 
ATOM     84  C   UNL     1      -6.063  -4.057  17.304  1.00  0.00     0.020 A 
ATOM     85  C   UNL     1      -7.153  -6.218  17.082  1.00  0.00     0.020 A 
ATOM     86  C   UNL     1      -6.703  -5.162  17.876  1.00  0.00     0.054 A 
BRANCH  86  87
ATOM     87  S   UNL     1      -6.987  -5.178  19.668  1.00  0.00     0.124 S 
ATOM     88  O   UNL     1      -5.660  -5.505  20.183  1.00  0.00    -0.237 OA
ATOM     89  O   UNL     1      -7.448  -3.818  19.935  1.00  0.00    -0.237 OA
ATOM     90  O   UNL     1      -7.999  -6.217  19.847  1.00  0.00    -0.744 OA
ENDBRANCH  86  87
ENDBRANCH  60  81
ENDBRANCH  34  35
ENDBRANCH  26  29
ENDBRANCH  24  25
ENDBRANCH   1  24
TORSDOF 17
