REMARK SMILES O=C(NCCCNC(=O)c1ccc(-c2c3nc(c(-c4ccc(S(=O)(=O)[O-])cc4)c4ccc([nH]4)c(-c4ccc(S(=O)(=O)[O-])cc4)c4nc(c(-c5ccc(S(=O)(=O)[O-])cc5)c5ccc2[nH]5)C=C4)C=C3)cc1)C1=Cc2cc(C(F)(F)F)ccc2O[C@@H]1C(F)(F)F
REMARK SMILES IDX 6 1 5 2 4 3 3 4 1 5 2 6 70 8 71 9 83 10 72 11 82 12 73 13
REMARK SMILES IDX 81 14 74 15 80 16 79 17 84 18 85 19 86 20 87 21 75 22 76 23
REMARK SMILES IDX 77 24 78 25 7 26 8 27 9 29 10 30 11 31 69 32 12 33 68 34
REMARK SMILES IDX 13 35 14 36 15 37 62 38 16 39 67 40 61 41 63 42 17 43 66 44
REMARK SMILES IDX 60 45 59 46 18 48 48 49 29 50 47 51 30 52 33 53 46 54 64 55
REMARK SMILES IDX 31 56 32 57 45 59 65 60 34 61 19 62 20 63 28 64 21 65 27 66
REMARK SMILES IDX 22 67 23 68 24 69 25 70 26 71 49 72 50 73 58 74 51 75 57 76
REMARK SMILES IDX 52 77 53 78 54 79 55 80 56 81 35 82 36 83 44 84 37 85 43 86
REMARK SMILES IDX 38 87 39 88 40 89 41 90 42 91
REMARK H PARENT 3 7 7 28 63 47 33 58
REMARK Flexibility Score: inf
ROOT
ATOM      1  C   UNL     1       3.910   2.940   2.897  1.00  0.00     0.118 C 
ENDROOT
BRANCH   1   2
ATOM      2  C   UNL     1       4.061   2.472   1.454  1.00  0.00     0.042 C 
BRANCH   2   3
ATOM      3  C   UNL     1       3.342   1.155   1.190  1.00  0.00     0.118 C 
BRANCH   3   4
ATOM      4  N   UNL     1       2.340   1.239   0.125  1.00  0.00    -0.352 N 
ATOM      5  O   UNL     1       1.138   0.503  -1.654  1.00  0.00    -0.270 OA
ATOM      6  C   UNL     1       2.163   0.453  -0.989  1.00  0.00     0.251 C 
ATOM      7  H   UNL     1       1.692   1.974   0.221  1.00  0.00     0.163 HD
BRANCH   6   8
ATOM      8  C   UNL     1       3.228  -0.517  -1.304  1.00  0.00     0.067 C 
ATOM      9  C   UNL     1       4.421  -0.024  -1.660  1.00  0.00     0.025 C 
ATOM     10  C   UNL     1       3.036  -1.923  -0.828  1.00  0.00     0.314 C 
ATOM     11  C   UNL     1       5.524  -0.616  -0.892  1.00  0.00     0.018 A 
ATOM     12  O   UNL     1       4.085  -2.355   0.074  1.00  0.00    -0.475 OA
ATOM     13  C   UNL     1       6.676   0.163  -0.744  1.00  0.00     0.025 A 
ATOM     14  C   UNL     1       5.266  -1.654   0.023  1.00  0.00     0.128 A 
ATOM     15  C   UNL     1       7.502  -0.000   0.379  1.00  0.00     0.056 A 
ATOM     16  C   UNL     1       6.129  -1.875   1.095  1.00  0.00     0.048 A 
ATOM     17  C   UNL     1       7.224  -1.032   1.289  1.00  0.00     0.017 A 
BRANCH  10  18
ATOM     18  C   UNL     1       2.907  -2.899  -2.007  1.00  0.00     0.429 C 
ATOM     19  F   UNL     1       2.583  -4.143  -1.574  1.00  0.00    -0.167 F 
ATOM     20  F   UNL     1       1.935  -2.525  -2.872  1.00  0.00    -0.167 F 
ATOM     21  F   UNL     1       4.055  -3.011  -2.715  1.00  0.00    -0.167 F 
ENDBRANCH  10  18
BRANCH  15  22
ATOM     22  C   UNL     1       8.619   0.985   0.633  1.00  0.00     0.416 C 
ATOM     23  F   UNL     1       9.726   0.708  -0.102  1.00  0.00    -0.166 F 
ATOM     24  F   UNL     1       8.259   2.262   0.322  1.00  0.00    -0.166 F 
ATOM     25  F   UNL     1       9.018   1.019   1.934  1.00  0.00    -0.166 F 
ENDBRANCH  15  22
ENDBRANCH   6   8
ENDBRANCH   3   4
ENDBRANCH   2   3
ENDBRANCH   1   2
BRANCH   1  26
ATOM     26  N   UNL     1       4.574   2.079   3.872  1.00  0.00    -0.352 N 
ATOM     27  C   UNL     1       5.508   2.371   4.849  1.00  0.00     0.251 C 
ATOM     28  H   UNL     1       4.313   1.131   3.825  1.00  0.00     0.163 HD
ATOM     29  O   UNL     1       5.994   1.464   5.502  1.00  0.00    -0.269 OA
BRANCH  27  30
ATOM     30  C   UNL     1       5.949   3.772   5.070  1.00  0.00     0.039 A 
ATOM     31  C   UNL     1       7.300   4.030   5.318  1.00  0.00     0.014 A 
ATOM     32  C   UNL     1       5.046   4.830   5.001  1.00  0.00     0.014 A 
ATOM     33  C   UNL     1       7.755   5.353   5.384  1.00  0.00     0.010 A 
ATOM     34  C   UNL     1       5.517   6.135   4.932  1.00  0.00     0.010 A 
ATOM     35  C   UNL     1       6.877   6.418   5.126  1.00  0.00    -0.014 A 
BRANCH  35  36
ATOM     36  C   UNL     1       7.336   7.832   5.056  1.00  0.00     0.031 A 
ATOM     37  C   UNL     1       6.693   8.874   5.938  1.00  0.00     0.074 A 
ATOM     38  C   UNL     1       8.247   8.203   4.133  1.00  0.00     0.049 A 
ATOM     39  N   UNL     1       6.837  10.175   5.922  1.00  0.00    -0.248 NA
ATOM     40  C   UNL     1       5.719   8.394   6.934  1.00  0.00     0.031 C 
ATOM     41  C   UNL     1       8.902   7.309   3.173  1.00  0.00     0.029 A 
ATOM     42  N   UNL     1       8.773   9.437   3.841  1.00  0.00    -0.354 N 
ATOM     43  C   UNL     1       5.941  10.665   6.867  1.00  0.00     0.074 A 
ATOM     44  C   UNL     1       5.217   9.530   7.392  1.00  0.00     0.031 C 
ATOM     45  C   UNL     1       9.771   8.016   2.432  1.00  0.00     0.029 A 
ATOM     46  C   UNL     1       9.700   9.419   2.824  1.00  0.00     0.049 A 
ATOM     47  H   UNL     1       8.511  10.259   4.315  1.00  0.00     0.167 HD
ATOM     48  C   UNL     1       5.756  11.940   7.284  1.00  0.00     0.031 A 
ATOM     49  C   UNL     1      10.410  10.418   2.265  1.00  0.00     0.031 A 
ATOM     50  C   UNL     1       6.517  13.059   6.801  1.00  0.00     0.049 A 
ATOM     51  C   UNL     1      10.222  11.820   2.773  1.00  0.00     0.074 A 
ATOM     52  C   UNL     1       6.468  14.378   7.216  1.00  0.00     0.029 A 
ATOM     53  N   UNL     1       7.478  12.987   5.803  1.00  0.00    -0.354 N 
ATOM     54  N   UNL     1       9.411  12.255   3.709  1.00  0.00    -0.248 NA
ATOM     55  C   UNL     1      11.050  12.866   2.158  1.00  0.00     0.031 C 
ATOM     56  C   UNL     1       7.375  15.111   6.442  1.00  0.00     0.029 A 
ATOM     57  C   UNL     1       8.021  14.240   5.579  1.00  0.00     0.049 A 
ATOM     58  H   UNL     1       7.735  12.166   5.325  1.00  0.00     0.167 HD
ATOM     59  C   UNL     1       9.647  13.621   3.809  1.00  0.00     0.074 A 
ATOM     60  C   UNL     1      10.688  13.937   2.852  1.00  0.00     0.031 C 
ATOM     61  C   UNL     1       9.056  14.532   4.621  1.00  0.00     0.031 A 
BRANCH  48  62
ATOM     62  C   UNL     1       4.694  12.181   8.325  1.00  0.00    -0.014 A 
ATOM     63  C   UNL     1       4.845  11.708   9.642  1.00  0.00     0.010 A 
ATOM     64  C   UNL     1       3.532  12.899   7.988  1.00  0.00     0.010 A 
ATOM     65  C   UNL     1       3.829  11.893  10.583  1.00  0.00     0.020 A 
ATOM     66  C   UNL     1       2.527  13.115   8.937  1.00  0.00     0.020 A 
ATOM     67  C   UNL     1       2.673  12.589  10.222  1.00  0.00     0.054 A 
BRANCH  67  68
ATOM     68  S   UNL     1       1.372  12.817  11.465  1.00  0.00     0.124 S 
ATOM     69  O   UNL     1       0.772  11.486  11.518  1.00  0.00    -0.237 OA
ATOM     70  O   UNL     1       2.126  13.213  12.652  1.00  0.00    -0.237 OA
ATOM     71  O   UNL     1       0.524  13.860  10.892  1.00  0.00    -0.744 OA
ENDBRANCH  67  68
ENDBRANCH  48  62
BRANCH  49  72
ATOM     72  C   UNL     1      11.390  10.120   1.184  1.00  0.00    -0.014 A 
ATOM     73  C   UNL     1      12.771  10.179   1.446  1.00  0.00     0.010 A 
ATOM     74  C   UNL     1      10.954   9.754  -0.102  1.00  0.00     0.010 A 
ATOM     75  C   UNL     1      13.697   9.891   0.439  1.00  0.00     0.020 A 
ATOM     76  C   UNL     1      11.877   9.440  -1.104  1.00  0.00     0.020 A 
ATOM     77  C   UNL     1      13.244   9.520  -0.830  1.00  0.00     0.054 A 
BRANCH  77  78
ATOM     78  S   UNL     1      14.464   9.092  -2.103  1.00  0.00     0.124 S 
ATOM     79  O   UNL     1      14.988  10.403  -2.474  1.00  0.00    -0.237 OA
ATOM     80  O   UNL     1      15.387   8.223  -1.378  1.00  0.00    -0.237 OA
ATOM     81  O   UNL     1      13.666   8.423  -3.128  1.00  0.00    -0.744 OA
ENDBRANCH  77  78
ENDBRANCH  49  72
BRANCH  61  82
ATOM     82  C   UNL     1       9.539  15.954   4.530  1.00  0.00    -0.014 A 
ATOM     83  C   UNL     1       9.201  16.766   3.434  1.00  0.00     0.010 A 
ATOM     84  C   UNL     1      10.291  16.499   5.586  1.00  0.00     0.010 A 
ATOM     85  C   UNL     1       9.630  18.094   3.383  1.00  0.00     0.020 A 
ATOM     86  C   UNL     1      10.699  17.834   5.551  1.00  0.00     0.020 A 
ATOM     87  C   UNL     1      10.377  18.620   4.443  1.00  0.00     0.054 A 
BRANCH  87  88
ATOM     88  S   UNL     1      10.880  20.361   4.377  1.00  0.00     0.124 S 
ATOM     89  O   UNL     1      11.966  20.326   3.401  1.00  0.00    -0.237 OA
ATOM     90  O   UNL     1       9.659  21.032   3.935  1.00  0.00    -0.237 OA
ATOM     91  O   UNL     1      11.283  20.657   5.750  1.00  0.00    -0.744 OA
ENDBRANCH  87  88
ENDBRANCH  61  82
ENDBRANCH  35  36
ENDBRANCH  27  30
ENDBRANCH   1  26
TORSDOF 15
