REMARK SMILES O=C(COc1ccccc1/C=C1/SC(=O)N(c2ccc(F)cc2)C1=O)NCCCNC(=O)c1ccc(-c2c3nc(c(-c4ccc(S(=O)(=O)[O-])cc4)c4ccc([nH]4)c(-c4ccc(S(=O)(=O)[O-])cc4)c4nc(c(-c5ccc(S(=O)(=O)[O-])cc5)c5ccc2[nH]5)C=C4)C=C3)cc1
REMARK SMILES IDX 27 1 26 2 1 3 2 4 3 6 4 7 5 8 6 9 10 10 7 11 9 12 8 13 11 14
REMARK SMILES IDX 12 15 13 16 24 17 14 18 16 19 25 20 15 21 17 22 18 23 23 24
REMARK SMILES IDX 19 25 22 26 20 27 21 28 28 29 29 30 30 31 31 32 32 34 33 35
REMARK SMILES IDX 34 36 92 37 35 38 91 39 36 40 37 41 38 42 85 43 39 44 90 45
REMARK SMILES IDX 84 46 86 47 40 48 89 49 83 50 82 51 41 53 71 54 52 55 70 56
REMARK SMILES IDX 53 57 56 58 69 59 87 60 54 61 55 62 68 64 88 65 57 66 42 67
REMARK SMILES IDX 43 68 51 69 44 70 50 71 45 72 46 73 47 74 48 75 49 76 72 77
REMARK SMILES IDX 73 78 81 79 74 80 80 81 75 82 76 83 77 84 78 85 79 86 58 87
REMARK SMILES IDX 59 88 67 89 60 90 66 91 61 92 62 93 63 94 64 95 65 96
REMARK H PARENT 26 5 30 33 86 52 56 63
REMARK Flexibility Score: inf
ROOT
ATOM      1  C   UNL     1       2.628   2.616  -0.045  1.00  0.00     0.117 C 
ENDROOT
BRANCH   1   2
ATOM      2  N   UNL     1       3.232   0.604  -0.006  1.00  0.00    -0.353 N 
ATOM      3  O   UNL     1       2.395  -1.282   1.351  1.00  0.00    -0.271 OA
ATOM      4  C   UNL     1       3.026  -0.818   0.407  1.00  0.00     0.257 C 
ATOM      5  H   UNL     1       4.074   0.592  -0.516  1.00  0.00     0.163 HD
BRANCH   4   6
ATOM      6  C   UNL     1       3.703  -1.794  -0.555  1.00  0.00     0.329 C 
BRANCH   6   7
ATOM      7  O   UNL     1       4.046  -1.202  -1.791  1.00  0.00    -0.483 OA
BRANCH   7   8
ATOM      8  C   UNL     1       3.124  -1.302  -2.810  1.00  0.00     0.127 A 
ATOM      9  C   UNL     1       3.682  -1.853  -3.969  1.00  0.00     0.047 A 
ATOM     10  C   UNL     1       1.849  -0.678  -2.854  1.00  0.00     0.018 A 
ATOM     11  C   UNL     1       3.029  -1.739  -5.190  1.00  0.00     0.004 A 
ATOM     12  C   UNL     1       1.223  -0.548  -4.103  1.00  0.00     0.012 A 
ATOM     13  C   UNL     1       1.817  -1.057  -5.262  1.00  0.00     0.001 A 
BRANCH  10  14
ATOM     14  C   UNL     1       1.157  -0.055  -1.711  1.00  0.00     0.033 C 
ATOM     15  C   UNL     1       1.700   1.026  -1.118  1.00  0.00     0.084 C 
ATOM     16  S   UNL     1       1.473   1.167   1.146  1.00  0.00    -0.022 SA
ATOM     17  C   UNL     1       3.478   1.630  -1.683  1.00  0.00     0.272 C 
ATOM     18  C   UNL     1       3.749   1.695   1.413  1.00  0.00     0.298 C 
ATOM     19  N   UNL     1       4.496   1.960  -0.218  1.00  0.00    -0.236 N 
ATOM     20  O   UNL     1       3.792   1.801  -2.854  1.00  0.00    -0.268 OA
ATOM     21  O   UNL     1       4.248   1.681   2.531  1.00  0.00    -0.260 OA
BRANCH  19  22
ATOM     22  C   UNL     1       5.865   2.327  -0.421  1.00  0.00     0.053 A 
ATOM     23  C   UNL     1       6.261   2.867  -1.659  1.00  0.00     0.030 A 
ATOM     24  C   UNL     1       6.839   2.141   0.562  1.00  0.00     0.030 A 
ATOM     25  C   UNL     1       7.593   3.181  -1.930  1.00  0.00     0.041 A 
ATOM     26  C   UNL     1       8.183   2.443   0.284  1.00  0.00     0.041 A 
ATOM     27  C   UNL     1       8.548   2.953  -0.958  1.00  0.00     0.123 A 
ATOM     28  F   UNL     1       9.832   3.222  -1.222  1.00  0.00    -0.207 F 
ENDBRANCH  19  22
ENDBRANCH  10  14
ENDBRANCH   7   8
ENDBRANCH   6   7
ENDBRANCH   4   6
ENDBRANCH   1   2
BRANCH   1  29
ATOM     29  C   UNL     1       2.511   3.786   1.201  1.00  0.00     0.042 C 
BRANCH  29  30
ATOM     30  C   UNL     1       3.730   4.615   1.591  1.00  0.00     0.118 C 
BRANCH  30  31
ATOM     31  N   UNL     1       4.478   5.192   0.498  1.00  0.00    -0.352 N 
ATOM     32  C   UNL     1       5.529   6.074   0.621  1.00  0.00     0.251 C 
ATOM     33  H   UNL     1       4.214   4.933  -0.414  1.00  0.00     0.163 HD
ATOM     34  O   UNL     1       6.051   6.565  -0.373  1.00  0.00    -0.269 OA
BRANCH  32  35
ATOM     35  C   UNL     1       5.943   6.483   1.979  1.00  0.00     0.039 A 
ATOM     36  C   UNL     1       5.846   7.833   2.317  1.00  0.00     0.014 A 
ATOM     37  C   UNL     1       6.327   5.535   2.932  1.00  0.00     0.014 A 
ATOM     38  C   UNL     1       6.110   8.230   3.625  1.00  0.00     0.010 A 
ATOM     39  C   UNL     1       6.507   5.923   4.256  1.00  0.00     0.010 A 
ATOM     40  C   UNL     1       6.427   7.278   4.608  1.00  0.00    -0.014 A 
BRANCH  40  41
ATOM     41  C   UNL     1       6.742   7.715   5.989  1.00  0.00     0.031 A 
ATOM     42  C   UNL     1       8.144   7.561   6.513  1.00  0.00     0.074 A 
ATOM     43  C   UNL     1       5.778   8.266   6.752  1.00  0.00     0.049 A 
ATOM     44  N   UNL     1       8.647   7.964   7.651  1.00  0.00    -0.248 NA
ATOM     45  C   UNL     1       9.104   6.847   5.654  1.00  0.00     0.031 C 
ATOM     46  C   UNL     1       4.375   8.423   6.360  1.00  0.00     0.029 A 
ATOM     47  N   UNL     1       5.835   8.814   8.008  1.00  0.00    -0.354 N 
ATOM     48  C   UNL     1       9.975   7.551   7.642  1.00  0.00     0.074 A 
ATOM     49  C   UNL     1      10.183   6.810   6.420  1.00  0.00     0.031 C 
ATOM     50  C   UNL     1       3.716   9.070   7.336  1.00  0.00     0.029 A 
ATOM     51  C   UNL     1       4.640   9.348   8.431  1.00  0.00     0.049 A 
ATOM     52  H   UNL     1       6.653   8.825   8.555  1.00  0.00     0.167 HD
ATOM     53  C   UNL     1      10.943   7.793   8.557  1.00  0.00     0.031 A 
ATOM     54  C   UNL     1       4.331  10.002   9.568  1.00  0.00     0.031 A 
ATOM     55  C   UNL     1      10.723   8.533   9.770  1.00  0.00     0.049 A 
ATOM     56  C   UNL     1       5.424  10.260  10.570  1.00  0.00     0.074 A 
ATOM     57  C   UNL     1      11.636   8.871  10.752  1.00  0.00     0.029 A 
ATOM     58  N   UNL     1       9.497   9.049  10.167  1.00  0.00    -0.354 N 
ATOM     59  N   UNL     1       6.691   9.921  10.514  1.00  0.00    -0.248 NA
ATOM     60  C   UNL     1       5.051  11.010  11.776  1.00  0.00     0.031 C 
ATOM     61  C   UNL     1      10.951   9.543  11.770  1.00  0.00     0.029 A 
ATOM     62  C   UNL     1       9.626   9.686  11.389  1.00  0.00     0.049 A 
ATOM     63  H   UNL     1       8.660   8.973   9.654  1.00  0.00     0.167 HD
ATOM     64  C   UNL     1       7.274  10.444  11.663  1.00  0.00     0.074 A 
ATOM     65  C   UNL     1       6.224  11.139  12.381  1.00  0.00     0.031 C 
ATOM     66  C   UNL     1       8.561  10.362  12.087  1.00  0.00     0.031 A 
BRANCH  53  67
ATOM     67  C   UNL     1      12.318   7.243   8.276  1.00  0.00    -0.014 A 
ATOM     68  C   UNL     1      13.103   7.744   7.220  1.00  0.00     0.010 A 
ATOM     69  C   UNL     1      12.842   6.223   9.090  1.00  0.00     0.010 A 
ATOM     70  C   UNL     1      14.365   7.205   6.956  1.00  0.00     0.020 A 
ATOM     71  C   UNL     1      14.118   5.703   8.849  1.00  0.00     0.020 A 
ATOM     72  C   UNL     1      14.864   6.186   7.773  1.00  0.00     0.054 A 
BRANCH  72  73
ATOM     73  S   UNL     1      16.515   5.522   7.422  1.00  0.00     0.124 S 
ATOM     74  O   UNL     1      16.282   4.765   6.195  1.00  0.00    -0.237 OA
ATOM     75  O   UNL     1      17.320   6.732   7.270  1.00  0.00    -0.237 OA
ATOM     76  O   UNL     1      16.824   4.716   8.601  1.00  0.00    -0.744 OA
ENDBRANCH  72  73
ENDBRANCH  53  67
BRANCH  54  77
ATOM     77  C   UNL     1       2.940  10.485   9.800  1.00  0.00    -0.014 A 
ATOM     78  C   UNL     1       2.645  11.860   9.804  1.00  0.00     0.010 A 
ATOM     79  C   UNL     1       1.896   9.565  10.009  1.00  0.00     0.010 A 
ATOM     80  C   UNL     1       1.339  12.306  10.037  1.00  0.00     0.020 A 
ATOM     81  C   UNL     1       0.585  10.006  10.211  1.00  0.00     0.020 A 
ATOM     82  C   UNL     1       0.317  11.375  10.236  1.00  0.00     0.054 A 
BRANCH  82  83
ATOM     83  S   UNL     1      -1.377  11.975  10.490  1.00  0.00     0.124 S 
ATOM     84  O   UNL     1      -1.304  12.532  11.837  1.00  0.00    -0.237 OA
ATOM     85  O   UNL     1      -1.533  12.946   9.410  1.00  0.00    -0.237 OA
ATOM     86  O   UNL     1      -2.191  10.768  10.354  1.00  0.00    -0.744 OA
ENDBRANCH  82  83
ENDBRANCH  54  77
BRANCH  66  87
ATOM     87  C   UNL     1       8.907  11.077  13.367  1.00  0.00    -0.014 A 
ATOM     88  C   UNL     1       8.431  10.628  14.611  1.00  0.00     0.010 A 
ATOM     89  C   UNL     1       9.746  12.205  13.320  1.00  0.00     0.010 A 
ATOM     90  C   UNL     1       8.740  11.329  15.779  1.00  0.00     0.020 A 
ATOM     91  C   UNL     1      10.086  12.888  14.489  1.00  0.00     0.020 A 
ATOM     92  C   UNL     1       9.561  12.459  15.709  1.00  0.00     0.054 A 
BRANCH  92  93
ATOM     93  S   UNL     1       9.952  13.351  17.238  1.00  0.00     0.124 S 
ATOM     94  O   UNL     1       8.691  14.030  17.522  1.00  0.00    -0.237 OA
ATOM     95  O   UNL     1      10.306  12.271  18.157  1.00  0.00    -0.237 OA
ATOM     96  O   UNL     1      11.059  14.225  16.857  1.00  0.00    -0.744 OA
ENDBRANCH  92  93
ENDBRANCH  66  87
ENDBRANCH  40  41
ENDBRANCH  32  35
ENDBRANCH  30  31
ENDBRANCH  29  30
ENDBRANCH   1  29
TORSDOF 17
