REMARK SMILES CC(C)c1cc(N2CCC(C(=O)NCCCNC(=O)c3ccc(-c4c5nc(c(-c6ccc(S(=O)(=O)[O-])cc6)c6ccc([nH]6)c(-c6ccc(S(=O)(=O)[O-])cc6)c6nc(c(-c7ccc(S(=O)(=O)[O-])cc7)c7ccc4[nH]7)C=C6)C=C5)cc3)CC2)nc(-c2ccc(F)cc2)n1
REMARK SMILES IDX 15 1 14 2 13 3 11 4 12 5 10 7 7 8 8 9 81 10 9 11 80 12 6 13
REMARK SMILES IDX 4 14 5 15 91 16 83 17 82 18 2 19 1 20 3 21 84 22 85 23 90 24
REMARK SMILES IDX 86 25 89 26 87 27 88 28 16 29 17 30 18 31 19 33 20 34 21 35
REMARK SMILES IDX 79 36 22 37 78 38 23 39 24 40 25 41 72 42 26 43 77 44 71 45
REMARK SMILES IDX 73 46 27 47 76 48 70 49 69 50 28 52 58 53 39 54 57 55 40 56
REMARK SMILES IDX 43 57 56 58 74 59 41 60 42 61 55 63 75 64 44 65 29 66 30 67
REMARK SMILES IDX 38 68 31 69 37 70 32 71 33 72 34 73 35 74 36 75 59 76 60 77
REMARK SMILES IDX 68 78 61 79 67 80 62 81 63 82 64 83 65 84 66 85 45 86 46 87
REMARK SMILES IDX 54 88 47 89 53 90 48 91 49 92 50 93 51 94 52 95
REMARK H PARENT 13 6 17 32 73 51 43 62
REMARK Flexibility Score: inf
ROOT
ATOM      1  C   UNL     1      -8.276  -2.299   1.030  1.00  0.00     0.042 C 
ENDROOT
BRANCH   1   2
ATOM      2  C   UNL     1      -7.571  -3.418   1.787  1.00  0.00     0.117 C 
BRANCH   2   3
ATOM      3  N   UNL     1      -7.980  -4.749   1.350  1.00  0.00    -0.356 N 
ATOM      4  C   UNL     1      -7.273  -5.754   0.760  1.00  0.00     0.223 C 
ATOM      5  O   UNL     1      -7.862  -6.814   0.528  1.00  0.00    -0.275 OA
ATOM      6  H   UNL     1      -8.929  -4.956   1.507  1.00  0.00     0.163 HD
BRANCH   4   7
ATOM      7  C   UNL     1      -5.803  -5.599   0.398  1.00  0.00     0.082 C 
ATOM      8  N   UNL     1      -3.722  -3.717   0.532  1.00  0.00    -0.356 N 
ATOM      9  C   UNL     1      -4.217  -4.003  -0.803  1.00  0.00     0.119 C 
ATOM     10  C   UNL     1      -3.562  -4.846   1.422  1.00  0.00     0.119 C 
ATOM     11  C   UNL     1      -5.637  -4.520  -0.684  1.00  0.00     0.035 C 
ATOM     12  C   UNL     1      -4.935  -5.466   1.667  1.00  0.00     0.035 C 
BRANCH   8  13
ATOM     13  C   UNL     1      -2.983  -2.564   0.662  1.00  0.00     0.132 A 
ATOM     14  C   UNL     1      -0.942  -1.379   0.722  1.00  0.00     0.049 A 
ATOM     15  C   UNL     1      -1.604  -2.593   0.708  1.00  0.00     0.071 A 
ATOM     16  N   UNL     1      -1.606  -0.210   0.742  1.00  0.00    -0.233 NA
ATOM     17  C   UNL     1      -2.948  -0.273   0.715  1.00  0.00     0.161 A 
ATOM     18  N   UNL     1      -3.666  -1.407   0.674  1.00  0.00    -0.211 NA
BRANCH  14  19
ATOM     19  C   UNL     1       0.572  -1.332   0.743  1.00  0.00     0.032 C 
ATOM     20  C   UNL     1       1.121  -0.131  -0.032  1.00  0.00     0.014 C 
ATOM     21  C   UNL     1       1.079  -1.318   2.185  1.00  0.00     0.014 C 
ENDBRANCH  14  19
BRANCH  17  22
ATOM     22  C   UNL     1      -3.674   0.999   0.777  1.00  0.00     0.019 A 
ATOM     23  C   UNL     1      -3.436   2.018  -0.166  1.00  0.00     0.015 A 
ATOM     24  C   UNL     1      -4.605   1.246   1.803  1.00  0.00     0.015 A 
ATOM     25  C   UNL     1      -4.104   3.244  -0.087  1.00  0.00     0.040 A 
ATOM     26  C   UNL     1      -5.259   2.478   1.894  1.00  0.00     0.040 A 
ATOM     27  C   UNL     1      -5.003   3.464   0.948  1.00  0.00     0.123 A 
ATOM     28  F   UNL     1      -5.633   4.642   1.046  1.00  0.00    -0.207 F 
ENDBRANCH  17  22
ENDBRANCH   8  13
ENDBRANCH   4   7
ENDBRANCH   2   3
ENDBRANCH   1   2
BRANCH   1  29
ATOM     29  C   UNL     1      -9.786  -2.264   1.222  1.00  0.00     0.118 C 
BRANCH  29  30
ATOM     30  N   UNL     1     -10.177  -1.983   2.598  1.00  0.00    -0.352 N 
ATOM     31  C   UNL     1     -10.776  -0.872   3.142  1.00  0.00     0.251 C 
ATOM     32  H   UNL     1      -9.979  -2.703   3.240  1.00  0.00     0.163 HD
ATOM     33  O   UNL     1     -10.847  -0.759   4.364  1.00  0.00    -0.269 OA
BRANCH  31  34
ATOM     34  C   UNL     1     -11.307   0.197   2.268  1.00  0.00     0.039 A 
ATOM     35  C   UNL     1     -11.040   1.530   2.591  1.00  0.00     0.014 A 
ATOM     36  C   UNL     1     -12.062  -0.109   1.133  1.00  0.00     0.014 A 
ATOM     37  C   UNL     1     -11.440   2.548   1.721  1.00  0.00     0.010 A 
ATOM     38  C   UNL     1     -12.391   0.897   0.229  1.00  0.00     0.010 A 
ATOM     39  C   UNL     1     -12.067   2.234   0.504  1.00  0.00    -0.014 A 
BRANCH  39  40
ATOM     40  C   UNL     1     -12.338   3.274  -0.522  1.00  0.00     0.031 A 
ATOM     41  C   UNL     1     -13.748   3.572  -0.954  1.00  0.00     0.074 A 
ATOM     42  C   UNL     1     -11.301   3.881  -1.135  1.00  0.00     0.049 A 
ATOM     43  N   UNL     1     -14.167   4.359  -1.911  1.00  0.00    -0.248 NA
ATOM     44  C   UNL     1     -14.826   2.880  -0.229  1.00  0.00     0.031 C 
ATOM     45  C   UNL     1      -9.886   3.657  -0.828  1.00  0.00     0.029 A 
ATOM     46  N   UNL     1     -11.275   4.798  -2.156  1.00  0.00    -0.354 N 
ATOM     47  C   UNL     1     -15.552   4.247  -1.915  1.00  0.00     0.074 A 
ATOM     48  C   UNL     1     -15.900   3.284  -0.893  1.00  0.00     0.031 C 
ATOM     49  C   UNL     1      -9.133   4.427  -1.628  1.00  0.00     0.029 A 
ATOM     50  C   UNL     1     -10.004   5.156  -2.544  1.00  0.00     0.049 A 
ATOM     51  H   UNL     1     -12.088   5.166  -2.572  1.00  0.00     0.167 HD
ATOM     52  C   UNL     1     -16.452   4.897  -2.692  1.00  0.00     0.031 A 
ATOM     53  C   UNL     1      -9.582   5.958  -3.541  1.00  0.00     0.031 A 
ATOM     54  C   UNL     1     -16.099   5.853  -3.709  1.00  0.00     0.049 A 
ATOM     55  C   UNL     1     -10.599   6.627  -4.424  1.00  0.00     0.074 A 
ATOM     56  C   UNL     1     -16.940   6.606  -4.509  1.00  0.00     0.029 A 
ATOM     57  N   UNL     1     -14.802   6.178  -4.077  1.00  0.00    -0.354 N 
ATOM     58  N   UNL     1     -11.908   6.565  -4.365  1.00  0.00    -0.248 NA
ATOM     59  C   UNL     1     -10.084   7.475  -5.508  1.00  0.00     0.031 C 
ATOM     60  C   UNL     1     -16.153   7.337  -5.404  1.00  0.00     0.029 A 
ATOM     61  C   UNL     1     -14.820   7.089  -5.120  1.00  0.00     0.049 A 
ATOM     62  H   UNL     1     -13.988   5.815  -3.658  1.00  0.00     0.167 HD
ATOM     63  C   UNL     1     -12.372   7.377  -5.393  1.00  0.00     0.074 A 
ATOM     64  C   UNL     1     -11.206   7.936  -6.045  1.00  0.00     0.031 C 
ATOM     65  C   UNL     1     -13.651   7.632  -5.765  1.00  0.00     0.031 A 
BRANCH  52  66
ATOM     66  C   UNL     1     -17.912   4.586  -2.483  1.00  0.00    -0.014 A 
ATOM     67  C   UNL     1     -18.583   4.992  -1.316  1.00  0.00     0.010 A 
ATOM     68  C   UNL     1     -18.637   3.923  -3.491  1.00  0.00     0.010 A 
ATOM     69  C   UNL     1     -19.941   4.707  -1.143  1.00  0.00     0.020 A 
ATOM     70  C   UNL     1     -20.001   3.662  -3.335  1.00  0.00     0.020 A 
ATOM     71  C   UNL     1     -20.641   4.042  -2.154  1.00  0.00     0.054 A 
BRANCH  71  72
ATOM     72  S   UNL     1     -22.407   3.707  -1.911  1.00  0.00     0.124 S 
ATOM     73  O   UNL     1     -22.378   2.663  -0.889  1.00  0.00    -0.237 OA
ATOM     74  O   UNL     1     -22.920   5.002  -1.470  1.00  0.00    -0.237 OA
ATOM     75  O   UNL     1     -22.864   3.274  -3.229  1.00  0.00    -0.744 OA
ENDBRANCH  71  72
ENDBRANCH  52  66
BRANCH  53  76
ATOM     76  C   UNL     1      -8.123   6.154  -3.768  1.00  0.00    -0.014 A 
ATOM     77  C   UNL     1      -7.518   7.394  -3.501  1.00  0.00     0.010 A 
ATOM     78  C   UNL     1      -7.326   5.092  -4.234  1.00  0.00     0.010 A 
ATOM     79  C   UNL     1      -6.146   7.573  -3.708  1.00  0.00     0.020 A 
ATOM     80  C   UNL     1      -5.950   5.258  -4.414  1.00  0.00     0.020 A 
ATOM     81  C   UNL     1      -5.370   6.501  -4.160  1.00  0.00     0.054 A 
BRANCH  81  82
ATOM     82  S   UNL     1      -3.583   6.737  -4.364  1.00  0.00     0.124 S 
ATOM     83  O   UNL     1      -3.520   7.558  -5.568  1.00  0.00    -0.237 OA
ATOM     84  O   UNL     1      -3.208   7.404  -3.120  1.00  0.00    -0.237 OA
ATOM     85  O   UNL     1      -3.073   5.374  -4.506  1.00  0.00    -0.744 OA
ENDBRANCH  81  82
ENDBRANCH  53  76
BRANCH  65  86
ATOM     86  C   UNL     1     -13.865   8.566  -6.927  1.00  0.00    -0.014 A 
ATOM     87  C   UNL     1     -13.589   8.158  -8.244  1.00  0.00     0.010 A 
ATOM     88  C   UNL     1     -14.425   9.838  -6.707  1.00  0.00     0.010 A 
ATOM     89  C   UNL     1     -13.857   9.010  -9.319  1.00  0.00     0.020 A 
ATOM     90  C   UNL     1     -14.721  10.681  -7.781  1.00  0.00     0.020 A 
ATOM     91  C   UNL     1     -14.428  10.264  -9.081  1.00  0.00     0.054 A 
BRANCH  91  92
ATOM     92  S   UNL     1     -14.834  11.318 -10.500  1.00  0.00     0.124 S 
ATOM     93  O   UNL     1     -13.512  11.733 -10.960  1.00  0.00    -0.237 OA
ATOM     94  O   UNL     1     -15.547  10.401 -11.385  1.00  0.00    -0.237 OA
ATOM     95  O   UNL     1     -15.654  12.380  -9.921  1.00  0.00    -0.744 OA
ENDBRANCH  91  92
ENDBRANCH  65  86
ENDBRANCH  39  40
ENDBRANCH  31  34
ENDBRANCH  29  30
ENDBRANCH   1  29
TORSDOF 16
