REMARK SMILES O=C(CCCNC(=O)COc1ccc2c3c(c(=O)oc2c1)CCC3)NCCCNC(=O)c1ccc(-c2c3nc(c(-c4ccc(S(=O)(=O)[O-])cc4)c4ccc([nH]4)c(-c4ccc(S(=O)(=O)[O-])cc4)c4nc(c(-c5ccc(S(=O)(=O)[O-])cc5)c5ccc2[nH]5)C=C4)C=C3)cc1
REMARK SMILES IDX 1 1 2 2 25 3 3 5 4 6 5 7 6 8 7 9 8 11 9 12 10 13 11 14 12 15
REMARK SMILES IDX 21 16 13 17 20 18 14 19 19 20 15 21 17 22 16 23 24 24 18 25
REMARK SMILES IDX 22 26 23 27 26 28 27 29 28 30 29 31 30 32 31 34 32 35 33 36
REMARK SMILES IDX 91 37 34 38 90 39 35 40 36 41 37 42 84 43 38 44 89 45 83 46
REMARK SMILES IDX 85 47 39 48 88 49 82 50 81 51 40 53 70 54 51 55 69 56 52 57
REMARK SMILES IDX 55 58 68 59 86 60 53 61 54 62 67 64 87 65 56 66 41 67 42 68
REMARK SMILES IDX 50 69 43 70 49 71 44 72 45 73 46 74 47 75 48 76 71 77 72 78
REMARK SMILES IDX 80 79 73 80 79 81 74 82 75 83 76 84 77 85 78 86 57 87 58 88
REMARK SMILES IDX 66 89 59 90 65 91 60 92 61 93 62 94 63 95 64 96
REMARK H PARENT 25 4 6 10 29 33 85 52 55 63
REMARK Flexibility Score: inf
ROOT
ATOM      1  O   UNL     1       0.974  -0.516  -0.369  1.00  0.00    -0.275 OA
ATOM      2  C   UNL     1       2.128  -0.172  -0.142  1.00  0.00     0.220 C 
ATOM      3  N   UNL     1       2.721   0.944  -0.683  1.00  0.00    -0.356 N 
ATOM      4  H   UNL     1       3.634   1.174  -0.395  1.00  0.00     0.163 HD
ENDROOT
BRANCH   2   5
ATOM      5  C   UNL     1       3.057  -0.981   0.740  1.00  0.00     0.102 C 
BRANCH   5   6
ATOM      6  C   UNL     1       3.949  -1.926  -0.071  1.00  0.00     0.031 C 
BRANCH   6   7
ATOM      7  C   UNL     1       4.962  -1.247  -0.996  1.00  0.00     0.116 C 
BRANCH   7   8
ATOM      8  N   UNL     1       5.853  -0.346  -0.288  1.00  0.00    -0.353 N 
ATOM      9  C   UNL     1       7.212  -0.368  -0.206  1.00  0.00     0.257 C 
ATOM     10  H   UNL     1       5.412   0.384   0.204  1.00  0.00     0.163 HD
ATOM     11  O   UNL     1       7.763   0.578   0.361  1.00  0.00    -0.271 OA
BRANCH   9  12
ATOM     12  C   UNL     1       8.017  -1.530  -0.791  1.00  0.00     0.329 C 
BRANCH  12  13
ATOM     13  O   UNL     1       7.563  -2.861  -0.594  1.00  0.00    -0.484 OA
BRANCH  13  14
ATOM     14  C   UNL     1       7.663  -3.386   0.663  1.00  0.00     0.123 A 
ATOM     15  C   UNL     1       7.832  -4.774   0.711  1.00  0.00     0.047 A 
ATOM     16  C   UNL     1       7.530  -2.675   1.851  1.00  0.00     0.094 A 
ATOM     17  C   UNL     1       7.884  -5.453   1.936  1.00  0.00     0.016 A 
ATOM     18  C   UNL     1       7.560  -3.362   3.062  1.00  0.00     0.142 A 
ATOM     19  C   UNL     1       7.738  -4.746   3.128  1.00  0.00     0.021 A 
ATOM     20  O   UNL     1       7.380  -2.585   4.232  1.00  0.00    -0.422 OA
ATOM     21  C   UNL     1       7.754  -5.351   4.442  1.00  0.00    -0.027 A 
ATOM     22  C   UNL     1       7.384  -3.153   5.503  1.00  0.00     0.339 A 
ATOM     23  C   UNL     1       7.596  -4.601   5.535  1.00  0.00     0.042 A 
ATOM     24  C   UNL     1       7.934  -6.789   4.778  1.00  0.00     0.037 C 
ATOM     25  O   UNL     1       7.213  -2.500   6.521  1.00  0.00    -0.246 OA
ATOM     26  C   UNL     1       7.652  -5.399   6.786  1.00  0.00     0.044 C 
ATOM     27  C   UNL     1       7.507  -6.828   6.252  1.00  0.00     0.010 C 
ENDBRANCH  13  14
ENDBRANCH  12  13
ENDBRANCH   9  12
ENDBRANCH   7   8
ENDBRANCH   6   7
ENDBRANCH   5   6
ENDBRANCH   2   5
BRANCH   3  28
ATOM     28  C   UNL     1       2.071   1.797  -1.656  1.00  0.00     0.117 C 
BRANCH  28  29
ATOM     29  C   UNL     1       2.405   3.268  -1.439  1.00  0.00     0.042 C 
BRANCH  29  30
ATOM     30  C   UNL     1       3.886   3.620  -1.549  1.00  0.00     0.118 C 
BRANCH  30  31
ATOM     31  N   UNL     1       4.432   3.423  -2.881  1.00  0.00    -0.352 N 
ATOM     32  C   UNL     1       5.152   4.290  -3.670  1.00  0.00     0.251 C 
ATOM     33  H   UNL     1       4.260   2.539  -3.278  1.00  0.00     0.163 HD
ATOM     34  O   UNL     1       5.405   3.972  -4.830  1.00  0.00    -0.269 OA
BRANCH  32  35
ATOM     35  C   UNL     1       5.597   5.604  -3.147  1.00  0.00     0.039 A 
ATOM     36  C   UNL     1       5.510   6.721  -3.983  1.00  0.00     0.014 A 
ATOM     37  C   UNL     1       6.123   5.743  -1.860  1.00  0.00     0.014 A 
ATOM     38  C   UNL     1       5.907   7.977  -3.515  1.00  0.00     0.010 A 
ATOM     39  C   UNL     1       6.436   7.009  -1.365  1.00  0.00     0.010 A 
ATOM     40  C   UNL     1       6.352   8.139  -2.192  1.00  0.00    -0.014 A 
BRANCH  40  41
ATOM     41  C   UNL     1       6.766   9.474  -1.681  1.00  0.00     0.031 A 
ATOM     42  C   UNL     1       8.190   9.710  -1.243  1.00  0.00     0.074 A 
ATOM     43  C   UNL     1       5.862  10.470  -1.581  1.00  0.00     0.049 A 
ATOM     44  N   UNL     1       8.738  10.801  -0.768  1.00  0.00    -0.248 NA
ATOM     45  C   UNL     1       9.115   8.568  -1.330  1.00  0.00     0.031 C 
ATOM     46  C   UNL     1       4.444  10.366  -1.935  1.00  0.00     0.029 A 
ATOM     47  N   UNL     1       6.002  11.769  -1.157  1.00  0.00    -0.354 N 
ATOM     48  C   UNL     1      10.060  10.472  -0.488  1.00  0.00     0.074 A 
ATOM     49  C   UNL     1      10.217   9.067  -0.790  1.00  0.00     0.031 C 
ATOM     50  C   UNL     1       3.855  11.558  -1.746  1.00  0.00     0.029 A 
ATOM     51  C   UNL     1       4.838  12.501  -1.222  1.00  0.00     0.049 A 
ATOM     52  H   UNL     1       6.854  12.141  -0.836  1.00  0.00     0.167 HD
ATOM     53  C   UNL     1      11.062  11.269  -0.044  1.00  0.00     0.031 A 
ATOM     54  C   UNL     1       4.589  13.785  -0.898  1.00  0.00     0.031 A 
ATOM     55  C   UNL     1      10.909  12.669   0.249  1.00  0.00     0.049 A 
ATOM     56  C   UNL     1       5.715  14.649  -0.394  1.00  0.00     0.074 A 
ATOM     57  C   UNL     1      11.874  13.573   0.658  1.00  0.00     0.029 A 
ATOM     58  N   UNL     1       9.715  13.370   0.168  1.00  0.00    -0.354 N 
ATOM     59  N   UNL     1       6.973  14.334  -0.199  1.00  0.00    -0.248 NA
ATOM     60  C   UNL     1       5.389  16.048  -0.086  1.00  0.00     0.031 C 
ATOM     61  C   UNL     1      11.253  14.806   0.881  1.00  0.00     0.029 A 
ATOM     62  C   UNL     1       9.915  14.689   0.540  1.00  0.00     0.049 A 
ATOM     63  H   UNL     1       8.852  12.987  -0.112  1.00  0.00     0.167 HD
ATOM     64  C   UNL     1       7.597  15.505   0.218  1.00  0.00     0.074 A 
ATOM     65  C   UNL     1       6.580  16.537   0.234  1.00  0.00     0.031 C 
ATOM     66  C   UNL     1       8.896  15.709   0.550  1.00  0.00     0.031 A 
BRANCH  53  67
ATOM     67  C   UNL     1      12.418  10.639   0.157  1.00  0.00    -0.014 A 
ATOM     68  C   UNL     1      13.183  10.190  -0.936  1.00  0.00     0.010 A 
ATOM     69  C   UNL     1      12.952  10.528   1.454  1.00  0.00     0.010 A 
ATOM     70  C   UNL     1      14.434   9.602  -0.733  1.00  0.00     0.020 A 
ATOM     71  C   UNL     1      14.218   9.971   1.659  1.00  0.00     0.020 A 
ATOM     72  C   UNL     1      14.944   9.495   0.565  1.00  0.00     0.054 A 
BRANCH  72  73
ATOM     73  S   UNL     1      16.581   8.749   0.795  1.00  0.00     0.124 S 
ATOM     74  O   UNL     1      16.314   7.342   0.509  1.00  0.00    -0.237 OA
ATOM     75  O   UNL     1      17.393   9.448  -0.198  1.00  0.00    -0.237 OA
ATOM     76  O   UNL     1      16.908   9.050   2.187  1.00  0.00    -0.744 OA
ENDBRANCH  72  73
ENDBRANCH  53  67
BRANCH  54  77
ATOM     77  C   UNL     1       3.216  14.342  -1.061  1.00  0.00    -0.014 A 
ATOM     78  C   UNL     1       2.946  15.309  -2.046  1.00  0.00     0.010 A 
ATOM     79  C   UNL     1       2.167  13.905  -0.230  1.00  0.00     0.010 A 
ATOM     80  C   UNL     1       1.662  15.846  -2.181  1.00  0.00     0.020 A 
ATOM     81  C   UNL     1       0.875  14.416  -0.384  1.00  0.00     0.020 A 
ATOM     82  C   UNL     1       0.633  15.393  -1.351  1.00  0.00     0.054 A 
BRANCH  82  83
ATOM     83  S   UNL     1      -1.035  16.071  -1.575  1.00  0.00     0.124 S 
ATOM     84  O   UNL     1      -0.885  17.426  -1.054  1.00  0.00    -0.237 OA
ATOM     85  O   UNL     1      -1.225  15.964  -3.020  1.00  0.00    -0.237 OA
ATOM     86  O   UNL     1      -1.875  15.182  -0.776  1.00  0.00    -0.744 OA
ENDBRANCH  82  83
ENDBRANCH  54  77
BRANCH  66  87
ATOM     87  C   UNL     1       9.311  17.114   0.908  1.00  0.00    -0.014 A 
ATOM     88  C   UNL     1       8.892  17.727   2.102  1.00  0.00     0.010 A 
ATOM     89  C   UNL     1      10.177  17.815   0.047  1.00  0.00     0.010 A 
ATOM     90  C   UNL     1       9.295  19.031   2.406  1.00  0.00     0.020 A 
ATOM     91  C   UNL     1      10.609  19.105   0.364  1.00  0.00     0.020 A 
ATOM     92  C   UNL     1      10.150  19.712   1.534  1.00  0.00     0.054 A 
BRANCH  92  93
ATOM     93  S   UNL     1      10.680  21.392   1.964  1.00  0.00     0.124 S 
ATOM     94  O   UNL     1       9.462  22.164   1.735  1.00  0.00    -0.237 OA
ATOM     95  O   UNL     1      11.083  21.253   3.361  1.00  0.00    -0.237 OA
ATOM     96  O   UNL     1      11.772  21.662   1.031  1.00  0.00    -0.744 OA
ENDBRANCH  92  93
ENDBRANCH  66  87
ENDBRANCH  40  41
ENDBRANCH  32  35
ENDBRANCH  30  31
ENDBRANCH  29  30
ENDBRANCH  28  29
ENDBRANCH   3  28
TORSDOF 19
