REMARK SMILES CCCOc1ccc(NC(=O)CCC(=O)NCCCNC(=O)c2ccc(-c3c4nc(c(-c5ccc(S(=O)(=O)[O-])cc5)c5ccc([nH]5)c(-c5ccc(S(=O)(=O)[O-])cc5)c5nc(c(-c6ccc(S(=O)(=O)[O-])cc6)c6ccc3[nH]6)C=C5)C=C4)cc2)cc1
REMARK SMILES IDX 14 1 15 2 16 3 13 5 12 6 10 7 9 8 11 10 8 11 5 12 6 13 84 14
REMARK SMILES IDX 7 15 83 16 4 17 3 18 2 19 1 20 17 21 18 22 19 23 20 24 21 25
REMARK SMILES IDX 22 27 23 28 24 29 82 30 25 31 81 32 26 33 27 34 28 35 75 36
REMARK SMILES IDX 29 37 80 38 74 39 76 40 30 41 79 42 73 43 72 44 31 46 61 47
REMARK SMILES IDX 42 48 60 49 43 50 46 51 59 52 77 53 44 54 45 55 58 57 78 58
REMARK SMILES IDX 47 59 32 60 33 61 41 62 34 63 40 64 35 65 36 66 37 67 38 68
REMARK SMILES IDX 39 69 62 70 63 71 71 72 64 73 70 74 65 75 66 76 67 77 68 78
REMARK SMILES IDX 69 79 48 80 49 81 57 82 50 83 56 84 51 85 52 86 53 87 54 88
REMARK SMILES IDX 55 89
REMARK H PARENT 16 4 9 9 20 26 76 45 46 56
REMARK Flexibility Score: inf
ROOT
ATOM      1  C   UNL     1      -0.712   1.171   5.343  1.00  0.00     0.220 C 
ATOM      2  O   UNL     1      -0.997   0.025   4.993  1.00  0.00    -0.275 OA
ATOM      3  N   UNL     1      -0.842   2.177   4.433  1.00  0.00    -0.356 N 
ATOM      4  H   UNL     1      -1.004   1.875   3.510  1.00  0.00     0.163 HD
ENDROOT
BRANCH   1   5
ATOM      5  C   UNL     1      -0.224   1.443   6.748  1.00  0.00     0.110 C 
BRANCH   5   6
ATOM      6  C   UNL     1       1.188   0.919   6.983  1.00  0.00     0.110 C 
BRANCH   6   7
ATOM      7  C   UNL     1       2.226   1.771   6.289  1.00  0.00     0.224 C 
ATOM      8  N   UNL     1       2.757   1.422   5.080  1.00  0.00    -0.326 N 
ATOM      9  H   UNL     1       3.527   1.955   4.777  1.00  0.00     0.169 HD
ATOM     10  O   UNL     1       2.535   2.869   6.763  1.00  0.00    -0.275 OA
BRANCH   8  11
ATOM     11  C   UNL     1       2.343   0.400   4.219  1.00  0.00     0.041 A 
ATOM     12  C   UNL     1       1.228  -1.444   2.451  1.00  0.00     0.119 A 
ATOM     13  C   UNL     1       1.740  -1.879   3.671  1.00  0.00     0.048 A 
ATOM     14  C   UNL     1       1.272  -0.097   2.125  1.00  0.00     0.048 A 
ATOM     15  C   UNL     1       2.290  -0.950   4.566  1.00  0.00     0.030 A 
ATOM     16  C   UNL     1       1.911   0.805   2.962  1.00  0.00     0.030 A 
BRANCH  12  17
ATOM     17  O   UNL     1       0.617  -2.340   1.620  1.00  0.00    -0.494 OA
BRANCH  17  18
ATOM     18  C   UNL     1       1.300  -2.479   0.363  1.00  0.00     0.229 C 
BRANCH  18  19
ATOM     19  C   UNL     1       0.599  -1.728  -0.779  1.00  0.00     0.038 C 
ATOM     20  C   UNL     1       1.273  -0.417  -1.181  1.00  0.00     0.007 C 
ENDBRANCH  18  19
ENDBRANCH  17  18
ENDBRANCH  12  17
ENDBRANCH   8  11
ENDBRANCH   6   7
ENDBRANCH   5   6
ENDBRANCH   1   5
BRANCH   3  21
ATOM     21  C   UNL     1      -0.781   3.622   4.595  1.00  0.00     0.117 C 
BRANCH  21  22
ATOM     22  C   UNL     1       0.415   4.274   3.906  1.00  0.00     0.042 C 
BRANCH  22  23
ATOM     23  C   UNL     1       0.459   4.125   2.386  1.00  0.00     0.118 C 
BRANCH  23  24
ATOM     24  N   UNL     1      -0.518   4.930   1.678  1.00  0.00    -0.352 N 
ATOM     25  C   UNL     1      -0.343   5.808   0.635  1.00  0.00     0.251 C 
ATOM     26  H   UNL     1      -1.446   4.832   1.992  1.00  0.00     0.163 HD
ATOM     27  O   UNL     1      -1.316   6.418   0.196  1.00  0.00    -0.269 OA
BRANCH  25  28
ATOM     28  C   UNL     1       1.001   6.066   0.064  1.00  0.00     0.039 A 
ATOM     29  C   UNL     1       1.392   7.396  -0.117  1.00  0.00     0.014 A 
ATOM     30  C   UNL     1       1.861   5.034  -0.325  1.00  0.00     0.014 A 
ATOM     31  C   UNL     1       2.658   7.693  -0.632  1.00  0.00     0.010 A 
ATOM     32  C   UNL     1       3.148   5.333  -0.791  1.00  0.00     0.010 A 
ATOM     33  C   UNL     1       3.560   6.666  -0.952  1.00  0.00    -0.014 A 
BRANCH  33  34
ATOM     34  C   UNL     1       4.924   6.989  -1.457  1.00  0.00     0.031 A 
ATOM     35  C   UNL     1       5.320   6.644  -2.870  1.00  0.00     0.074 A 
ATOM     36  C   UNL     1       5.821   7.583  -0.642  1.00  0.00     0.049 A 
ATOM     37  N   UNL     1       6.459   6.855  -3.481  1.00  0.00    -0.248 NA
ATOM     38  C   UNL     1       4.315   5.960  -3.700  1.00  0.00     0.031 C 
ATOM     39  C   UNL     1       5.584   7.944   0.758  1.00  0.00     0.029 A 
ATOM     40  N   UNL     1       7.114   7.989  -0.872  1.00  0.00    -0.354 N 
ATOM     41  C   UNL     1       6.314   6.320  -4.756  1.00  0.00     0.074 A 
ATOM     42  C   UNL     1       4.989   5.742  -4.821  1.00  0.00     0.031 C 
ATOM     43  C   UNL     1       6.685   8.535   1.253  1.00  0.00     0.029 A 
ATOM     44  C   UNL     1       7.717   8.569   0.220  1.00  0.00     0.049 A 
ATOM     45  H   UNL     1       7.567   7.874  -1.739  1.00  0.00     0.167 HD
ATOM     46  C   UNL     1       7.194   6.324  -5.786  1.00  0.00     0.031 A 
ATOM     47  C   UNL     1       8.959   9.070   0.378  1.00  0.00     0.031 A 
ATOM     48  C   UNL     1       8.503   6.922  -5.738  1.00  0.00     0.049 A 
ATOM     49  C   UNL     1       9.916   9.062  -0.785  1.00  0.00     0.074 A 
ATOM     50  C   UNL     1       9.433   7.031  -6.757  1.00  0.00     0.029 A 
ATOM     51  N   UNL     1       9.067   7.509  -4.617  1.00  0.00    -0.354 N 
ATOM     52  N   UNL     1       9.725   8.622  -2.006  1.00  0.00    -0.248 NA
ATOM     53  C   UNL     1      11.252   9.631  -0.552  1.00  0.00     0.031 C 
ATOM     54  C   UNL     1      10.580   7.641  -6.241  1.00  0.00     0.029 A 
ATOM     55  C   UNL     1      10.343   7.960  -4.914  1.00  0.00     0.049 A 
ATOM     56  H   UNL     1       8.627   7.593  -3.741  1.00  0.00     0.167 HD
ATOM     57  C   UNL     1      10.905   8.891  -2.692  1.00  0.00     0.074 A 
ATOM     58  C   UNL     1      11.797   9.544  -1.758  1.00  0.00     0.031 C 
ATOM     59  C   UNL     1      11.219   8.621  -3.982  1.00  0.00     0.031 A 
BRANCH  46  60
ATOM     60  C   UNL     1       6.778   5.661  -7.072  1.00  0.00    -0.014 A 
ATOM     61  C   UNL     1       5.832   6.260  -7.923  1.00  0.00     0.010 A 
ATOM     62  C   UNL     1       7.407   4.469  -7.478  1.00  0.00     0.010 A 
ATOM     63  C   UNL     1       5.506   5.667  -9.146  1.00  0.00     0.020 A 
ATOM     64  C   UNL     1       7.101   3.886  -8.710  1.00  0.00     0.020 A 
ATOM     65  C   UNL     1       6.144   4.484  -9.533  1.00  0.00     0.054 A 
BRANCH  65  66
ATOM     66  S   UNL     1       5.741   3.767 -11.149  1.00  0.00     0.124 S 
ATOM     67  O   UNL     1       4.407   3.220 -10.910  1.00  0.00    -0.237 OA
ATOM     68  O   UNL     1       5.795   4.925 -12.037  1.00  0.00    -0.237 OA
ATOM     69  O   UNL     1       6.791   2.773 -11.360  1.00  0.00    -0.744 OA
ENDBRANCH  65  66
ENDBRANCH  46  60
BRANCH  47  70
ATOM     70  C   UNL     1       9.384   9.627   1.693  1.00  0.00    -0.014 A 
ATOM     71  C   UNL     1       9.619  11.005   1.847  1.00  0.00     0.010 A 
ATOM     72  C   UNL     1       9.594   8.772   2.790  1.00  0.00     0.010 A 
ATOM     73  C   UNL     1      10.093  11.512   3.061  1.00  0.00     0.020 A 
ATOM     74  C   UNL     1      10.040   9.279   4.014  1.00  0.00     0.020 A 
ATOM     75  C   UNL     1      10.307  10.644   4.135  1.00  0.00     0.054 A 
BRANCH  75  76
ATOM     76  S   UNL     1      10.913  11.321   5.706  1.00  0.00     0.124 S 
ATOM     77  O   UNL     1      12.324  11.548   5.413  1.00  0.00    -0.237 OA
ATOM     78  O   UNL     1      10.098  12.523   5.869  1.00  0.00    -0.237 OA
ATOM     79  O   UNL     1      10.634  10.254   6.665  1.00  0.00    -0.744 OA
ENDBRANCH  75  76
ENDBRANCH  47  70
BRANCH  59  80
ATOM     80  C   UNL     1      12.568   9.066  -4.482  1.00  0.00    -0.014 A 
ATOM     81  C   UNL     1      13.746   8.405  -4.092  1.00  0.00     0.010 A 
ATOM     82  C   UNL     1      12.650  10.124  -5.407  1.00  0.00     0.010 A 
ATOM     83  C   UNL     1      14.984   8.813  -4.596  1.00  0.00     0.020 A 
ATOM     84  C   UNL     1      13.883  10.517  -5.933  1.00  0.00     0.020 A 
ATOM     85  C   UNL     1      15.045   9.867  -5.513  1.00  0.00     0.054 A 
BRANCH  85  86
ATOM     86  S   UNL     1      16.658  10.344  -6.192  1.00  0.00     0.124 S 
ATOM     87  O   UNL     1      17.260  11.060  -5.071  1.00  0.00    -0.237 OA
ATOM     88  O   UNL     1      17.266   9.055  -6.514  1.00  0.00    -0.237 OA
ATOM     89  O   UNL     1      16.317  11.170  -7.348  1.00  0.00    -0.744 OA
ENDBRANCH  85  86
ENDBRANCH  59  80
ENDBRANCH  33  34
ENDBRANCH  25  28
ENDBRANCH  23  24
ENDBRANCH  22  23
ENDBRANCH  21  22
ENDBRANCH   3  21
TORSDOF 19
