REMARK SMILES COc1ccc2c(c1)c(CC(=O)NCCCNC(=O)c1ccc(-c3c4nc(c(-c5ccc(S(=O)(=O)[O-])cc5)c5ccc([nH]5)c(-c5ccc(S(=O)(=O)[O-])cc5)c5nc(c(-c6ccc(S(=O)(=O)[O-])cc6)c6ccc3[nH]6)C=C5)C=C4)cc1)c(C(F)(F)F)n2C(=O)c1ccc(Cl)cc1
REMARK SMILES IDX 15 1 14 2 13 3 11 4 12 5 10 7 9 8 3 9 4 10 8 11 5 12 7 13
REMARK SMILES IDX 6 14 85 15 80 16 2 17 1 18 86 19 87 20 88 21 89 22 94 23
REMARK SMILES IDX 90 24 93 25 91 26 92 27 81 28 82 29 83 30 84 31 16 32 17 33
REMARK SMILES IDX 18 34 19 36 20 37 21 38 79 39 22 40 78 41 23 42 24 43 25 44
REMARK SMILES IDX 72 45 26 46 77 47 71 48 73 49 27 50 76 51 70 52 69 53 28 55
REMARK SMILES IDX 58 56 39 57 57 58 40 59 43 60 56 61 74 62 41 63 42 64 55 66
REMARK SMILES IDX 75 67 44 68 29 69 30 70 38 71 31 72 37 73 32 74 33 75 34 76
REMARK SMILES IDX 35 77 36 78 59 79 60 80 68 81 61 82 67 83 62 84 63 85 64 86
REMARK SMILES IDX 65 87 66 88 45 89 46 90 54 91 47 92 53 93 48 94 49 95 50 96
REMARK SMILES IDX 51 97 52 98
REMARK H PARENT 13 6 17 35 73 54 43 65
REMARK Flexibility Score: inf
ROOT
ATOM      1  C   UNL     1       0.758   6.210   4.922  1.00  0.00     0.042 C 
ENDROOT
BRANCH   1   2
ATOM      2  C   UNL     1      -0.674   6.009   5.421  1.00  0.00     0.117 C 
BRANCH   2   3
ATOM      3  N   UNL     1      -1.566   5.486   4.398  1.00  0.00    -0.356 N 
ATOM      4  C   UNL     1      -2.152   4.255   4.310  1.00  0.00     0.224 C 
ATOM      5  O   UNL     1      -2.940   4.048   3.384  1.00  0.00    -0.275 OA
ATOM      6  H   UNL     1      -1.778   6.108   3.665  1.00  0.00     0.163 HD
BRANCH   4   7
ATOM      7  C   UNL     1      -1.865   3.188   5.356  1.00  0.00     0.138 C 
BRANCH   7   8
ATOM      8  C   UNL     1      -0.445   2.695   5.327  1.00  0.00     0.000 A 
ATOM      9  C   UNL     1       0.750   1.338   1.962  1.00  0.00     0.119 A 
ATOM     10  C   UNL     1       2.007   0.949   2.398  1.00  0.00     0.048 A 
ATOM     11  C   UNL     1      -0.133   1.948   2.855  1.00  0.00     0.057 A 
ATOM     12  C   UNL     1       2.402   1.153   3.725  1.00  0.00     0.031 A 
ATOM     13  C   UNL     1       0.244   2.169   4.199  1.00  0.00     0.008 A 
ATOM     14  C   UNL     1       1.527   1.802   4.617  1.00  0.00     0.057 A 
ATOM     15  N   UNL     1       1.688   2.272   5.931  1.00  0.00    -0.271 N 
ATOM     16  C   UNL     1       0.416   2.579   6.413  1.00  0.00     0.135 A 
BRANCH   9  17
ATOM     17  O   UNL     1       0.284   1.197   0.683  1.00  0.00    -0.497 OA
ATOM     18  C   UNL     1       0.818   0.094  -0.039  1.00  0.00     0.278 C 
ENDBRANCH   9  17
BRANCH  15  19
ATOM     19  C   UNL     1       2.911   2.481   6.623  1.00  0.00     0.262 C 
ATOM     20  O   UNL     1       2.860   3.142   7.660  1.00  0.00    -0.268 OA
BRANCH  19  21
ATOM     21  C   UNL     1       4.234   2.046   6.150  1.00  0.00     0.040 A 
ATOM     22  C   UNL     1       4.866   2.738   5.109  1.00  0.00     0.015 A 
ATOM     23  C   UNL     1       4.811   0.895   6.697  1.00  0.00     0.015 A 
ATOM     24  C   UNL     1       6.037   2.219   4.553  1.00  0.00     0.021 A 
ATOM     25  C   UNL     1       5.989   0.388   6.143  1.00  0.00     0.021 A 
ATOM     26  C   UNL     1       6.583   1.037   5.059  1.00  0.00     0.041 A 
ATOM     27  Cl  UNL     1       7.974   0.355   4.310  1.00  0.00    -0.084 Cl
ENDBRANCH  19  21
ENDBRANCH  15  19
BRANCH  16  28
ATOM     28  C   UNL     1       0.122   2.781   7.863  1.00  0.00     0.432 C 
ATOM     29  F   UNL     1       0.175   4.087   8.214  1.00  0.00    -0.165 F 
ATOM     30  F   UNL     1      -1.156   2.378   8.126  1.00  0.00    -0.165 F 
ATOM     31  F   UNL     1       0.896   2.057   8.699  1.00  0.00    -0.165 F 
ENDBRANCH  16  28
ENDBRANCH   7   8
ENDBRANCH   4   7
ENDBRANCH   2   3
ENDBRANCH   1   2
BRANCH   1  32
ATOM     32  C   UNL     1       0.917   7.344   3.909  1.00  0.00     0.118 C 
BRANCH  32  33
ATOM     33  N   UNL     1       0.426   8.630   4.366  1.00  0.00    -0.352 N 
ATOM     34  C   UNL     1       0.933   9.682   5.075  1.00  0.00     0.251 C 
ATOM     35  H   UNL     1      -0.508   8.784   4.096  1.00  0.00     0.163 HD
ATOM     36  O   UNL     1       0.198  10.673   5.136  1.00  0.00    -0.269 OA
BRANCH  34  37
ATOM     37  C   UNL     1       2.236   9.715   5.801  1.00  0.00     0.039 A 
ATOM     38  C   UNL     1       3.223   8.731   5.771  1.00  0.00     0.014 A 
ATOM     39  C   UNL     1       2.453  10.851   6.610  1.00  0.00     0.014 A 
ATOM     40  C   UNL     1       4.363   8.853   6.573  1.00  0.00     0.010 A 
ATOM     41  C   UNL     1       3.587  10.979   7.408  1.00  0.00     0.010 A 
ATOM     42  C   UNL     1       4.535   9.963   7.413  1.00  0.00    -0.014 A 
BRANCH  42  43
ATOM     43  C   UNL     1       5.800  10.106   8.142  1.00  0.00     0.031 A 
ATOM     44  C   UNL     1       6.996  10.235   7.263  1.00  0.00     0.074 A 
ATOM     45  C   UNL     1       5.927  10.250   9.479  1.00  0.00     0.049 A 
ATOM     46  N   UNL     1       7.974   9.401   7.132  1.00  0.00    -0.248 NA
ATOM     47  C   UNL     1       7.044  11.365   6.322  1.00  0.00     0.031 C 
ATOM     48  C   UNL     1       4.858  10.446  10.462  1.00  0.00     0.029 A 
ATOM     49  N   UNL     1       7.061  10.347  10.239  1.00  0.00    -0.354 N 
ATOM     50  C   UNL     1       8.868   9.991   6.242  1.00  0.00     0.074 A 
ATOM     51  C   UNL     1       8.175  11.112   5.661  1.00  0.00     0.031 C 
ATOM     52  C   UNL     1       5.395  10.860  11.634  1.00  0.00     0.029 A 
ATOM     53  C   UNL     1       6.844  10.810  11.535  1.00  0.00     0.049 A 
ATOM     54  H   UNL     1       7.954  10.109   9.899  1.00  0.00     0.167 HD
ATOM     55  C   UNL     1      10.182   9.635   6.209  1.00  0.00     0.031 A 
ATOM     56  C   UNL     1       7.785  11.164  12.449  1.00  0.00     0.031 A 
ATOM     57  C   UNL     1      10.411   8.405   6.919  1.00  0.00     0.049 A 
ATOM     58  C   UNL     1       9.049  10.499  12.068  1.00  0.00     0.074 A 
ATOM     59  C   UNL     1      10.017   7.094   6.763  1.00  0.00     0.029 A 
ATOM     60  N   UNL     1      10.874   8.535   8.204  1.00  0.00    -0.354 N 
ATOM     61  N   UNL     1       9.241   9.212  12.124  1.00  0.00    -0.248 NA
ATOM     62  C   UNL     1      10.024  11.246  11.290  1.00  0.00     0.031 C 
ATOM     63  C   UNL     1       9.895   6.583   8.085  1.00  0.00     0.029 A 
ATOM     64  C   UNL     1      10.286   7.578   8.985  1.00  0.00     0.049 A 
ATOM     65  H   UNL     1      11.523   9.207   8.514  1.00  0.00     0.167 HD
ATOM     66  C   UNL     1      10.075   8.940  11.054  1.00  0.00     0.074 A 
ATOM     67  C   UNL     1      10.632  10.233  10.671  1.00  0.00     0.031 C 
ATOM     68  C   UNL     1      10.012   7.744  10.401  1.00  0.00     0.031 A 
BRANCH  55  69
ATOM     69  C   UNL     1      11.320  10.576   5.878  1.00  0.00    -0.014 A 
ATOM     70  C   UNL     1      11.166  11.970   5.756  1.00  0.00     0.010 A 
ATOM     71  C   UNL     1      12.646  10.089   5.945  1.00  0.00     0.010 A 
ATOM     72  C   UNL     1      12.262  12.835   5.698  1.00  0.00     0.020 A 
ATOM     73  C   UNL     1      13.752  10.951   5.933  1.00  0.00     0.020 A 
ATOM     74  C   UNL     1      13.550  12.322   5.800  1.00  0.00     0.054 A 
BRANCH  74  75
ATOM     75  S   UNL     1      14.936  13.484   5.809  1.00  0.00     0.124 S 
ATOM     76  O   UNL     1      14.902  13.998   4.442  1.00  0.00    -0.237 OA
ATOM     77  O   UNL     1      14.542  14.431   6.848  1.00  0.00    -0.237 OA
ATOM     78  O   UNL     1      16.086  12.645   6.133  1.00  0.00    -0.744 OA
ENDBRANCH  74  75
ENDBRANCH  55  69
BRANCH  56  79
ATOM     79  C   UNL     1       7.772  12.300  13.411  1.00  0.00    -0.014 A 
ATOM     80  C   UNL     1       6.994  13.440  13.138  1.00  0.00     0.010 A 
ATOM     81  C   UNL     1       8.776  12.412  14.398  1.00  0.00     0.010 A 
ATOM     82  C   UNL     1       7.274  14.673  13.741  1.00  0.00     0.020 A 
ATOM     83  C   UNL     1       9.066  13.647  15.004  1.00  0.00     0.020 A 
ATOM     84  C   UNL     1       8.339  14.779  14.635  1.00  0.00     0.054 A 
BRANCH  84  85
ATOM     85  S   UNL     1       8.816  16.436  15.211  1.00  0.00     0.124 S 
ATOM     86  O   UNL     1       9.314  17.051  13.984  1.00  0.00    -0.237 OA
ATOM     87  O   UNL     1       7.553  16.972  15.712  1.00  0.00    -0.237 OA
ATOM     88  O   UNL     1       9.826  16.172  16.233  1.00  0.00    -0.744 OA
ENDBRANCH  84  85
ENDBRANCH  56  79
BRANCH  68  89
ATOM     89  C   UNL     1       9.404   6.548  11.098  1.00  0.00    -0.014 A 
ATOM     90  C   UNL     1      10.172   5.367  11.086  1.00  0.00     0.010 A 
ATOM     91  C   UNL     1       8.084   6.485  11.582  1.00  0.00     0.010 A 
ATOM     92  C   UNL     1       9.629   4.149  11.487  1.00  0.00     0.020 A 
ATOM     93  C   UNL     1       7.542   5.264  12.020  1.00  0.00     0.020 A 
ATOM     94  C   UNL     1       8.311   4.100  11.939  1.00  0.00     0.054 A 
BRANCH  94  95
ATOM     95  S   UNL     1       7.634   2.480  12.392  1.00  0.00     0.124 S 
ATOM     96  O   UNL     1       7.464   1.838  11.089  1.00  0.00    -0.237 OA
ATOM     97  O   UNL     1       8.690   1.911  13.228  1.00  0.00    -0.237 OA
ATOM     98  O   UNL     1       6.394   2.796  13.096  1.00  0.00    -0.744 OA
ENDBRANCH  94  95
ENDBRANCH  68  89
ENDBRANCH  42  43
ENDBRANCH  34  37
ENDBRANCH  32  33
ENDBRANCH   1  32
TORSDOF 18
