REMARK SMILES O=C(C[C@H]1C[N@@H+]([C@@H]2CC(=O)NC2=O)CCO1)NCCCNC(=O)c1ccc(-c2c3nc(c(-c4ccc(S(=O)(=O)[O-])cc4)c4ccc([nH]4)c(-c4ccc(S(=O)(=O)[O-])cc4)c4nc(c(-c5ccc(S(=O)(=O)[O-])cc5)c5ccc2[nH]5)C=C4)C=C3)cc1
REMARK SMILES IDX 19 1 18 2 17 3 1 4 2 5 3 7 4 8 5 9 16 10 6 11 15 12 14 13
REMARK SMILES IDX 7 15 8 16 12 17 9 18 11 19 13 20 10 21 20 23 21 24 22 25
REMARK SMILES IDX 23 27 24 28 25 29 83 30 26 31 82 32 27 33 28 34 29 35 76 36
REMARK SMILES IDX 30 37 81 38 75 39 77 40 31 41 80 42 74 43 73 44 32 46 62 47
REMARK SMILES IDX 43 48 61 49 44 50 47 51 60 52 78 53 45 54 46 55 59 57 79 58
REMARK SMILES IDX 48 59 33 60 34 61 42 62 35 63 41 64 36 65 37 66 38 67 39 68
REMARK SMILES IDX 40 69 63 70 64 71 72 72 65 73 71 74 66 75 67 76 68 77 69 78
REMARK SMILES IDX 70 79 49 80 50 81 58 82 51 83 57 84 52 85 53 86 54 87 55 88
REMARK SMILES IDX 56 89
REMARK H PARENT 17 6 6 14 11 22 21 26 77 45 47 56
REMARK Flexibility Score: inf
ROOT
ATOM      1  C   UNL     1       8.542   5.027   2.906  1.00  0.00     0.042 C 
ENDROOT
BRANCH   1   2
ATOM      2  C   UNL     1       8.108   3.564   2.920  1.00  0.00     0.117 C 
BRANCH   2   3
ATOM      3  N   UNL     1       7.143   3.273   1.861  1.00  0.00    -0.356 N 
ATOM      4  O   UNL     1       8.001   1.334   1.530  1.00  0.00    -0.275 OA
ATOM      5  C   UNL     1       6.956   1.960   1.203  1.00  0.00     0.222 C 
ATOM      6  H   UNL     1       6.567   4.013   1.561  1.00  0.00     0.163 HD
BRANCH   5   7
ATOM      7  C   UNL     1       5.229   1.292  -0.011  1.00  0.00     0.138 C 
BRANCH   7   8
ATOM      8  C   UNL     1       3.534   1.657  -0.038  1.00  0.00     0.182 C 
ATOM      9  C   UNL     1       2.952   1.240   1.280  1.00  0.00     0.295 C 
ATOM     10  O   UNL     1       3.088   2.981  -0.402  1.00  0.00    -0.366 OA
ATOM     11  N   UNL     1       3.685   2.111   2.171  1.00  0.00    -0.320 N 
ATOM     12  C   UNL     1       3.089   3.991   0.628  1.00  0.00     0.222 C 
ATOM     13  C   UNL     1       3.112   3.462   2.068  1.00  0.00     0.291 C 
ATOM     14  H   UNL     1       3.632   1.778   3.133  1.00  0.00     0.348 HD
BRANCH  11  15
ATOM     15  C   UNL     1       5.100   2.153   1.716  1.00  0.00     0.284 C 
ATOM     16  C   UNL     1       5.870   3.074   0.008  1.00  0.00     0.176 C 
ATOM     17  C   UNL     1       5.873   0.289   1.657  1.00  0.00     0.285 C 
ATOM     18  C   UNL     1       7.111   1.709  -0.800  1.00  0.00     0.233 C 
ATOM     19  N   UNL     1       6.880   0.243   0.168  1.00  0.00    -0.291 N 
ATOM     20  O   UNL     1       5.634  -0.673   2.364  1.00  0.00    -0.268 OA
ATOM     21  O   UNL     1       7.775   1.791  -1.816  1.00  0.00    -0.274 OA
ATOM     22  H   UNL     1       7.305  -0.601  -0.111  1.00  0.00     0.173 HD
ENDBRANCH  11  15
ENDBRANCH   7   8
ENDBRANCH   5   7
ENDBRANCH   2   3
ENDBRANCH   1   2
BRANCH   1  23
ATOM     23  C   UNL     1       7.446   6.066   2.665  1.00  0.00     0.118 C 
BRANCH  23  24
ATOM     24  N   UNL     1       6.439   6.152   3.717  1.00  0.00    -0.352 N 
ATOM     25  C   UNL     1       6.107   7.243   4.495  1.00  0.00     0.251 C 
ATOM     26  H   UNL     1       5.933   5.327   3.896  1.00  0.00     0.163 HD
ATOM     27  O   UNL     1       5.273   7.141   5.387  1.00  0.00    -0.269 OA
BRANCH  25  28
ATOM     28  C   UNL     1       6.815   8.521   4.270  1.00  0.00     0.039 A 
ATOM     29  C   UNL     1       7.545   9.079   5.320  1.00  0.00     0.014 A 
ATOM     30  C   UNL     1       6.859   9.085   2.993  1.00  0.00     0.014 A 
ATOM     31  C   UNL     1       8.411  10.143   5.062  1.00  0.00     0.010 A 
ATOM     32  C   UNL     1       7.791  10.083   2.721  1.00  0.00     0.010 A 
ATOM     33  C   UNL     1       8.591  10.610   3.748  1.00  0.00    -0.014 A 
BRANCH  33  34
ATOM     34  C   UNL     1       9.638  11.614   3.422  1.00  0.00     0.031 A 
ATOM     35  C   UNL     1       9.255  12.942   2.827  1.00  0.00     0.074 A 
ATOM     36  C   UNL     1      10.941  11.302   3.591  1.00  0.00     0.049 A 
ATOM     37  N   UNL     1      10.027  13.914   2.417  1.00  0.00    -0.248 NA
ATOM     38  C   UNL     1       7.817  13.201   2.649  1.00  0.00     0.031 C 
ATOM     39  C   UNL     1      11.448  10.033   4.122  1.00  0.00     0.029 A 
ATOM     40  N   UNL     1      12.079  12.026   3.330  1.00  0.00    -0.354 N 
ATOM     41  C   UNL     1       9.173  14.892   1.922  1.00  0.00     0.074 A 
ATOM     42  C   UNL     1       7.828  14.373   2.031  1.00  0.00     0.031 C 
ATOM     43  C   UNL     1      12.789  10.082   4.176  1.00  0.00     0.029 A 
ATOM     44  C   UNL     1      13.243  11.358   3.635  1.00  0.00     0.049 A 
ATOM     45  H   UNL     1      12.063  12.938   2.959  1.00  0.00     0.167 HD
ATOM     46  C   UNL     1       9.478  16.120   1.438  1.00  0.00     0.031 A 
ATOM     47  C   UNL     1      14.532  11.723   3.485  1.00  0.00     0.031 A 
ATOM     48  C   UNL     1      10.819  16.632   1.329  1.00  0.00     0.049 A 
ATOM     49  C   UNL     1      14.847  13.077   2.907  1.00  0.00     0.074 A 
ATOM     50  C   UNL     1      11.227  17.883   0.899  1.00  0.00     0.029 A 
ATOM     51  N   UNL     1      11.968  15.922   1.640  1.00  0.00    -0.354 N 
ATOM     52  N   UNL     1      14.020  14.017   2.515  1.00  0.00    -0.248 NA
ATOM     53  C   UNL     1      16.267  13.421   2.757  1.00  0.00     0.031 C 
ATOM     54  C   UNL     1      12.625  17.904   0.882  1.00  0.00     0.029 A 
ATOM     55  C   UNL     1      13.088  16.694   1.375  1.00  0.00     0.049 A 
ATOM     56  H   UNL     1      11.986  15.005   1.997  1.00  0.00     0.167 HD
ATOM     57  C   UNL     1      14.821  15.074   2.094  1.00  0.00     0.074 A 
ATOM     58  C   UNL     1      16.195  14.665   2.303  1.00  0.00     0.031 C 
ATOM     59  C   UNL     1      14.451  16.273   1.579  1.00  0.00     0.031 A 
BRANCH  46  60
ATOM     60  C   UNL     1       8.338  16.991   0.975  1.00  0.00    -0.014 A 
ATOM     61  C   UNL     1       7.405  17.518   1.887  1.00  0.00     0.010 A 
ATOM     62  C   UNL     1       8.222  17.324  -0.387  1.00  0.00     0.010 A 
ATOM     63  C   UNL     1       6.356  18.326   1.442  1.00  0.00     0.020 A 
ATOM     64  C   UNL     1       7.194  18.159  -0.833  1.00  0.00     0.020 A 
ATOM     65  C   UNL     1       6.258  18.642   0.083  1.00  0.00     0.054 A 
BRANCH  65  66
ATOM     66  S   UNL     1       4.900  19.713  -0.460  1.00  0.00     0.124 S 
ATOM     67  O   UNL     1       3.740  18.842  -0.285  1.00  0.00    -0.237 OA
ATOM     68  O   UNL     1       4.988  20.835   0.470  1.00  0.00    -0.237 OA
ATOM     69  O   UNL     1       5.238  20.028  -1.846  1.00  0.00    -0.744 OA
ENDBRANCH  65  66
ENDBRANCH  46  60
BRANCH  47  70
ATOM     70  C   UNL     1      15.626  10.792   3.886  1.00  0.00    -0.014 A 
ATOM     71  C   UNL     1      16.464  11.095   4.974  1.00  0.00     0.010 A 
ATOM     72  C   UNL     1      15.834   9.592   3.180  1.00  0.00     0.010 A 
ATOM     73  C   UNL     1      17.499  10.227   5.336  1.00  0.00     0.020 A 
ATOM     74  C   UNL     1      16.846   8.706   3.560  1.00  0.00     0.020 A 
ATOM     75  C   UNL     1      17.680   9.035   4.629  1.00  0.00     0.054 A 
BRANCH  75  76
ATOM     76  S   UNL     1      18.998   7.901   5.151  1.00  0.00     0.124 S 
ATOM     77  O   UNL     1      20.199   8.630   4.756  1.00  0.00    -0.237 OA
ATOM     78  O   UNL     1      18.765   7.792   6.589  1.00  0.00    -0.237 OA
ATOM     79  O   UNL     1      18.724   6.685   4.389  1.00  0.00    -0.744 OA
ENDBRANCH  75  76
ENDBRANCH  47  70
BRANCH  59  80
ATOM     80  C   UNL     1      15.548  17.244   1.225  1.00  0.00    -0.014 A 
ATOM     81  C   UNL     1      16.404  17.013   0.134  1.00  0.00     0.010 A 
ATOM     82  C   UNL     1      15.685  18.436   1.961  1.00  0.00     0.010 A 
ATOM     83  C   UNL     1      17.398  17.940  -0.194  1.00  0.00     0.020 A 
ATOM     84  C   UNL     1      16.654  19.381   1.615  1.00  0.00     0.020 A 
ATOM     85  C   UNL     1      17.514  19.120   0.547  1.00  0.00     0.054 A 
BRANCH  85  86
ATOM     86  S   UNL     1      18.780  20.327   0.069  1.00  0.00     0.124 S 
ATOM     87  O   UNL     1      20.012  19.646   0.458  1.00  0.00    -0.237 OA
ATOM     88  O   UNL     1      18.563  20.462  -1.370  1.00  0.00    -0.237 OA
ATOM     89  O   UNL     1      18.447  21.511   0.857  1.00  0.00    -0.744 OA
ENDBRANCH  85  86
ENDBRANCH  59  80
ENDBRANCH  33  34
ENDBRANCH  25  28
ENDBRANCH  23  24
ENDBRANCH   1  23
TORSDOF 15
