REMARK SMILES CC(C)OC(=O)c1c(NC(=O)[C@H]2[C@@H](C(=O)NCCCNC(=O)c3ccc(-c4c5nc(c(-c6ccc(S(=O)(=O)[O-])cc6)c6ccc([nH]6)c(-c6ccc(S(=O)(=O)[O-])cc6)c6nc(c(-c7ccc(S(=O)(=O)[O-])cc7)c7ccc4[nH]7)C=C6)C=C5)cc3)[C@@H]3C=C[C@H]2CC3)sc2c1CCC2
REMARK SMILES IDX 17 1 16 2 14 3 15 4 13 6 12 7 86 8 83 9 85 10 87 11 84 12
REMARK SMILES IDX 88 13 10 14 9 15 11 17 8 18 7 19 91 20 89 21 90 22 92 23
REMARK SMILES IDX 94 24 93 25 5 26 6 27 4 28 2 29 1 30 3 31 18 32 19 33 20 34
REMARK SMILES IDX 21 35 22 37 23 38 24 39 82 40 25 41 81 42 26 43 27 44 28 45
REMARK SMILES IDX 75 46 29 47 80 48 74 49 76 50 30 51 79 52 73 53 72 54 31 56
REMARK SMILES IDX 61 57 42 58 60 59 43 60 46 61 59 62 77 63 44 64 45 65 58 67
REMARK SMILES IDX 78 68 47 69 32 70 33 71 41 72 34 73 40 74 35 75 36 76 37 77
REMARK SMILES IDX 38 78 39 79 62 80 63 81 71 82 64 83 70 84 65 85 66 86 67 87
REMARK SMILES IDX 68 88 69 89 48 90 49 91 57 92 50 93 56 94 51 95 52 96 53 97
REMARK SMILES IDX 54 98 55 99
REMARK H PARENT 16 5 9 16 20 36 76 55 46 66
REMARK Flexibility Score: inf
ROOT
ATOM      1  C   UNL     1      -9.173   0.709   1.252  1.00  0.00     0.117 C 
ENDROOT
BRANCH   1   2
ATOM      2  N   UNL     1      -8.224   0.257   0.255  1.00  0.00    -0.356 N 
ATOM      3  C   UNL     1      -7.145  -0.557   0.280  1.00  0.00     0.224 C 
ATOM      4  O   UNL     1      -6.418  -0.511  -0.720  1.00  0.00    -0.275 OA
ATOM      5  H   UNL     1      -8.404   0.625  -0.640  1.00  0.00     0.163 HD
BRANCH   3   6
ATOM      6  C   UNL     1      -6.706  -1.393   1.476  1.00  0.00     0.098 C 
ATOM      7  C   UNL     1      -6.202  -2.830   1.099  1.00  0.00     0.099 C 
ATOM      8  C   UNL     1      -6.846  -3.893   2.052  1.00  0.00     0.025 C 
ATOM      9  C   UNL     1      -7.561  -1.510   2.757  1.00  0.00     0.025 C 
ATOM     10  C   UNL     1      -6.416  -3.521   3.453  1.00  0.00    -0.027 C 
ATOM     11  C   UNL     1      -8.383  -3.780   2.014  1.00  0.00     0.009 C 
ATOM     12  C   UNL     1      -6.760  -2.275   3.809  1.00  0.00    -0.027 C 
ATOM     13  C   UNL     1      -8.809  -2.370   2.447  1.00  0.00     0.009 C 
BRANCH   7  14
ATOM     14  C   UNL     1      -6.293  -3.378  -0.318  1.00  0.00     0.229 C 
ATOM     15  N   UNL     1      -5.375  -4.287  -0.798  1.00  0.00    -0.317 N 
ATOM     16  H   UNL     1      -5.484  -4.480  -1.757  1.00  0.00     0.170 HD
ATOM     17  O   UNL     1      -7.282  -3.143  -1.022  1.00  0.00    -0.274 OA
BRANCH  15  18
ATOM     18  C   UNL     1      -4.324  -4.993  -0.210  1.00  0.00     0.110 A 
ATOM     19  C   UNL     1      -3.642  -6.087  -0.766  1.00  0.00     0.098 A 
ATOM     20  C   UNL     1      -2.765  -6.660   0.213  1.00  0.00    -0.017 A 
ATOM     21  S   UNL     1      -3.708  -4.607   1.339  1.00  0.00    -0.122 S 
ATOM     22  C   UNL     1      -2.774  -5.960   1.383  1.00  0.00     0.011 A 
ATOM     23  C   UNL     1      -1.804  -7.789   0.318  1.00  0.00     0.038 C 
ATOM     24  C   UNL     1      -1.917  -6.487   2.459  1.00  0.00     0.047 C 
ATOM     25  C   UNL     1      -1.543  -7.871   1.864  1.00  0.00     0.010 C 
BRANCH  19  26
ATOM     26  C   UNL     1      -3.874  -6.535  -2.133  1.00  0.00     0.341 C 
ATOM     27  O   UNL     1      -4.288  -5.772  -3.005  1.00  0.00    -0.246 OA
BRANCH  26  28
ATOM     28  O   UNL     1      -3.630  -7.860  -2.317  1.00  0.00    -0.459 OA
BRANCH  28  29
ATOM     29  C   UNL     1      -3.768  -8.433  -3.639  1.00  0.00     0.170 C 
ATOM     30  C   UNL     1      -5.123  -8.192  -4.303  1.00  0.00     0.052 C 
ATOM     31  C   UNL     1      -2.594  -8.023  -4.519  1.00  0.00     0.052 C 
ENDBRANCH  28  29
ENDBRANCH  26  28
ENDBRANCH  19  26
ENDBRANCH  15  18
ENDBRANCH   7  14
ENDBRANCH   3   6
ENDBRANCH   1   2
BRANCH   1  32
ATOM     32  C   UNL     1      -8.793   2.061   1.849  1.00  0.00     0.042 C 
BRANCH  32  33
ATOM     33  C   UNL     1      -9.400   3.180   1.027  1.00  0.00     0.118 C 
BRANCH  33  34
ATOM     34  N   UNL     1     -10.866   3.128   1.074  1.00  0.00    -0.352 N 
ATOM     35  C   UNL     1     -11.784   3.854   0.351  1.00  0.00     0.251 C 
ATOM     36  H   UNL     1     -11.246   2.483   1.713  1.00  0.00     0.163 HD
ATOM     37  O   UNL     1     -12.956   3.906   0.702  1.00  0.00    -0.269 OA
BRANCH  35  38
ATOM     38  C   UNL     1     -11.317   4.571  -0.843  1.00  0.00     0.039 A 
ATOM     39  C   UNL     1     -11.695   5.895  -1.071  1.00  0.00     0.014 A 
ATOM     40  C   UNL     1     -10.429   3.913  -1.692  1.00  0.00     0.014 A 
ATOM     41  C   UNL     1     -11.091   6.583  -2.115  1.00  0.00     0.010 A 
ATOM     42  C   UNL     1      -9.719   4.636  -2.613  1.00  0.00     0.010 A 
ATOM     43  C   UNL     1     -10.079   5.954  -2.860  1.00  0.00    -0.014 A 
BRANCH  43  44
ATOM     44  C   UNL     1      -9.273   6.715  -3.803  1.00  0.00     0.031 A 
ATOM     45  C   UNL     1      -8.601   7.893  -3.192  1.00  0.00     0.074 A 
ATOM     46  C   UNL     1      -8.992   6.277  -5.049  1.00  0.00     0.049 A 
ATOM     47  N   UNL     1      -8.921   9.132  -3.352  1.00  0.00    -0.248 NA
ATOM     48  C   UNL     1      -7.594   7.675  -2.137  1.00  0.00     0.031 C 
ATOM     49  C   UNL     1      -9.331   4.986  -5.657  1.00  0.00     0.029 A 
ATOM     50  N   UNL     1      -8.224   6.856  -6.008  1.00  0.00    -0.354 N 
ATOM     51  C   UNL     1      -7.987   9.864  -2.628  1.00  0.00     0.074 A 
ATOM     52  C   UNL     1      -7.356   8.927  -1.735  1.00  0.00     0.031 C 
ATOM     53  C   UNL     1      -8.559   4.784  -6.748  1.00  0.00     0.029 A 
ATOM     54  C   UNL     1      -7.792   5.990  -7.009  1.00  0.00     0.049 A 
ATOM     55  H   UNL     1      -7.991   7.812  -5.997  1.00  0.00     0.167 HD
ATOM     56  C   UNL     1      -7.622  11.116  -3.023  1.00  0.00     0.031 A 
ATOM     57  C   UNL     1      -6.838   6.234  -7.948  1.00  0.00     0.031 A 
ATOM     58  C   UNL     1      -8.500  11.612  -4.055  1.00  0.00     0.049 A 
ATOM     59  C   UNL     1      -6.686   7.711  -8.030  1.00  0.00     0.074 A 
ATOM     60  C   UNL     1      -9.863  11.816  -4.147  1.00  0.00     0.029 A 
ATOM     61  N   UNL     1      -8.032  11.547  -5.349  1.00  0.00    -0.354 N 
ATOM     62  N   UNL     1      -7.627   8.497  -8.478  1.00  0.00    -0.248 NA
ATOM     63  C   UNL     1      -5.717   8.344  -7.147  1.00  0.00     0.031 C 
ATOM     64  C   UNL     1     -10.208  11.364  -5.453  1.00  0.00     0.029 A 
ATOM     65  C   UNL     1      -9.032  11.023  -6.125  1.00  0.00     0.049 A 
ATOM     66  H   UNL     1      -7.140  11.826  -5.659  1.00  0.00     0.167 HD
ATOM     67  C   UNL     1      -7.647   9.564  -7.590  1.00  0.00     0.074 A 
ATOM     68  C   UNL     1      -6.391   9.459  -6.844  1.00  0.00     0.031 C 
ATOM     69  C   UNL     1      -8.800  10.250  -7.328  1.00  0.00     0.031 A 
BRANCH  56  70
ATOM     70  C   UNL     1      -6.252  11.713  -2.810  1.00  0.00    -0.014 A 
ATOM     71  C   UNL     1      -6.017  13.027  -3.266  1.00  0.00     0.010 A 
ATOM     72  C   UNL     1      -5.125  10.954  -2.437  1.00  0.00     0.010 A 
ATOM     73  C   UNL     1      -4.718  13.525  -3.416  1.00  0.00     0.020 A 
ATOM     74  C   UNL     1      -3.826  11.458  -2.541  1.00  0.00     0.020 A 
ATOM     75  C   UNL     1      -3.630  12.730  -3.060  1.00  0.00     0.054 A 
BRANCH  75  76
ATOM     76  S   UNL     1      -1.955  13.358  -3.324  1.00  0.00     0.124 S 
ATOM     77  O   UNL     1      -1.889  13.438  -4.780  1.00  0.00    -0.237 OA
ATOM     78  O   UNL     1      -1.993  14.636  -2.619  1.00  0.00    -0.237 OA
ATOM     79  O   UNL     1      -1.107  12.338  -2.711  1.00  0.00    -0.744 OA
ENDBRANCH  75  76
ENDBRANCH  56  70
BRANCH  57  80
ATOM     80  C   UNL     1      -5.854   5.282  -8.537  1.00  0.00    -0.014 A 
ATOM     81  C   UNL     1      -5.027   5.655  -9.616  1.00  0.00     0.010 A 
ATOM     82  C   UNL     1      -5.527   4.089  -7.859  1.00  0.00     0.010 A 
ATOM     83  C   UNL     1      -3.882   4.906  -9.952  1.00  0.00     0.020 A 
ATOM     84  C   UNL     1      -4.395   3.333  -8.192  1.00  0.00     0.020 A 
ATOM     85  C   UNL     1      -3.559   3.761  -9.220  1.00  0.00     0.054 A 
BRANCH  85  86
ATOM     86  S   UNL     1      -1.977   2.912  -9.519  1.00  0.00     0.124 S 
ATOM     87  O   UNL     1      -2.195   2.293 -10.823  1.00  0.00    -0.237 OA
ATOM     88  O   UNL     1      -1.016   4.010  -9.494  1.00  0.00    -0.237 OA
ATOM     89  O   UNL     1      -1.870   1.977  -8.400  1.00  0.00    -0.744 OA
ENDBRANCH  85  86
ENDBRANCH  57  80
BRANCH  69  90
ATOM     90  C   UNL     1      -9.999  10.056  -8.228  1.00  0.00    -0.014 A 
ATOM     91  C   UNL     1     -10.620   8.818  -8.487  1.00  0.00     0.010 A 
ATOM     92  C   UNL     1     -10.616  11.224  -8.712  1.00  0.00     0.010 A 
ATOM     93  C   UNL     1     -11.802   8.755  -9.245  1.00  0.00     0.020 A 
ATOM     94  C   UNL     1     -11.802  11.171  -9.443  1.00  0.00     0.020 A 
ATOM     95  C   UNL     1     -12.381   9.935  -9.723  1.00  0.00     0.054 A 
BRANCH  95  96
ATOM     96  S   UNL     1     -13.905   9.860 -10.705  1.00  0.00     0.124 S 
ATOM     97  O   UNL     1     -13.460   9.199 -11.928  1.00  0.00    -0.237 OA
ATOM     98  O   UNL     1     -14.802   9.079  -9.856  1.00  0.00    -0.237 OA
ATOM     99  O   UNL     1     -14.286  11.263 -10.866  1.00  0.00    -0.744 OA
ENDBRANCH  95  96
ENDBRANCH  69  90
ENDBRANCH  43  44
ENDBRANCH  35  38
ENDBRANCH  33  34
ENDBRANCH  32  33
ENDBRANCH   1  32
TORSDOF 18
