REMARK SMILES CC(C)[C@H]([NH2+]Cc1ccc(O)cn1)C(=O)NCCCNC(=O)c1ccc(-c2c3nc(c(-c4ccc(S(=O)(=O)[O-])cc4)c4ccc([nH]4)c(-c4ccc(S(=O)(=O)[O-])cc4)c4nc(c(-c5ccc(S(=O)(=O)[O-])cc5)c5ccc2[nH]5)C=C4)C=C3)cc1
REMARK SMILES IDX 17 1 16 2 14 3 15 4 4 6 2 7 1 8 3 9 5 10 6 13 7 14 8 15
REMARK SMILES IDX 13 16 9 17 12 18 10 19 11 20 18 22 19 23 20 24 21 25 22 27
REMARK SMILES IDX 23 28 24 29 82 30 25 31 81 32 26 33 27 34 28 35 75 36 29 37
REMARK SMILES IDX 80 38 74 39 76 40 30 41 79 42 73 43 72 44 31 46 61 47 42 48
REMARK SMILES IDX 60 49 43 50 46 51 59 52 77 53 44 54 45 55 58 57 78 58 47 59
REMARK SMILES IDX 32 60 33 61 41 62 34 63 40 64 35 65 36 66 37 67 38 68 39 69
REMARK SMILES IDX 62 70 63 71 71 72 64 73 70 74 65 75 66 76 67 77 68 78 69 79
REMARK SMILES IDX 48 80 49 81 57 82 50 83 56 84 51 85 52 86 53 87 54 88 55 89
REMARK H PARENT 16 5 5 11 5 12 11 21 20 26 76 45 46 56
REMARK Flexibility Score: inf
ROOT
ATOM      1  C   UNL     1      -0.350   3.973   1.191  1.00  0.00     0.118 C 
ENDROOT
BRANCH   1   2
ATOM      2  N   UNL     1      -1.204   3.776   0.033  1.00  0.00    -0.351 N 
ATOM      3  C   UNL     1      -1.683   2.643  -0.566  1.00  0.00     0.278 C 
ATOM      4  O   UNL     1      -2.561   2.795  -1.423  1.00  0.00    -0.268 OA
ATOM      5  H   UNL     1      -1.492   4.611  -0.401  1.00  0.00     0.163 HD
BRANCH   3   6
ATOM      6  C   UNL     1      -1.192   1.220  -0.178  1.00  0.00     0.275 C 
BRANCH   6   7
ATOM      7  C   UNL     1      -1.925   0.637   1.072  1.00  0.00     0.051 C 
ATOM      8  C   UNL     1      -1.990   1.514   2.322  1.00  0.00     0.014 C 
ATOM      9  C   UNL     1      -3.359   0.229   0.699  1.00  0.00     0.014 C 
ENDBRANCH   6   7
BRANCH   6  10
ATOM     10  N   UNL     1       0.275   1.198  -0.234  1.00  0.00    -0.331 N 
ATOM     11  H   UNL     1       0.619   1.845   0.476  1.00  0.00     0.347 HD
ATOM     12  H   UNL     1       0.505   1.448  -1.196  1.00  0.00     0.347 HD
BRANCH  10  13
ATOM     13  C   UNL     1       0.933  -0.083  -0.013  1.00  0.00     0.318 C 
BRANCH  13  14
ATOM     14  C   UNL     1       2.446   0.072  -0.065  1.00  0.00     0.095 A 
ATOM     15  C   UNL     1       3.110   0.718   0.985  1.00  0.00     0.033 A 
ATOM     16  N   UNL     1       3.095  -0.366  -1.172  1.00  0.00    -0.251 NA
ATOM     17  C   UNL     1       4.483   0.936   0.894  1.00  0.00     0.050 A 
ATOM     18  C   UNL     1       4.429  -0.138  -1.233  1.00  0.00     0.157 A 
ATOM     19  C   UNL     1       5.152   0.503  -0.239  1.00  0.00     0.133 A 
BRANCH  19  20
ATOM     20  O   UNL     1       6.489   0.691  -0.403  1.00  0.00    -0.506 OA
ATOM     21  H   UNL     1       6.986   1.123   0.264  1.00  0.00     0.293 HD
ENDBRANCH  19  20
ENDBRANCH  13  14
ENDBRANCH  10  13
ENDBRANCH   6  10
ENDBRANCH   3   6
ENDBRANCH   1   2
BRANCH   1  22
ATOM     22  C   UNL     1       0.860   4.845   0.904  1.00  0.00     0.042 C 
BRANCH  22  23
ATOM     23  C   UNL     1       0.502   6.301   0.646  1.00  0.00     0.118 C 
BRANCH  23  24
ATOM     24  N   UNL     1      -0.154   6.928   1.789  1.00  0.00    -0.352 N 
ATOM     25  C   UNL     1       0.283   7.910   2.647  1.00  0.00     0.251 C 
ATOM     26  H   UNL     1      -1.060   6.592   1.978  1.00  0.00     0.163 HD
ATOM     27  O   UNL     1      -0.344   8.140   3.673  1.00  0.00    -0.269 OA
BRANCH  25  28
ATOM     28  C   UNL     1       1.516   8.667   2.341  1.00  0.00     0.039 A 
ATOM     29  C   UNL     1       2.404   8.974   3.375  1.00  0.00     0.014 A 
ATOM     30  C   UNL     1       1.792   9.079   1.037  1.00  0.00     0.014 A 
ATOM     31  C   UNL     1       3.610   9.617   3.082  1.00  0.00     0.010 A 
ATOM     32  C   UNL     1       3.034   9.622   0.732  1.00  0.00     0.010 A 
ATOM     33  C   UNL     1       3.955   9.904   1.751  1.00  0.00    -0.014 A 
BRANCH  33  34
ATOM     34  C   UNL     1       5.259  10.514   1.390  1.00  0.00     0.031 A 
ATOM     35  C   UNL     1       5.290  11.845   0.683  1.00  0.00     0.074 A 
ATOM     36  C   UNL     1       6.404   9.841   1.619  1.00  0.00     0.049 A 
ATOM     37  N   UNL     1       6.309  12.482   0.168  1.00  0.00    -0.248 NA
ATOM     38  C   UNL     1       3.999  12.532   0.502  1.00  0.00     0.031 C 
ATOM     39  C   UNL     1       6.507   8.528   2.263  1.00  0.00     0.029 A 
ATOM     40  N   UNL     1       7.705  10.166   1.327  1.00  0.00    -0.354 N 
ATOM     41  C   UNL     1       5.782  13.628  -0.416  1.00  0.00     0.074 A 
ATOM     42  C   UNL     1       4.347  13.570  -0.244  1.00  0.00     0.031 C 
ATOM     43  C   UNL     1       7.801   8.177   2.345  1.00  0.00     0.029 A 
ATOM     44  C   UNL     1       8.615   9.213   1.718  1.00  0.00     0.049 A 
ATOM     45  H   UNL     1       7.962  11.004   0.878  1.00  0.00     0.167 HD
ATOM     46  C   UNL     1       6.432  14.652  -1.017  1.00  0.00     0.031 A 
ATOM     47  C   UNL     1       9.954   9.174   1.582  1.00  0.00     0.031 A 
ATOM     48  C   UNL     1       7.860  14.721  -1.164  1.00  0.00     0.049 A 
ATOM     49  C   UNL     1      10.654  10.320   0.903  1.00  0.00     0.074 A 
ATOM     50  C   UNL     1       8.621  15.732  -1.724  1.00  0.00     0.029 A 
ATOM     51  N   UNL     1       8.745  13.744  -0.734  1.00  0.00    -0.354 N 
ATOM     52  N   UNL     1      10.138  11.410   0.388  1.00  0.00    -0.248 NA
ATOM     53  C   UNL     1      12.117  10.233   0.795  1.00  0.00     0.031 C 
ATOM     54  C   UNL     1       9.965  15.351  -1.662  1.00  0.00     0.029 A 
ATOM     55  C   UNL     1      10.044  14.125  -1.020  1.00  0.00     0.049 A 
ATOM     56  H   UNL     1       8.487  12.903  -0.291  1.00  0.00     0.167 HD
ATOM     57  C   UNL     1      11.217  12.155  -0.074  1.00  0.00     0.074 A 
ATOM     58  C   UNL     1      12.413  11.396   0.231  1.00  0.00     0.031 C 
ATOM     59  C   UNL     1      11.220  13.360  -0.695  1.00  0.00     0.031 A 
BRANCH  46  60
ATOM     60  C   UNL     1       5.597  15.788  -1.546  1.00  0.00    -0.014 A 
ATOM     61  C   UNL     1       4.944  16.671  -0.666  1.00  0.00     0.010 A 
ATOM     62  C   UNL     1       5.487  15.997  -2.932  1.00  0.00     0.010 A 
ATOM     63  C   UNL     1       4.160  17.715  -1.162  1.00  0.00     0.020 A 
ATOM     64  C   UNL     1       4.726  17.059  -3.433  1.00  0.00     0.020 A 
ATOM     65  C   UNL     1       4.054  17.900  -2.543  1.00  0.00     0.054 A 
BRANCH  65  66
ATOM     66  S   UNL     1       3.047  19.277  -3.159  1.00  0.00     0.124 S 
ATOM     67  O   UNL     1       1.692  18.789  -2.918  1.00  0.00    -0.237 OA
ATOM     68  O   UNL     1       3.473  20.389  -2.312  1.00  0.00    -0.237 OA
ATOM     69  O   UNL     1       3.430  19.386  -4.564  1.00  0.00    -0.744 OA
ENDBRANCH  65  66
ENDBRANCH  46  60
BRANCH  47  70
ATOM     70  C   UNL     1      10.730   8.020   2.114  1.00  0.00    -0.014 A 
ATOM     71  C   UNL     1      11.559   8.182   3.238  1.00  0.00     0.010 A 
ATOM     72  C   UNL     1      10.654   6.759   1.495  1.00  0.00     0.010 A 
ATOM     73  C   UNL     1      12.320   7.112   3.717  1.00  0.00     0.020 A 
ATOM     74  C   UNL     1      11.393   5.680   1.988  1.00  0.00     0.020 A 
ATOM     75  C   UNL     1      12.234   5.868   3.087  1.00  0.00     0.054 A 
BRANCH  75  76
ATOM     76  S   UNL     1      13.201   4.481   3.745  1.00  0.00     0.124 S 
ATOM     77  O   UNL     1      14.542   4.789   3.259  1.00  0.00    -0.237 OA
ATOM     78  O   UNL     1      13.003   4.612   5.187  1.00  0.00    -0.237 OA
ATOM     79  O   UNL     1      12.566   3.310   3.143  1.00  0.00    -0.744 OA
ENDBRANCH  75  76
ENDBRANCH  47  70
BRANCH  59  80
ATOM     80  C   UNL     1      12.556  13.958  -1.039  1.00  0.00    -0.014 A 
ATOM     81  C   UNL     1      13.326  13.459  -2.103  1.00  0.00     0.010 A 
ATOM     82  C   UNL     1      13.017  15.077  -0.320  1.00  0.00     0.010 A 
ATOM     83  C   UNL     1      14.550  14.052  -2.425  1.00  0.00     0.020 A 
ATOM     84  C   UNL     1      14.227  15.687  -0.656  1.00  0.00     0.020 A 
ATOM     85  C   UNL     1      14.992  15.162  -1.699  1.00  0.00     0.054 A 
BRANCH  85  86
ATOM     86  S   UNL     1      16.559  15.946  -2.168  1.00  0.00     0.124 S 
ATOM     87  O   UNL     1      17.540  15.000  -1.644  1.00  0.00    -0.237 OA
ATOM     88  O   UNL     1      16.462  16.010  -3.625  1.00  0.00    -0.237 OA
ATOM     89  O   UNL     1      16.516  17.239  -1.490  1.00  0.00    -0.744 OA
ENDBRANCH  85  86
ENDBRANCH  59  80
ENDBRANCH  33  34
ENDBRANCH  25  28
ENDBRANCH  23  24
ENDBRANCH  22  23
ENDBRANCH   1  22
TORSDOF 18
