REMARK SMILES CC[NH2+][C@@]1(C(=O)NCCCNC(=O)c2ccc(-c3c4nc(c(-c5ccc(S(=O)(=O)[O-])cc5)c5ccc([nH]5)c(-c5ccc(S(=O)(=O)[O-])cc5)c5nc(c(-c6ccc(S(=O)(=O)[O-])cc6)c6ccc3[nH]6)C=C5)C=C4)cc2)CCC[C@@H](Sc2ncc(C)cn2)C1
REMARK SMILES IDX 9 1 8 2 7 3 5 4 6 5 4 7 74 8 86 9 75 10 77 11 76 12 3 13
REMARK SMILES IDX 2 16 1 17 78 18 79 19 80 20 85 21 81 22 84 23 82 24 83 25
REMARK SMILES IDX 10 26 11 27 12 28 13 30 14 31 15 32 73 33 16 34 72 35 17 36
REMARK SMILES IDX 18 37 19 38 66 39 20 40 71 41 65 42 67 43 21 44 70 45 64 46
REMARK SMILES IDX 63 47 22 49 52 50 33 51 51 52 34 53 37 54 50 55 68 56 35 57
REMARK SMILES IDX 36 58 49 60 69 61 38 62 23 63 24 64 32 65 25 66 31 67 26 68
REMARK SMILES IDX 27 69 28 70 29 71 30 72 53 73 54 74 62 75 55 76 61 77 56 78
REMARK SMILES IDX 57 79 58 80 59 81 60 82 39 83 40 84 48 85 41 86 47 87 42 88
REMARK SMILES IDX 43 89 44 90 45 91 46 92
REMARK H PARENT 7 6 3 14 3 15 11 29 67 48 37 59
REMARK Flexibility Score: inf
ROOT
ATOM      1  C   UNL     1       0.651  -0.186  -7.684  1.00  0.00     0.042 C 
ENDROOT
BRANCH   1   2
ATOM      2  C   UNL     1       0.891  -1.440  -6.849  1.00  0.00     0.118 C 
BRANCH   2   3
ATOM      3  N   UNL     1       1.801  -1.209  -5.749  1.00  0.00    -0.351 N 
ATOM      4  C   UNL     1       1.685  -1.085  -4.408  1.00  0.00     0.281 C 
ATOM      5  O   UNL     1       2.786  -0.962  -3.836  1.00  0.00    -0.268 OA
ATOM      6  H   UNL     1       2.734  -1.121  -6.051  1.00  0.00     0.163 HD
BRANCH   4   7
ATOM      7  C   UNL     1       0.356  -1.073  -3.516  1.00  0.00     0.176 C 
ATOM      8  C   UNL     1      -0.512  -2.348  -3.615  1.00  0.00     0.079 C 
ATOM      9  C   UNL     1      -0.468   0.212  -3.739  1.00  0.00     0.094 C 
ATOM     10  C   UNL     1      -1.676  -2.376  -4.607  1.00  0.00     0.008 C 
ATOM     11  C   UNL     1      -1.426   0.148  -4.918  1.00  0.00     0.061 C 
ATOM     12  C   UNL     1      -2.381  -1.041  -4.842  1.00  0.00     0.015 C 
BRANCH   7  13
ATOM     13  N   UNL     1       0.906  -1.184  -2.094  1.00  0.00    -0.334 N 
ATOM     14  H   UNL     1       0.488  -2.012  -1.670  1.00  0.00     0.347 HD
ATOM     15  H   UNL     1       1.919  -1.214  -2.212  1.00  0.00     0.347 HD
BRANCH  13  16
ATOM     16  C   UNL     1       0.674  -0.064  -1.186  1.00  0.00     0.257 C 
ATOM     17  C   UNL     1       1.394  -0.304   0.134  1.00  0.00     0.071 C 
ENDBRANCH  13  16
ENDBRANCH   7  13
BRANCH  11  18
ATOM     18  S   UNL     1      -2.240   1.759  -5.252  1.00  0.00    -0.083 SA
BRANCH  18  19
ATOM     19  C   UNL     1      -3.470   1.778  -3.985  1.00  0.00     0.187 A 
ATOM     20  N   UNL     1      -3.059   1.815  -2.708  1.00  0.00    -0.231 NA
ATOM     21  N   UNL     1      -4.747   1.688  -4.382  1.00  0.00    -0.231 NA
ATOM     22  C   UNL     1      -4.022   1.749  -1.772  1.00  0.00     0.119 A 
ATOM     23  C   UNL     1      -5.670   1.644  -3.407  1.00  0.00     0.119 A 
ATOM     24  C   UNL     1      -5.365   1.649  -2.063  1.00  0.00    -0.014 A 
ATOM     25  C   UNL     1      -6.415   1.569  -1.013  1.00  0.00     0.048 C 
ENDBRANCH  18  19
ENDBRANCH  11  18
ENDBRANCH   4   7
ENDBRANCH   2   3
ENDBRANCH   1   2
BRANCH   1  26
ATOM     26  C   UNL     1       1.551  -0.081  -8.901  1.00  0.00     0.118 C 
BRANCH  26  27
ATOM     27  N   UNL     1       1.216  -1.075  -9.915  1.00  0.00    -0.352 N 
ATOM     28  C   UNL     1       0.632  -0.931 -11.149  1.00  0.00     0.251 C 
ATOM     29  H   UNL     1       1.446  -2.001  -9.674  1.00  0.00     0.163 HD
ATOM     30  O   UNL     1       0.229  -1.937 -11.738  1.00  0.00    -0.269 OA
BRANCH  28  31
ATOM     31  C   UNL     1       0.469   0.402 -11.770  1.00  0.00     0.039 A 
ATOM     32  C   UNL     1      -0.665   0.663 -12.545  1.00  0.00     0.014 A 
ATOM     33  C   UNL     1       1.442   1.391 -11.618  1.00  0.00     0.014 A 
ATOM     34  C   UNL     1      -0.854   1.932 -13.100  1.00  0.00     0.010 A 
ATOM     35  C   UNL     1       1.198   2.683 -12.069  1.00  0.00     0.010 A 
ATOM     36  C   UNL     1       0.056   2.966 -12.829  1.00  0.00    -0.014 A 
BRANCH  36  37
ATOM     37  C   UNL     1      -0.144   4.347 -13.341  1.00  0.00     0.031 A 
ATOM     38  C   UNL     1       0.894   4.972 -14.238  1.00  0.00     0.074 A 
ATOM     39  C   UNL     1      -1.210   5.064 -12.934  1.00  0.00     0.049 A 
ATOM     40  N   UNL     1       0.960   6.195 -14.698  1.00  0.00    -0.248 NA
ATOM     41  C   UNL     1       2.026   4.120 -14.644  1.00  0.00     0.031 C 
ATOM     42  C   UNL     1      -2.261   4.585 -12.031  1.00  0.00     0.029 A 
ATOM     43  N   UNL     1      -1.583   6.354 -13.216  1.00  0.00    -0.354 N 
ATOM     44  C   UNL     1       2.147   6.265 -15.418  1.00  0.00     0.074 A 
ATOM     45  C   UNL     1       2.798   4.981 -15.289  1.00  0.00     0.031 C 
ATOM     46  C   UNL     1      -3.172   5.556 -11.860  1.00  0.00     0.029 A 
ATOM     47  C   UNL     1      -2.746   6.742 -12.595  1.00  0.00     0.049 A 
ATOM     48  H   UNL     1      -1.065   6.946 -13.809  1.00  0.00     0.167 HD
ATOM     49  C   UNL     1       2.642   7.298 -16.142  1.00  0.00     0.031 A 
ATOM     50  C   UNL     1      -3.392   7.925 -12.602  1.00  0.00     0.031 A 
ATOM     51  C   UNL     1       1.977   8.565 -16.282  1.00  0.00     0.049 A 
ATOM     52  C   UNL     1      -2.817   9.061 -13.404  1.00  0.00     0.074 A 
ATOM     53  C   UNL     1       2.358   9.656 -17.044  1.00  0.00     0.029 A 
ATOM     54  N   UNL     1       0.794   8.913 -15.647  1.00  0.00    -0.354 N 
ATOM     55  N   UNL     1      -1.728   9.085 -14.136  1.00  0.00    -0.248 NA
ATOM     56  C   UNL     1      -3.562  10.327 -13.387  1.00  0.00     0.031 C 
ATOM     57  C   UNL     1       1.436  10.684 -16.823  1.00  0.00     0.029 A 
ATOM     58  C   UNL     1       0.446  10.212 -15.974  1.00  0.00     0.049 A 
ATOM     59  H   UNL     1       0.279   8.323 -15.051  1.00  0.00     0.167 HD
ATOM     60  C   UNL     1      -1.668  10.362 -14.682  1.00  0.00     0.074 A 
ATOM     61  C   UNL     1      -2.842  11.072 -14.215  1.00  0.00     0.031 C 
ATOM     62  C   UNL     1      -0.725  10.902 -15.493  1.00  0.00     0.031 A 
BRANCH  49  63
ATOM     63  C   UNL     1       3.966   7.097 -16.833  1.00  0.00    -0.014 A 
ATOM     64  C   UNL     1       4.097   6.208 -17.916  1.00  0.00     0.010 A 
ATOM     65  C   UNL     1       5.090   7.835 -16.418  1.00  0.00     0.010 A 
ATOM     66  C   UNL     1       5.333   6.028 -18.541  1.00  0.00     0.020 A 
ATOM     67  C   UNL     1       6.322   7.682 -17.062  1.00  0.00     0.020 A 
ATOM     68  C   UNL     1       6.439   6.766 -18.110  1.00  0.00     0.054 A 
BRANCH  68  69
ATOM     69  S   UNL     1       8.024   6.530 -18.959  1.00  0.00     0.124 S 
ATOM     70  O   UNL     1       8.417   5.201 -18.499  1.00  0.00    -0.237 OA
ATOM     71  O   UNL     1       7.649   6.622 -20.367  1.00  0.00    -0.237 OA
ATOM     72  O   UNL     1       8.850   7.629 -18.465  1.00  0.00    -0.744 OA
ENDBRANCH  68  69
ENDBRANCH  49  63
BRANCH  50  73
ATOM     73  C   UNL     1      -4.655   8.091 -11.830  1.00  0.00    -0.014 A 
ATOM     74  C   UNL     1      -5.884   8.244 -12.497  1.00  0.00     0.010 A 
ATOM     75  C   UNL     1      -4.641   8.081 -10.423  1.00  0.00     0.010 A 
ATOM     76  C   UNL     1      -7.069   8.403 -11.773  1.00  0.00     0.020 A 
ATOM     77  C   UNL     1      -5.828   8.209  -9.696  1.00  0.00     0.020 A 
ATOM     78  C   UNL     1      -7.035   8.381 -10.376  1.00  0.00     0.054 A 
BRANCH  78  79
ATOM     79  S   UNL     1      -8.593   8.542  -9.461  1.00  0.00     0.124 S 
ATOM     80  O   UNL     1      -8.923   9.949  -9.666  1.00  0.00    -0.237 OA
ATOM     81  O   UNL     1      -9.459   7.583 -10.142  1.00  0.00    -0.237 OA
ATOM     82  O   UNL     1      -8.228   8.178  -8.093  1.00  0.00    -0.744 OA
ENDBRANCH  78  79
ENDBRANCH  50  73
BRANCH  62  83
ATOM     83  C   UNL     1      -0.933  12.322 -15.946  1.00  0.00    -0.014 A 
ATOM     84  C   UNL     1      -0.782  13.399 -15.055  1.00  0.00     0.010 A 
ATOM     85  C   UNL     1      -1.228  12.585 -17.297  1.00  0.00     0.010 A 
ATOM     86  C   UNL     1      -0.954  14.712 -15.499  1.00  0.00     0.020 A 
ATOM     87  C   UNL     1      -1.369  13.898 -17.752  1.00  0.00     0.020 A 
ATOM     88  C   UNL     1      -1.244  14.953 -16.846  1.00  0.00     0.054 A 
BRANCH  88  89
ATOM     89  S   UNL     1      -1.415  16.669 -17.406  1.00  0.00     0.124 S 
ATOM     90  O   UNL     1      -2.697  17.053 -16.823  1.00  0.00    -0.237 OA
ATOM     91  O   UNL     1      -0.241  17.314 -16.823  1.00  0.00    -0.237 OA
ATOM     92  O   UNL     1      -1.399  16.562 -18.863  1.00  0.00    -0.744 OA
ENDBRANCH  88  89
ENDBRANCH  62  83
ENDBRANCH  36  37
ENDBRANCH  28  31
ENDBRANCH  26  27
ENDBRANCH   1  26
TORSDOF 17
