REMARK SMILES CC(C)[C@H]1C(=O)Nc2ccccc2N1C(=O)N[C@H](Cc1ccccc1)C(=O)NCCCNC(=O)c1ccc(-c2c3nc(c(-c4ccc(S(=O)(=O)[O-])cc4)c4ccc([nH]4)c(-c4ccc(S(=O)(=O)[O-])cc4)c4nc(c(-c5ccc(S(=O)(=O)[O-])cc5)c5ccc2[nH]5)C=C4)C=C3)cc1
REMARK SMILES IDX 30 1 29 2 28 3 26 4 27 5 18 7 17 8 15 9 16 10 14 12 4 13
REMARK SMILES IDX 5 14 6 15 7 16 13 17 8 18 12 20 9 21 11 22 10 23 2 24 1 25
REMARK SMILES IDX 3 26 19 27 20 28 21 29 25 30 22 31 24 32 23 33 31 34 32 35
REMARK SMILES IDX 33 36 34 38 35 39 36 40 94 41 37 42 93 43 38 44 39 45 40 46
REMARK SMILES IDX 87 47 41 48 92 49 86 50 88 51 42 52 91 53 85 54 84 55 43 57
REMARK SMILES IDX 73 58 54 59 72 60 55 61 58 62 71 63 89 64 56 65 57 66 70 68
REMARK SMILES IDX 90 69 59 70 44 71 45 72 53 73 46 74 52 75 47 76 48 77 49 78
REMARK SMILES IDX 50 79 51 80 74 81 75 82 83 83 76 84 82 85 77 86 78 87 79 88
REMARK SMILES IDX 80 89 81 90 60 91 61 92 69 93 62 94 68 95 63 96 64 97 65 98
REMARK SMILES IDX 66 99 67 100
REMARK H PARENT 28 6 17 11 7 19 32 37 88 56 58 67
REMARK Flexibility Score: inf
ROOT
ATOM      1  C   UNL     1       4.783   3.582   0.465  1.00  0.00     0.042 C 
ENDROOT
BRANCH   1   2
ATOM      2  C   UNL     1       4.250   2.164   2.023  1.00  0.00     0.117 C 
BRANCH   2   3
ATOM      3  N   UNL     1       2.661   2.064   2.983  1.00  0.00    -0.354 N 
ATOM      4  C   UNL     1       1.340   1.162   2.995  1.00  0.00     0.242 C 
ATOM      5  O   UNL     1       0.656   1.219   4.025  1.00  0.00    -0.273 OA
ATOM      6  H   UNL     1       2.622   2.760   3.679  1.00  0.00     0.163 HD
BRANCH   4   7
ATOM      7  C   UNL     1       0.626   0.266   1.458  1.00  0.00     0.177 C 
BRANCH   7   8
ATOM      8  N   UNL     1       1.584  -0.163  -0.075  1.00  0.00    -0.326 N 
ATOM      9  C   UNL     1       3.053   0.266  -0.784  1.00  0.00     0.323 C 
ATOM     10  O   UNL     1       3.565  -0.519  -1.583  1.00  0.00    -0.248 OA
ATOM     11  H   UNL     1       1.102  -0.822  -0.625  1.00  0.00     0.166 HD
BRANCH   9  12
ATOM     12  N   UNL     1       3.858   1.556  -0.125  1.00  0.00    -0.280 N 
ATOM     13  C   UNL     1       2.932   2.909   0.700  1.00  0.00     0.184 C 
ATOM     14  C   UNL     1       3.715   4.051   2.148  1.00  0.00     0.247 C 
ATOM     15  O   UNL     1       3.140   4.928   2.785  1.00  0.00    -0.272 OA
ATOM     16  N   UNL     1       5.478   3.712   2.372  1.00  0.00    -0.322 N 
ATOM     17  C   UNL     1       5.585   1.469   0.240  1.00  0.00     0.070 A 
ATOM     18  C   UNL     1       6.364   2.480   1.413  1.00  0.00     0.065 A 
ATOM     19  H   UNL     1       5.974   4.226   3.049  1.00  0.00     0.170 HD
ATOM     20  C   UNL     1       6.379   0.645  -0.515  1.00  0.00     0.028 A 
ATOM     21  C   UNL     1       7.731   2.626   1.370  1.00  0.00     0.028 A 
ATOM     22  C   UNL     1       7.770   0.858  -0.415  1.00  0.00     0.002 A 
ATOM     23  C   UNL     1       8.402   1.841   0.422  1.00  0.00     0.002 A 
BRANCH  13  24
ATOM     24  C   UNL     1       1.972   1.859   0.823  1.00  0.00     0.015 C 
ATOM     25  C   UNL     1       1.198   2.095  -0.707  1.00  0.00     0.010 C 
ATOM     26  C   UNL     1       2.889   0.219   1.591  1.00  0.00     0.010 C 
ENDBRANCH  13  24
ENDBRANCH   9  12
ENDBRANCH   7   8
BRANCH   7  27
ATOM     27  C   UNL     1      -0.770   0.979   1.230  1.00  0.00     0.070 C 
BRANCH  27  28
ATOM     28  C   UNL     1      -1.735   0.615   0.136  1.00  0.00    -0.045 A 
ATOM     29  C   UNL     1      -2.466   1.656  -0.479  1.00  0.00     0.004 A 
ATOM     30  C   UNL     1      -2.028  -0.702  -0.207  1.00  0.00     0.004 A 
ATOM     31  C   UNL     1      -3.469   1.386  -1.406  1.00  0.00     0.000 A 
ATOM     32  C   UNL     1      -3.039  -0.972  -1.136  1.00  0.00     0.000 A 
ATOM     33  C   UNL     1      -3.761   0.067  -1.728  1.00  0.00     0.000 A 
ENDBRANCH  27  28
ENDBRANCH   7  27
ENDBRANCH   4   7
ENDBRANCH   2   3
ENDBRANCH   1   2
BRANCH   1  34
ATOM     34  C   UNL     1       4.954   5.313   0.494  1.00  0.00     0.118 C 
BRANCH  34  35
ATOM     35  N   UNL     1       5.521   5.924   1.690  1.00  0.00    -0.352 N 
ATOM     36  C   UNL     1       6.802   6.373   1.856  1.00  0.00     0.251 C 
ATOM     37  H   UNL     1       4.917   6.024   2.461  1.00  0.00     0.163 HD
ATOM     38  O   UNL     1       7.740   5.735   2.297  1.00  0.00    -0.269 OA
BRANCH  36  39
ATOM     39  C   UNL     1       6.847   7.798   1.601  1.00  0.00     0.039 A 
ATOM     40  C   UNL     1       7.469   8.234   0.431  1.00  0.00     0.014 A 
ATOM     41  C   UNL     1       5.877   8.527   2.291  1.00  0.00     0.014 A 
ATOM     42  C   UNL     1       7.080   9.455  -0.080  1.00  0.00     0.010 A 
ATOM     43  C   UNL     1       5.388   9.650   1.694  1.00  0.00     0.010 A 
ATOM     44  C   UNL     1       6.031  10.141   0.547  1.00  0.00    -0.014 A 
BRANCH  44  45
ATOM     45  C   UNL     1       5.649  11.494   0.158  1.00  0.00     0.031 A 
ATOM     46  C   UNL     1       5.884  12.559   1.183  1.00  0.00     0.074 A 
ATOM     47  C   UNL     1       4.974  11.676  -0.985  1.00  0.00     0.049 A 
ATOM     48  N   UNL     1       5.401  13.764   1.239  1.00  0.00    -0.248 NA
ATOM     49  C   UNL     1       6.683  12.171   2.367  1.00  0.00     0.031 C 
ATOM     50  C   UNL     1       4.662  10.638  -1.973  1.00  0.00     0.029 A 
ATOM     51  N   UNL     1       4.407  12.806  -1.491  1.00  0.00    -0.354 N 
ATOM     52  C   UNL     1       5.781  14.245   2.486  1.00  0.00     0.074 A 
ATOM     53  C   UNL     1       6.440  13.175   3.190  1.00  0.00     0.031 C 
ATOM     54  C   UNL     1       3.981  11.195  -2.988  1.00  0.00     0.029 A 
ATOM     55  C   UNL     1       3.776  12.607  -2.692  1.00  0.00     0.049 A 
ATOM     56  H   UNL     1       4.447  13.680  -1.039  1.00  0.00     0.167 HD
ATOM     57  C   UNL     1       5.623  15.494   2.970  1.00  0.00     0.031 A 
ATOM     58  C   UNL     1       3.107  13.492  -3.448  1.00  0.00     0.031 A 
ATOM     59  C   UNL     1       5.023  16.533   2.184  1.00  0.00     0.049 A 
ATOM     60  C   UNL     1       3.026  14.904  -2.938  1.00  0.00     0.074 A 
ATOM     61  C   UNL     1       4.889  17.873   2.475  1.00  0.00     0.029 A 
ATOM     62  N   UNL     1       4.476  16.329   0.921  1.00  0.00    -0.354 N 
ATOM     63  N   UNL     1       3.452  15.388  -1.791  1.00  0.00    -0.248 NA
ATOM     64  C   UNL     1       2.401  15.890  -3.820  1.00  0.00     0.031 C 
ATOM     65  C   UNL     1       4.221  18.474   1.403  1.00  0.00     0.029 A 
ATOM     66  C   UNL     1       3.991  17.518   0.420  1.00  0.00     0.049 A 
ATOM     67  H   UNL     1       4.440  15.463   0.455  1.00  0.00     0.167 HD
ATOM     68  C   UNL     1       3.164  16.744  -1.819  1.00  0.00     0.074 A 
ATOM     69  C   UNL     1       2.547  17.001  -3.110  1.00  0.00     0.031 C 
ATOM     70  C   UNL     1       3.380  17.697  -0.876  1.00  0.00     0.031 A 
BRANCH  57  71
ATOM     71  C   UNL     1       6.117  15.768   4.366  1.00  0.00    -0.014 A 
ATOM     72  C   UNL     1       7.481  15.649   4.701  1.00  0.00     0.010 A 
ATOM     73  C   UNL     1       5.201  16.118   5.373  1.00  0.00     0.010 A 
ATOM     74  C   UNL     1       7.908  15.810   6.021  1.00  0.00     0.020 A 
ATOM     75  C   UNL     1       5.630  16.321   6.689  1.00  0.00     0.020 A 
ATOM     76  C   UNL     1       6.978  16.144   7.008  1.00  0.00     0.054 A 
BRANCH  76  77
ATOM     77  S   UNL     1       7.563  16.370   8.710  1.00  0.00     0.124 S 
ATOM     78  O   UNL     1       7.843  14.995   9.118  1.00  0.00    -0.237 OA
ATOM     79  O   UNL     1       8.737  17.221   8.532  1.00  0.00    -0.237 OA
ATOM     80  O   UNL     1       6.433  17.003   9.384  1.00  0.00    -0.744 OA
ENDBRANCH  76  77
ENDBRANCH  57  71
BRANCH  58  81
ATOM     81  C   UNL     1       2.549  13.068  -4.757  1.00  0.00    -0.014 A 
ATOM     82  C   UNL     1       3.171  13.466  -5.952  1.00  0.00     0.010 A 
ATOM     83  C   UNL     1       1.453  12.187  -4.818  1.00  0.00     0.010 A 
ATOM     84  C   UNL     1       2.706  12.998  -7.185  1.00  0.00     0.020 A 
ATOM     85  C   UNL     1       1.000  11.697  -6.047  1.00  0.00     0.020 A 
ATOM     86  C   UNL     1       1.627  12.110  -7.224  1.00  0.00     0.054 A 
BRANCH  86  87
ATOM     87  S   UNL     1       1.093  11.459  -8.831  1.00  0.00     0.124 S 
ATOM     88  O   UNL     1       0.477  12.630  -9.445  1.00  0.00    -0.237 OA
ATOM     89  O   UNL     1       2.353  11.020  -9.426  1.00  0.00    -0.237 OA
ATOM     90  O   UNL     1       0.173  10.381  -8.475  1.00  0.00    -0.744 OA
ENDBRANCH  86  87
ENDBRANCH  58  81
BRANCH  70  91
ATOM     91  C   UNL     1       2.958  19.093  -1.227  1.00  0.00    -0.014 A 
ATOM     92  C   UNL     1       1.599  19.446  -1.264  1.00  0.00     0.010 A 
ATOM     93  C   UNL     1       3.941  20.073  -1.451  1.00  0.00     0.010 A 
ATOM     94  C   UNL     1       1.228  20.757  -1.555  1.00  0.00     0.020 A 
ATOM     95  C   UNL     1       3.574  21.392  -1.708  1.00  0.00     0.020 A 
ATOM     96  C   UNL     1       2.218  21.721  -1.772  1.00  0.00     0.054 A 
BRANCH  96  97
ATOM     97  S   UNL     1       1.707  23.427  -2.103  1.00  0.00     0.124 S 
ATOM     98  O   UNL     1       1.191  23.328  -3.465  1.00  0.00    -0.237 OA
ATOM     99  O   UNL     1       0.707  23.666  -1.066  1.00  0.00    -0.237 OA
ATOM    100  O   UNL     1       2.943  24.192  -1.958  1.00  0.00    -0.744 OA
ENDBRANCH  96  97
ENDBRANCH  70  91
ENDBRANCH  44  45
ENDBRANCH  36  39
ENDBRANCH  34  35
ENDBRANCH   1  34
TORSDOF 18
