REMARK SMILES O=C(NCCCNC(=O)c1cc(/N=C/c2ccc([N+](=O)[O-])cc2)ccc1O)c1ccc(-c2c3nc(c(-c4ccc(S(=O)(=O)[O-])cc4)c4ccc([nH]4)c(-c4ccc(S(=O)(=O)[O-])cc4)c4nc(c(-c5ccc(S(=O)(=O)[O-])cc5)c5ccc2[nH]5)C=C4)C=C3)cc1
REMARK SMILES IDX 5 1 4 2 3 3 1 4 2 5 28 7 29 8 87 9 30 10 86 11 31 12 32 13
REMARK SMILES IDX 33 14 80 15 34 16 85 17 79 18 81 19 35 20 84 21 78 22 77 23
REMARK SMILES IDX 36 25 66 26 47 27 65 28 48 29 51 30 64 31 82 32 49 33 50 34
REMARK SMILES IDX 63 36 83 37 52 38 37 39 38 40 46 41 39 42 45 43 40 44 41 45
REMARK SMILES IDX 42 46 43 47 44 48 67 49 68 50 76 51 69 52 75 53 70 54 71 55
REMARK SMILES IDX 72 56 73 57 74 58 53 59 54 60 62 61 55 62 61 63 56 64 57 65
REMARK SMILES IDX 58 66 59 67 60 68 6 69 7 70 8 71 9 73 10 74 11 75 26 76
REMARK SMILES IDX 12 77 25 78 24 79 27 80 13 82 14 83 15 84 16 85 23 86 17 87
REMARK SMILES IDX 22 88 18 89 19 90 20 91 21 92
REMARK H PARENT 3 6 81 24 51 35 7 72 27 81
REMARK Flexibility Score: inf
ROOT
ATOM      1  C   UNL     1       4.971  -0.461  -2.417  1.00  0.00     0.042 C 
ENDROOT
BRANCH   1   2
ATOM      2  C   UNL     1       4.610   0.529  -1.321  1.00  0.00     0.118 C 
BRANCH   2   3
ATOM      3  N   UNL     1       3.180   0.555  -1.030  1.00  0.00    -0.352 N 
ATOM      4  O   UNL     1       1.255   0.072   0.025  1.00  0.00    -0.269 OA
ATOM      5  C   UNL     1       2.482   0.125   0.073  1.00  0.00     0.251 C 
ATOM      6  H   UNL     1       2.624   0.946  -1.742  1.00  0.00     0.163 HD
BRANCH   5   7
ATOM      7  C   UNL     1       3.193  -0.295   1.302  1.00  0.00     0.039 A 
ATOM      8  C   UNL     1       4.311   0.402   1.755  1.00  0.00     0.014 A 
ATOM      9  C   UNL     1       2.716  -1.389   2.033  1.00  0.00     0.014 A 
ATOM     10  C   UNL     1       5.055  -0.096   2.817  1.00  0.00     0.010 A 
ATOM     11  C   UNL     1       3.403  -1.823   3.173  1.00  0.00     0.010 A 
ATOM     12  C   UNL     1       4.601  -1.202   3.554  1.00  0.00    -0.014 A 
BRANCH  12  13
ATOM     13  C   UNL     1       5.377  -1.632   4.747  1.00  0.00     0.031 A 
ATOM     14  C   UNL     1       6.027  -2.988   4.816  1.00  0.00     0.074 A 
ATOM     15  C   UNL     1       5.546  -0.750   5.754  1.00  0.00     0.049 A 
ATOM     16  N   UNL     1       6.790  -3.484   5.757  1.00  0.00    -0.248 NA
ATOM     17  C   UNL     1       5.789  -3.908   3.692  1.00  0.00     0.031 C 
ATOM     18  C   UNL     1       4.954   0.591   5.808  1.00  0.00     0.029 A 
ATOM     19  N   UNL     1       6.290  -0.827   6.903  1.00  0.00    -0.354 N 
ATOM     20  C   UNL     1       7.116  -4.772   5.348  1.00  0.00     0.074 A 
ATOM     21  C   UNL     1       6.441  -4.995   4.087  1.00  0.00     0.031 C 
ATOM     22  C   UNL     1       5.408   1.231   6.894  1.00  0.00     0.029 A 
ATOM     23  C   UNL     1       6.267   0.327   7.649  1.00  0.00     0.049 A 
ATOM     24  H   UNL     1       6.791  -1.632   7.168  1.00  0.00     0.167 HD
ATOM     25  C   UNL     1       7.911  -5.682   5.962  1.00  0.00     0.031 A 
ATOM     26  C   UNL     1       6.861   0.629   8.819  1.00  0.00     0.031 A 
ATOM     27  C   UNL     1       8.578  -5.458   7.220  1.00  0.00     0.049 A 
ATOM     28  C   UNL     1       7.723  -0.403   9.483  1.00  0.00     0.074 A 
ATOM     29  C   UNL     1       9.402  -6.320   7.924  1.00  0.00     0.029 A 
ATOM     30  N   UNL     1       8.502  -4.287   7.960  1.00  0.00    -0.354 N 
ATOM     31  N   UNL     1       8.023  -1.612   9.072  1.00  0.00    -0.248 NA
ATOM     32  C   UNL     1       8.329  -0.030  10.768  1.00  0.00     0.031 C 
ATOM     33  C   UNL     1       9.794  -5.684   9.107  1.00  0.00     0.029 A 
ATOM     34  C   UNL     1       9.255  -4.408   9.117  1.00  0.00     0.049 A 
ATOM     35  H   UNL     1       7.989  -3.488   7.701  1.00  0.00     0.167 HD
ATOM     36  C   UNL     1       8.859  -2.143  10.046  1.00  0.00     0.074 A 
ATOM     37  C   UNL     1       9.041  -1.113  11.048  1.00  0.00     0.031 C 
ATOM     38  C   UNL     1       9.418  -3.376  10.108  1.00  0.00     0.031 A 
BRANCH  25  39
ATOM     39  C   UNL     1       8.098  -7.016   5.287  1.00  0.00    -0.014 A 
ATOM     40  C   UNL     1       8.894  -7.138   4.133  1.00  0.00     0.010 A 
ATOM     41  C   UNL     1       7.517  -8.171   5.841  1.00  0.00     0.010 A 
ATOM     42  C   UNL     1       9.079  -8.385   3.529  1.00  0.00     0.020 A 
ATOM     43  C   UNL     1       7.719  -9.424   5.253  1.00  0.00     0.020 A 
ATOM     44  C   UNL     1       8.487  -9.520   4.090  1.00  0.00     0.054 A 
BRANCH  44  45
ATOM     45  S   UNL     1       8.764 -11.129   3.298  1.00  0.00     0.124 S 
ATOM     46  O   UNL     1       7.920 -11.027   2.109  1.00  0.00    -0.237 OA
ATOM     47  O   UNL     1      10.203 -11.121   3.047  1.00  0.00    -0.237 OA
ATOM     48  O   UNL     1       8.314 -12.092   4.300  1.00  0.00    -0.744 OA
ENDBRANCH  44  45
ENDBRANCH  25  39
BRANCH  26  49
ATOM     49  C   UNL     1       6.631   1.960   9.442  1.00  0.00    -0.014 A 
ATOM     50  C   UNL     1       7.664   2.908   9.524  1.00  0.00     0.010 A 
ATOM     51  C   UNL     1       5.358   2.288   9.945  1.00  0.00     0.010 A 
ATOM     52  C   UNL     1       7.434   4.153  10.119  1.00  0.00     0.020 A 
ATOM     53  C   UNL     1       5.116   3.541  10.512  1.00  0.00     0.020 A 
ATOM     54  C   UNL     1       6.162   4.460  10.610  1.00  0.00     0.054 A 
BRANCH  54  55
ATOM     55  S   UNL     1       5.869   6.094  11.341  1.00  0.00     0.124 S 
ATOM     56  O   UNL     1       6.461   5.941  12.666  1.00  0.00    -0.237 OA
ATOM     57  O   UNL     1       6.580   6.985  10.428  1.00  0.00    -0.237 OA
ATOM     58  O   UNL     1       4.413   6.222  11.314  1.00  0.00    -0.744 OA
ENDBRANCH  54  55
ENDBRANCH  26  49
BRANCH  38  59
ATOM     59  C   UNL     1      10.295  -3.664  11.295  1.00  0.00    -0.014 A 
ATOM     60  C   UNL     1       9.743  -3.864  12.573  1.00  0.00     0.010 A 
ATOM     61  C   UNL     1      11.688  -3.754  11.126  1.00  0.00     0.010 A 
ATOM     62  C   UNL     1      10.574  -4.106  13.670  1.00  0.00     0.020 A 
ATOM     63  C   UNL     1      12.520  -4.022  12.216  1.00  0.00     0.020 A 
ATOM     64  C   UNL     1      11.958  -4.178  13.485  1.00  0.00     0.054 A 
BRANCH  64  65
ATOM     65  S   UNL     1      13.016  -4.515  14.919  1.00  0.00     0.124 S 
ATOM     66  O   UNL     1      13.028  -3.222  15.597  1.00  0.00    -0.237 OA
ATOM     67  O   UNL     1      12.293  -5.581  15.610  1.00  0.00    -0.237 OA
ATOM     68  O   UNL     1      14.287  -4.919  14.322  1.00  0.00    -0.744 OA
ENDBRANCH  64  65
ENDBRANCH  38  59
ENDBRANCH  12  13
ENDBRANCH   5   7
ENDBRANCH   2   3
ENDBRANCH   1   2
BRANCH   1  69
ATOM     69  C   UNL     1       4.412  -0.093  -3.782  1.00  0.00     0.118 C 
BRANCH  69  70
ATOM     70  N   UNL     1       4.980   1.143  -4.302  1.00  0.00    -0.352 N 
ATOM     71  C   UNL     1       5.811   1.325  -5.380  1.00  0.00     0.255 C 
ATOM     72  H   UNL     1       4.735   1.961  -3.812  1.00  0.00     0.163 HD
ATOM     73  O   UNL     1       6.274   2.435  -5.629  1.00  0.00    -0.269 OA
BRANCH  71  74
ATOM     74  C   UNL     1       6.206   0.168  -6.204  1.00  0.00     0.083 A 
ATOM     75  C   UNL     1       7.571  -0.139  -6.276  1.00  0.00     0.046 A 
ATOM     76  C   UNL     1       5.271  -0.622  -6.880  1.00  0.00     0.128 A 
ATOM     77  C   UNL     1       8.003  -1.270  -6.969  1.00  0.00     0.064 A 
ATOM     78  C   UNL     1       5.687  -1.769  -7.549  1.00  0.00     0.049 A 
ATOM     79  C   UNL     1       7.045  -2.099  -7.571  1.00  0.00     0.032 A 
BRANCH  76  80
ATOM     80  O   UNL     1       3.944  -0.293  -6.863  1.00  0.00    -0.507 OA
ATOM     81  H   UNL     1       3.659   0.478  -6.414  1.00  0.00     0.293 HD
ENDBRANCH  76  80
BRANCH  77  82
ATOM     82  N   UNL     1       9.376  -1.564  -6.974  1.00  0.00    -0.256 NA
ATOM     83  C   UNL     1       9.920  -1.954  -8.082  1.00  0.00     0.119 C 
BRANCH  83  84
ATOM     84  C   UNL     1      11.359  -2.267  -8.180  1.00  0.00    -0.007 A 
ATOM     85  C   UNL     1      11.849  -2.777  -9.387  1.00  0.00     0.017 A 
ATOM     86  C   UNL     1      12.223  -2.038  -7.103  1.00  0.00     0.017 A 
ATOM     87  C   UNL     1      13.213  -3.048  -9.525  1.00  0.00     0.086 A 
ATOM     88  C   UNL     1      13.590  -2.302  -7.237  1.00  0.00     0.086 A 
ATOM     89  C   UNL     1      14.081  -2.801  -8.451  1.00  0.00     0.269 A 
BRANCH  89  90
ATOM     90  N   UNL     1      15.520  -3.051  -8.611  1.00  0.00     0.062 N 
ATOM     91  O   UNL     1      15.908  -3.491  -9.704  1.00  0.00    -0.258 OA
ATOM     92  O   UNL     1      16.262  -2.797  -7.653  1.00  0.00    -0.258 OA
ENDBRANCH  89  90
ENDBRANCH  83  84
ENDBRANCH  77  82
ENDBRANCH  71  74
ENDBRANCH  69  70
ENDBRANCH   1  69
TORSDOF 17
