REMARK SMILES NC(=O)CC[C@H](NC(=O)CC1CC1)C(=O)NCCCNC(=O)c1ccc(-c2c3nc(c(-c4ccc(S(=O)(=O)[O-])cc4)c4ccc([nH]4)c(-c4ccc(S(=O)(=O)[O-])cc4)c4nc(c(-c5ccc(S(=O)(=O)[O-])cc5)c5ccc2[nH]5)C=C4)C=C3)cc1
REMARK SMILES IDX 18 1 17 2 16 3 14 4 15 5 6 7 5 8 4 9 2 10 1 11 3 14 7 15
REMARK SMILES IDX 8 16 9 18 10 19 11 20 12 21 13 22 19 23 20 24 21 25 22 27
REMARK SMILES IDX 23 28 24 29 82 30 25 31 81 32 26 33 27 34 28 35 75 36 29 37
REMARK SMILES IDX 80 38 74 39 76 40 30 41 79 42 73 43 72 44 31 46 61 47 42 48
REMARK SMILES IDX 60 49 43 50 46 51 59 52 77 53 44 54 45 55 58 57 78 58 47 59
REMARK SMILES IDX 32 60 33 61 41 62 34 63 40 64 35 65 36 66 37 67 38 68 39 69
REMARK SMILES IDX 62 70 63 71 71 72 64 73 70 74 65 75 66 76 67 77 68 78 69 79
REMARK SMILES IDX 48 80 49 81 57 82 50 83 56 84 51 85 52 86 53 87 54 88 55 89
REMARK H PARENT 16 6 1 12 1 13 7 17 20 26 76 45 46 56
REMARK Flexibility Score: inf
ROOT
ATOM      1  C   UNL     1       5.300   5.058   2.716  1.00  0.00     0.042 C 
ENDROOT
BRANCH   1   2
ATOM      2  C   UNL     1       5.441   3.787   1.869  1.00  0.00     0.117 C 
BRANCH   2   3
ATOM      3  N   UNL     1       5.187   2.537   2.574  1.00  0.00    -0.354 N 
ATOM      4  C   UNL     1       4.304   1.516   2.435  1.00  0.00     0.242 C 
ATOM      5  O   UNL     1       4.383   0.625   3.294  1.00  0.00    -0.273 OA
ATOM      6  H   UNL     1       5.803   2.401   3.330  1.00  0.00     0.163 HD
BRANCH   4   7
ATOM      7  C   UNL     1       3.196   1.425   1.356  1.00  0.00     0.171 C 
BRANCH   7   8
ATOM      8  C   UNL     1       3.564   1.757  -0.105  1.00  0.00     0.045 C 
BRANCH   8   9
ATOM      9  C   UNL     1       2.443   2.297  -0.988  1.00  0.00     0.102 C 
BRANCH   9  10
ATOM     10  C   UNL     1       2.146   3.746  -0.694  1.00  0.00     0.217 C 
ATOM     11  N   UNL     1       0.847   4.036  -0.420  1.00  0.00    -0.370 N 
ATOM     12  H   UNL     1       0.582   4.963  -0.220  1.00  0.00     0.159 HD
ATOM     13  H   UNL     1       0.172   3.320  -0.423  1.00  0.00     0.159 HD
ATOM     14  O   UNL     1       3.009   4.619  -0.700  1.00  0.00    -0.275 OA
ENDBRANCH   9  10
ENDBRANCH   8   9
ENDBRANCH   7   8
BRANCH   7  15
ATOM     15  N   UNL     1       1.797   1.635   1.758  1.00  0.00    -0.344 N 
ATOM     16  C   UNL     1       1.137   2.643   2.384  1.00  0.00     0.220 C 
ATOM     17  H   UNL     1       1.212   0.879   1.523  1.00  0.00     0.164 HD
ATOM     18  O   UNL     1      -0.096   2.625   2.340  1.00  0.00    -0.275 OA
BRANCH  16  19
ATOM     19  C   UNL     1       1.882   3.734   3.104  1.00  0.00     0.103 C 
BRANCH  19  20
ATOM     20  C   UNL     1       2.543   3.324   4.391  1.00  0.00    -0.002 C 
ATOM     21  C   UNL     1       1.878   3.549   5.726  1.00  0.00     0.004 C 
ATOM     22  C   UNL     1       2.074   2.151   5.216  1.00  0.00     0.004 C 
ENDBRANCH  19  20
ENDBRANCH  16  19
ENDBRANCH   7  15
ENDBRANCH   4   7
ENDBRANCH   2   3
ENDBRANCH   1   2
BRANCH   1  23
ATOM     23  C   UNL     1       5.868   5.014   4.130  1.00  0.00     0.118 C 
BRANCH  23  24
ATOM     24  N   UNL     1       7.261   5.399   4.177  1.00  0.00    -0.352 N 
ATOM     25  C   UNL     1       7.833   6.545   4.671  1.00  0.00     0.251 C 
ATOM     26  H   UNL     1       7.891   4.744   3.799  1.00  0.00     0.163 HD
ATOM     27  O   UNL     1       9.006   6.784   4.390  1.00  0.00    -0.269 OA
BRANCH  25  28
ATOM     28  C   UNL     1       7.072   7.498   5.520  1.00  0.00     0.039 A 
ATOM     29  C   UNL     1       7.310   8.864   5.344  1.00  0.00     0.014 A 
ATOM     30  C   UNL     1       6.208   7.080   6.540  1.00  0.00     0.014 A 
ATOM     31  C   UNL     1       6.688   9.799   6.176  1.00  0.00     0.010 A 
ATOM     32  C   UNL     1       5.526   8.021   7.321  1.00  0.00     0.010 A 
ATOM     33  C   UNL     1       5.782   9.391   7.170  1.00  0.00    -0.014 A 
BRANCH  33  34
ATOM     34  C   UNL     1       5.144  10.412   8.049  1.00  0.00     0.031 A 
ATOM     35  C   UNL     1       5.455  10.475   9.523  1.00  0.00     0.074 A 
ATOM     36  C   UNL     1       4.316  11.328   7.507  1.00  0.00     0.049 A 
ATOM     37  N   UNL     1       5.132  11.398  10.396  1.00  0.00    -0.248 NA
ATOM     38  C   UNL     1       6.212   9.352  10.097  1.00  0.00     0.031 C 
ATOM     39  C   UNL     1       3.893  11.354   6.105  1.00  0.00     0.029 A 
ATOM     40  N   UNL     1       3.710  12.430   8.058  1.00  0.00    -0.354 N 
ATOM     41  C   UNL     1       5.649  10.971  11.615  1.00  0.00     0.074 A 
ATOM     42  C   UNL     1       6.250   9.676  11.381  1.00  0.00     0.031 C 
ATOM     43  C   UNL     1       3.156  12.455   5.891  1.00  0.00     0.029 A 
ATOM     44  C   UNL     1       3.029  13.197   7.142  1.00  0.00     0.049 A 
ATOM     45  H   UNL     1       3.759  12.650   9.017  1.00  0.00     0.167 HD
ATOM     46  C   UNL     1       5.647  11.604  12.814  1.00  0.00     0.031 A 
ATOM     47  C   UNL     1       2.396  14.378   7.281  1.00  0.00     0.031 A 
ATOM     48  C   UNL     1       5.032  12.886  13.052  1.00  0.00     0.049 A 
ATOM     49  C   UNL     1       2.404  15.065   8.618  1.00  0.00     0.074 A 
ATOM     50  C   UNL     1       5.009  13.630  14.219  1.00  0.00     0.029 A 
ATOM     51  N   UNL     1       4.321  13.610  12.106  1.00  0.00    -0.354 N 
ATOM     52  N   UNL     1       2.966  14.682   9.740  1.00  0.00    -0.248 NA
ATOM     53  C   UNL     1       1.710  16.357   8.698  1.00  0.00     0.031 C 
ATOM     54  C   UNL     1       4.236  14.776  13.994  1.00  0.00     0.029 A 
ATOM     55  C   UNL     1       3.832  14.779  12.669  1.00  0.00     0.049 A 
ATOM     56  H   UNL     1       4.183  13.334  11.171  1.00  0.00     0.167 HD
ATOM     57  C   UNL     1       2.711  15.697  10.656  1.00  0.00     0.074 A 
ATOM     58  C   UNL     1       1.967  16.720   9.948  1.00  0.00     0.031 C 
ATOM     59  C   UNL     1       3.065  15.777  11.964  1.00  0.00     0.031 A 
BRANCH  46  60
ATOM     60  C   UNL     1       6.322  10.901  13.968  1.00  0.00    -0.014 A 
ATOM     61  C   UNL     1       7.716  10.705  13.988  1.00  0.00     0.010 A 
ATOM     62  C   UNL     1       5.556  10.435  15.052  1.00  0.00     0.010 A 
ATOM     63  C   UNL     1       8.321  10.002  15.034  1.00  0.00     0.020 A 
ATOM     64  C   UNL     1       6.161   9.759  16.117  1.00  0.00     0.020 A 
ATOM     65  C   UNL     1       7.537   9.524  16.088  1.00  0.00     0.054 A 
BRANCH  65  66
ATOM     66  S   UNL     1       8.344   8.599  17.424  1.00  0.00     0.124 S 
ATOM     67  O   UNL     1       8.642   7.327  16.771  1.00  0.00    -0.237 OA
ATOM     68  O   UNL     1       9.505   9.431  17.735  1.00  0.00    -0.237 OA
ATOM     69  O   UNL     1       7.326   8.540  18.470  1.00  0.00    -0.744 OA
ENDBRANCH  65  66
ENDBRANCH  46  60
BRANCH  47  70
ATOM     70  C   UNL     1       1.750  15.009   6.096  1.00  0.00    -0.014 A 
ATOM     71  C   UNL     1       2.307  16.157   5.505  1.00  0.00     0.010 A 
ATOM     72  C   UNL     1       0.595  14.440   5.529  1.00  0.00     0.010 A 
ATOM     73  C   UNL     1       1.720  16.725   4.370  1.00  0.00     0.020 A 
ATOM     74  C   UNL     1       0.023  14.988   4.377  1.00  0.00     0.020 A 
ATOM     75  C   UNL     1       0.586  16.132   3.808  1.00  0.00     0.054 A 
BRANCH  75  76
ATOM     76  S   UNL     1      -0.109  16.838   2.288  1.00  0.00     0.124 S 
ATOM     77  O   UNL     1      -0.724  18.068   2.777  1.00  0.00    -0.237 OA
ATOM     78  O   UNL     1       1.076  17.011   1.452  1.00  0.00    -0.237 OA
ATOM     79  O   UNL     1      -1.040  15.810   1.829  1.00  0.00    -0.744 OA
ENDBRANCH  75  76
ENDBRANCH  47  70
BRANCH  59  80
ATOM     80  C   UNL     1       2.661  17.026  12.707  1.00  0.00    -0.014 A 
ATOM     81  C   UNL     1       1.312  17.300  13.000  1.00  0.00     0.010 A 
ATOM     82  C   UNL     1       3.648  17.941  13.117  1.00  0.00     0.010 A 
ATOM     83  C   UNL     1       0.954  18.495  13.631  1.00  0.00     0.020 A 
ATOM     84  C   UNL     1       3.296  19.121  13.778  1.00  0.00     0.020 A 
ATOM     85  C   UNL     1       1.948  19.402  14.007  1.00  0.00     0.054 A 
BRANCH  85  86
ATOM     86  S   UNL     1       1.459  20.951  14.815  1.00  0.00     0.124 S 
ATOM     87  O   UNL     1       0.917  21.718  13.697  1.00  0.00    -0.237 OA
ATOM     88  O   UNL     1       0.480  20.504  15.803  1.00  0.00    -0.237 OA
ATOM     89  O   UNL     1       2.709  21.461  15.373  1.00  0.00    -0.744 OA
ENDBRANCH  85  86
ENDBRANCH  59  80
ENDBRANCH  33  34
ENDBRANCH  25  28
ENDBRANCH  23  24
ENDBRANCH   1  23
TORSDOF 19
