REMARK SMILES Cc1ccc(N)cc1S(=O)(=O)Nc1cccc(C(=O)NCCCNC(=O)c2ccc(-c3c4nc(c(-c5ccc(S(=O)(=O)[O-])cc5)c5ccc([nH]5)c(-c5ccc(S(=O)(=O)[O-])cc5)c5nc(c(-c6ccc(S(=O)(=O)[O-])cc6)c6ccc3[nH]6)C=C5)C=C4)cc2)c1
REMARK SMILES IDX 21 1 20 2 18 3 19 4 17 6 13 7 14 8 87 9 15 10 16 11 12 12
REMARK SMILES IDX 9 14 10 15 11 16 8 17 1 18 2 19 3 20 4 21 7 22 5 23 6 24
REMARK SMILES IDX 22 27 23 28 24 29 25 30 26 32 27 33 28 34 86 35 29 36 85 37
REMARK SMILES IDX 30 38 31 39 32 40 79 41 33 42 84 43 78 44 80 45 34 46 83 47
REMARK SMILES IDX 77 48 76 49 35 51 65 52 46 53 64 54 47 55 50 56 63 57 81 58
REMARK SMILES IDX 48 59 49 60 62 62 82 63 51 64 36 65 37 66 45 67 38 68 44 69
REMARK SMILES IDX 39 70 40 71 41 72 42 73 43 74 66 75 67 76 75 77 68 78 74 79
REMARK SMILES IDX 69 80 70 81 71 82 72 83 73 84 52 85 53 86 61 87 54 88 60 89
REMARK SMILES IDX 55 90 56 91 57 92 58 93 59 94
REMARK H PARENT 20 5 12 13 6 25 6 26 24 31 80 50 50 61
REMARK Flexibility Score: inf
ROOT
ATOM      1  C   UNL     1      -1.572  -0.950   2.723  1.00  0.00     0.118 C 
ENDROOT
BRANCH   1   2
ATOM      2  N   UNL     1      -2.784  -1.698   3.015  1.00  0.00    -0.352 N 
ATOM      3  C   UNL     1      -4.071  -1.607   2.548  1.00  0.00     0.251 C 
ATOM      4  O   UNL     1      -4.884  -2.430   2.973  1.00  0.00    -0.269 OA
ATOM      5  H   UNL     1      -2.656  -2.412   3.680  1.00  0.00     0.163 HD
BRANCH   3   6
ATOM      6  C   UNL     1      -4.515  -0.635   1.506  1.00  0.00     0.041 A 
ATOM      7  C   UNL     1      -4.208   1.286   0.062  1.00  0.00     0.050 A 
ATOM      8  C   UNL     1      -5.362   0.944  -0.649  1.00  0.00     0.027 A 
ATOM      9  C   UNL     1      -3.857   0.558   1.198  1.00  0.00     0.040 A 
ATOM     10  C   UNL     1      -6.092  -0.186  -0.295  1.00  0.00     0.003 A 
ATOM     11  C   UNL     1      -5.650  -0.989   0.755  1.00  0.00     0.014 A 
BRANCH   7  12
ATOM     12  N   UNL     1      -3.372   2.271  -0.526  1.00  0.00    -0.280 N 
ATOM     13  H   UNL     1      -3.781   2.831  -1.224  1.00  0.00     0.180 HD
BRANCH  12  14
ATOM     14  S   UNL     1      -1.775   2.583  -0.166  1.00  0.00     0.262 S 
ATOM     15  O   UNL     1      -1.693   2.862   1.252  1.00  0.00    -0.201 OA
ATOM     16  O   UNL     1      -1.360   3.570  -1.144  1.00  0.00    -0.201 OA
BRANCH  14  17
ATOM     17  C   UNL     1      -0.745   1.147  -0.462  1.00  0.00     0.092 A 
ATOM     18  C   UNL     1      -2.353  -0.310  -1.884  1.00  0.00     0.046 C 
ATOM     19  C   UNL     1      -1.092  -0.041  -1.125  1.00  0.00    -0.030 A 
ATOM     20  C   UNL     1      -0.181  -1.117  -1.065  1.00  0.00     0.007 A 
ATOM     21  C   UNL     1       1.078  -0.983  -0.477  1.00  0.00     0.026 A 
ATOM     22  C   UNL     1       0.547   1.271   0.102  1.00  0.00     0.048 A 
ATOM     23  C   UNL     1       1.479   0.235   0.053  1.00  0.00     0.033 A 
BRANCH  23  24
ATOM     24  N   UNL     1       2.724   0.375   0.634  1.00  0.00    -0.399 N 
ATOM     25  H   UNL     1       3.373  -0.364   0.593  1.00  0.00     0.156 HD
ATOM     26  H   UNL     1       2.963   1.214   1.091  1.00  0.00     0.156 HD
ENDBRANCH  23  24
ENDBRANCH  14  17
ENDBRANCH  12  14
ENDBRANCH   7  12
ENDBRANCH   3   6
ENDBRANCH   1   2
BRANCH   1  27
ATOM     27  C   UNL     1      -1.377   0.197   3.712  1.00  0.00     0.042 C 
BRANCH  27  28
ATOM     28  C   UNL     1      -0.790  -0.265   5.039  1.00  0.00     0.118 C 
BRANCH  28  29
ATOM     29  N   UNL     1       0.625  -0.583   4.924  1.00  0.00    -0.352 N 
ATOM     30  C   UNL     1       1.665  -0.245   5.752  1.00  0.00     0.251 C 
ATOM     31  H   UNL     1       0.872  -1.120   4.136  1.00  0.00     0.163 HD
ATOM     32  O   UNL     1       2.818  -0.466   5.389  1.00  0.00    -0.269 OA
BRANCH  30  33
ATOM     33  C   UNL     1       1.412   0.403   7.061  1.00  0.00     0.039 A 
ATOM     34  C   UNL     1       2.284   1.411   7.483  1.00  0.00     0.014 A 
ATOM     35  C   UNL     1       0.357   0.005   7.888  1.00  0.00     0.014 A 
ATOM     36  C   UNL     1       2.081   2.038   8.714  1.00  0.00     0.010 A 
ATOM     37  C   UNL     1       0.111   0.683   9.081  1.00  0.00     0.010 A 
ATOM     38  C   UNL     1       0.982   1.692   9.516  1.00  0.00    -0.014 A 
BRANCH  38  39
ATOM     39  C   UNL     1       0.759   2.354  10.826  1.00  0.00     0.031 A 
ATOM     40  C   UNL     1       0.867   1.564  12.103  1.00  0.00     0.074 A 
ATOM     41  C   UNL     1       0.430   3.660  10.866  1.00  0.00     0.049 A 
ATOM     42  N   UNL     1       0.728   1.971  13.339  1.00  0.00    -0.248 NA
ATOM     43  C   UNL     1       1.143   0.124  11.974  1.00  0.00     0.031 C 
ATOM     44  C   UNL     1       0.250   4.525   9.697  1.00  0.00     0.029 A 
ATOM     45  N   UNL     1       0.198   4.491  11.933  1.00  0.00    -0.354 N 
ATOM     46  C   UNL     1       0.873   0.837  14.130  1.00  0.00     0.074 A 
ATOM     47  C   UNL     1       1.066  -0.281  13.233  1.00  0.00     0.031 C 
ATOM     48  C   UNL     1      -0.016   5.774  10.113  1.00  0.00     0.029 A 
ATOM     49  C   UNL     1      -0.054   5.793  11.572  1.00  0.00     0.049 A 
ATOM     50  H   UNL     1       0.211   4.184  12.868  1.00  0.00     0.167 HD
ATOM     51  C   UNL     1       0.866   0.735  15.481  1.00  0.00     0.031 A 
ATOM     52  C   UNL     1      -0.275   6.884  12.330  1.00  0.00     0.031 A 
ATOM     53  C   UNL     1       0.700   1.851  16.372  1.00  0.00     0.049 A 
ATOM     54  C   UNL     1      -0.248   6.754  13.828  1.00  0.00     0.074 A 
ATOM     55  C   UNL     1       0.747   1.866  17.755  1.00  0.00     0.029 A 
ATOM     56  N   UNL     1       0.455   3.154  15.966  1.00  0.00    -0.354 N 
ATOM     57  N   UNL     1      -0.038   5.685  14.558  1.00  0.00    -0.248 NA
ATOM     58  C   UNL     1      -0.473   7.982  14.601  1.00  0.00     0.031 C 
ATOM     59  C   UNL     1       0.495   3.174  18.186  1.00  0.00     0.029 A 
ATOM     60  C   UNL     1       0.333   3.979  17.070  1.00  0.00     0.049 A 
ATOM     61  H   UNL     1       0.379   3.449  15.029  1.00  0.00     0.167 HD
ATOM     62  C   UNL     1      -0.076   6.117  15.879  1.00  0.00     0.074 A 
ATOM     63  C   UNL     1      -0.322   7.545  15.845  1.00  0.00     0.031 C 
ATOM     64  C   UNL     1       0.087   5.398  17.017  1.00  0.00     0.031 A 
BRANCH  51  65
ATOM     65  C   UNL     1       1.034  -0.643  16.067  1.00  0.00    -0.014 A 
ATOM     66  C   UNL     1       2.265  -1.320  15.994  1.00  0.00     0.010 A 
ATOM     67  C   UNL     1      -0.057  -1.273  16.692  1.00  0.00     0.010 A 
ATOM     68  C   UNL     1       2.385  -2.625  16.480  1.00  0.00     0.020 A 
ATOM     69  C   UNL     1       0.066  -2.568  17.203  1.00  0.00     0.020 A 
ATOM     70  C   UNL     1       1.280  -3.246  17.070  1.00  0.00     0.054 A 
BRANCH  70  71
ATOM     71  S   UNL     1       1.453  -4.946  17.677  1.00  0.00     0.124 S 
ATOM     72  O   UNL     1       1.374  -5.716  16.438  1.00  0.00    -0.237 OA
ATOM     73  O   UNL     1       2.764  -4.929  18.322  1.00  0.00    -0.237 OA
ATOM     74  O   UNL     1       0.319  -5.106  18.584  1.00  0.00    -0.744 OA
ENDBRANCH  70  71
ENDBRANCH  51  65
BRANCH  52  75
ATOM     75  C   UNL     1      -0.473   8.206  11.680  1.00  0.00    -0.014 A 
ATOM     76  C   UNL     1       0.557   9.163  11.703  1.00  0.00     0.010 A 
ATOM     77  C   UNL     1      -1.671   8.505  11.008  1.00  0.00     0.010 A 
ATOM     78  C   UNL     1       0.391  10.399  11.073  1.00  0.00     0.020 A 
ATOM     79  C   UNL     1      -1.833   9.732  10.358  1.00  0.00     0.020 A 
ATOM     80  C   UNL     1      -0.804  10.675  10.402  1.00  0.00     0.054 A 
BRANCH  80  81
ATOM     81  S   UNL     1      -0.972  12.259   9.533  1.00  0.00     0.124 S 
ATOM     82  O   UNL     1      -1.209  13.186  10.635  1.00  0.00    -0.237 OA
ATOM     83  O   UNL     1       0.318  12.392   8.861  1.00  0.00    -0.237 OA
ATOM     84  O   UNL     1      -2.110  12.040   8.642  1.00  0.00    -0.744 OA
ENDBRANCH  80  81
ENDBRANCH  52  75
BRANCH  64  85
ATOM     85  C   UNL     1       0.038   6.151  18.318  1.00  0.00    -0.014 A 
ATOM     86  C   UNL     1      -1.179   6.614  18.845  1.00  0.00     0.010 A 
ATOM     87  C   UNL     1       1.226   6.360  19.041  1.00  0.00     0.010 A 
ATOM     88  C   UNL     1      -1.203   7.304  20.060  1.00  0.00     0.020 A 
ATOM     89  C   UNL     1       1.203   7.029  20.266  1.00  0.00     0.020 A 
ATOM     90  C   UNL     1      -0.011   7.512  20.761  1.00  0.00     0.054 A 
BRANCH  90  91
ATOM     91  S   UNL     1      -0.068   8.379  22.353  1.00  0.00     0.124 S 
ATOM     92  O   UNL     1      -0.190   9.772  21.936  1.00  0.00    -0.237 OA
ATOM     93  O   UNL     1      -1.251   7.807  22.991  1.00  0.00    -0.237 OA
ATOM     94  O   UNL     1       1.202   8.025  22.984  1.00  0.00    -0.744 OA
ENDBRANCH  90  91
ENDBRANCH  64  85
ENDBRANCH  38  39
ENDBRANCH  30  33
ENDBRANCH  28  29
ENDBRANCH  27  28
ENDBRANCH   1  27
TORSDOF 17
