REMARK SMILES CC1(C(=O)N2CC(CC(=O)NCCCNC(=O)c3ccc(-c4c5nc(c(-c6ccc(S(=O)(=O)[O-])cc6)c6ccc([nH]6)c(-c6ccc(S(=O)(=O)[O-])cc6)c6nc(c(-c7ccc(S(=O)(=O)[O-])cc7)c7ccc4[nH]7)C=C6)C=C5)cc3)C2)CCCC1
REMARK SMILES IDX 13 1 12 2 11 3 9 4 10 5 8 7 7 8 3 9 4 10 5 11 6 12 78 13
REMARK SMILES IDX 2 14 1 15 79 16 82 17 80 18 81 19 14 20 15 21 16 22 17 24
REMARK SMILES IDX 18 25 19 26 77 27 20 28 76 29 21 30 22 31 23 32 70 33 24 34
REMARK SMILES IDX 75 35 69 36 71 37 25 38 74 39 68 40 67 41 26 43 56 44 37 45
REMARK SMILES IDX 55 46 38 47 41 48 54 49 72 50 39 51 40 52 53 54 73 55 42 56
REMARK SMILES IDX 27 57 28 58 36 59 29 60 35 61 30 62 31 63 32 64 33 65 34 66
REMARK SMILES IDX 57 67 58 68 66 69 59 70 65 71 60 72 61 73 62 74 63 75 64 76
REMARK SMILES IDX 43 77 44 78 52 79 45 80 51 81 46 82 47 83 48 84 49 85 50 86
REMARK H PARENT 11 6 15 23 71 42 41 53
REMARK Flexibility Score: inf
ROOT
ATOM      1  C   UNL     1       5.657  -1.802  -1.474  1.00  0.00     0.042 C 
ENDROOT
BRANCH   1   2
ATOM      2  C   UNL     1       5.924  -3.192  -0.899  1.00  0.00     0.117 C 
BRANCH   2   3
ATOM      3  N   UNL     1       6.855  -3.137   0.214  1.00  0.00    -0.356 N 
ATOM      4  C   UNL     1       6.627  -3.129   1.556  1.00  0.00     0.220 C 
ATOM      5  O   UNL     1       7.592  -2.981   2.308  1.00  0.00    -0.275 OA
ATOM      6  H   UNL     1       7.805  -3.100  -0.044  1.00  0.00     0.163 HD
BRANCH   4   7
ATOM      7  C   UNL     1       5.229  -3.291   2.116  1.00  0.00     0.107 C 
BRANCH   7   8
ATOM      8  C   UNL     1       4.482  -1.974   2.285  1.00  0.00     0.037 C 
ATOM      9  C   UNL     1       1.590  -0.324   1.987  1.00  0.00     0.228 C 
ATOM     10  O   UNL     1       1.236   0.192   3.048  1.00  0.00    -0.274 OA
ATOM     11  N   UNL     1       2.550  -1.302   1.984  1.00  0.00    -0.342 N 
ATOM     12  C   UNL     1       3.174  -1.995   3.099  1.00  0.00     0.125 C 
ATOM     13  C   UNL     1       3.644  -1.532   1.077  1.00  0.00     0.125 C 
BRANCH   9  14
ATOM     14  C   UNL     1       0.842  -0.069   0.652  1.00  0.00     0.047 C 
ATOM     15  C   UNL     1       1.730   0.130  -0.587  1.00  0.00     0.022 C 
ATOM     16  C   UNL     1      -0.130   1.121   0.771  1.00  0.00     0.016 C 
ATOM     17  C   UNL     1      -0.135  -1.242   0.446  1.00  0.00     0.016 C 
ATOM     18  C   UNL     1      -1.257   0.825  -0.215  1.00  0.00     0.001 C 
ATOM     19  C   UNL     1      -1.296  -0.692  -0.373  1.00  0.00     0.001 C 
ENDBRANCH   9  14
ENDBRANCH   7   8
ENDBRANCH   4   7
ENDBRANCH   2   3
ENDBRANCH   1   2
BRANCH   1  20
ATOM     20  C   UNL     1       6.746  -1.274  -2.398  1.00  0.00     0.118 C 
BRANCH  20  21
ATOM     21  N   UNL     1       6.755  -1.947  -3.685  1.00  0.00    -0.352 N 
ATOM     22  C   UNL     1       6.485  -1.471  -4.945  1.00  0.00     0.251 C 
ATOM     23  H   UNL     1       6.992  -2.902  -3.649  1.00  0.00     0.163 HD
ATOM     24  O   UNL     1       6.359  -2.283  -5.864  1.00  0.00    -0.269 OA
BRANCH  22  25
ATOM     25  C   UNL     1       6.323  -0.022  -5.217  1.00  0.00     0.039 A 
ATOM     26  C   UNL     1       5.371   0.377  -6.163  1.00  0.00     0.014 A 
ATOM     27  C   UNL     1       7.124   0.944  -4.603  1.00  0.00     0.014 A 
ATOM     28  C   UNL     1       5.182   1.735  -6.441  1.00  0.00     0.010 A 
ATOM     29  C   UNL     1       6.880   2.301  -4.820  1.00  0.00     0.010 A 
ATOM     30  C   UNL     1       5.909   2.713  -5.745  1.00  0.00    -0.014 A 
BRANCH  30  31
ATOM     31  C   UNL     1       5.663   4.164  -5.965  1.00  0.00     0.031 A 
ATOM     32  C   UNL     1       6.751   5.050  -6.515  1.00  0.00     0.074 A 
ATOM     33  C   UNL     1       4.477   4.699  -5.614  1.00  0.00     0.049 A 
ATOM     34  N   UNL     1       6.739   6.344  -6.711  1.00  0.00    -0.248 NA
ATOM     35  C   UNL     1       8.024   4.402  -6.870  1.00  0.00     0.031 C 
ATOM     36  C   UNL     1       3.350   3.958  -5.039  1.00  0.00     0.029 A 
ATOM     37  N   UNL     1       4.021   5.993  -5.679  1.00  0.00    -0.354 N 
ATOM     38  C   UNL     1       8.003   6.668  -7.194  1.00  0.00     0.074 A 
ATOM     39  C   UNL     1       8.770   5.441  -7.219  1.00  0.00     0.031 C 
ATOM     40  C   UNL     1       2.329   4.804  -4.828  1.00  0.00     0.029 A 
ATOM     41  C   UNL     1       2.739   6.152  -5.208  1.00  0.00     0.049 A 
ATOM     42  H   UNL     1       4.562   6.737  -6.030  1.00  0.00     0.167 HD
ATOM     43  C   UNL     1       8.478   7.872  -7.594  1.00  0.00     0.031 A 
ATOM     44  C   UNL     1       1.979   7.258  -5.082  1.00  0.00     0.031 A 
ATOM     45  C   UNL     1       7.712   9.091  -7.578  1.00  0.00     0.049 A 
ATOM     46  C   UNL     1       2.534   8.585  -5.519  1.00  0.00     0.074 A 
ATOM     47  C   UNL     1       8.088  10.349  -8.015  1.00  0.00     0.029 A 
ATOM     48  N   UNL     1       6.416   9.207  -7.097  1.00  0.00    -0.354 N 
ATOM     49  N   UNL     1       3.711   8.858  -6.028  1.00  0.00    -0.248 NA
ATOM     50  C   UNL     1       1.654   9.753  -5.371  1.00  0.00     0.031 C 
ATOM     51  C   UNL     1       7.040  11.236  -7.750  1.00  0.00     0.029 A 
ATOM     52  C   UNL     1       5.988  10.520  -7.203  1.00  0.00     0.049 A 
ATOM     53  H   UNL     1       5.880   8.465  -6.734  1.00  0.00     0.167 HD
ATOM     54  C   UNL     1       3.705  10.225  -6.285  1.00  0.00     0.074 A 
ATOM     55  C   UNL     1       2.401  10.718  -5.890  1.00  0.00     0.031 C 
ATOM     56  C   UNL     1       4.690  11.000  -6.801  1.00  0.00     0.031 A 
BRANCH  43  57
ATOM     57  C   UNL     1       9.904   7.933  -8.079  1.00  0.00    -0.014 A 
ATOM     58  C   UNL     1      10.282   7.351  -9.303  1.00  0.00     0.010 A 
ATOM     59  C   UNL     1      10.871   8.622  -7.323  1.00  0.00     0.010 A 
ATOM     60  C   UNL     1      11.608   7.418  -9.740  1.00  0.00     0.020 A 
ATOM     61  C   UNL     1      12.193   8.716  -7.771  1.00  0.00     0.020 A 
ATOM     62  C   UNL     1      12.556   8.097  -8.969  1.00  0.00     0.054 A 
BRANCH  62  63
ATOM     63  S   UNL     1      14.265   8.185  -9.571  1.00  0.00     0.124 S 
ATOM     64  O   UNL     1      14.733   6.819  -9.345  1.00  0.00    -0.237 OA
ATOM     65  O   UNL     1      14.093   8.566 -10.970  1.00  0.00    -0.237 OA
ATOM     66  O   UNL     1      14.881   9.201  -8.722  1.00  0.00    -0.744 OA
ENDBRANCH  62  63
ENDBRANCH  43  57
BRANCH  44  67
ATOM     67  C   UNL     1       0.603   7.151  -4.524  1.00  0.00    -0.014 A 
ATOM     68  C   UNL     1      -0.518   7.329  -5.353  1.00  0.00     0.010 A 
ATOM     69  C   UNL     1       0.407   6.854  -3.163  1.00  0.00     0.010 A 
ATOM     70  C   UNL     1      -1.810   7.226  -4.829  1.00  0.00     0.020 A 
ATOM     71  C   UNL     1      -0.883   6.722  -2.641  1.00  0.00     0.020 A 
ATOM     72  C   UNL     1      -1.984   6.919  -3.477  1.00  0.00     0.054 A 
BRANCH  72  73
ATOM     73  S   UNL     1      -3.670   6.731  -2.832  1.00  0.00     0.124 S 
ATOM     74  O   UNL     1      -4.128   8.115  -2.771  1.00  0.00    -0.237 OA
ATOM     75  O   UNL     1      -4.305   5.898  -3.850  1.00  0.00    -0.237 OA
ATOM     76  O   UNL     1      -3.470   6.078  -1.540  1.00  0.00    -0.744 OA
ENDBRANCH  72  73
ENDBRANCH  44  67
BRANCH  56  77
ATOM     77  C   UNL     1       4.389  12.462  -6.998  1.00  0.00    -0.014 A 
ATOM     78  C   UNL     1       4.291  13.340  -5.904  1.00  0.00     0.010 A 
ATOM     79  C   UNL     1       4.251  12.973  -8.302  1.00  0.00     0.010 A 
ATOM     80  C   UNL     1       4.029  14.698  -6.110  1.00  0.00     0.020 A 
ATOM     81  C   UNL     1       4.017  14.334  -8.512  1.00  0.00     0.020 A 
ATOM     82  C   UNL     1       3.893  15.186  -7.413  1.00  0.00     0.054 A 
BRANCH  82  83
ATOM     83  S   UNL     1       3.595  16.959  -7.655  1.00  0.00     0.124 S 
ATOM     84  O   UNL     1       2.198  17.089  -7.253  1.00  0.00    -0.237 OA
ATOM     85  O   UNL     1       4.569  17.574  -6.756  1.00  0.00    -0.237 OA
ATOM     86  O   UNL     1       3.855  17.163  -9.079  1.00  0.00    -0.744 OA
ENDBRANCH  82  83
ENDBRANCH  56  77
ENDBRANCH  30  31
ENDBRANCH  22  25
ENDBRANCH  20  21
ENDBRANCH   1  20
TORSDOF 15
