REMARK SMILES O=C(NCCCNC(=O)c1ccc(-c2c3nc(c(-c4ccc(S(=O)(=O)[O-])cc4)c4ccc([nH]4)c(-c4ccc(S(=O)(=O)[O-])cc4)c4nc(c(-c5ccc(S(=O)(=O)[O-])cc5)c5ccc2[nH]5)C=C4)C=C3)cc1)C1=Cc2cc(S(F)(F)(F)(F)F)cc(Br)c2O[C@@H]1C(F)(F)F
REMARK SMILES IDX 6 1 5 2 4 3 3 4 1 5 2 6 70 8 71 9 86 10 72 11 85 12 73 13
REMARK SMILES IDX 84 14 74 15 82 16 81 17 83 18 87 19 88 20 89 21 90 22 75 23
REMARK SMILES IDX 76 24 77 25 78 26 79 27 80 28 7 29 8 30 9 32 10 33 11 34
REMARK SMILES IDX 69 35 12 36 68 37 13 38 14 39 15 40 62 41 16 42 67 43 61 44
REMARK SMILES IDX 63 45 17 46 66 47 60 48 59 49 18 51 48 52 29 53 47 54 30 55
REMARK SMILES IDX 33 56 46 57 64 58 31 59 32 60 45 62 65 63 34 64 19 65 20 66
REMARK SMILES IDX 28 67 21 68 27 69 22 70 23 71 24 72 25 73 26 74 49 75 50 76
REMARK SMILES IDX 58 77 51 78 57 79 52 80 53 81 54 82 55 83 56 84 35 85 36 86
REMARK SMILES IDX 44 87 37 88 43 89 38 90 39 91 40 92 41 93 42 94
REMARK H PARENT 3 7 7 31 63 50 33 61
REMARK Flexibility Score: inf
ROOT
ATOM      1  C   UNL     1       4.512  -3.189  -1.800  1.00  0.00     0.118 C 
ENDROOT
BRANCH   1   2
ATOM      2  C   UNL     1       5.019  -2.283  -0.689  1.00  0.00     0.042 C 
BRANCH   2   3
ATOM      3  C   UNL     1       4.512  -0.869  -0.919  1.00  0.00     0.118 C 
BRANCH   3   4
ATOM      4  N   UNL     1       3.042  -0.869  -0.919  1.00  0.00    -0.352 N 
ATOM      5  O   UNL     1       1.036  -0.064   0.068  1.00  0.00    -0.270 OA
ATOM      6  C   UNL     1       2.307  -0.064   0.068  1.00  0.00     0.251 C 
ATOM      7  H   UNL     1       2.550  -1.408  -1.579  1.00  0.00     0.163 HD
BRANCH   6   8
ATOM      8  C   UNL     1       3.067   0.768   1.087  1.00  0.00     0.067 C 
ATOM      9  C   UNL     1       4.428   0.768   1.087  1.00  0.00     0.025 C 
ATOM     10  C   UNL     1       2.307   1.600   2.107  1.00  0.00     0.314 C 
ATOM     11  C   UNL     1       5.188  -0.064   0.068  1.00  0.00     0.020 A 
ATOM     12  O   UNL     1       3.744   0.639  -1.684  1.00  0.00    -0.474 OA
ATOM     13  C   UNL     1       6.176  -0.887   0.583  1.00  0.00     0.036 A 
ATOM     14  C   UNL     1       4.866  -0.097  -1.220  1.00  0.00     0.142 A 
ATOM     15  C   UNL     1       6.973  -1.512  -0.405  1.00  0.00     0.109 A 
ATOM     16  C   UNL     1       5.608  -0.838  -2.108  1.00  0.00     0.062 A 
ATOM     17  C   UNL     1       6.637  -1.629  -1.676  1.00  0.00     0.044 A 
ATOM     18  Br  UNL     1       5.186  -0.760  -4.021  1.00  0.00    -0.047 Br
BRANCH  10  19
ATOM     19  C   UNL     1       2.675   3.066   1.940  1.00  0.00     0.429 C 
ATOM     20  F   UNL     1       2.353   3.466   0.714  1.00  0.00    -0.167 F 
ATOM     21  F   UNL     1       2.010   3.794   2.833  1.00  0.00    -0.167 F 
ATOM     22  F   UNL     1       3.982   3.219   2.129  1.00  0.00    -0.167 F 
ENDBRANCH  10  19
BRANCH  15  23
ATOM     23  S   UNL     1       8.566  -2.200   0.111  1.00  0.00     0.310 S 
ATOM     24  F   UNL     1       8.140  -2.170   1.638  1.00  0.00    -0.094 F 
ATOM     25  F   UNL     1       9.120  -0.738   0.308  1.00  0.00    -0.094 F 
ATOM     26  F   UNL     1       9.925  -2.805   0.565  1.00  0.00    -0.094 F 
ATOM     27  F   UNL     1       7.951  -3.653   0.043  1.00  0.00    -0.094 F 
ATOM     28  F   UNL     1       7.148  -1.598  -0.243  1.00  0.00    -0.094 F 
ENDBRANCH  15  23
ENDBRANCH   6   8
ENDBRANCH   3   4
ENDBRANCH   2   3
ENDBRANCH   1   2
BRANCH   1  29
ATOM     29  N   UNL     1       5.002  -2.697  -3.095  1.00  0.00    -0.352 N 
ATOM     30  C   UNL     1       5.848  -3.558  -3.936  1.00  0.00     0.251 C 
ATOM     31  H   UNL     1       4.765  -1.792  -3.400  1.00  0.00     0.163 HD
ATOM     32  O   UNL     1       6.271  -3.132  -5.056  1.00  0.00    -0.269 OA
BRANCH  30  33
ATOM     33  C   UNL     1       6.215  -4.955  -3.466  1.00  0.00     0.039 A 
ATOM     34  C   UNL     1       7.505  -5.407  -3.689  1.00  0.00     0.014 A 
ATOM     35  C   UNL     1       5.288  -5.749  -2.941  1.00  0.00     0.014 A 
ATOM     36  C   UNL     1       7.646  -6.811  -3.591  1.00  0.00     0.010 A 
ATOM     37  C   UNL     1       5.541  -7.086  -2.747  1.00  0.00     0.010 A 
ATOM     38  C   UNL     1       6.777  -7.612  -3.002  1.00  0.00    -0.014 A 
BRANCH  38  39
ATOM     39  C   UNL     1       7.131  -9.042  -2.628  1.00  0.00     0.031 A 
ATOM     40  C   UNL     1       6.415 -10.115  -3.160  1.00  0.00     0.074 A 
ATOM     41  C   UNL     1       8.231  -9.181  -1.798  1.00  0.00     0.049 A 
ATOM     42  N   UNL     1       6.663 -11.416  -3.005  1.00  0.00    -0.248 NA
ATOM     43  C   UNL     1       5.226  -9.970  -4.014  1.00  0.00     0.031 C 
ATOM     44  C   UNL     1       8.965  -8.104  -1.264  1.00  0.00     0.029 A 
ATOM     45  N   UNL     1       8.806 -10.348  -1.346  1.00  0.00    -0.354 N 
ATOM     46  C   UNL     1       5.770 -12.140  -3.683  1.00  0.00     0.074 A 
ATOM     47  C   UNL     1       4.829 -11.220  -4.336  1.00  0.00     0.031 C 
ATOM     48  C   UNL     1       9.960  -8.613  -0.492  1.00  0.00     0.029 A 
ATOM     49  C   UNL     1       9.866 -10.017  -0.530  1.00  0.00     0.049 A 
ATOM     50  H   UNL     1       8.510 -11.261  -1.567  1.00  0.00     0.167 HD
ATOM     51  C   UNL     1       5.704 -13.531  -3.783  1.00  0.00     0.031 A 
ATOM     52  C   UNL     1      10.713 -10.877   0.151  1.00  0.00     0.031 A 
ATOM     53  C   UNL     1       6.578 -14.390  -3.136  1.00  0.00     0.049 A 
ATOM     54  C   UNL     1      10.611 -12.269   0.098  1.00  0.00     0.074 A 
ATOM     55  C   UNL     1       6.530 -15.794  -3.232  1.00  0.00     0.029 A 
ATOM     56  N   UNL     1       7.622 -14.060  -2.301  1.00  0.00    -0.354 N 
ATOM     57  N   UNL     1       9.742 -12.992  -0.611  1.00  0.00    -0.248 NA
ATOM     58  C   UNL     1      11.482 -13.189   0.841  1.00  0.00     0.031 C 
ATOM     59  C   UNL     1       7.526 -16.304  -2.459  1.00  0.00     0.029 A 
ATOM     60  C   UNL     1       8.211 -15.226  -1.866  1.00  0.00     0.049 A 
ATOM     61  H   UNL     1       7.900 -13.147  -2.057  1.00  0.00     0.167 HD
ATOM     62  C   UNL     1       9.966 -14.294  -0.422  1.00  0.00     0.074 A 
ATOM     63  C   UNL     1      11.084 -14.439   0.520  1.00  0.00     0.031 C 
ATOM     64  C   UNL     1       9.285 -15.366  -1.001  1.00  0.00     0.031 A 
BRANCH  51  65
ATOM     65  C   UNL     1       4.613 -14.137  -4.650  1.00  0.00    -0.014 A 
ATOM     66  C   UNL     1       4.568 -13.886  -6.012  1.00  0.00     0.010 A 
ATOM     67  C   UNL     1       3.738 -14.951  -4.071  1.00  0.00     0.010 A 
ATOM     68  C   UNL     1       3.374 -14.319  -6.636  1.00  0.00     0.020 A 
ATOM     69  C   UNL     1       2.669 -15.447  -4.778  1.00  0.00     0.020 A 
ATOM     70  C   UNL     1       2.530 -15.190  -6.114  1.00  0.00     0.054 A 
BRANCH  70  71
ATOM     71  S   UNL     1       1.256 -16.000  -7.113  1.00  0.00     0.124 S 
ATOM     72  O   UNL     1       0.330 -14.940  -7.715  1.00  0.00    -0.237 OA
ATOM     73  O   UNL     1       1.921 -16.796  -8.239  1.00  0.00    -0.237 OA
ATOM     74  O   UNL     1       0.345 -17.058  -6.126  1.00  0.00    -0.744 OA
ENDBRANCH  70  71
ENDBRANCH  51  65
BRANCH  52  75
ATOM     75  C   UNL     1      11.814 -10.270   1.005  1.00  0.00    -0.014 A 
ATOM     76  C   UNL     1      13.142 -10.591   0.775  1.00  0.00     0.010 A 
ATOM     77  C   UNL     1      11.462  -9.469   2.003  1.00  0.00     0.010 A 
ATOM     78  C   UNL     1      14.008 -10.243   1.839  1.00  0.00     0.020 A 
ATOM     79  C   UNL     1      12.389  -9.057   2.930  1.00  0.00     0.020 A 
ATOM     80  C   UNL     1      13.709  -9.386   2.798  1.00  0.00     0.054 A 
BRANCH  80  81
ATOM     81  S   UNL     1      14.979  -8.685   3.880  1.00  0.00     0.124 S 
ATOM     82  O   UNL     1      15.687  -9.813   4.634  1.00  0.00    -0.237 OA
ATOM     83  O   UNL     1      16.000  -7.916   3.038  1.00  0.00    -0.237 OA
ATOM     84  O   UNL     1      14.249  -7.620   5.002  1.00  0.00    -0.744 OA
ENDBRANCH  80  81
ENDBRANCH  52  75
BRANCH  64  85
ATOM     85  C   UNL     1       9.750 -16.773  -0.662  1.00  0.00    -0.014 A 
ATOM     86  C   UNL     1       9.765 -17.152   0.670  1.00  0.00     0.010 A 
ATOM     87  C   UNL     1      10.171 -17.595  -1.616  1.00  0.00     0.010 A 
ATOM     88  C   UNL     1      10.518 -18.323   0.925  1.00  0.00     0.020 A 
ATOM     89  C   UNL     1      10.777 -18.786  -1.297  1.00  0.00     0.020 A 
ATOM     90  C   UNL     1      10.879 -19.197   0.003  1.00  0.00     0.054 A 
BRANCH  90  91
ATOM     91  S   UNL     1      11.477 -20.849   0.437  1.00  0.00     0.124 S 
ATOM     92  O   UNL     1      12.732 -20.726   1.305  1.00  0.00    -0.237 OA
ATOM     93  O   UNL     1      10.391 -21.596   1.214  1.00  0.00    -0.237 OA
ATOM     94  O   UNL     1      11.853 -21.712  -0.990  1.00  0.00    -0.744 OA
ENDBRANCH  90  91
ENDBRANCH  64  85
ENDBRANCH  38  39
ENDBRANCH  30  33
ENDBRANCH   1  29
TORSDOF 15
