REMARK SMILES O=C(NCCCNC(=O)[C@H](CO)NC(=O)[C@H](Cc1ccc(O)cc1)NC(=O)c1ccc(F)cc1)c1ccc(-c2c3nc(c(-c4ccc(S(=O)(=O)[O-])cc4)c4ccc([nH]4)c(-c4ccc(S(=O)(=O)[O-])cc4)c4nc(c(-c5ccc(S(=O)(=O)[O-])cc5)c5ccc2[nH]5)C=C4)C=C3)cc1
REMARK SMILES IDX 6 1 5 2 4 3 3 4 1 5 2 6 35 8 36 9 94 10 37 11 93 12 38 13
REMARK SMILES IDX 39 14 40 15 87 16 41 17 92 18 86 19 88 20 42 21 91 22 85 23
REMARK SMILES IDX 84 24 43 26 73 27 54 28 72 29 55 30 58 31 71 32 89 33 56 34
REMARK SMILES IDX 57 35 70 37 90 38 59 39 44 40 45 41 53 42 46 43 52 44 47 45
REMARK SMILES IDX 48 46 49 47 50 48 51 49 74 50 75 51 83 52 76 53 82 54 77 55
REMARK SMILES IDX 78 56 79 57 80 58 81 59 60 60 61 61 69 62 62 63 68 64 63 65
REMARK SMILES IDX 64 66 65 67 66 68 67 69 7 70 8 71 9 73 10 74 13 75 14 76
REMARK SMILES IDX 15 78 16 79 25 80 26 81 27 83 28 84 29 85 34 86 30 87 33 88
REMARK SMILES IDX 31 89 32 90 17 91 18 92 19 93 24 94 20 95 23 96 21 97 22 98
REMARK SMILES IDX 11 100 12 101
REMARK H PARENT 3 7 88 25 58 36 7 72 13 77 25 82 22 99 12 102
REMARK Flexibility Score: inf
ROOT
ATOM      1  C   UNL     1       6.772  -4.962 -12.614  1.00  0.00     0.117 C 
ENDROOT
BRANCH   1   2
ATOM      2  C   UNL     1       6.373  -5.460 -13.987  1.00  0.00     0.042 C 
BRANCH   2   3
ATOM      3  C   UNL     1       7.500  -6.151 -14.728  1.00  0.00     0.118 C 
BRANCH   3   4
ATOM      4  N   UNL     1       7.862  -7.448 -14.160  1.00  0.00    -0.352 N 
ATOM      5  O   UNL     1       8.030  -9.683 -13.954  1.00  0.00    -0.269 OA
ATOM      6  C   UNL     1       7.750  -8.723 -14.670  1.00  0.00     0.251 C 
ATOM      7  H   UNL     1       8.252  -7.402 -13.257  1.00  0.00     0.163 HD
BRANCH   6   8
ATOM      8  C   UNL     1       7.264  -8.946 -16.051  1.00  0.00     0.039 A 
ATOM      9  C   UNL     1       7.622  -8.079 -17.078  1.00  0.00     0.014 A 
ATOM     10  C   UNL     1       6.427 -10.032 -16.330  1.00  0.00     0.014 A 
ATOM     11  C   UNL     1       6.958  -8.136 -18.294  1.00  0.00     0.010 A 
ATOM     12  C   UNL     1       5.882 -10.184 -17.612  1.00  0.00     0.010 A 
ATOM     13  C   UNL     1       6.103  -9.207 -18.593  1.00  0.00    -0.014 A 
BRANCH  13  14
ATOM     14  C   UNL     1       5.530  -9.298 -19.964  1.00  0.00     0.031 A 
ATOM     15  C   UNL     1       4.043  -9.305 -20.202  1.00  0.00     0.074 A 
ATOM     16  C   UNL     1       6.382  -9.314 -21.011  1.00  0.00     0.049 A 
ATOM     17  N   UNL     1       3.397  -9.340 -21.341  1.00  0.00    -0.248 NA
ATOM     18  C   UNL     1       3.167  -9.279 -19.020  1.00  0.00     0.031 C 
ATOM     19  C   UNL     1       7.846  -9.314 -20.907  1.00  0.00     0.029 A 
ATOM     20  N   UNL     1       6.152  -9.297 -22.363  1.00  0.00    -0.354 N 
ATOM     21  C   UNL     1       2.046  -9.371 -21.016  1.00  0.00     0.074 A 
ATOM     22  C   UNL     1       1.962  -9.368 -19.571  1.00  0.00     0.031 C 
ATOM     23  C   UNL     1       8.378  -9.221 -22.132  1.00  0.00     0.029 A 
ATOM     24  C   UNL     1       7.303  -9.257 -23.114  1.00  0.00     0.049 A 
ATOM     25  H   UNL     1       5.250  -9.312 -22.757  1.00  0.00     0.167 HD
ATOM     26  C   UNL     1       0.975  -9.400 -21.847  1.00  0.00     0.031 A 
ATOM     27  C   UNL     1       7.488  -9.278 -24.447  1.00  0.00     0.031 A 
ATOM     28  C   UNL     1       1.069  -9.400 -23.286  1.00  0.00     0.049 A 
ATOM     29  C   UNL     1       6.287  -9.340 -25.341  1.00  0.00     0.074 A 
ATOM     30  C   UNL     1       0.042  -9.398 -24.214  1.00  0.00     0.029 A 
ATOM     31  N   UNL     1       2.255  -9.407 -24.006  1.00  0.00    -0.354 N 
ATOM     32  N   UNL     1       5.018  -9.345 -25.010  1.00  0.00    -0.248 NA
ATOM     33  C   UNL     1       6.540  -9.401 -26.785  1.00  0.00     0.031 C 
ATOM     34  C   UNL     1       0.606  -9.467 -25.492  1.00  0.00     0.029 A 
ATOM     35  C   UNL     1       1.985  -9.440 -25.365  1.00  0.00     0.049 A 
ATOM     36  H   UNL     1       3.156  -9.392 -23.610  1.00  0.00     0.167 HD
ATOM     37  C   UNL     1       4.318  -9.398 -26.208  1.00  0.00     0.074 A 
ATOM     38  C   UNL     1       5.306  -9.395 -27.269  1.00  0.00     0.031 C 
ATOM     39  C   UNL     1       2.978  -9.446 -26.410  1.00  0.00     0.031 A 
BRANCH  26  40
ATOM     40  C   UNL     1      -0.399  -9.473 -21.228  1.00  0.00    -0.014 A 
ATOM     41  C   UNL     1      -0.962  -8.373 -20.555  1.00  0.00     0.010 A 
ATOM     42  C   UNL     1      -1.168 -10.643 -21.381  1.00  0.00     0.010 A 
ATOM     43  C   UNL     1      -2.251  -8.454 -20.018  1.00  0.00     0.020 A 
ATOM     44  C   UNL     1      -2.467 -10.718 -20.870  1.00  0.00     0.020 A 
ATOM     45  C   UNL     1      -2.995  -9.627 -20.178  1.00  0.00     0.054 A 
BRANCH  45  46
ATOM     46  S   UNL     1      -4.675  -9.692 -19.496  1.00  0.00     0.124 S 
ATOM     47  O   UNL     1      -4.414  -9.748 -18.059  1.00  0.00    -0.237 OA
ATOM     48  O   UNL     1      -5.264  -8.445 -19.977  1.00  0.00    -0.237 OA
ATOM     49  O   UNL     1      -5.240 -10.909 -20.074  1.00  0.00    -0.744 OA
ENDBRANCH  45  46
ENDBRANCH  26  40
BRANCH  27  50
ATOM     50  C   UNL     1       8.871  -9.280 -24.997  1.00  0.00    -0.014 A 
ATOM     51  C   UNL     1       9.367  -8.175 -25.709  1.00  0.00     0.010 A 
ATOM     52  C   UNL     1       9.715 -10.385 -24.772  1.00  0.00     0.010 A 
ATOM     53  C   UNL     1      10.678  -8.180 -26.194  1.00  0.00     0.020 A 
ATOM     54  C   UNL     1      11.036 -10.379 -25.224  1.00  0.00     0.020 A 
ATOM     55  C   UNL     1      11.505  -9.280 -25.944  1.00  0.00     0.054 A 
BRANCH  55  56
ATOM     56  S   UNL     1      13.220  -9.238 -26.532  1.00  0.00     0.124 S 
ATOM     57  O   UNL     1      13.051  -9.422 -27.970  1.00  0.00    -0.237 OA
ATOM     58  O   UNL     1      13.665  -7.912 -26.110  1.00  0.00    -0.237 OA
ATOM     59  O   UNL     1      13.850 -10.352 -25.827  1.00  0.00    -0.744 OA
ENDBRANCH  55  56
ENDBRANCH  27  50
BRANCH  39  60
ATOM     60  C   UNL     1       2.502  -9.468 -27.837  1.00  0.00    -0.014 A 
ATOM     61  C   UNL     1       2.677 -10.603 -28.649  1.00  0.00     0.010 A 
ATOM     62  C   UNL     1       1.838  -8.345 -28.362  1.00  0.00     0.010 A 
ATOM     63  C   UNL     1       2.229 -10.600 -29.972  1.00  0.00     0.020 A 
ATOM     64  C   UNL     1       1.360  -8.349 -29.674  1.00  0.00     0.020 A 
ATOM     65  C   UNL     1       1.574  -9.472 -30.476  1.00  0.00     0.054 A 
BRANCH  65  66
ATOM     66  S   UNL     1       0.970  -9.505 -32.186  1.00  0.00     0.124 S 
ATOM     67  O   UNL     1       2.211  -9.397 -32.948  1.00  0.00    -0.237 OA
ATOM     68  O   UNL     1       0.296 -10.799 -32.262  1.00  0.00    -0.237 OA
ATOM     69  O   UNL     1       0.088  -8.343 -32.264  1.00  0.00    -0.744 OA
ENDBRANCH  65  66
ENDBRANCH  39  60
ENDBRANCH  13  14
ENDBRANCH   6   8
ENDBRANCH   3   4
ENDBRANCH   2   3
ENDBRANCH   1   2
BRANCH   1  70
ATOM     70  N   UNL     1       7.543  -3.730 -12.624  1.00  0.00    -0.354 N 
ATOM     71  C   UNL     1       7.345  -2.614 -11.850  1.00  0.00     0.244 C 
ATOM     72  H   UNL     1       8.294  -3.692 -13.259  1.00  0.00     0.163 HD
ATOM     73  O   UNL     1       8.174  -1.703 -11.891  1.00  0.00    -0.273 OA
BRANCH  71  74
ATOM     74  C   UNL     1       6.047  -2.487 -11.036  1.00  0.00     0.197 C 
BRANCH  74  75
ATOM     75  N   UNL     1       6.261  -1.689  -9.828  1.00  0.00    -0.340 N 
ATOM     76  C   UNL     1       6.127  -2.039  -8.511  1.00  0.00     0.243 C 
ATOM     77  H   UNL     1       6.544  -0.760  -9.987  1.00  0.00     0.164 HD
ATOM     78  O   UNL     1       6.389  -1.170  -7.679  1.00  0.00    -0.273 OA
BRANCH  76  79
ATOM     79  C   UNL     1       5.747  -3.499  -8.121  1.00  0.00     0.176 C 
BRANCH  79  80
ATOM     80  N   UNL     1       6.938  -4.360  -8.112  1.00  0.00    -0.340 N 
ATOM     81  C   UNL     1       7.202  -5.680  -8.367  1.00  0.00     0.251 C 
ATOM     82  H   UNL     1       7.749  -3.864  -7.859  1.00  0.00     0.164 HD
ATOM     83  O   UNL     1       8.288  -6.099  -7.953  1.00  0.00    -0.269 OA
BRANCH  81  84
ATOM     84  C   UNL     1       6.342  -6.625  -9.149  1.00  0.00     0.040 A 
ATOM     85  C   UNL     1       5.258  -6.259  -9.948  1.00  0.00     0.017 A 
ATOM     86  C   UNL     1       6.750  -7.976  -9.197  1.00  0.00     0.017 A 
ATOM     87  C   UNL     1       4.636  -7.175 -10.806  1.00  0.00     0.040 A 
ATOM     88  C   UNL     1       6.120  -8.901 -10.041  1.00  0.00     0.040 A 
ATOM     89  C   UNL     1       5.076  -8.485 -10.852  1.00  0.00     0.123 A 
ATOM     90  F   UNL     1       4.496  -9.345 -11.697  1.00  0.00    -0.207 F 
ENDBRANCH  81  84
ENDBRANCH  79  80
BRANCH  79  91
ATOM     91  C   UNL     1       4.938  -3.607  -6.807  1.00  0.00     0.070 C 
BRANCH  91  92
ATOM     92  C   UNL     1       5.589  -3.541  -5.439  1.00  0.00    -0.045 A 
ATOM     93  C   UNL     1       6.776  -2.853  -5.162  1.00  0.00     0.007 A 
ATOM     94  C   UNL     1       4.909  -4.137  -4.359  1.00  0.00     0.007 A 
ATOM     95  C   UNL     1       7.274  -2.764  -3.857  1.00  0.00     0.046 A 
ATOM     96  C   UNL     1       5.405  -4.056  -3.056  1.00  0.00     0.046 A 
ATOM     97  C   UNL     1       6.584  -3.368  -2.815  1.00  0.00     0.115 A 
BRANCH  97  98
ATOM     98  O   UNL     1       7.036  -3.298  -1.530  1.00  0.00    -0.508 OA
ATOM     99  H   UNL     1       7.830  -2.839  -1.337  1.00  0.00     0.293 HD
ENDBRANCH  97  98
ENDBRANCH  91  92
ENDBRANCH  79  91
ENDBRANCH  76  79
ENDBRANCH  74  75
BRANCH  74 100
ATOM    100  C   UNL     1       4.967  -1.886 -11.950  1.00  0.00     0.191 C 
BRANCH 100 101
ATOM    101  O   UNL     1       4.149  -2.932 -12.482  1.00  0.00    -0.394 OA
ATOM    102  H   UNL     1       4.700  -3.544 -12.995  1.00  0.00     0.210 HD
ENDBRANCH 100 101
ENDBRANCH  74 100
ENDBRANCH  71  74
ENDBRANCH   1  70
TORSDOF 22
