REMARK SMILES C[C@@H](C(=O)NCCCNC(=O)c1ccc(-c2c3nc(c(-c4ccc(S(=O)(=O)[O-])cc4)c4ccc([nH]4)c(-c4ccc(S(=O)(=O)[O-])cc4)c4nc(c(-c5ccc(S(=O)(=O)[O-])cc5)c5ccc2[nH]5)C=C4)C=C3)cc1)N1C(=O)c2nccnc2C1=O
REMARK SMILES IDX 8 1 7 2 6 3 5 4 3 5 4 6 2 8 1 9 72 10 73 11 81 12 74 13
REMARK SMILES IDX 75 14 80 15 82 16 76 17 79 18 77 19 78 20 9 21 10 22 11 24
REMARK SMILES IDX 12 25 13 26 71 27 14 28 70 29 15 30 16 31 17 32 64 33 18 34
REMARK SMILES IDX 69 35 63 36 65 37 19 38 68 39 62 40 61 41 20 43 50 44 31 45
REMARK SMILES IDX 49 46 32 47 35 48 48 49 66 50 33 51 34 52 47 54 67 55 36 56
REMARK SMILES IDX 21 57 22 58 30 59 23 60 29 61 24 62 25 63 26 64 27 65 28 66
REMARK SMILES IDX 51 67 52 68 60 69 53 70 59 71 54 72 55 73 56 74 57 75 58 76
REMARK SMILES IDX 37 77 38 78 46 79 39 80 45 81 40 82 41 83 42 84 43 85 44 86
REMARK H PARENT 5 7 9 23 65 42 35 53
REMARK Flexibility Score: inf
ROOT
ATOM      1  C   UNL     1       5.040  -0.959   2.382  1.00  0.00     0.118 C 
ENDROOT
BRANCH   1   2
ATOM      2  C   UNL     1       4.227  -0.719   1.115  1.00  0.00     0.042 C 
BRANCH   2   3
ATOM      3  C   UNL     1       3.322  -1.883   0.724  1.00  0.00     0.117 C 
BRANCH   3   4
ATOM      4  N   UNL     1       2.232  -2.072   1.665  1.00  0.00    -0.354 N 
ATOM      5  C   UNL     1       0.894  -1.845   1.506  1.00  0.00     0.243 C 
ATOM      6  O   UNL     1       0.145  -2.171   2.431  1.00  0.00    -0.273 OA
ATOM      7  H   UNL     1       2.497  -2.415   2.549  1.00  0.00     0.163 HD
BRANCH   5   8
ATOM      8  C   UNL     1       0.368  -1.222   0.198  1.00  0.00     0.180 C 
ATOM      9  C   UNL     1       0.783   0.234   0.019  1.00  0.00     0.042 C 
BRANCH   8  10
ATOM     10  N   UNL     1      -1.083  -1.403   0.153  1.00  0.00    -0.259 N 
ATOM     11  C   UNL     1      -2.009  -0.607   0.785  1.00  0.00     0.282 C 
ATOM     12  C   UNL     1      -1.678  -2.481  -0.451  1.00  0.00     0.282 C 
ATOM     13  O   UNL     1      -1.830   0.409   1.426  1.00  0.00    -0.267 OA
ATOM     14  C   UNL     1      -3.317  -1.199   0.504  1.00  0.00     0.160 A 
ATOM     15  C   UNL     1      -3.117  -2.329  -0.244  1.00  0.00     0.160 A 
ATOM     16  O   UNL     1      -1.140  -3.387  -1.063  1.00  0.00    -0.267 OA
ATOM     17  N   UNL     1      -4.530  -0.699   0.813  1.00  0.00    -0.247 NA
ATOM     18  N   UNL     1      -4.109  -3.082  -0.762  1.00  0.00    -0.247 NA
ATOM     19  C   UNL     1      -5.548  -1.447   0.313  1.00  0.00     0.132 A 
ATOM     20  C   UNL     1      -5.343  -2.604  -0.452  1.00  0.00     0.132 A 
ENDBRANCH   8  10
ENDBRANCH   5   8
ENDBRANCH   3   4
ENDBRANCH   2   3
ENDBRANCH   1   2
BRANCH   1  21
ATOM     21  N   UNL     1       6.025  -2.018   2.225  1.00  0.00    -0.352 N 
ATOM     22  C   UNL     1       7.384  -2.003   2.424  1.00  0.00     0.251 C 
ATOM     23  H   UNL     1       5.659  -2.883   1.929  1.00  0.00     0.163 HD
ATOM     24  O   UNL     1       8.049  -2.969   2.056  1.00  0.00    -0.269 OA
BRANCH  22  25
ATOM     25  C   UNL     1       8.053  -0.842   3.056  1.00  0.00     0.039 A 
ATOM     26  C   UNL     1       9.313  -0.457   2.588  1.00  0.00     0.014 A 
ATOM     27  C   UNL     1       7.478  -0.162   4.133  1.00  0.00     0.014 A 
ATOM     28  C   UNL     1       9.974   0.628   3.172  1.00  0.00     0.010 A 
ATOM     29  C   UNL     1       8.096   0.973   4.654  1.00  0.00     0.010 A 
ATOM     30  C   UNL     1       9.362   1.368   4.197  1.00  0.00    -0.014 A 
BRANCH  30  31
ATOM     31  C   UNL     1      10.050   2.524   4.830  1.00  0.00     0.031 A 
ATOM     32  C   UNL     1      10.400   2.485   6.297  1.00  0.00     0.074 A 
ATOM     33  C   UNL     1      10.327   3.626   4.104  1.00  0.00     0.049 A 
ATOM     34  N   UNL     1      10.968   3.404   7.036  1.00  0.00    -0.248 NA
ATOM     35  C   UNL     1      10.044   1.262   7.036  1.00  0.00     0.031 C 
ATOM     36  C   UNL     1      10.012   3.806   2.685  1.00  0.00     0.029 A 
ATOM     37  N   UNL     1      10.937   4.804   4.459  1.00  0.00    -0.354 N 
ATOM     38  C   UNL     1      11.019   2.879   8.323  1.00  0.00     0.074 A 
ATOM     39  C   UNL     1      10.373   1.587   8.277  1.00  0.00     0.031 C 
ATOM     40  C   UNL     1      10.458   5.008   2.285  1.00  0.00     0.029 A 
ATOM     41  C   UNL     1      11.050   5.702   3.424  1.00  0.00     0.049 A 
ATOM     42  H   UNL     1      11.262   4.988   5.370  1.00  0.00     0.167 HD
ATOM     43  C   UNL     1      11.574   3.410   9.438  1.00  0.00     0.031 A 
ATOM     44  C   UNL     1      11.567   6.947   3.394  1.00  0.00     0.031 A 
ATOM     45  C   UNL     1      12.225   4.694   9.481  1.00  0.00     0.049 A 
ATOM     46  C   UNL     1      12.167   7.522   4.649  1.00  0.00     0.074 A 
ATOM     47  C   UNL     1      12.859   5.301  10.550  1.00  0.00     0.029 A 
ATOM     48  N   UNL     1      12.324   5.568   8.409  1.00  0.00    -0.354 N 
ATOM     49  N   UNL     1      12.257   6.985   5.843  1.00  0.00    -0.248 NA
ATOM     50  C   UNL     1      12.755   8.865   4.547  1.00  0.00     0.031 C 
ATOM     51  C   UNL     1      13.288   6.568  10.142  1.00  0.00     0.029 A 
ATOM     52  C   UNL     1      12.991   6.718   8.797  1.00  0.00     0.049 A 
ATOM     53  H   UNL     1      11.972   5.396   7.505  1.00  0.00     0.167 HD
ATOM     54  C   UNL     1      12.949   7.907   6.622  1.00  0.00     0.074 A 
ATOM     55  C   UNL     1      13.262   9.029   5.761  1.00  0.00     0.031 C 
ATOM     56  C   UNL     1      13.302   7.827   7.930  1.00  0.00     0.031 A 
BRANCH  43  57
ATOM     57  C   UNL     1      11.493   2.605  10.711  1.00  0.00    -0.014 A 
ATOM     58  C   UNL     1      12.200   1.397  10.858  1.00  0.00     0.010 A 
ATOM     59  C   UNL     1      10.729   3.081  11.792  1.00  0.00     0.010 A 
ATOM     60  C   UNL     1      12.108   0.659  12.042  1.00  0.00     0.020 A 
ATOM     61  C   UNL     1      10.661   2.364  12.991  1.00  0.00     0.020 A 
ATOM     62  C   UNL     1      11.338   1.148  13.101  1.00  0.00     0.054 A 
BRANCH  62  63
ATOM     63  S   UNL     1      11.256   0.181  14.633  1.00  0.00     0.124 S 
ATOM     64  O   UNL     1      10.447  -0.965  14.223  1.00  0.00    -0.237 OA
ATOM     65  O   UNL     1      12.662  -0.108  14.903  1.00  0.00    -0.237 OA
ATOM     66  O   UNL     1      10.614   1.087  15.582  1.00  0.00    -0.744 OA
ENDBRANCH  62  63
ENDBRANCH  43  57
BRANCH  44  67
ATOM     67  C   UNL     1      11.560   7.726   2.124  1.00  0.00    -0.014 A 
ATOM     68  C   UNL     1      12.761   8.011   1.449  1.00  0.00     0.010 A 
ATOM     69  C   UNL     1      10.347   8.187   1.580  1.00  0.00     0.010 A 
ATOM     70  C   UNL     1      12.751   8.761   0.269  1.00  0.00     0.020 A 
ATOM     71  C   UNL     1      10.330   8.909   0.383  1.00  0.00     0.020 A 
ATOM     72  C   UNL     1      11.535   9.203  -0.258  1.00  0.00     0.054 A 
BRANCH  72  73
ATOM     73  S   UNL     1      11.543  10.135  -1.815  1.00  0.00     0.124 S 
ATOM     74  O   UNL     1      12.116  11.412  -1.402  1.00  0.00    -0.237 OA
ATOM     75  O   UNL     1      12.389   9.307  -2.672  1.00  0.00    -0.237 OA
ATOM     76  O   UNL     1      10.133  10.175  -2.197  1.00  0.00    -0.744 OA
ENDBRANCH  72  73
ENDBRANCH  44  67
BRANCH  56  77
ATOM     77  C   UNL     1      14.126   8.954   8.499  1.00  0.00    -0.014 A 
ATOM     78  C   UNL     1      13.592  10.239   8.696  1.00  0.00     0.010 A 
ATOM     79  C   UNL     1      15.458   8.701   8.882  1.00  0.00     0.010 A 
ATOM     80  C   UNL     1      14.389  11.262   9.220  1.00  0.00     0.020 A 
ATOM     81  C   UNL     1      16.246   9.711   9.438  1.00  0.00     0.020 A 
ATOM     82  C   UNL     1      15.711  10.992   9.585  1.00  0.00     0.054 A 
BRANCH  82  83
ATOM     83  S   UNL     1      16.718  12.330  10.282  1.00  0.00     0.124 S 
ATOM     84  O   UNL     1      16.962  13.168   9.111  1.00  0.00    -0.237 OA
ATOM     85  O   UNL     1      15.832  12.904  11.292  1.00  0.00    -0.237 OA
ATOM     86  O   UNL     1      17.893  11.642  10.811  1.00  0.00    -0.744 OA
ENDBRANCH  82  83
ENDBRANCH  56  77
ENDBRANCH  30  31
ENDBRANCH  22  25
ENDBRANCH   1  21
TORSDOF 14
