REMARK SMILES CC[C@@H](C)CN(CC)C(=O)N1CC[C@@](CC)(C(=O)NCCCNC(=O)c2ccc(-c3c4nc(c(-c5ccc(S(=O)(=O)[O-])cc5)c5ccc([nH]5)c(-c5ccc(S(=O)(=O)[O-])cc5)c5nc(c(-c6ccc(S(=O)(=O)[O-])cc6)c6ccc3[nH]6)C=C5)C=C4)cc2)C1
REMARK SMILES IDX 20 1 19 2 17 3 18 4 14 6 11 7 12 8 86 9 13 10 9 11 10 12
REMARK SMILES IDX 6 13 5 14 3 15 4 16 2 17 1 18 7 19 8 20 15 21 16 22 21 23
REMARK SMILES IDX 22 24 23 25 24 26 25 28 26 29 27 30 85 31 28 32 84 33 29 34
REMARK SMILES IDX 30 35 31 36 78 37 32 38 83 39 77 40 79 41 33 42 82 43 76 44
REMARK SMILES IDX 75 45 34 47 64 48 45 49 63 50 46 51 49 52 62 53 80 54 47 55
REMARK SMILES IDX 48 56 61 58 81 59 50 60 35 61 36 62 44 63 37 64 43 65 38 66
REMARK SMILES IDX 39 67 40 68 41 69 42 70 65 71 66 72 74 73 67 74 73 75 68 76
REMARK SMILES IDX 69 77 70 78 71 79 72 80 51 81 52 82 60 83 53 84 59 85 54 86
REMARK SMILES IDX 55 87 56 88 57 89 58 90
REMARK H PARENT 19 5 23 27 79 46 49 57
REMARK Flexibility Score: inf
ROOT
ATOM      1  C   UNL     1       2.898  -9.178   3.217  1.00  0.00     0.117 C 
ENDROOT
BRANCH   1   2
ATOM      2  N   UNL     1       1.744  -8.726   2.464  1.00  0.00    -0.355 N 
ATOM      3  C   UNL     1       1.436  -7.528   1.899  1.00  0.00     0.228 C 
ATOM      4  O   UNL     1       0.446  -7.531   1.162  1.00  0.00    -0.274 OA
ATOM      5  H   UNL     1       1.054  -9.416   2.337  1.00  0.00     0.163 HD
BRANCH   3   6
ATOM      6  C   UNL     1       2.292  -6.265   2.107  1.00  0.00     0.068 C 
ATOM      7  N   UNL     1       1.229  -4.261   2.966  1.00  0.00    -0.324 N 
ATOM      8  C   UNL     1       1.450  -5.147   4.078  1.00  0.00     0.122 C 
ATOM      9  C   UNL     1       1.429  -5.010   1.733  1.00  0.00     0.138 C 
ATOM     10  C   UNL     1       2.614  -5.992   3.595  1.00  0.00     0.040 C 
BRANCH   7  11
ATOM     11  C   UNL     1       0.452  -3.130   2.937  1.00  0.00     0.320 C 
ATOM     12  O   UNL     1      -0.433  -3.016   2.086  1.00  0.00    -0.248 OA
BRANCH  11  13
ATOM     13  N   UNL     1       0.804  -2.068   3.758  1.00  0.00    -0.325 N 
BRANCH  13  14
ATOM     14  C   UNL     1       0.197  -0.759   3.480  1.00  0.00     0.124 C 
BRANCH  14  15
ATOM     15  C   UNL     1       0.911   0.043   2.351  1.00  0.00     0.005 C 
ATOM     16  C   UNL     1       0.490   1.514   2.450  1.00  0.00     0.009 C 
BRANCH  15  17
ATOM     17  C   UNL     1       0.608  -0.539   0.952  1.00  0.00     0.002 C 
ATOM     18  C   UNL     1       1.125   0.262  -0.234  1.00  0.00     0.004 C 
ENDBRANCH  15  17
ENDBRANCH  14  15
ENDBRANCH  13  14
BRANCH  13  19
ATOM     19  C   UNL     1       1.718  -2.126   4.896  1.00  0.00     0.118 C 
ATOM     20  C   UNL     1       0.958  -2.483   6.172  1.00  0.00     0.027 C 
ENDBRANCH  13  19
ENDBRANCH  11  13
ENDBRANCH   7  11
BRANCH   6  21
ATOM     21  C   UNL     1       3.520  -6.256   1.154  1.00  0.00     0.015 C 
ATOM     22  C   UNL     1       4.633  -7.269   1.359  1.00  0.00     0.005 C 
ENDBRANCH   6  21
ENDBRANCH   3   6
ENDBRANCH   1   2
BRANCH   1  23
ATOM     23  C   UNL     1       2.538  -9.709   4.590  1.00  0.00     0.042 C 
BRANCH  23  24
ATOM     24  C   UNL     1       1.778 -11.023   4.541  1.00  0.00     0.118 C 
BRANCH  24  25
ATOM     25  N   UNL     1       2.533 -12.078   3.873  1.00  0.00    -0.352 N 
ATOM     26  C   UNL     1       3.105 -13.219   4.374  1.00  0.00     0.251 C 
ATOM     27  H   UNL     1       2.650 -11.950   2.903  1.00  0.00     0.163 HD
ATOM     28  O   UNL     1       3.900 -13.851   3.679  1.00  0.00    -0.269 OA
BRANCH  26  29
ATOM     29  C   UNL     1       2.783 -13.677   5.740  1.00  0.00     0.039 A 
ATOM     30  C   UNL     1       3.784 -14.254   6.524  1.00  0.00     0.014 A 
ATOM     31  C   UNL     1       1.489 -13.547   6.246  1.00  0.00     0.014 A 
ATOM     32  C   UNL     1       3.496 -14.637   7.836  1.00  0.00     0.010 A 
ATOM     33  C   UNL     1       1.239 -13.805   7.585  1.00  0.00     0.010 A 
ATOM     34  C   UNL     1       2.231 -14.379   8.390  1.00  0.00    -0.014 A 
BRANCH  34  35
ATOM     35  C   UNL     1       1.912 -14.731   9.796  1.00  0.00     0.031 A 
ATOM     36  C   UNL     1       0.787 -15.690  10.094  1.00  0.00     0.074 A 
ATOM     37  C   UNL     1       2.591 -14.144  10.801  1.00  0.00     0.049 A 
ATOM     38  N   UNL     1       0.329 -16.087  11.254  1.00  0.00    -0.248 NA
ATOM     39  C   UNL     1       0.056 -16.249   8.943  1.00  0.00     0.031 C 
ATOM     40  C   UNL     1       3.658 -13.151  10.640  1.00  0.00     0.029 A 
ATOM     41  N   UNL     1       2.484 -14.294  12.160  1.00  0.00    -0.354 N 
ATOM     42  C   UNL     1      -0.751 -16.915  10.970  1.00  0.00     0.074 A 
ATOM     43  C   UNL     1      -0.923 -16.914   9.536  1.00  0.00     0.031 C 
ATOM     44  C   UNL     1       4.133 -12.815  11.849  1.00  0.00     0.029 A 
ATOM     45  C   UNL     1       3.378 -13.530  12.873  1.00  0.00     0.049 A 
ATOM     46  H   UNL     1       1.829 -14.893  12.586  1.00  0.00     0.167 HD
ATOM     47  C   UNL     1      -1.516 -17.635  11.824  1.00  0.00     0.031 A 
ATOM     48  C   UNL     1       3.568 -13.416  14.201  1.00  0.00     0.031 A 
ATOM     49  C   UNL     1      -1.322 -17.652  13.249  1.00  0.00     0.049 A 
ATOM     50  C   UNL     1       2.720 -14.243  15.128  1.00  0.00     0.074 A 
ATOM     51  C   UNL     1      -1.993 -18.401  14.199  1.00  0.00     0.029 A 
ATOM     52  N   UNL     1      -0.388 -16.885  13.929  1.00  0.00    -0.354 N 
ATOM     53  N   UNL     1       1.755 -15.082  14.835  1.00  0.00    -0.248 NA
ATOM     54  C   UNL     1       3.002 -14.123  16.564  1.00  0.00     0.031 C 
ATOM     55  C   UNL     1      -1.506 -18.043  15.459  1.00  0.00     0.029 A 
ATOM     56  C   UNL     1      -0.482 -17.124  15.289  1.00  0.00     0.049 A 
ATOM     57  H   UNL     1       0.248 -16.263  13.507  1.00  0.00     0.167 HD
ATOM     58  C   UNL     1       1.334 -15.614  16.049  1.00  0.00     0.074 A 
ATOM     59  C   UNL     1       2.166 -15.016  17.075  1.00  0.00     0.031 C 
ATOM     60  C   UNL     1       0.351 -16.516  16.295  1.00  0.00     0.031 A 
BRANCH  47  61
ATOM     61  C   UNL     1      -2.632 -18.463  11.240  1.00  0.00    -0.014 A 
ATOM     62  C   UNL     1      -2.365 -19.590  10.440  1.00  0.00     0.010 A 
ATOM     63  C   UNL     1      -3.968 -18.134  11.531  1.00  0.00     0.010 A 
ATOM     64  C   UNL     1      -3.413 -20.349   9.913  1.00  0.00     0.020 A 
ATOM     65  C   UNL     1      -5.019 -18.911  11.033  1.00  0.00     0.020 A 
ATOM     66  C   UNL     1      -4.734 -20.006  10.215  1.00  0.00     0.054 A 
BRANCH  66  67
ATOM     67  S   UNL     1      -6.072 -21.034   9.550  1.00  0.00     0.124 S 
ATOM     68  O   UNL     1      -6.035 -20.694   8.130  1.00  0.00    -0.237 OA
ATOM     69  O   UNL     1      -5.630 -22.386   9.884  1.00  0.00    -0.237 OA
ATOM     70  O   UNL     1      -7.256 -20.572  10.270  1.00  0.00    -0.744 OA
ENDBRANCH  66  67
ENDBRANCH  47  61
BRANCH  48  71
ATOM     71  C   UNL     1       4.614 -12.497  14.730  1.00  0.00    -0.014 A 
ATOM     72  C   UNL     1       5.767 -13.004  15.357  1.00  0.00     0.010 A 
ATOM     73  C   UNL     1       4.465 -11.104  14.603  1.00  0.00     0.010 A 
ATOM     74  C   UNL     1       6.735 -12.136  15.871  1.00  0.00     0.020 A 
ATOM     75  C   UNL     1       5.446 -10.234  15.085  1.00  0.00     0.020 A 
ATOM     76  C   UNL     1       6.569 -10.755  15.730  1.00  0.00     0.054 A 
BRANCH  76  77
ATOM     77  S   UNL     1       7.858  -9.648  16.367  1.00  0.00     0.124 S 
ATOM     78  O   UNL     1       7.667  -9.758  17.809  1.00  0.00    -0.237 OA
ATOM     79  O   UNL     1       9.079 -10.252  15.840  1.00  0.00    -0.237 OA
ATOM     80  O   UNL     1       7.512  -8.352  15.786  1.00  0.00    -0.744 OA
ENDBRANCH  76  77
ENDBRANCH  48  71
BRANCH  60  81
ATOM     81  C   UNL     1       0.151 -16.944  17.726  1.00  0.00    -0.014 A 
ATOM     82  C   UNL     1      -0.367 -16.062  18.691  1.00  0.00     0.010 A 
ATOM     83  C   UNL     1       0.462 -18.264  18.099  1.00  0.00     0.010 A 
ATOM     84  C   UNL     1      -0.518 -16.478  20.016  1.00  0.00     0.020 A 
ATOM     85  C   UNL     1       0.277 -18.695  19.415  1.00  0.00     0.020 A 
ATOM     86  C   UNL     1      -0.191 -17.791  20.370  1.00  0.00     0.054 A 
BRANCH  86  87
ATOM     87  S   UNL     1      -0.406 -18.310  22.094  1.00  0.00     0.124 S 
ATOM     88  O   UNL     1       0.696 -17.619  22.758  1.00  0.00    -0.237 OA
ATOM     89  O   UNL     1      -1.742 -17.813  22.413  1.00  0.00    -0.237 OA
ATOM     90  O   UNL     1      -0.285 -19.765  22.036  1.00  0.00    -0.744 OA
ENDBRANCH  86  87
ENDBRANCH  60  81
ENDBRANCH  34  35
ENDBRANCH  26  29
ENDBRANCH  24  25
ENDBRANCH  23  24
ENDBRANCH   1  23
TORSDOF 20
