REMARK SMILES O=C(NCCCNC(=O)[C@@]1(CCc2ccccc2)CCC[N@@H+](Cc2cccnc2)C1)c1ccc(-c2c3nc(c(-c4ccc(S(=O)(=O)[O-])cc4)c4ccc([nH]4)c(-c4ccc(S(=O)(=O)[O-])cc4)c4nc(c(-c5ccc(S(=O)(=O)[O-])cc5)c5ccc2[nH]5)C=C4)C=C3)cc1
REMARK SMILES IDX 5 1 4 2 3 3 1 4 2 5 31 7 32 8 90 9 33 10 89 11 34 12 35 13
REMARK SMILES IDX 36 14 83 15 37 16 88 17 82 18 84 19 38 20 87 21 81 22 80 23
REMARK SMILES IDX 39 25 69 26 50 27 68 28 51 29 54 30 67 31 85 32 52 33 53 34
REMARK SMILES IDX 66 36 86 37 55 38 40 39 41 40 49 41 42 42 48 43 43 44 44 45
REMARK SMILES IDX 45 46 46 47 47 48 70 49 71 50 79 51 72 52 78 53 73 54 74 55
REMARK SMILES IDX 75 56 76 57 77 58 56 59 57 60 65 61 58 62 64 63 59 64 60 65
REMARK SMILES IDX 61 66 62 67 63 68 6 69 7 70 8 71 9 73 10 74 19 75 30 76
REMARK SMILES IDX 20 77 22 78 21 79 11 81 12 82 13 83 14 84 18 85 15 86 17 87
REMARK SMILES IDX 16 88 23 89 24 90 25 91 29 92 26 93 28 94 27 95
REMARK H PARENT 3 6 84 24 54 35 7 72 22 80
REMARK Flexibility Score: inf
ROOT
ATOM      1  C   UNL     1       6.163  -3.244   4.125  1.00  0.00     0.042 C 
ENDROOT
BRANCH   1   2
ATOM      2  C   UNL     1       7.294  -2.699   4.982  1.00  0.00     0.118 C 
BRANCH   2   3
ATOM      3  N   UNL     1       7.500  -1.272   4.774  1.00  0.00    -0.352 N 
ATOM      4  O   UNL     1       7.425   0.916   5.303  1.00  0.00    -0.269 OA
ATOM      5  C   UNL     1       7.421  -0.244   5.686  1.00  0.00     0.251 C 
ATOM      6  H   UNL     1       7.727  -1.005   3.854  1.00  0.00     0.163 HD
BRANCH   5   7
ATOM      7  C   UNL     1       7.309  -0.564   7.126  1.00  0.00     0.039 A 
ATOM      8  C   UNL     1       8.097  -1.570   7.688  1.00  0.00     0.014 A 
ATOM      9  C   UNL     1       6.401   0.144   7.917  1.00  0.00     0.014 A 
ATOM     10  C   UNL     1       7.868  -1.976   8.995  1.00  0.00     0.010 A 
ATOM     11  C   UNL     1       6.249  -0.195   9.265  1.00  0.00     0.010 A 
ATOM     12  C   UNL     1       6.963  -1.275   9.807  1.00  0.00    -0.014 A 
BRANCH  12  13
ATOM     13  C   UNL     1       6.853  -1.639  11.241  1.00  0.00     0.031 A 
ATOM     14  C   UNL     1       5.568  -2.158  11.823  1.00  0.00     0.074 A 
ATOM     15  C   UNL     1       7.950  -1.517  12.014  1.00  0.00     0.049 A 
ATOM     16  N   UNL     1       5.319  -2.534  13.051  1.00  0.00    -0.248 NA
ATOM     17  C   UNL     1       4.414  -2.262  10.917  1.00  0.00     0.031 C 
ATOM     18  C   UNL     1       9.253  -1.022  11.555  1.00  0.00     0.029 A 
ATOM     19  N   UNL     1       8.160  -1.821  13.333  1.00  0.00    -0.354 N 
ATOM     20  C   UNL     1       3.976  -2.892  13.077  1.00  0.00     0.074 A 
ATOM     21  C   UNL     1       3.459  -2.672  11.742  1.00  0.00     0.031 C 
ATOM     22  C   UNL     1      10.138  -1.116  12.556  1.00  0.00     0.029 A 
ATOM     23  C   UNL     1       9.452  -1.601  13.747  1.00  0.00     0.049 A 
ATOM     24  H   UNL     1       7.453  -2.164  13.927  1.00  0.00     0.167 HD
ATOM     25  C   UNL     1       3.244  -3.358  14.118  1.00  0.00     0.031 A 
ATOM     26  C   UNL     1      10.024  -1.753  14.954  1.00  0.00     0.031 A 
ATOM     27  C   UNL     1       3.770  -3.568  15.444  1.00  0.00     0.049 A 
ATOM     28  C   UNL     1       9.186  -2.243  16.096  1.00  0.00     0.074 A 
ATOM     29  C   UNL     1       3.118  -4.062  16.560  1.00  0.00     0.029 A 
ATOM     30  N   UNL     1       5.072  -3.289  15.834  1.00  0.00    -0.354 N 
ATOM     31  N   UNL     1       7.923  -2.595  16.093  1.00  0.00    -0.248 NA
ATOM     32  C   UNL     1       9.847  -2.351  17.401  1.00  0.00     0.031 C 
ATOM     33  C   UNL     1       4.011  -4.033  17.637  1.00  0.00     0.029 A 
ATOM     34  C   UNL     1       5.236  -3.575  17.180  1.00  0.00     0.049 A 
ATOM     35  H   UNL     1       5.776  -2.939  15.242  1.00  0.00     0.167 HD
ATOM     36  C   UNL     1       7.637  -2.978  17.397  1.00  0.00     0.074 A 
ATOM     37  C   UNL     1       8.866  -2.833  18.153  1.00  0.00     0.031 C 
ATOM     38  C   UNL     1       6.463  -3.409  17.920  1.00  0.00     0.031 A 
BRANCH  25  39
ATOM     39  C   UNL     1       1.783  -3.633  13.873  1.00  0.00    -0.014 A 
ATOM     40  C   UNL     1       1.361  -4.723  13.091  1.00  0.00     0.010 A 
ATOM     41  C   UNL     1       0.812  -2.796  14.456  1.00  0.00     0.010 A 
ATOM     42  C   UNL     1       0.001  -4.942  12.855  1.00  0.00     0.020 A 
ATOM     43  C   UNL     1      -0.550  -3.026  14.244  1.00  0.00     0.020 A 
ATOM     44  C   UNL     1      -0.947  -4.086  13.425  1.00  0.00     0.054 A 
BRANCH  44  45
ATOM     45  S   UNL     1      -2.706  -4.385  13.096  1.00  0.00     0.124 S 
ATOM     46  O   UNL     1      -2.835  -3.920  11.717  1.00  0.00    -0.237 OA
ATOM     47  O   UNL     1      -2.828  -5.828  13.286  1.00  0.00    -0.237 OA
ATOM     48  O   UNL     1      -3.389  -3.568  14.096  1.00  0.00    -0.744 OA
ENDBRANCH  44  45
ENDBRANCH  25  39
BRANCH  26  49
ATOM     49  C   UNL     1      11.463  -1.421  15.127  1.00  0.00    -0.014 A 
ATOM     50  C   UNL     1      12.413  -2.439  15.310  1.00  0.00     0.010 A 
ATOM     51  C   UNL     1      11.897  -0.084  15.041  1.00  0.00     0.010 A 
ATOM     52  C   UNL     1      13.772  -2.128  15.402  1.00  0.00     0.020 A 
ATOM     53  C   UNL     1      13.257   0.228  15.104  1.00  0.00     0.020 A 
ATOM     54  C   UNL     1      14.186  -0.796  15.291  1.00  0.00     0.054 A 
BRANCH  54  55
ATOM     55  S   UNL     1      15.961  -0.424  15.330  1.00  0.00     0.124 S 
ATOM     56  O   UNL     1      16.271  -0.575  16.748  1.00  0.00    -0.237 OA
ATOM     57  O   UNL     1      16.517  -1.446  14.446  1.00  0.00    -0.237 OA
ATOM     58  O   UNL     1      16.034   0.941  14.813  1.00  0.00    -0.744 OA
ENDBRANCH  54  55
ENDBRANCH  26  49
BRANCH  38  59
ATOM     59  C   UNL     1       6.460  -3.771  19.379  1.00  0.00    -0.014 A 
ATOM     60  C   UNL     1       6.513  -2.779  20.374  1.00  0.00     0.010 A 
ATOM     61  C   UNL     1       6.370  -5.123  19.758  1.00  0.00     0.010 A 
ATOM     62  C   UNL     1       6.509  -3.135  21.725  1.00  0.00     0.020 A 
ATOM     63  C   UNL     1       6.338  -5.480  21.108  1.00  0.00     0.020 A 
ATOM     64  C   UNL     1       6.423  -4.484  22.083  1.00  0.00     0.054 A 
BRANCH  64  65
ATOM     65  S   UNL     1       6.381  -4.920  23.843  1.00  0.00     0.124 S 
ATOM     66  O   UNL     1       7.774  -4.731  24.236  1.00  0.00    -0.237 OA
ATOM     67  O   UNL     1       5.435  -3.951  24.392  1.00  0.00    -0.237 OA
ATOM     68  O   UNL     1       5.915  -6.305  23.845  1.00  0.00    -0.744 OA
ENDBRANCH  64  65
ENDBRANCH  38  59
ENDBRANCH  12  13
ENDBRANCH   5   7
ENDBRANCH   2   3
ENDBRANCH   1   2
BRANCH   1  69
ATOM     69  C   UNL     1       6.577  -3.388   2.672  1.00  0.00     0.117 C 
BRANCH  69  70
ATOM     70  N   UNL     1       7.426  -4.553   2.488  1.00  0.00    -0.355 N 
ATOM     71  C   UNL     1       7.318  -5.688   1.748  1.00  0.00     0.231 C 
ATOM     72  H   UNL     1       8.258  -4.511   3.012  1.00  0.00     0.163 HD
ATOM     73  O   UNL     1       8.293  -6.446   1.807  1.00  0.00    -0.274 OA
BRANCH  71  74
ATOM     74  C   UNL     1       6.071  -6.037   0.905  1.00  0.00     0.098 C 
ATOM     75  C   UNL     1       6.219  -7.542   0.496  1.00  0.00     0.028 C 
ATOM     76  C   UNL     1       4.837  -5.957   1.855  1.00  0.00     0.279 C 
ATOM     77  C   UNL     1       4.904  -8.193   0.073  1.00  0.00     0.063 C 
ATOM     78  N   UNL     1       3.607  -6.660   1.460  1.00  0.00    -0.330 N 
ATOM     79  C   UNL     1       3.862  -8.072   1.180  1.00  0.00     0.262 C 
ATOM     80  H   UNL     1       3.288  -6.239   0.587  1.00  0.00     0.348 HD
BRANCH  74  81
ATOM     81  C   UNL     1       5.913  -5.182  -0.401  1.00  0.00     0.027 C 
BRANCH  81  82
ATOM     82  C   UNL     1       6.808  -3.946  -0.664  1.00  0.00     0.037 C 
BRANCH  82  83
ATOM     83  C   UNL     1       8.296  -4.186  -0.784  1.00  0.00    -0.048 A 
ATOM     84  C   UNL     1       8.814  -5.010  -1.789  1.00  0.00     0.004 A 
ATOM     85  C   UNL     1       9.195  -3.591   0.116  1.00  0.00     0.004 A 
ATOM     86  C   UNL     1      10.183  -5.292  -1.840  1.00  0.00     0.000 A 
ATOM     87  C   UNL     1      10.554  -3.905   0.093  1.00  0.00     0.000 A 
ATOM     88  C   UNL     1      11.047  -4.763  -0.883  1.00  0.00     0.000 A 
ENDBRANCH  82  83
ENDBRANCH  81  82
ENDBRANCH  74  81
BRANCH  78  89
ATOM     89  C   UNL     1       2.507  -6.463   2.437  1.00  0.00     0.300 C 
BRANCH  89  90
ATOM     90  C   UNL     1       2.737  -6.950   3.851  1.00  0.00     0.025 A 
ATOM     91  C   UNL     1       3.471  -6.207   4.783  1.00  0.00     0.013 A 
ATOM     92  C   UNL     1       2.230  -8.169   4.287  1.00  0.00     0.120 A 
ATOM     93  C   UNL     1       3.725  -6.720   6.051  1.00  0.00     0.021 A 
ATOM     94  N   UNL     1       2.442  -8.688   5.520  1.00  0.00    -0.264 NA
ATOM     95  C   UNL     1       3.191  -7.955   6.371  1.00  0.00     0.111 A 
ENDBRANCH  89  90
ENDBRANCH  78  89
ENDBRANCH  71  74
ENDBRANCH  69  70
ENDBRANCH   1  69
TORSDOF 18
