REMARK SMILES O=C(NCCCNC(=O)c1ccc(S(=O)(=O)NC[C@H]2CCS(=O)(=O)C2)cc1)c1ccc(-c2c3nc(c(-c4ccc(S(=O)(=O)[O-])cc4)c4ccc([nH]4)c(-c4ccc(S(=O)(=O)[O-])cc4)c4nc(c(-c5ccc(S(=O)(=O)[O-])cc5)c5ccc2[nH]5)C=C4)C=C3)cc1
REMARK SMILES IDX 5 1 4 2 3 3 1 4 2 5 28 7 29 8 87 9 30 10 86 11 31 12 32 13
REMARK SMILES IDX 33 14 80 15 34 16 85 17 79 18 81 19 35 20 84 21 78 22 77 23
REMARK SMILES IDX 36 25 66 26 47 27 65 28 48 29 51 30 64 31 82 32 49 33 50 34
REMARK SMILES IDX 63 36 83 37 52 38 37 39 38 40 46 41 39 42 45 43 40 44 41 45
REMARK SMILES IDX 42 46 43 47 44 48 67 49 68 50 76 51 69 52 75 53 70 54 71 55
REMARK SMILES IDX 72 56 73 57 74 58 53 59 54 60 62 61 55 62 61 63 56 64 57 65
REMARK SMILES IDX 58 66 59 67 60 68 6 69 7 70 8 71 9 73 10 74 11 75 27 76
REMARK SMILES IDX 12 77 26 78 13 79 14 80 15 81 16 82 17 83 18 85 19 86 20 87
REMARK SMILES IDX 25 88 21 89 22 90 23 91 24 92
REMARK H PARENT 3 6 81 24 51 35 7 72 17 84
REMARK Flexibility Score: inf
ROOT
ATOM      1  C   UNL     1       5.325   9.293   0.614  1.00  0.00     0.042 C 
ENDROOT
BRANCH   1   2
ATOM      2  C   UNL     1       4.724   9.059   1.984  1.00  0.00     0.118 C 
BRANCH   2   3
ATOM      3  N   UNL     1       4.916   7.691   2.455  1.00  0.00    -0.352 N 
ATOM      4  O   UNL     1       5.883   5.990   3.568  1.00  0.00    -0.269 OA
ATOM      5  C   UNL     1       5.718   7.202   3.460  1.00  0.00     0.251 C 
ATOM      6  H   UNL     1       4.388   7.011   1.978  1.00  0.00     0.163 HD
BRANCH   5   7
ATOM      7  C   UNL     1       6.393   8.136   4.386  1.00  0.00     0.039 A 
ATOM      8  C   UNL     1       5.729   9.271   4.846  1.00  0.00     0.014 A 
ATOM      9  C   UNL     1       7.701   7.876   4.804  1.00  0.00     0.014 A 
ATOM     10  C   UNL     1       6.425  10.241   5.548  1.00  0.00     0.010 A 
ATOM     11  C   UNL     1       8.359   8.792   5.633  1.00  0.00     0.010 A 
ATOM     12  C   UNL     1       7.736   9.999   5.985  1.00  0.00    -0.014 A 
BRANCH  12  13
ATOM     13  C   UNL     1       8.373  10.986   6.893  1.00  0.00     0.031 A 
ATOM     14  C   UNL     1       9.627  11.719   6.507  1.00  0.00     0.074 A 
ATOM     15  C   UNL     1       7.762  11.251   8.066  1.00  0.00     0.049 A 
ATOM     16  N   UNL     1      10.273  12.639   7.176  1.00  0.00    -0.248 NA
ATOM     17  C   UNL     1      10.242  11.377   5.214  1.00  0.00     0.031 C 
ATOM     18  C   UNL     1       6.539  10.595   8.547  1.00  0.00     0.029 A 
ATOM     19  N   UNL     1       8.057  12.154   9.053  1.00  0.00    -0.354 N 
ATOM     20  C   UNL     1      11.377  12.975   6.400  1.00  0.00     0.074 A 
ATOM     21  C   UNL     1      11.327  12.141   5.218  1.00  0.00     0.031 C 
ATOM     22  C   UNL     1       6.155  11.163   9.697  1.00  0.00     0.029 A 
ATOM     23  C   UNL     1       7.146  12.158  10.083  1.00  0.00     0.049 A 
ATOM     24  H   UNL     1       8.845  12.744   9.027  1.00  0.00     0.167 HD
ATOM     25  C   UNL     1      12.337  13.898   6.651  1.00  0.00     0.031 A 
ATOM     26  C   UNL     1       7.118  12.862  11.229  1.00  0.00     0.031 A 
ATOM     27  C   UNL     1      12.377  14.719   7.835  1.00  0.00     0.049 A 
ATOM     28  C   UNL     1       8.221  13.843  11.497  1.00  0.00     0.074 A 
ATOM     29  C   UNL     1      13.297  15.699   8.171  1.00  0.00     0.029 A 
ATOM     30  N   UNL     1      11.465  14.657   8.879  1.00  0.00    -0.354 N 
ATOM     31  N   UNL     1       9.237  14.166  10.734  1.00  0.00    -0.248 NA
ATOM     32  C   UNL     1       8.173  14.553  12.780  1.00  0.00     0.031 C 
ATOM     33  C   UNL     1      12.977  16.184   9.442  1.00  0.00     0.029 A 
ATOM     34  C   UNL     1      11.817  15.559   9.871  1.00  0.00     0.049 A 
ATOM     35  H   UNL     1      10.683  14.061   8.910  1.00  0.00     0.167 HD
ATOM     36  C   UNL     1       9.943  15.132  11.439  1.00  0.00     0.074 A 
ATOM     37  C   UNL     1       9.219  15.360  12.674  1.00  0.00     0.031 C 
ATOM     38  C   UNL     1      11.091  15.768  11.098  1.00  0.00     0.031 A 
BRANCH  25  39
ATOM     39  C   UNL     1      13.446  14.057   5.641  1.00  0.00    -0.014 A 
ATOM     40  C   UNL     1      13.213  14.652   4.389  1.00  0.00     0.010 A 
ATOM     41  C   UNL     1      14.758  13.676   5.982  1.00  0.00     0.010 A 
ATOM     42  C   UNL     1      14.265  14.838   3.486  1.00  0.00     0.020 A 
ATOM     43  C   UNL     1      15.817  13.885   5.093  1.00  0.00     0.020 A 
ATOM     44  C   UNL     1      15.561  14.455   3.845  1.00  0.00     0.054 A 
BRANCH  44  45
ATOM     45  S   UNL     1      16.912  14.746   2.669  1.00  0.00     0.124 S 
ATOM     46  O   UNL     1      16.620  13.764   1.627  1.00  0.00    -0.237 OA
ATOM     47  O   UNL     1      16.709  16.142   2.289  1.00  0.00    -0.237 OA
ATOM     48  O   UNL     1      18.117  14.484   3.450  1.00  0.00    -0.744 OA
ENDBRANCH  44  45
ENDBRANCH  25  39
BRANCH  26  49
ATOM     49  C   UNL     1       6.029  12.631  12.216  1.00  0.00    -0.014 A 
ATOM     50  C   UNL     1       5.090  13.636  12.503  1.00  0.00     0.010 A 
ATOM     51  C   UNL     1       5.926  11.390  12.873  1.00  0.00     0.010 A 
ATOM     52  C   UNL     1       4.086  13.413  13.450  1.00  0.00     0.020 A 
ATOM     53  C   UNL     1       4.903  11.151  13.792  1.00  0.00     0.020 A 
ATOM     54  C   UNL     1       3.999  12.172  14.088  1.00  0.00     0.054 A 
BRANCH  54  55
ATOM     55  S   UNL     1       2.673  11.896  15.293  1.00  0.00     0.124 S 
ATOM     56  O   UNL     1       3.127  12.691  16.429  1.00  0.00    -0.237 OA
ATOM     57  O   UNL     1       1.498  12.407  14.590  1.00  0.00    -0.237 OA
ATOM     58  O   UNL     1       2.689  10.449  15.494  1.00  0.00    -0.744 OA
ENDBRANCH  54  55
ENDBRANCH  26  49
BRANCH  38  59
ATOM     59  C   UNL     1      11.615  16.795  12.067  1.00  0.00    -0.014 A 
ATOM     60  C   UNL     1      12.159  16.417  13.307  1.00  0.00     0.010 A 
ATOM     61  C   UNL     1      11.582  18.157  11.718  1.00  0.00     0.010 A 
ATOM     62  C   UNL     1      12.621  17.387  14.200  1.00  0.00     0.020 A 
ATOM     63  C   UNL     1      12.075  19.127  12.594  1.00  0.00     0.020 A 
ATOM     64  C   UNL     1      12.575  18.736  13.837  1.00  0.00     0.054 A 
BRANCH  64  65
ATOM     65  S   UNL     1      13.208  19.973  15.002  1.00  0.00     0.124 S 
ATOM     66  O   UNL     1      12.171  19.981  16.030  1.00  0.00    -0.237 OA
ATOM     67  O   UNL     1      14.491  19.404  15.407  1.00  0.00    -0.237 OA
ATOM     68  O   UNL     1      13.299  21.191  14.199  1.00  0.00    -0.744 OA
ENDBRANCH  64  65
ENDBRANCH  38  59
ENDBRANCH  12  13
ENDBRANCH   5   7
ENDBRANCH   2   3
ENDBRANCH   1   2
BRANCH   1  69
ATOM     69  C   UNL     1       4.665   8.472  -0.473  1.00  0.00     0.118 C 
BRANCH  69  70
ATOM     70  N   UNL     1       3.270   8.836  -0.708  1.00  0.00    -0.352 N 
ATOM     71  C   UNL     1       2.678   9.394  -1.817  1.00  0.00     0.251 C 
ATOM     72  H   UNL     1       2.659   8.654   0.043  1.00  0.00     0.163 HD
ATOM     73  O   UNL     1       1.505   9.749  -1.791  1.00  0.00    -0.269 OA
BRANCH  71  74
ATOM     74  C   UNL     1       3.483   9.596  -3.040  1.00  0.00     0.039 A 
ATOM     75  C   UNL     1       3.453  10.836  -3.682  1.00  0.00     0.015 A 
ATOM     76  C   UNL     1       4.342   8.589  -3.487  1.00  0.00     0.015 A 
ATOM     77  C   UNL     1       4.360  11.096  -4.712  1.00  0.00     0.022 A 
ATOM     78  C   UNL     1       5.332   8.892  -4.413  1.00  0.00     0.022 A 
ATOM     79  C   UNL     1       5.322  10.132  -5.048  1.00  0.00     0.082 A 
BRANCH  79  80
ATOM     80  S   UNL     1       6.568  10.537  -6.242  1.00  0.00     0.240 S 
ATOM     81  O   UNL     1       6.036  11.573  -7.098  1.00  0.00    -0.207 OA
ATOM     82  O   UNL     1       7.794  10.734  -5.503  1.00  0.00    -0.207 OA
BRANCH  80  83
ATOM     83  N   UNL     1       6.867   9.181  -7.209  1.00  0.00    -0.211 NA
ATOM     84  H   UNL     1       7.716   8.766  -6.827  1.00  0.00     0.141 HD
BRANCH  83  85
ATOM     85  C   UNL     1       5.961   8.053  -7.437  1.00  0.00     0.103 C 
BRANCH  85  86
ATOM     86  C   UNL     1       4.881   8.229  -8.488  1.00  0.00     0.020 C 
ATOM     87  C   UNL     1       4.026   9.492  -8.398  1.00  0.00     0.022 C 
ATOM     88  C   UNL     1       5.423   8.197  -9.915  1.00  0.00     0.142 C 
ATOM     89  C   UNL     1       3.095   9.474  -9.602  1.00  0.00     0.137 C 
ATOM     90  S   UNL     1       4.045   8.727 -10.921  1.00  0.00     0.150 S 
ATOM     91  O   UNL     1       3.337   7.548 -11.378  1.00  0.00    -0.229 OA
ATOM     92  O   UNL     1       4.499   9.755 -11.832  1.00  0.00    -0.229 OA
ENDBRANCH  85  86
ENDBRANCH  83  85
ENDBRANCH  80  83
ENDBRANCH  79  80
ENDBRANCH  71  74
ENDBRANCH  69  70
ENDBRANCH   1  69
TORSDOF 17
