REMARK SMILES CCc1cc(OCCC(=O)NCCCNC(=O)c2ccc(-c3c4nc(c(-c5ccc(S(=O)(=O)[O-])cc5)c5ccc([nH]5)c(-c5ccc(S(=O)(=O)[O-])cc5)c5nc(c(-c6ccc(S(=O)(=O)[O-])cc6)c6ccc3[nH]6)C=C5)C=C4)cc2)nc(-c2cnccn2)n1
REMARK SMILES IDX 12 1 11 2 9 3 10 4 8 6 7 7 6 8 5 9 3 10 4 11 86 12 79 13
REMARK SMILES IDX 78 14 2 15 1 16 80 17 81 18 85 19 82 20 84 21 83 22 13 23
REMARK SMILES IDX 14 24 15 25 16 26 17 28 18 29 19 30 77 31 20 32 76 33 21 34
REMARK SMILES IDX 22 35 23 36 70 37 24 38 75 39 69 40 71 41 25 42 74 43 68 44
REMARK SMILES IDX 67 45 26 47 56 48 37 49 55 50 38 51 41 52 54 53 72 54 39 55
REMARK SMILES IDX 40 56 53 58 73 59 42 60 27 61 28 62 36 63 29 64 35 65 30 66
REMARK SMILES IDX 31 67 32 68 33 69 34 70 57 71 58 72 66 73 59 74 65 75 60 76
REMARK SMILES IDX 61 77 62 78 63 79 64 80 43 81 44 82 52 83 45 84 51 85 46 86
REMARK SMILES IDX 47 87 48 88 49 89 50 90
REMARK H PARENT 11 5 15 27 71 46 41 57
REMARK Flexibility Score: inf
ROOT
ATOM      1  C   UNL     1       1.872   3.227   1.736  1.00  0.00     0.117 C 
ENDROOT
BRANCH   1   2
ATOM      2  N   UNL     1       1.968   3.281   0.180  1.00  0.00    -0.356 N 
ATOM      3  C   UNL     1       1.179   3.970  -0.684  1.00  0.00     0.223 C 
ATOM      4  O   UNL     1       1.123   3.623  -1.863  1.00  0.00    -0.275 OA
ATOM      5  H   UNL     1       2.690   2.750  -0.226  1.00  0.00     0.163 HD
BRANCH   3   6
ATOM      6  C   UNL     1       0.430   5.168  -0.145  1.00  0.00     0.141 C 
BRANCH   6   7
ATOM      7  C   UNL     1      -0.836   4.898   0.691  1.00  0.00     0.241 C 
BRANCH   7   8
ATOM      8  O   UNL     1      -0.725   4.629   2.112  1.00  0.00    -0.477 OA
BRANCH   8   9
ATOM      9  C   UNL     1      -0.110   3.426   2.488  1.00  0.00     0.217 A 
ATOM     10  C   UNL     1       1.424   1.266   1.098  1.00  0.00     0.048 A 
ATOM     11  C   UNL     1      -0.037   2.230   1.265  1.00  0.00     0.092 A 
ATOM     12  N   UNL     1       2.810   1.621   2.174  1.00  0.00    -0.231 NA
ATOM     13  C   UNL     1       2.568   2.763   3.598  1.00  0.00     0.183 A 
ATOM     14  N   UNL     1       1.127   3.697   3.659  1.00  0.00    -0.192 NA
BRANCH  10  15
ATOM     15  C   UNL     1       1.071  -0.136   0.592  1.00  0.00     0.053 C 
ATOM     16  C   UNL     1       1.361  -0.384  -0.859  1.00  0.00     0.011 C 
ENDBRANCH  10  15
BRANCH  13  17
ATOM     17  C   UNL     1       2.755   2.246   5.188  1.00  0.00     0.126 A 
ATOM     18  C   UNL     1       3.823   3.395   5.945  1.00  0.00     0.143 A 
ATOM     19  N   UNL     1       3.001   0.444   5.652  1.00  0.00    -0.250 NA
ATOM     20  N   UNL     1       5.156   2.877   6.907  1.00  0.00    -0.261 NA
ATOM     21  C   UNL     1       4.414  -0.062   6.624  1.00  0.00     0.132 A 
ATOM     22  C   UNL     1       5.480   1.178   7.198  1.00  0.00     0.131 A 
ENDBRANCH  13  17
ENDBRANCH   8   9
ENDBRANCH   7   8
ENDBRANCH   6   7
ENDBRANCH   3   6
ENDBRANCH   1   2
BRANCH   1  23
ATOM     23  C   UNL     1       1.101   1.631   3.037  1.00  0.00     0.042 C 
BRANCH  23  24
ATOM     24  C   UNL     1       2.302   0.221   3.563  1.00  0.00     0.118 C 
BRANCH  24  25
ATOM     25  N   UNL     1       3.963   0.722   3.954  1.00  0.00    -0.352 N 
ATOM     26  C   UNL     1       4.525   1.499   5.369  1.00  0.00     0.251 C 
ATOM     27  H   UNL     1       4.643   0.528   3.269  1.00  0.00     0.163 HD
ATOM     28  O   UNL     1       5.654   1.871   4.960  1.00  0.00    -0.269 OA
BRANCH  26  29
ATOM     29  C   UNL     1       3.294   1.653   7.139  1.00  0.00     0.039 A 
ATOM     30  C   UNL     1       3.595   1.892   8.562  1.00  0.00     0.014 A 
ATOM     31  C   UNL     1       1.795   1.188   7.218  1.00  0.00     0.014 A 
ATOM     32  C   UNL     1       2.868   1.343   9.670  1.00  0.00     0.010 A 
ATOM     33  C   UNL     1       1.117   0.583   8.265  1.00  0.00     0.010 A 
ATOM     34  C   UNL     1       1.687   0.610   9.505  1.00  0.00    -0.014 A 
BRANCH  34  35
ATOM     35  C   UNL     1       0.795   0.213  10.601  1.00  0.00     0.031 A 
ATOM     36  C   UNL     1       0.510  -1.221  10.931  1.00  0.00     0.074 A 
ATOM     37  C   UNL     1       0.079   1.233  11.107  1.00  0.00     0.049 A 
ATOM     38  N   UNL     1      -0.224  -1.701  11.898  1.00  0.00    -0.248 NA
ATOM     39  C   UNL     1       1.084  -2.253  10.049  1.00  0.00     0.031 C 
ATOM     40  C   UNL     1       0.181   2.625  10.641  1.00  0.00     0.029 A 
ATOM     41  N   UNL     1      -0.860   1.282  12.089  1.00  0.00    -0.354 N 
ATOM     42  C   UNL     1      -0.180  -3.085  11.767  1.00  0.00     0.074 A 
ATOM     43  C   UNL     1       0.604  -3.371  10.585  1.00  0.00     0.031 C 
ATOM     44  C   UNL     1      -0.589   3.405  11.403  1.00  0.00     0.029 A 
ATOM     45  C   UNL     1      -1.267   2.563  12.373  1.00  0.00     0.049 A 
ATOM     46  H   UNL     1      -1.212   0.485  12.547  1.00  0.00     0.167 HD
ATOM     47  C   UNL     1      -0.743  -4.011  12.582  1.00  0.00     0.031 A 
ATOM     48  C   UNL     1      -2.080   3.006  13.341  1.00  0.00     0.031 A 
ATOM     49  C   UNL     1      -1.568  -3.637  13.706  1.00  0.00     0.049 A 
ATOM     50  C   UNL     1      -2.626   1.972  14.274  1.00  0.00     0.074 A 
ATOM     51  C   UNL     1      -2.158  -4.442  14.663  1.00  0.00     0.029 A 
ATOM     52  N   UNL     1      -1.931  -2.326  14.006  1.00  0.00    -0.354 N 
ATOM     53  N   UNL     1      -2.453   0.669  14.241  1.00  0.00    -0.248 NA
ATOM     54  C   UNL     1      -3.452   2.456  15.378  1.00  0.00     0.031 C 
ATOM     55  C   UNL     1      -2.927  -3.623  15.499  1.00  0.00     0.029 A 
ATOM     56  C   UNL     1      -2.756  -2.299  15.114  1.00  0.00     0.049 A 
ATOM     57  H   UNL     1      -1.641  -1.532  13.501  1.00  0.00     0.167 HD
ATOM     58  C   UNL     1      -3.140   0.171  15.334  1.00  0.00     0.074 A 
ATOM     59  C   UNL     1      -3.701   1.323  16.021  1.00  0.00     0.031 C 
ATOM     60  C   UNL     1      -3.303  -1.115  15.737  1.00  0.00     0.031 A 
BRANCH  47  61
ATOM     61  C   UNL     1      -0.493  -5.475  12.295  1.00  0.00    -0.014 A 
ATOM     62  C   UNL     1       0.800  -6.024  12.395  1.00  0.00     0.010 A 
ATOM     63  C   UNL     1      -1.561  -6.333  11.971  1.00  0.00     0.010 A 
ATOM     64  C   UNL     1       1.027  -7.382  12.137  1.00  0.00     0.020 A 
ATOM     65  C   UNL     1      -1.344  -7.699  11.739  1.00  0.00     0.020 A 
ATOM     66  C   UNL     1      -0.048  -8.211  11.809  1.00  0.00     0.054 A 
BRANCH  66  67
ATOM     67  S   UNL     1       0.276  -9.972  11.502  1.00  0.00     0.124 S 
ATOM     68  O   UNL     1       1.021  -9.929  10.246  1.00  0.00    -0.237 OA
ATOM     69  O   UNL     1       1.050 -10.364  12.677  1.00  0.00    -0.237 OA
ATOM     70  O   UNL     1      -1.058 -10.562  11.412  1.00  0.00    -0.744 OA
ENDBRANCH  66  67
ENDBRANCH  47  61
BRANCH  48  71
ATOM     71  C   UNL     1      -2.329   4.463  13.482  1.00  0.00    -0.014 A 
ATOM     72  C   UNL     1      -1.810   5.180  14.573  1.00  0.00     0.010 A 
ATOM     73  C   UNL     1      -3.011   5.163  12.468  1.00  0.00     0.010 A 
ATOM     74  C   UNL     1      -2.002   6.562  14.667  1.00  0.00     0.020 A 
ATOM     75  C   UNL     1      -3.171   6.548  12.539  1.00  0.00     0.020 A 
ATOM     76  C   UNL     1      -2.683   7.236  13.649  1.00  0.00     0.054 A 
BRANCH  76  77
ATOM     77  S   UNL     1      -2.909   9.030  13.786  1.00  0.00     0.124 S 
ATOM     78  O   UNL     1      -3.863   9.130  14.886  1.00  0.00    -0.237 OA
ATOM     79  O   UNL     1      -1.556   9.497  14.074  1.00  0.00    -0.237 OA
ATOM     80  O   UNL     1      -3.427   9.411  12.473  1.00  0.00    -0.744 OA
ENDBRANCH  76  77
ENDBRANCH  48  71
BRANCH  60  81
ATOM     81  C   UNL     1      -4.114  -1.311  16.984  1.00  0.00    -0.014 A 
ATOM     82  C   UNL     1      -5.499  -1.074  16.992  1.00  0.00     0.010 A 
ATOM     83  C   UNL     1      -3.477  -1.768  18.150  1.00  0.00     0.010 A 
ATOM     84  C   UNL     1      -6.229  -1.250  18.166  1.00  0.00     0.020 A 
ATOM     85  C   UNL     1      -4.212  -1.986  19.313  1.00  0.00     0.020 A 
ATOM     86  C   UNL     1      -5.581  -1.708  19.317  1.00  0.00     0.054 A 
BRANCH  86  87
ATOM     87  S   UNL     1      -6.562  -1.969  20.815  1.00  0.00     0.124 S 
ATOM     88  O   UNL     1      -6.862  -0.599  21.223  1.00  0.00    -0.237 OA
ATOM     89  O   UNL     1      -7.698  -2.742  20.319  1.00  0.00    -0.237 OA
ATOM     90  O   UNL     1      -5.657  -2.699  21.700  1.00  0.00    -0.744 OA
ENDBRANCH  86  87
ENDBRANCH  60  81
ENDBRANCH  34  35
ENDBRANCH  26  29
ENDBRANCH  24  25
ENDBRANCH  23  24
ENDBRANCH   1  23
TORSDOF 18
