REMARK SMILES CCOC(=O)c1ccc(NC(=O)[C@@H]2[C@H]3c4ccccc4[C@H](c4ccccc43)[C@@H]2C(=O)NCCCNC(=O)c2ccc(-c3c4nc(c(-c5ccc(S(=O)(=O)[O-])cc5)c5ccc([nH]5)c(-c5ccc(S(=O)(=O)[O-])cc5)c5nc(c(-c6ccc(S(=O)(=O)[O-])cc6)c6ccc3[nH]6)C=C5)C=C4)cc2)cc1
REMARK SMILES IDX 32 1 31 2 29 3 30 4 28 6 13 7 14 8 27 9 15 10 21 11 26 12
REMARK SMILES IDX 22 13 20 14 16 15 25 16 23 17 19 18 17 19 24 20 18 21 11 22
REMARK SMILES IDX 10 23 12 25 9 26 6 27 7 28 99 29 8 30 98 31 4 32 5 33 3 34
REMARK SMILES IDX 2 35 1 36 33 37 34 38 35 39 36 40 37 42 38 43 39 44 97 45
REMARK SMILES IDX 40 46 96 47 41 48 42 49 43 50 90 51 44 52 95 53 89 54 91 55
REMARK SMILES IDX 45 56 94 57 88 58 87 59 46 61 76 62 57 63 75 64 58 65 61 66
REMARK SMILES IDX 74 67 92 68 59 69 60 70 73 72 93 73 62 74 47 75 48 76 56 77
REMARK SMILES IDX 49 78 55 79 50 80 51 81 52 82 53 83 54 84 77 85 78 86 86 87
REMARK SMILES IDX 79 88 85 89 80 90 81 91 82 92 83 93 84 94 63 95 64 96 72 97
REMARK SMILES IDX 65 98 71 99 66 100 67 101 68 102 69 103 70 104
REMARK H PARENT 31 5 10 24 35 41 91 60 61 71
REMARK Flexibility Score: inf
ROOT
ATOM      1  C   UNL     1       3.068   3.685  -3.204  1.00  0.00     0.117 C 
ENDROOT
BRANCH   1   2
ATOM      2  N   UNL     1       2.562   4.641  -2.192  1.00  0.00    -0.356 N 
ATOM      3  C   UNL     1       2.686   6.055  -2.236  1.00  0.00     0.224 C 
ATOM      4  O   UNL     1       1.914   6.785  -1.622  1.00  0.00    -0.275 OA
ATOM      5  H   UNL     1       2.094   4.260  -1.414  1.00  0.00     0.163 HD
BRANCH   3   6
ATOM      6  C   UNL     1       3.793   6.587  -3.137  1.00  0.00     0.104 C 
ATOM      7  C   UNL     1       5.222   6.079  -2.974  1.00  0.00     0.104 C 
ATOM      8  C   UNL     1       5.712   6.043  -4.529  1.00  0.00     0.063 C 
ATOM      9  C   UNL     1       6.188   7.427  -4.849  1.00  0.00    -0.036 A 
ATOM     10  C   UNL     1       4.480   5.903  -5.581  1.00  0.00    -0.036 A 
ATOM     11  C   UNL     1       3.799   7.816  -4.168  1.00  0.00     0.063 C 
ATOM     12  C   UNL     1       7.346   7.684  -5.579  1.00  0.00     0.004 A 
ATOM     13  C   UNL     1       5.192   8.411  -4.582  1.00  0.00    -0.036 A 
ATOM     14  C   UNL     1       3.483   6.963  -5.425  1.00  0.00    -0.036 A 
ATOM     15  C   UNL     1       4.141   4.788  -6.330  1.00  0.00     0.004 A 
ATOM     16  C   UNL     1       7.547   8.972  -6.046  1.00  0.00     0.000 A 
ATOM     17  C   UNL     1       5.429   9.702  -5.034  1.00  0.00     0.004 A 
ATOM     18  C   UNL     1       2.204   6.888  -5.960  1.00  0.00     0.004 A 
ATOM     19  C   UNL     1       2.833   4.712  -6.853  1.00  0.00     0.000 A 
ATOM     20  C   UNL     1       6.607   9.974  -5.759  1.00  0.00     0.000 A 
ATOM     21  C   UNL     1       1.880   5.737  -6.665  1.00  0.00     0.000 A 
BRANCH   7  22
ATOM     22  C   UNL     1       5.795   7.022  -1.855  1.00  0.00     0.229 C 
ATOM     23  N   UNL     1       5.176   6.994  -0.603  1.00  0.00    -0.326 N 
ATOM     24  H   UNL     1       5.134   7.856  -0.131  1.00  0.00     0.169 HD
ATOM     25  O   UNL     1       6.636   7.897  -2.048  1.00  0.00    -0.274 OA
BRANCH  23  26
ATOM     26  C   UNL     1       4.602   5.901   0.076  1.00  0.00     0.041 A 
ATOM     27  C   UNL     1       3.248   3.669   1.115  1.00  0.00     0.060 A 
ATOM     28  C   UNL     1       4.504   3.526   0.514  1.00  0.00     0.018 A 
ATOM     29  C   UNL     1       2.726   4.952   1.308  1.00  0.00     0.018 A 
ATOM     30  C   UNL     1       5.167   4.633  -0.020  1.00  0.00     0.027 A 
ATOM     31  C   UNL     1       3.434   6.073   0.835  1.00  0.00     0.027 A 
BRANCH  27  32
ATOM     32  C   UNL     1       2.527   2.430   1.498  1.00  0.00     0.338 C 
ATOM     33  O   UNL     1       3.111   1.397   1.800  1.00  0.00    -0.246 OA
BRANCH  32  34
ATOM     34  O   UNL     1       1.187   2.575   1.348  1.00  0.00    -0.462 OA
BRANCH  34  35
ATOM     35  C   UNL     1       0.388   1.430   1.716  1.00  0.00     0.230 C 
ATOM     36  C   UNL     1       0.440   0.327   0.676  1.00  0.00     0.049 C 
ENDBRANCH  34  35
ENDBRANCH  32  34
ENDBRANCH  27  32
ENDBRANCH  23  26
ENDBRANCH   7  22
ENDBRANCH   3   6
ENDBRANCH   1   2
BRANCH   1  37
ATOM     37  C   UNL     1       3.520   2.310  -2.765  1.00  0.00     0.042 C 
BRANCH  37  38
ATOM     38  C   UNL     1       2.415   1.400  -2.298  1.00  0.00     0.118 C 
BRANCH  38  39
ATOM     39  N   UNL     1       1.351   1.234  -3.280  1.00  0.00    -0.352 N 
ATOM     40  C   UNL     1       0.833   0.118  -3.894  1.00  0.00     0.251 C 
ATOM     41  H   UNL     1       0.924   2.077  -3.555  1.00  0.00     0.163 HD
ATOM     42  O   UNL     1       0.012   0.272  -4.796  1.00  0.00    -0.269 OA
BRANCH  40  43
ATOM     43  C   UNL     1       1.254  -1.249  -3.505  1.00  0.00     0.039 A 
ATOM     44  C   UNL     1       1.245  -2.277  -4.452  1.00  0.00     0.014 A 
ATOM     45  C   UNL     1       1.642  -1.539  -2.201  1.00  0.00     0.014 A 
ATOM     46  C   UNL     1       1.704  -3.551  -4.100  1.00  0.00     0.010 A 
ATOM     47  C   UNL     1       2.212  -2.757  -1.878  1.00  0.00     0.010 A 
ATOM     48  C   UNL     1       2.235  -3.784  -2.821  1.00  0.00    -0.014 A 
BRANCH  48  49
ATOM     49  C   UNL     1       2.850  -5.070  -2.427  1.00  0.00     0.031 A 
ATOM     50  C   UNL     1       2.281  -5.860  -1.278  1.00  0.00     0.074 A 
ATOM     51  C   UNL     1       3.997  -5.446  -3.024  1.00  0.00     0.049 A 
ATOM     52  N   UNL     1       2.724  -6.967  -0.742  1.00  0.00    -0.248 NA
ATOM     53  C   UNL     1       1.077  -5.318  -0.621  1.00  0.00     0.031 C 
ATOM     54  C   UNL     1       4.687  -4.700  -4.081  1.00  0.00     0.029 A 
ATOM     55  N   UNL     1       4.796  -6.539  -2.816  1.00  0.00    -0.354 N 
ATOM     56  C   UNL     1       1.856  -7.254   0.305  1.00  0.00     0.074 A 
ATOM     57  C   UNL     1       0.909  -6.165   0.384  1.00  0.00     0.031 C 
ATOM     58  C   UNL     1       5.788  -5.374  -4.449  1.00  0.00     0.029 A 
ATOM     59  C   UNL     1       5.902  -6.575  -3.632  1.00  0.00     0.049 A 
ATOM     60  H   UNL     1       4.598  -7.232  -2.145  1.00  0.00     0.167 HD
ATOM     61  C   UNL     1       1.828  -8.346   1.105  1.00  0.00     0.031 A 
ATOM     62  C   UNL     1       6.895  -7.480  -3.710  1.00  0.00     0.031 A 
ATOM     63  C   UNL     1       2.785  -9.417   1.020  1.00  0.00     0.049 A 
ATOM     64  C   UNL     1       6.848  -8.680  -2.804  1.00  0.00     0.074 A 
ATOM     65  C   UNL     1       2.827 -10.595   1.744  1.00  0.00     0.029 A 
ATOM     66  N   UNL     1       3.870  -9.437   0.156  1.00  0.00    -0.354 N 
ATOM     67  N   UNL     1       5.960  -8.985  -1.887  1.00  0.00    -0.248 NA
ATOM     68  C   UNL     1       7.923  -9.667  -2.958  1.00  0.00     0.031 C 
ATOM     69  C   UNL     1       3.966 -11.304   1.352  1.00  0.00     0.029 A 
ATOM     70  C   UNL     1       4.597 -10.600   0.339  1.00  0.00     0.049 A 
ATOM     71  H   UNL     1       4.090  -8.729  -0.492  1.00  0.00     0.167 HD
ATOM     72  C   UNL     1       6.350 -10.220  -1.381  1.00  0.00     0.074 A 
ATOM     73  C   UNL     1       7.542 -10.609  -2.107  1.00  0.00     0.031 C 
ATOM     74  C   UNL     1       5.777 -10.966  -0.404  1.00  0.00     0.031 A 
BRANCH  61  75
ATOM     75  C   UNL     1       0.711  -8.450   2.112  1.00  0.00    -0.014 A 
ATOM     76  C   UNL     1      -0.620  -8.627   1.689  1.00  0.00     0.010 A 
ATOM     77  C   UNL     1       0.990  -8.432   3.491  1.00  0.00     0.010 A 
ATOM     78  C   UNL     1      -1.652  -8.751   2.622  1.00  0.00     0.020 A 
ATOM     79  C   UNL     1      -0.037  -8.587   4.428  1.00  0.00     0.020 A 
ATOM     80  C   UNL     1      -1.354  -8.733   3.986  1.00  0.00     0.054 A 
BRANCH  80  81
ATOM     81  S   UNL     1      -2.713  -8.941   5.169  1.00  0.00     0.124 S 
ATOM     82  O   UNL     1      -3.434  -7.678   5.026  1.00  0.00    -0.237 OA
ATOM     83  O   UNL     1      -3.405 -10.120   4.655  1.00  0.00    -0.237 OA
ATOM     84  O   UNL     1      -2.035  -9.128   6.449  1.00  0.00    -0.744 OA
ENDBRANCH  80  81
ENDBRANCH  61  75
BRANCH  62  85
ATOM     85  C   UNL     1       7.993  -7.306  -4.700  1.00  0.00    -0.014 A 
ATOM     86  C   UNL     1       8.112  -8.183  -5.792  1.00  0.00     0.010 A 
ATOM     87  C   UNL     1       8.930  -6.266  -4.554  1.00  0.00     0.010 A 
ATOM     88  C   UNL     1       9.171  -8.053  -6.694  1.00  0.00     0.020 A 
ATOM     89  C   UNL     1       9.971  -6.112  -5.474  1.00  0.00     0.020 A 
ATOM     90  C   UNL     1      10.097  -7.021  -6.526  1.00  0.00     0.054 A 
BRANCH  90  91
ATOM     91  S   UNL     1      11.459  -6.868  -7.714  1.00  0.00     0.124 S 
ATOM     92  O   UNL     1      12.305  -8.001  -7.351  1.00  0.00    -0.237 OA
ATOM     93  O   UNL     1      10.772  -6.976  -8.998  1.00  0.00    -0.237 OA
ATOM     94  O   UNL     1      12.019  -5.550  -7.424  1.00  0.00    -0.744 OA
ENDBRANCH  90  91
ENDBRANCH  62  85
BRANCH  74  95
ATOM     95  C   UNL     1       6.406 -12.298  -0.099  1.00  0.00    -0.014 A 
ATOM     96  C   UNL     1       7.653 -12.388   0.544  1.00  0.00     0.010 A 
ATOM     97  C   UNL     1       5.711 -13.479  -0.420  1.00  0.00     0.010 A 
ATOM     98  C   UNL     1       8.211 -13.637   0.826  1.00  0.00     0.020 A 
ATOM     99  C   UNL     1       6.249 -14.728  -0.108  1.00  0.00     0.020 A 
ATOM    100  C   UNL     1       7.504 -14.799   0.500  1.00  0.00     0.054 A 
BRANCH 100 101
ATOM    101  S   UNL     1       8.232 -16.406   0.918  1.00  0.00     0.124 S 
ATOM    102  O   UNL     1       9.317 -16.510  -0.053  1.00  0.00    -0.237 OA
ATOM    103  O   UNL     1       8.645 -16.217   2.306  1.00  0.00    -0.237 OA
ATOM    104  O   UNL     1       7.130 -17.347   0.724  1.00  0.00    -0.744 OA
ENDBRANCH 100 101
ENDBRANCH  74  95
ENDBRANCH  48  49
ENDBRANCH  40  43
ENDBRANCH  38  39
ENDBRANCH  37  38
ENDBRANCH   1  37
TORSDOF 18
