REMARK SMILES COc1cc2c(cc1OC)[C@@H](CC(=O)NCCCNC(=O)c1ccc(-c3c4nc(c(-c5ccc(S(=O)(=O)[O-])cc5)c5ccc([nH]5)c(-c5ccc(S(=O)(=O)[O-])cc5)c5nc(c(-c6ccc(S(=O)(=O)[O-])cc6)c6ccc3[nH]6)C=C5)C=C4)cc1)N(C(=O)Nc1ccc(Cl)cc1)CC2
REMARK SMILES IDX 17 1 16 2 15 3 13 4 14 5 12 7 11 8 3 9 4 10 8 11 5 12 7 13
REMARK SMILES IDX 6 14 94 15 93 16 82 17 2 18 1 19 9 20 10 21 83 22 84 23
REMARK SMILES IDX 85 24 86 26 87 27 92 28 88 29 91 30 89 31 90 32 18 33 19 34
REMARK SMILES IDX 20 35 21 37 22 38 23 39 81 40 24 41 80 42 25 43 26 44 27 45
REMARK SMILES IDX 74 46 28 47 79 48 73 49 75 50 29 51 78 52 72 53 71 54 30 56
REMARK SMILES IDX 60 57 41 58 59 59 42 60 45 61 58 62 76 63 43 64 44 65 57 67
REMARK SMILES IDX 77 68 46 69 31 70 32 71 40 72 33 73 39 74 34 75 35 76 36 77
REMARK SMILES IDX 37 78 38 79 61 80 62 81 70 82 63 83 69 84 64 85 65 86 66 87
REMARK SMILES IDX 67 88 68 89 47 90 48 91 56 92 49 93 55 94 50 95 51 96 52 97
REMARK SMILES IDX 53 98 54 99
REMARK H PARENT 15 6 85 25 19 36 75 55 45 66
REMARK Flexibility Score: inf
ROOT
ATOM      1  C   UNL     1       2.094  -2.711 -10.463  1.00  0.00     0.042 C 
ENDROOT
BRANCH   1   2
ATOM      2  C   UNL     1       3.260  -2.834  -9.467  1.00  0.00     0.117 C 
BRANCH   2   3
ATOM      3  N   UNL     1       3.662  -1.519  -8.972  1.00  0.00    -0.356 N 
ATOM      4  C   UNL     1       3.547  -0.927  -7.750  1.00  0.00     0.222 C 
ATOM      5  O   UNL     1       3.828   0.272  -7.663  1.00  0.00    -0.275 OA
ATOM      6  H   UNL     1       4.099  -0.954  -9.650  1.00  0.00     0.163 HD
BRANCH   4   7
ATOM      7  C   UNL     1       3.193  -1.714  -6.503  1.00  0.00     0.130 C 
BRANCH   7   8
ATOM      8  C   UNL     1       1.802  -1.329  -5.933  1.00  0.00     0.127 C 
ATOM      9  C   UNL     1       1.392  -0.742  -1.612  1.00  0.00     0.161 A 
ATOM     10  C   UNL     1       0.285  -0.973  -2.409  1.00  0.00     0.054 A 
ATOM     11  C   UNL     1       2.664  -0.585  -2.183  1.00  0.00     0.161 A 
ATOM     12  C   UNL     1       0.453  -1.123  -3.785  1.00  0.00    -0.037 A 
ATOM     13  C   UNL     1       2.815  -0.682  -3.584  1.00  0.00     0.056 A 
ATOM     14  C   UNL     1       1.725  -1.018  -4.408  1.00  0.00    -0.018 A 
ATOM     15  C   UNL     1      -0.698  -1.645  -4.596  1.00  0.00     0.057 C 
ATOM     16  C   UNL     1      -0.112  -2.875  -5.263  1.00  0.00     0.127 C 
ATOM     17  N   UNL     1       0.860  -2.445  -6.273  1.00  0.00    -0.317 N 
BRANCH   9  18
ATOM     18  O   UNL     1       1.188  -0.849  -0.260  1.00  0.00    -0.493 OA
ATOM     19  C   UNL     1       1.231   0.422   0.377  1.00  0.00     0.278 C 
ENDBRANCH   9  18
BRANCH  11  20
ATOM     20  O   UNL     1       3.685  -0.388  -1.290  1.00  0.00    -0.493 OA
ATOM     21  C   UNL     1       4.998  -0.254  -1.806  1.00  0.00     0.278 C 
ENDBRANCH  11  20
BRANCH  17  22
ATOM     22  C   UNL     1       0.425  -2.647  -7.572  1.00  0.00     0.322 C 
ATOM     23  O   UNL     1       0.220  -1.732  -8.367  1.00  0.00    -0.248 OA
ATOM     24  N   UNL     1       0.260  -3.992  -7.817  1.00  0.00    -0.308 N 
ATOM     25  H   UNL     1       1.059  -4.562  -7.737  1.00  0.00     0.171 HD
BRANCH  24  26
ATOM     26  C   UNL     1      -0.939  -4.626  -8.169  1.00  0.00     0.042 A 
ATOM     27  C   UNL     1      -0.950  -6.024  -8.120  1.00  0.00     0.028 A 
ATOM     28  C   UNL     1      -2.130  -3.921  -8.346  1.00  0.00     0.028 A 
ATOM     29  C   UNL     1      -2.159  -6.714  -8.160  1.00  0.00     0.022 A 
ATOM     30  C   UNL     1      -3.342  -4.614  -8.369  1.00  0.00     0.022 A 
ATOM     31  C   UNL     1      -3.353  -6.004  -8.255  1.00  0.00     0.041 A 
ATOM     32  Cl  UNL     1      -4.844  -6.854  -8.195  1.00  0.00    -0.084 Cl
ENDBRANCH  24  26
ENDBRANCH  17  22
ENDBRANCH   7   8
ENDBRANCH   4   7
ENDBRANCH   2   3
ENDBRANCH   1   2
BRANCH   1  33
ATOM     33  C   UNL     1       2.380  -3.275 -11.848  1.00  0.00     0.118 C 
BRANCH  33  34
ATOM     34  N   UNL     1       2.240  -4.722 -11.897  1.00  0.00    -0.352 N 
ATOM     35  C   UNL     1       1.196  -5.594 -12.098  1.00  0.00     0.251 C 
ATOM     36  H   UNL     1       3.095  -5.188 -11.753  1.00  0.00     0.163 HD
ATOM     37  O   UNL     1       1.456  -6.783 -11.886  1.00  0.00    -0.269 OA
BRANCH  35  38
ATOM     38  C   UNL     1      -0.193  -5.236 -12.534  1.00  0.00     0.039 A 
ATOM     39  C   UNL     1      -1.182  -6.229 -12.395  1.00  0.00     0.014 A 
ATOM     40  C   UNL     1      -0.572  -4.044 -13.149  1.00  0.00     0.014 A 
ATOM     41  C   UNL     1      -2.496  -6.034 -12.854  1.00  0.00     0.010 A 
ATOM     42  C   UNL     1      -1.904  -3.816 -13.537  1.00  0.00     0.010 A 
ATOM     43  C   UNL     1      -2.882  -4.812 -13.418  1.00  0.00    -0.014 A 
BRANCH  43  44
ATOM     44  C   UNL     1      -4.275  -4.561 -13.903  1.00  0.00     0.031 A 
ATOM     45  C   UNL     1      -4.534  -4.190 -15.346  1.00  0.00     0.074 A 
ATOM     46  C   UNL     1      -5.315  -4.599 -13.044  1.00  0.00     0.049 A 
ATOM     47  N   UNL     1      -5.652  -3.815 -15.917  1.00  0.00    -0.248 NA
ATOM     48  C   UNL     1      -3.381  -4.219 -16.260  1.00  0.00     0.031 C 
ATOM     49  C   UNL     1      -5.221  -4.918 -11.620  1.00  0.00     0.029 A 
ATOM     50  N   UNL     1      -6.654  -4.354 -13.237  1.00  0.00    -0.354 N 
ATOM     51  C   UNL     1      -5.330  -3.524 -17.239  1.00  0.00     0.074 A 
ATOM     52  C   UNL     1      -3.905  -3.736 -17.378  1.00  0.00     0.031 C 
ATOM     53  C   UNL     1      -6.446  -4.868 -11.072  1.00  0.00     0.029 A 
ATOM     54  C   UNL     1      -7.409  -4.471 -12.092  1.00  0.00     0.049 A 
ATOM     55  H   UNL     1      -7.037  -4.118 -14.112  1.00  0.00     0.167 HD
ATOM     56  C   UNL     1      -6.143  -3.133 -18.252  1.00  0.00     0.031 A 
ATOM     57  C   UNL     1      -8.724  -4.270 -11.873  1.00  0.00     0.031 A 
ATOM     58  C   UNL     1      -7.568  -2.965 -18.134  1.00  0.00     0.049 A 
ATOM     59  C   UNL     1      -9.609  -3.853 -13.015  1.00  0.00     0.074 A 
ATOM     60  C   UNL     1      -8.480  -2.636 -19.123  1.00  0.00     0.029 A 
ATOM     61  N   UNL     1      -8.291  -3.122 -16.962  1.00  0.00    -0.354 N 
ATOM     62  N   UNL     1      -9.286  -3.623 -14.265  1.00  0.00    -0.248 NA
ATOM     63  C   UNL     1     -11.039  -3.678 -12.720  1.00  0.00     0.031 C 
ATOM     64  C   UNL     1      -9.750  -2.557 -18.541  1.00  0.00     0.029 A 
ATOM     65  C   UNL     1      -9.635  -2.884 -17.200  1.00  0.00     0.049 A 
ATOM     66  H   UNL     1      -7.907  -3.367 -16.089  1.00  0.00     0.167 HD
ATOM     67  C   UNL     1     -10.475  -3.301 -14.909  1.00  0.00     0.074 A 
ATOM     68  C   UNL     1     -11.526  -3.379 -13.916  1.00  0.00     0.031 C 
ATOM     69  C   UNL     1     -10.675  -2.970 -16.208  1.00  0.00     0.031 A 
BRANCH  56  70
ATOM     70  C   UNL     1      -5.509  -2.856 -19.592  1.00  0.00    -0.014 A 
ATOM     71  C   UNL     1      -5.011  -3.901 -20.392  1.00  0.00     0.010 A 
ATOM     72  C   UNL     1      -5.460  -1.538 -20.084  1.00  0.00     0.010 A 
ATOM     73  C   UNL     1      -4.437  -3.629 -21.637  1.00  0.00     0.020 A 
ATOM     74  C   UNL     1      -4.911  -1.265 -21.340  1.00  0.00     0.020 A 
ATOM     75  C   UNL     1      -4.386  -2.311 -22.101  1.00  0.00     0.054 A 
BRANCH  75  76
ATOM     76  S   UNL     1      -3.654  -1.989 -23.730  1.00  0.00     0.124 S 
ATOM     77  O   UNL     1      -2.228  -2.144 -23.454  1.00  0.00    -0.237 OA
ATOM     78  O   UNL     1      -4.249  -3.033 -24.562  1.00  0.00    -0.237 OA
ATOM     79  O   UNL     1      -4.084  -0.628 -24.041  1.00  0.00    -0.744 OA
ENDBRANCH  75  76
ENDBRANCH  56  70
BRANCH  57  80
ATOM     80  C   UNL     1      -9.291  -4.466 -10.509  1.00  0.00    -0.014 A 
ATOM     81  C   UNL     1     -10.120  -5.567 -10.234  1.00  0.00     0.010 A 
ATOM     82  C   UNL     1      -9.001  -3.554  -9.478  1.00  0.00     0.010 A 
ATOM     83  C   UNL     1     -10.667  -5.742  -8.959  1.00  0.00     0.020 A 
ATOM     84  C   UNL     1      -9.523  -3.740  -8.195  1.00  0.00     0.020 A 
ATOM     85  C   UNL     1     -10.365  -4.826  -7.947  1.00  0.00     0.054 A 
BRANCH  85  86
ATOM     86  S   UNL     1     -11.051  -5.093  -6.288  1.00  0.00     0.124 S 
ATOM     87  O   UNL     1     -12.435  -4.666  -6.460  1.00  0.00    -0.237 OA
ATOM     88  O   UNL     1     -10.851  -6.526  -6.087  1.00  0.00    -0.237 OA
ATOM     89  O   UNL     1     -10.230  -4.233  -5.438  1.00  0.00    -0.744 OA
ENDBRANCH  85  86
ENDBRANCH  57  80
BRANCH  69  90
ATOM     90  C   UNL     1     -12.090  -2.702 -16.646  1.00  0.00    -0.014 A 
ATOM     91  C   UNL     1     -12.751  -1.514 -16.287  1.00  0.00     0.010 A 
ATOM     92  C   UNL     1     -12.747  -3.630 -17.476  1.00  0.00     0.010 A 
ATOM     93  C   UNL     1     -14.056  -1.272 -16.727  1.00  0.00     0.020 A 
ATOM     94  C   UNL     1     -14.042  -3.380 -17.937  1.00  0.00     0.020 A 
ATOM     95  C   UNL     1     -14.693  -2.207 -17.549  1.00  0.00     0.054 A 
BRANCH  95  96
ATOM     96  S   UNL     1     -16.369  -1.849 -18.146  1.00  0.00     0.124 S 
ATOM     97  O   UNL     1     -17.176  -2.105 -16.957  1.00  0.00    -0.237 OA
ATOM     98  O   UNL     1     -16.274  -0.449 -18.552  1.00  0.00    -0.237 OA
ATOM     99  O   UNL     1     -16.555  -2.797 -19.242  1.00  0.00    -0.744 OA
ENDBRANCH  95  96
ENDBRANCH  69  90
ENDBRANCH  43  44
ENDBRANCH  35  38
ENDBRANCH  33  34
ENDBRANCH   1  33
TORSDOF 18
