REMARK SMILES O=C(CNC(=O)[C@@H](CC1=c2ccccc2=NC1)N1C(=O)N=C2C=CC=C[C@@H]2C1=O)NCCCNC(=O)c1ccc(-c2c3nc(c(-c4ccc(S(=O)(=O)[O-])cc4)c4ccc([nH]4)c(-c4ccc(S(=O)(=O)[O-])cc4)c4nc(c(-c5ccc(S(=O)(=O)[O-])cc5)c5ccc2[nH]5)C=C4)C=C3)cc1
REMARK SMILES IDX 31 1 30 2 1 3 2 4 3 6 4 7 5 8 6 10 7 11 8 12 9 13 10 14
REMARK SMILES IDX 17 15 11 16 15 17 16 18 12 19 14 20 13 21 18 22 19 23 28 24
REMARK SMILES IDX 21 25 20 26 27 27 29 28 22 29 26 30 23 31 25 32 24 33 32 34
REMARK SMILES IDX 33 35 34 36 35 37 36 39 37 40 38 41 96 42 39 43 95 44 40 45
REMARK SMILES IDX 41 46 42 47 89 48 43 49 94 50 88 51 90 52 44 53 93 54 87 55
REMARK SMILES IDX 86 56 45 58 75 59 56 60 74 61 57 62 60 63 73 64 91 65 58 66
REMARK SMILES IDX 59 67 72 69 92 70 61 71 46 72 47 73 55 74 48 75 54 76 49 77
REMARK SMILES IDX 50 78 51 79 52 80 53 81 76 82 77 83 85 84 78 85 84 86 79 87
REMARK SMILES IDX 80 88 81 89 82 90 83 91 62 92 63 93 71 94 64 95 70 96 65 97
REMARK SMILES IDX 66 98 67 99 68 100 69 101
REMARK H PARENT 30 5 4 9 34 38 90 57 60 68
REMARK Flexibility Score: inf
ROOT
ATOM      1  C   UNL     1       2.034   3.016   0.601  1.00  0.00     0.117 C 
ENDROOT
BRANCH   1   2
ATOM      2  N   UNL     1       2.636   1.874  -0.061  1.00  0.00    -0.355 N 
ATOM      3  O   UNL     1       0.673   0.726  -0.387  1.00  0.00    -0.273 OA
ATOM      4  C   UNL     1       1.896   0.792  -0.486  1.00  0.00     0.239 C 
ATOM      5  H   UNL     1       3.609   1.871  -0.212  1.00  0.00     0.163 HD
BRANCH   4   6
ATOM      6  C   UNL     1       2.707  -0.390  -1.042  1.00  0.00     0.216 C 
BRANCH   6   7
ATOM      7  N   UNL     1       4.121  -0.140  -1.326  1.00  0.00    -0.345 N 
ATOM      8  C   UNL     1       5.233  -0.924  -1.223  1.00  0.00     0.244 C 
ATOM      9  H   UNL     1       4.306   0.769  -1.654  1.00  0.00     0.164 HD
ATOM     10  O   UNL     1       6.303  -0.351  -1.471  1.00  0.00    -0.273 OA
BRANCH   8  11
ATOM     11  C   UNL     1       5.267  -2.379  -0.657  1.00  0.00     0.188 C 
BRANCH  11  12
ATOM     12  C   UNL     1       5.659  -2.301   0.864  1.00  0.00     0.069 C 
BRANCH  12  13
ATOM     13  C   UNL     1       4.545  -1.927   1.798  1.00  0.00    -0.037 C 
ATOM     14  C   UNL     1       3.736  -2.709   2.509  1.00  0.00     0.001 A 
ATOM     15  C   UNL     1       4.210  -0.499   2.075  1.00  0.00     0.174 C 
ATOM     16  C   UNL     1       3.662  -4.097   2.820  1.00  0.00     0.010 A 
ATOM     17  C   UNL     1       2.661  -1.777   2.895  1.00  0.00     0.065 A 
ATOM     18  N   UNL     1       2.854  -0.515   2.657  1.00  0.00    -0.280 NA
ATOM     19  C   UNL     1       2.545  -4.573   3.392  1.00  0.00     0.001 A 
ATOM     20  C   UNL     1       1.422  -2.389   3.423  1.00  0.00     0.028 A 
ATOM     21  C   UNL     1       1.395  -3.717   3.629  1.00  0.00     0.002 A 
ENDBRANCH  12  13
ENDBRANCH  11  12
BRANCH  11  22
ATOM     22  N   UNL     1       4.078  -3.188  -0.962  1.00  0.00    -0.249 N 
ATOM     23  C   UNL     1       3.535  -3.101  -2.224  1.00  0.00     0.351 C 
ATOM     24  C   UNL     1       3.926  -4.457  -0.438  1.00  0.00     0.244 C 
ATOM     25  N   UNL     1       2.164  -3.197  -2.223  1.00  0.00    -0.197 NA
ATOM     26  O   UNL     1       4.189  -2.861  -3.230  1.00  0.00    -0.246 OA
ATOM     27  C   UNL     1       2.611  -5.144  -0.826  1.00  0.00     0.151 C 
ATOM     28  O   UNL     1       4.815  -5.063   0.161  1.00  0.00    -0.273 OA
ATOM     29  C   UNL     1       1.682  -4.098  -1.427  1.00  0.00     0.062 C 
ATOM     30  C   UNL     1       1.971  -5.925   0.283  1.00  0.00    -0.007 C 
ATOM     31  C   UNL     1       0.248  -4.069  -1.063  1.00  0.00     0.025 C 
ATOM     32  C   UNL     1       0.680  -5.787   0.618  1.00  0.00    -0.003 C 
ATOM     33  C   UNL     1      -0.180  -4.857  -0.070  1.00  0.00     0.002 C 
ENDBRANCH  11  22
ENDBRANCH   8  11
ENDBRANCH   6   7
ENDBRANCH   4   6
ENDBRANCH   1   2
BRANCH   1  34
ATOM     34  C   UNL     1       2.223   2.995   2.116  1.00  0.00     0.042 C 
BRANCH  34  35
ATOM     35  C   UNL     1       3.674   3.049   2.588  1.00  0.00     0.118 C 
BRANCH  35  36
ATOM     36  N   UNL     1       4.366   4.277   2.228  1.00  0.00    -0.352 N 
ATOM     37  C   UNL     1       5.127   5.128   2.994  1.00  0.00     0.251 C 
ATOM     38  H   UNL     1       4.274   4.542   1.284  1.00  0.00     0.163 HD
ATOM     39  O   UNL     1       5.574   6.152   2.482  1.00  0.00    -0.269 OA
BRANCH  37  40
ATOM     40  C   UNL     1       5.373   4.856   4.430  1.00  0.00     0.039 A 
ATOM     41  C   UNL     1       5.730   3.589   4.898  1.00  0.00     0.014 A 
ATOM     42  C   UNL     1       5.250   5.918   5.332  1.00  0.00     0.014 A 
ATOM     43  C   UNL     1       5.811   3.353   6.272  1.00  0.00     0.010 A 
ATOM     44  C   UNL     1       5.396   5.694   6.704  1.00  0.00     0.010 A 
ATOM     45  C   UNL     1       5.627   4.399   7.192  1.00  0.00    -0.014 A 
BRANCH  45  46
ATOM     46  C   UNL     1       5.646   4.131   8.655  1.00  0.00     0.031 A 
ATOM     47  C   UNL     1       4.392   4.296   9.477  1.00  0.00     0.074 A 
ATOM     48  C   UNL     1       6.780   3.712   9.250  1.00  0.00     0.049 A 
ATOM     49  N   UNL     1       4.220   4.111  10.761  1.00  0.00    -0.248 NA
ATOM     50  C   UNL     1       3.175   4.726   8.768  1.00  0.00     0.031 C 
ATOM     51  C   UNL     1       8.056   3.492   8.567  1.00  0.00     0.029 A 
ATOM     52  N   UNL     1       7.040   3.379  10.557  1.00  0.00    -0.354 N 
ATOM     53  C   UNL     1       2.886   4.408  11.015  1.00  0.00     0.074 A 
ATOM     54  C   UNL     1       2.300   4.822   9.759  1.00  0.00     0.031 C 
ATOM     55  C   UNL     1       8.950   3.021   9.450  1.00  0.00     0.029 A 
ATOM     56  C   UNL     1       8.331   2.957  10.773  1.00  0.00     0.049 A 
ATOM     57  H   UNL     1       6.366   3.438  11.272  1.00  0.00     0.167 HD
ATOM     58  C   UNL     1       2.205   4.325  12.183  1.00  0.00     0.031 A 
ATOM     59  C   UNL     1       8.957   2.567  11.903  1.00  0.00     0.031 A 
ATOM     60  C   UNL     1       2.785   3.901  13.431  1.00  0.00     0.049 A 
ATOM     61  C   UNL     1       8.196   2.534  13.198  1.00  0.00     0.074 A 
ATOM     62  C   UNL     1       2.162   3.768  14.660  1.00  0.00     0.029 A 
ATOM     63  N   UNL     1       4.109   3.535  13.613  1.00  0.00    -0.354 N 
ATOM     64  N   UNL     1       6.932   2.810  13.414  1.00  0.00    -0.248 NA
ATOM     65  C   UNL     1       8.939   2.136  14.402  1.00  0.00     0.031 C 
ATOM     66  C   UNL     1       3.121   3.381  15.598  1.00  0.00     0.029 A 
ATOM     67  C   UNL     1       4.328   3.203  14.940  1.00  0.00     0.049 A 
ATOM     68  H   UNL     1       4.793   3.515  12.905  1.00  0.00     0.167 HD
ATOM     69  C   UNL     1       6.725   2.605  14.774  1.00  0.00     0.074 A 
ATOM     70  C   UNL     1       7.989   2.166  15.329  1.00  0.00     0.031 C 
ATOM     71  C   UNL     1       5.587   2.768  15.491  1.00  0.00     0.031 A 
BRANCH  58  72
ATOM     72  C   UNL     1       0.743   4.691  12.186  1.00  0.00    -0.014 A 
ATOM     73  C   UNL     1       0.309   5.832  12.886  1.00  0.00     0.010 A 
ATOM     74  C   UNL     1      -0.214   3.841  11.603  1.00  0.00     0.010 A 
ATOM     75  C   UNL     1      -1.055   6.101  13.030  1.00  0.00     0.020 A 
ATOM     76  C   UNL     1      -1.578   4.122  11.722  1.00  0.00     0.020 A 
ATOM     77  C   UNL     1      -1.991   5.237  12.455  1.00  0.00     0.054 A 
BRANCH  77  78
ATOM     78  S   UNL     1      -3.758   5.587  12.671  1.00  0.00     0.124 S 
ATOM     79  O   UNL     1      -3.991   5.158  14.047  1.00  0.00    -0.237 OA
ATOM     80  O   UNL     1      -3.831   7.027  12.437  1.00  0.00    -0.237 OA
ATOM     81  O   UNL     1      -4.396   4.766  11.643  1.00  0.00    -0.744 OA
ENDBRANCH  77  78
ENDBRANCH  58  72
BRANCH  59  82
ATOM     82  C   UNL     1      10.384   2.149  11.829  1.00  0.00    -0.014 A 
ATOM     83  C   UNL     1      11.389   3.090  11.536  1.00  0.00     0.010 A 
ATOM     84  C   UNL     1      10.733   0.794  11.959  1.00  0.00     0.010 A 
ATOM     85  C   UNL     1      12.704   2.676  11.311  1.00  0.00     0.020 A 
ATOM     86  C   UNL     1      12.055   0.380  11.763  1.00  0.00     0.020 A 
ATOM     87  C   UNL     1      13.024   1.320  11.408  1.00  0.00     0.054 A 
BRANCH  87  88
ATOM     88  S   UNL     1      14.722   0.796  11.044  1.00  0.00     0.124 S 
ATOM     89  O   UNL     1      14.743   0.846   9.584  1.00  0.00    -0.237 OA
ATOM     90  O   UNL     1      15.524   1.813  11.720  1.00  0.00    -0.237 OA
ATOM     91  O   UNL     1      14.799  -0.541  11.626  1.00  0.00    -0.744 OA
ENDBRANCH  87  88
ENDBRANCH  59  82
BRANCH  71  92
ATOM     92  C   UNL     1       5.623   2.475  16.969  1.00  0.00    -0.014 A 
ATOM     93  C   UNL     1       4.900   1.379  17.479  1.00  0.00     0.010 A 
ATOM     94  C   UNL     1       6.247   3.360  17.865  1.00  0.00     0.010 A 
ATOM     95  C   UNL     1       4.767   1.196  18.858  1.00  0.00     0.020 A 
ATOM     96  C   UNL     1       6.138   3.164  19.245  1.00  0.00     0.020 A 
ATOM     97  C   UNL     1       5.375   2.099  19.733  1.00  0.00     0.054 A 
BRANCH  97  98
ATOM     98  S   UNL     1       5.155   1.871  21.519  1.00  0.00     0.124 S 
ATOM     99  O   UNL     1       3.800   2.373  21.728  1.00  0.00    -0.237 OA
ATOM    100  O   UNL     1       5.325   0.429  21.684  1.00  0.00    -0.237 OA
ATOM    101  O   UNL     1       6.220   2.686  22.102  1.00  0.00    -0.744 OA
ENDBRANCH  97  98
ENDBRANCH  71  92
ENDBRANCH  45  46
ENDBRANCH  37  40
ENDBRANCH  35  36
ENDBRANCH  34  35
ENDBRANCH   1  34
TORSDOF 18
