REMARK SMILES C[C@]([NH2+]C[C@H](O)C(F)(F)F)(C(=O)NCCCNC(=O)c1ccc(-c2c3nc(c(-c4ccc(S(=O)(=O)[O-])cc4)c4ccc([nH]4)c(-c4ccc(S(=O)(=O)[O-])cc4)c4nc(c(-c5ccc(S(=O)(=O)[O-])cc5)c5ccc2[nH]5)C=C4)C=C3)cc1)C(F)(F)F
REMARK SMILES IDX 14 1 13 2 11 3 12 4 2 6 1 7 80 8 81 9 82 10 83 11 3 12 4 15
REMARK SMILES IDX 5 16 7 17 8 18 9 19 10 20 6 21 15 23 16 24 17 25 18 26 19 28
REMARK SMILES IDX 20 29 21 30 79 31 22 32 78 33 23 34 24 35 25 36 72 37 26 38
REMARK SMILES IDX 77 39 71 40 73 41 27 42 76 43 70 44 69 45 28 47 58 48 39 49
REMARK SMILES IDX 57 50 40 51 43 52 56 53 74 54 41 55 42 56 55 58 75 59 44 60
REMARK SMILES IDX 29 61 30 62 38 63 31 64 37 65 32 66 33 67 34 68 35 69 36 70
REMARK SMILES IDX 59 71 60 72 68 73 61 74 67 75 62 76 63 77 64 78 65 79 66 80
REMARK SMILES IDX 45 81 46 82 54 83 47 84 53 85 48 86 49 87 50 88 51 89 52 90
REMARK H PARENT 13 5 3 13 3 14 6 22 17 27 73 46 43 57
REMARK Flexibility Score: inf
ROOT
ATOM      1  C   UNL     1       5.536   4.984   1.837  1.00  0.00     0.118 C 
ENDROOT
BRANCH   1   2
ATOM      2  N   UNL     1       4.306   5.766   1.937  1.00  0.00    -0.350 N 
ATOM      3  C   UNL     1       3.017   5.638   1.518  1.00  0.00     0.290 C 
ATOM      4  O   UNL     1       2.330   6.641   1.754  1.00  0.00    -0.267 OA
ATOM      5  H   UNL     1       4.446   6.603   2.436  1.00  0.00     0.163 HD
BRANCH   3   6
ATOM      6  C   UNL     1       2.421   4.434   0.729  1.00  0.00     0.268 C 
ATOM      7  C   UNL     1       2.816   3.060   1.298  1.00  0.00     0.101 C 
BRANCH   6   8
ATOM      8  C   UNL     1       0.873   4.538   0.984  1.00  0.00     0.453 C 
ATOM      9  F   UNL     1       0.321   5.639   0.424  1.00  0.00    -0.164 F 
ATOM     10  F   UNL     1       0.224   3.474   0.437  1.00  0.00    -0.164 F 
ATOM     11  F   UNL     1       0.566   4.527   2.303  1.00  0.00    -0.164 F 
ENDBRANCH   6   8
BRANCH   6  12
ATOM     12  N   UNL     1       2.695   4.588  -0.764  1.00  0.00    -0.324 N 
ATOM     13  H   UNL     1       2.398   5.521  -1.050  1.00  0.00     0.347 HD
ATOM     14  H   UNL     1       2.176   3.848  -1.236  1.00  0.00     0.347 HD
BRANCH  12  15
ATOM     15  C   UNL     1       4.100   4.420  -1.135  1.00  0.00     0.303 C 
BRANCH  15  16
ATOM     16  C   UNL     1       4.442   4.526  -2.634  1.00  0.00     0.275 C 
BRANCH  16  17
ATOM     17  C   UNL     1       5.775   3.790  -2.863  1.00  0.00     0.419 C 
ATOM     18  F   UNL     1       6.240   3.940  -4.117  1.00  0.00    -0.168 F 
ATOM     19  F   UNL     1       6.723   4.270  -2.016  1.00  0.00    -0.168 F 
ATOM     20  F   UNL     1       5.662   2.465  -2.607  1.00  0.00    -0.168 F 
ENDBRANCH  16  17
BRANCH  16  21
ATOM     21  O   UNL     1       3.360   4.017  -3.427  1.00  0.00    -0.379 OA
ATOM     22  H   UNL     1       3.197   3.090  -3.194  1.00  0.00     0.211 HD
ENDBRANCH  16  21
ENDBRANCH  15  16
ENDBRANCH  12  15
ENDBRANCH   6  12
ENDBRANCH   3   6
ENDBRANCH   1   2
BRANCH   1  23
ATOM     23  C   UNL     1       6.622   5.693   1.020  1.00  0.00     0.042 C 
BRANCH  23  24
ATOM     24  C   UNL     1       7.204   6.929   1.690  1.00  0.00     0.118 C 
BRANCH  24  25
ATOM     25  N   UNL     1       8.344   6.601   2.526  1.00  0.00    -0.352 N 
ATOM     26  C   UNL     1       9.690   6.706   2.255  1.00  0.00     0.251 C 
ATOM     27  H   UNL     1       8.122   6.251   3.420  1.00  0.00     0.163 HD
ATOM     28  O   UNL     1      10.490   6.125   2.982  1.00  0.00    -0.269 OA
BRANCH  26  29
ATOM     29  C   UNL     1      10.177   7.494   1.095  1.00  0.00     0.039 A 
ATOM     30  C   UNL     1      11.263   7.016   0.353  1.00  0.00     0.014 A 
ATOM     31  C   UNL     1       9.612   8.727   0.767  1.00  0.00     0.014 A 
ATOM     32  C   UNL     1      11.741   7.745  -0.743  1.00  0.00     0.010 A 
ATOM     33  C   UNL     1      10.026   9.406  -0.377  1.00  0.00     0.010 A 
ATOM     34  C   UNL     1      11.108   8.934  -1.137  1.00  0.00    -0.014 A 
BRANCH  34  35
ATOM     35  C   UNL     1      11.571   9.737  -2.302  1.00  0.00     0.031 A 
ATOM     36  C   UNL     1      12.029  11.159  -2.092  1.00  0.00     0.074 A 
ATOM     37  C   UNL     1      11.498   9.235  -3.551  1.00  0.00     0.049 A 
ATOM     38  N   UNL     1      12.302  12.081  -2.979  1.00  0.00    -0.248 NA
ATOM     39  C   UNL     1      12.162  11.613  -0.697  1.00  0.00     0.031 C 
ATOM     40  C   UNL     1      11.057   7.882  -3.900  1.00  0.00     0.029 A 
ATOM     41  N   UNL     1      11.774   9.815  -4.765  1.00  0.00    -0.354 N 
ATOM     42  C   UNL     1      12.598  13.230  -2.252  1.00  0.00     0.074 A 
ATOM     43  C   UNL     1      12.431  12.900  -0.854  1.00  0.00     0.031 C 
ATOM     44  C   UNL     1      11.108   7.733  -5.234  1.00  0.00     0.029 A 
ATOM     45  C   UNL     1      11.534   8.991  -5.840  1.00  0.00     0.049 A 
ATOM     46  H   UNL     1      12.113  10.735  -4.857  1.00  0.00     0.167 HD
ATOM     47  C   UNL     1      12.988  14.446  -2.704  1.00  0.00     0.031 A 
ATOM     48  C   UNL     1      11.627   9.224  -7.165  1.00  0.00     0.031 A 
ATOM     49  C   UNL     1      13.188  14.763  -4.093  1.00  0.00     0.049 A 
ATOM     50  C   UNL     1      12.066  10.581  -7.646  1.00  0.00     0.074 A 
ATOM     51  C   UNL     1      13.633  15.949  -4.649  1.00  0.00     0.029 A 
ATOM     52  N   UNL     1      12.967  13.885  -5.143  1.00  0.00    -0.354 N 
ATOM     53  N   UNL     1      12.371  11.645  -6.941  1.00  0.00    -0.248 NA
ATOM     54  C   UNL     1      12.183  10.768  -9.099  1.00  0.00     0.031 C 
ATOM     55  C   UNL     1      13.643  15.802  -6.039  1.00  0.00     0.029 A 
ATOM     56  C   UNL     1      13.257  14.507  -6.345  1.00  0.00     0.049 A 
ATOM     57  H   UNL     1      12.652  12.957  -5.048  1.00  0.00     0.167 HD
ATOM     58  C   UNL     1      12.752  12.614  -7.864  1.00  0.00     0.074 A 
ATOM     59  C   UNL     1      12.641  12.011  -9.175  1.00  0.00     0.031 C 
ATOM     60  C   UNL     1      13.162  13.886  -7.642  1.00  0.00     0.031 A 
BRANCH  47  61
ATOM     61  C   UNL     1      13.217  15.530  -1.683  1.00  0.00    -0.014 A 
ATOM     62  C   UNL     1      14.309  15.477  -0.797  1.00  0.00     0.010 A 
ATOM     63  C   UNL     1      12.348  16.636  -1.631  1.00  0.00     0.010 A 
ATOM     64  C   UNL     1      14.498  16.483   0.154  1.00  0.00     0.020 A 
ATOM     65  C   UNL     1      12.552  17.660  -0.701  1.00  0.00     0.020 A 
ATOM     66  C   UNL     1      13.615  17.566   0.200  1.00  0.00     0.054 A 
BRANCH  66  67
ATOM     67  S   UNL     1      13.892  18.864   1.436  1.00  0.00     0.124 S 
ATOM     68  O   UNL     1      13.460  18.203   2.665  1.00  0.00    -0.237 OA
ATOM     69  O   UNL     1      15.328  19.110   1.327  1.00  0.00    -0.237 OA
ATOM     70  O   UNL     1      13.039  19.960   0.985  1.00  0.00    -0.744 OA
ENDBRANCH  66  67
ENDBRANCH  47  61
BRANCH  48  71
ATOM     71  C   UNL     1      11.310   8.139  -8.134  1.00  0.00    -0.014 A 
ATOM     72  C   UNL     1      12.336   7.523  -8.871  1.00  0.00     0.010 A 
ATOM     73  C   UNL     1       9.983   7.706  -8.315  1.00  0.00     0.010 A 
ATOM     74  C   UNL     1      12.041   6.507  -9.785  1.00  0.00     0.020 A 
ATOM     75  C   UNL     1       9.688   6.671  -9.208  1.00  0.00     0.020 A 
ATOM     76  C   UNL     1      10.718   6.086  -9.946  1.00  0.00     0.054 A 
BRANCH  76  77
ATOM     77  S   UNL     1      10.366   4.732 -11.102  1.00  0.00     0.124 S 
ATOM     78  O   UNL     1      10.523   5.389 -12.395  1.00  0.00    -0.237 OA
ATOM     79  O   UNL     1      11.394   3.751 -10.761  1.00  0.00    -0.237 OA
ATOM     80  O   UNL     1       9.002   4.337 -10.761  1.00  0.00    -0.744 OA
ENDBRANCH  76  77
ENDBRANCH  48  71
BRANCH  60  81
ATOM     81  C   UNL     1      13.586  14.705  -8.831  1.00  0.00    -0.014 A 
ATOM     82  C   UNL     1      12.644  15.242  -9.724  1.00  0.00     0.010 A 
ATOM     83  C   UNL     1      14.948  15.015  -9.000  1.00  0.00     0.010 A 
ATOM     84  C   UNL     1      13.059  16.065 -10.775  1.00  0.00     0.020 A 
ATOM     85  C   UNL     1      15.364  15.857 -10.034  1.00  0.00     0.020 A 
ATOM     86  C   UNL     1      14.417  16.370 -10.920  1.00  0.00     0.054 A 
BRANCH  86  87
ATOM     87  S   UNL     1      14.922  17.501 -12.246  1.00  0.00     0.124 S 
ATOM     88  O   UNL     1      14.795  16.656 -13.431  1.00  0.00    -0.237 OA
ATOM     89  O   UNL     1      13.945  18.581 -12.136  1.00  0.00    -0.237 OA
ATOM     90  O   UNL     1      16.290  17.868 -11.887  1.00  0.00    -0.744 OA
ENDBRANCH  86  87
ENDBRANCH  60  81
ENDBRANCH  34  35
ENDBRANCH  26  29
ENDBRANCH  24  25
ENDBRANCH  23  24
ENDBRANCH   1  23
TORSDOF 19
