REMARK SMILES C[C@]1(C(=O)NCCCNC(=O)c2ccc(-c3c4nc(c(-c5ccc(S(=O)(=O)[O-])cc5)c5ccc([nH]5)c(-c5ccc(S(=O)(=O)[O-])cc5)c5nc(c(-c6ccc(S(=O)(=O)[O-])cc6)c6ccc3[nH]6)C=C5)C=C4)cc2)COC[C@H]1Nc1ccc2nnnn2n1
REMARK SMILES IDX 7 1 6 2 5 3 3 4 4 5 2 7 1 8 72 9 75 10 73 11 74 12 76 13
REMARK SMILES IDX 77 15 78 16 85 17 79 18 84 19 80 20 83 21 81 22 82 23 8 24
REMARK SMILES IDX 9 25 10 26 11 28 12 29 13 30 71 31 14 32 70 33 15 34 16 35
REMARK SMILES IDX 17 36 64 37 18 38 69 39 63 40 65 41 19 42 68 43 62 44 61 45
REMARK SMILES IDX 20 47 50 48 31 49 49 50 32 51 35 52 48 53 66 54 33 55 34 56
REMARK SMILES IDX 47 58 67 59 36 60 21 61 22 62 30 63 23 64 29 65 24 66 25 67
REMARK SMILES IDX 26 68 27 69 28 70 51 71 52 72 60 73 53 74 59 75 54 76 55 77
REMARK SMILES IDX 56 78 57 79 58 80 37 81 38 82 46 83 39 84 45 85 40 86 41 87
REMARK SMILES IDX 42 88 43 89 44 90
REMARK H PARENT 5 6 76 14 9 27 65 46 35 57
REMARK Flexibility Score: inf
ROOT
ATOM      1  C   UNL     1       3.622   1.507   0.946  1.00  0.00     0.042 C 
ENDROOT
BRANCH   1   2
ATOM      2  C   UNL     1       2.172   1.747   0.522  1.00  0.00     0.117 C 
BRANCH   2   3
ATOM      3  N   UNL     1       1.790   0.809  -0.505  1.00  0.00    -0.355 N 
ATOM      4  C   UNL     1       1.258  -0.430  -0.446  1.00  0.00     0.230 C 
ATOM      5  O   UNL     1       1.170  -0.975  -1.558  1.00  0.00    -0.274 OA
ATOM      6  H   UNL     1       1.946   1.134  -1.421  1.00  0.00     0.163 HD
BRANCH   4   7
ATOM      7  C   UNL     1       0.599  -1.095   0.784  1.00  0.00     0.092 C 
ATOM      8  C   UNL     1      -0.818  -0.482   0.886  1.00  0.00     0.026 C 
ATOM      9  C   UNL     1       0.463  -2.599   0.381  1.00  0.00     0.179 C 
ATOM     10  C   UNL     1       1.158  -1.239   2.213  1.00  0.00     0.124 C 
ATOM     11  O   UNL     1       0.607  -3.400   1.562  1.00  0.00    -0.378 OA
ATOM     12  C   UNL     1       1.556  -2.703   2.357  1.00  0.00     0.186 C 
BRANCH  10  13
ATOM     13  N   UNL     1       2.206  -0.366   2.728  1.00  0.00    -0.362 N 
ATOM     14  H   UNL     1       3.094  -0.329   2.306  1.00  0.00     0.162 HD
BRANCH  13  15
ATOM     15  C   UNL     1       1.904   0.407   3.833  1.00  0.00     0.149 A 
ATOM     16  C   UNL     1       2.308  -0.130   5.202  1.00  0.00     0.053 A 
ATOM     17  N   UNL     1       1.235   1.514   3.666  1.00  0.00    -0.129 NA
ATOM     18  C   UNL     1       1.398   0.179   6.148  1.00  0.00     0.057 A 
ATOM     19  N   UNL     1       0.811   2.058   4.826  1.00  0.00    -0.108 N 
ATOM     20  C   UNL     1       0.781   1.450   6.061  1.00  0.00     0.200 A 
ATOM     21  N   UNL     1       0.146   3.218   4.890  1.00  0.00    -0.022 NA
ATOM     22  N   UNL     1       0.070   2.193   6.877  1.00  0.00    -0.107 NA
ATOM     23  N   UNL     1      -0.290   3.303   6.142  1.00  0.00    -0.022 NA
ENDBRANCH  13  15
ENDBRANCH  10  13
ENDBRANCH   4   7
ENDBRANCH   2   3
ENDBRANCH   1   2
BRANCH   1  24
ATOM     24  C   UNL     1       4.609   2.457   0.287  1.00  0.00     0.118 C 
BRANCH  24  25
ATOM     25  N   UNL     1       4.542   3.783   0.881  1.00  0.00    -0.352 N 
ATOM     26  C   UNL     1       5.551   4.621   1.285  1.00  0.00     0.251 C 
ATOM     27  H   UNL     1       3.632   4.134   1.013  1.00  0.00     0.163 HD
ATOM     28  O   UNL     1       5.263   5.622   1.941  1.00  0.00    -0.269 OA
BRANCH  26  29
ATOM     29  C   UNL     1       6.970   4.326   0.975  1.00  0.00     0.039 A 
ATOM     30  C   UNL     1       7.946   4.706   1.903  1.00  0.00     0.014 A 
ATOM     31  C   UNL     1       7.359   3.722  -0.224  1.00  0.00     0.014 A 
ATOM     32  C   UNL     1       9.295   4.448   1.646  1.00  0.00     0.010 A 
ATOM     33  C   UNL     1       8.693   3.385  -0.439  1.00  0.00     0.010 A 
ATOM     34  C   UNL     1       9.679   3.763   0.483  1.00  0.00    -0.014 A 
BRANCH  34  35
ATOM     35  C   UNL     1      11.107   3.464   0.205  1.00  0.00     0.031 A 
ATOM     36  C   UNL     1      11.784   4.064  -0.999  1.00  0.00     0.074 A 
ATOM     37  C   UNL     1      11.781   2.620   1.011  1.00  0.00     0.049 A 
ATOM     38  N   UNL     1      13.011   3.898  -1.424  1.00  0.00    -0.248 NA
ATOM     39  C   UNL     1      10.970   4.945  -1.854  1.00  0.00     0.031 C 
ATOM     40  C   UNL     1      11.223   1.939   2.182  1.00  0.00     0.029 A 
ATOM     41  N   UNL     1      13.083   2.190   0.969  1.00  0.00    -0.354 N 
ATOM     42  C   UNL     1      13.108   4.634  -2.600  1.00  0.00     0.074 A 
ATOM     43  C   UNL     1      11.802   5.202  -2.852  1.00  0.00     0.031 C 
ATOM     44  C   UNL     1      12.185   1.206   2.766  1.00  0.00     0.029 A 
ATOM     45  C   UNL     1      13.415   1.333   1.992  1.00  0.00     0.049 A 
ATOM     46  H   UNL     1      13.720   2.469   0.272  1.00  0.00     0.167 HD
ATOM     47  C   UNL     1      14.190   4.838  -3.388  1.00  0.00     0.031 A 
ATOM     48  C   UNL     1      14.580   0.719   2.276  1.00  0.00     0.031 A 
ATOM     49  C   UNL     1      15.492   4.288  -3.121  1.00  0.00     0.049 A 
ATOM     50  C   UNL     1      15.771   0.969   1.394  1.00  0.00     0.074 A 
ATOM     51  C   UNL     1      16.670   4.483  -3.822  1.00  0.00     0.029 A 
ATOM     52  N   UNL     1      15.790   3.437  -2.067  1.00  0.00    -0.354 N 
ATOM     53  N   UNL     1      15.858   1.721   0.322  1.00  0.00    -0.248 NA
ATOM     54  C   UNL     1      17.025   0.300   1.767  1.00  0.00     0.031 C 
ATOM     55  C   UNL     1      17.668   3.709  -3.220  1.00  0.00     0.029 A 
ATOM     56  C   UNL     1      17.126   3.079  -2.111  1.00  0.00     0.049 A 
ATOM     57  H   UNL     1      15.145   3.131  -1.388  1.00  0.00     0.167 HD
ATOM     58  C   UNL     1      17.182   1.634  -0.094  1.00  0.00     0.074 A 
ATOM     59  C   UNL     1      17.861   0.772   0.853  1.00  0.00     0.031 C 
ATOM     60  C   UNL     1      17.782   2.214  -1.163  1.00  0.00     0.031 A 
BRANCH  47  61
ATOM     61  C   UNL     1      14.008   5.693  -4.615  1.00  0.00    -0.014 A 
ATOM     62  C   UNL     1      13.772   7.077  -4.511  1.00  0.00     0.010 A 
ATOM     63  C   UNL     1      14.104   5.113  -5.893  1.00  0.00     0.010 A 
ATOM     64  C   UNL     1      13.590   7.854  -5.657  1.00  0.00     0.020 A 
ATOM     65  C   UNL     1      13.952   5.893  -7.044  1.00  0.00     0.020 A 
ATOM     66  C   UNL     1      13.677   7.256  -6.918  1.00  0.00     0.054 A 
BRANCH  66  67
ATOM     67  S   UNL     1      13.454   8.292  -8.389  1.00  0.00     0.124 S 
ATOM     68  O   UNL     1      12.014   8.540  -8.367  1.00  0.00    -0.237 OA
ATOM     69  O   UNL     1      14.294   9.450  -8.097  1.00  0.00    -0.237 OA
ATOM     70  O   UNL     1      13.922   7.446  -9.484  1.00  0.00    -0.744 OA
ENDBRANCH  66  67
ENDBRANCH  47  61
BRANCH  48  71
ATOM     71  C   UNL     1      14.678  -0.175   3.463  1.00  0.00    -0.014 A 
ATOM     72  C   UNL     1      15.415   0.217   4.594  1.00  0.00     0.010 A 
ATOM     73  C   UNL     1      14.015  -1.416   3.475  1.00  0.00     0.010 A 
ATOM     74  C   UNL     1      15.502  -0.623   5.709  1.00  0.00     0.020 A 
ATOM     75  C   UNL     1      14.078  -2.246   4.598  1.00  0.00     0.020 A 
ATOM     76  C   UNL     1      14.830  -1.849   5.704  1.00  0.00     0.054 A 
BRANCH  76  77
ATOM     77  S   UNL     1      14.909  -2.897   7.183  1.00  0.00     0.124 S 
ATOM     78  O   UNL     1      16.266  -3.428   7.107  1.00  0.00    -0.237 OA
ATOM     79  O   UNL     1      14.660  -1.943   8.261  1.00  0.00    -0.237 OA
ATOM     80  O   UNL     1      13.841  -3.871   6.967  1.00  0.00    -0.744 OA
ENDBRANCH  76  77
ENDBRANCH  48  71
BRANCH  60  81
ATOM     81  C   UNL     1      19.253   1.956  -1.351  1.00  0.00    -0.014 A 
ATOM     82  C   UNL     1      19.724   0.702  -1.776  1.00  0.00     0.010 A 
ATOM     83  C   UNL     1      20.172   3.001  -1.142  1.00  0.00     0.010 A 
ATOM     84  C   UNL     1      21.092   0.485  -1.955  1.00  0.00     0.020 A 
ATOM     85  C   UNL     1      21.539   2.796  -1.348  1.00  0.00     0.020 A 
ATOM     86  C   UNL     1      21.991   1.534  -1.737  1.00  0.00     0.054 A 
BRANCH  86  87
ATOM     87  S   UNL     1      23.760   1.238  -2.009  1.00  0.00     0.124 S 
ATOM     88  O   UNL     1      24.116   0.439  -0.840  1.00  0.00    -0.237 OA
ATOM     89  O   UNL     1      23.774   0.527  -3.285  1.00  0.00    -0.237 OA
ATOM     90  O   UNL     1      24.334   2.581  -2.044  1.00  0.00    -0.744 OA
ENDBRANCH  86  87
ENDBRANCH  60  81
ENDBRANCH  34  35
ENDBRANCH  26  29
ENDBRANCH  24  25
ENDBRANCH   1  24
TORSDOF 15
