REMARK SMILES O=C(NCCCNC(=O)[C@@H](NC(=O)c1cscn1)c1ccccc1C(F)(F)F)c1ccc(-c2c3nc(c(-c4ccc(S(=O)(=O)[O-])cc4)c4ccc([nH]4)c(-c4ccc(S(=O)(=O)[O-])cc4)c4nc(c(-c5ccc(S(=O)(=O)[O-])cc5)c5ccc2[nH]5)C=C4)C=C3)cc1
REMARK SMILES IDX 4 1 3 2 1 3 2 4 29 6 30 7 88 8 31 9 87 10 32 11 33 12 34 13
REMARK SMILES IDX 81 14 35 15 86 16 80 17 82 18 36 19 85 20 79 21 78 22 37 24
REMARK SMILES IDX 67 25 48 26 66 27 49 28 52 29 65 30 83 31 50 32 51 33 64 35
REMARK SMILES IDX 84 36 53 37 38 38 39 39 47 40 40 41 46 42 41 43 42 44 43 45
REMARK SMILES IDX 44 46 45 47 68 48 69 49 77 50 70 51 76 52 71 53 72 54 73 55
REMARK SMILES IDX 74 56 75 57 54 58 55 59 63 60 56 61 62 62 57 63 58 64 59 65
REMARK SMILES IDX 60 66 61 67 5 68 6 69 7 70 8 71 9 73 10 74 11 75 12 76 13 78
REMARK SMILES IDX 14 79 15 80 18 81 16 82 17 83 19 84 20 85 24 86 21 87 23 88
REMARK SMILES IDX 22 89 25 90 26 91 27 92 28 93
REMARK H PARENT 3 5 82 23 52 34 7 72 11 77
REMARK Flexibility Score: inf
ROOT
ATOM      1  C   UNL     1       4.854   0.618   1.310  1.00  0.00     0.118 C 
ENDROOT
BRANCH   1   2
ATOM      2  N   UNL     1       3.428   0.661   1.000  1.00  0.00    -0.352 N 
ATOM      3  O   UNL     1       1.491   0.215  -0.060  1.00  0.00    -0.269 OA
ATOM      4  C   UNL     1       2.655  -0.111   0.161  1.00  0.00     0.251 C 
ATOM      5  H   UNL     1       2.931   1.366   1.474  1.00  0.00     0.163 HD
BRANCH   4   6
ATOM      6  C   UNL     1       3.227  -1.303  -0.502  1.00  0.00     0.039 A 
ATOM      7  C   UNL     1       4.111  -2.128   0.180  1.00  0.00     0.014 A 
ATOM      8  C   UNL     1       2.867  -1.619  -1.817  1.00  0.00     0.014 A 
ATOM      9  C   UNL     1       4.819  -3.100  -0.503  1.00  0.00     0.010 A 
ATOM     10  C   UNL     1       3.458  -2.716  -2.459  1.00  0.00     0.010 A 
ATOM     11  C   UNL     1       4.469  -3.444  -1.817  1.00  0.00    -0.014 A 
BRANCH  11  12
ATOM     12  C   UNL     1       5.119  -4.640  -2.414  1.00  0.00     0.031 A 
ATOM     13  C   UNL     1       5.947  -4.549  -3.666  1.00  0.00     0.074 A 
ATOM     14  C   UNL     1       5.014  -5.809  -1.746  1.00  0.00     0.049 A 
ATOM     15  N   UNL     1       6.624  -5.496  -4.263  1.00  0.00    -0.248 NA
ATOM     16  C   UNL     1       6.021  -3.244  -4.344  1.00  0.00     0.031 C 
ATOM     17  C   UNL     1       4.220  -6.013  -0.526  1.00  0.00     0.029 A 
ATOM     18  N   UNL     1       5.608  -7.027  -1.952  1.00  0.00    -0.354 N 
ATOM     19  C   UNL     1       7.169  -4.918  -5.404  1.00  0.00     0.074 A 
ATOM     20  C   UNL     1       6.747  -3.534  -5.418  1.00  0.00     0.031 C 
ATOM     21  C   UNL     1       4.454  -7.239  -0.043  1.00  0.00     0.029 A 
ATOM     22  C   UNL     1       5.324  -7.948  -0.969  1.00  0.00     0.049 A 
ATOM     23  H   UNL     1       6.181  -7.223  -2.727  1.00  0.00     0.167 HD
ATOM     24  C   UNL     1       7.944  -5.497  -6.351  1.00  0.00     0.031 A 
ATOM     25  C   UNL     1       5.692  -9.235  -0.837  1.00  0.00     0.031 A 
ATOM     26  C   UNL     1       8.380  -6.869  -6.307  1.00  0.00     0.049 A 
ATOM     27  C   UNL     1       6.551  -9.842  -1.904  1.00  0.00     0.074 A 
ATOM     28  C   UNL     1       9.206  -7.537  -7.196  1.00  0.00     0.029 A 
ATOM     29  N   UNL     1       8.026  -7.784  -5.327  1.00  0.00    -0.354 N 
ATOM     30  N   UNL     1       7.074  -9.267  -2.960  1.00  0.00    -0.248 NA
ATOM     31  C   UNL     1       6.850 -11.273  -1.777  1.00  0.00     0.031 C 
ATOM     32  C   UNL     1       9.308  -8.868  -6.782  1.00  0.00     0.029 A 
ATOM     33  C   UNL     1       8.588  -9.018  -5.608  1.00  0.00     0.049 A 
ATOM     34  H   UNL     1       7.460  -7.586  -4.547  1.00  0.00     0.167 HD
ATOM     35  C   UNL     1       7.753 -10.271  -3.634  1.00  0.00     0.074 A 
ATOM     36  C   UNL     1       7.612 -11.477  -2.842  1.00  0.00     0.031 C 
ATOM     37  C   UNL     1       8.418 -10.206  -4.812  1.00  0.00     0.031 A 
BRANCH  24  38
ATOM     38  C   UNL     1       8.353  -4.673  -7.544  1.00  0.00    -0.014 A 
ATOM     39  C   UNL     1       9.370  -3.707  -7.456  1.00  0.00     0.010 A 
ATOM     40  C   UNL     1       7.777  -4.948  -8.799  1.00  0.00     0.010 A 
ATOM     41  C   UNL     1       9.799  -3.027  -8.601  1.00  0.00     0.020 A 
ATOM     42  C   UNL     1       8.216  -4.285  -9.948  1.00  0.00     0.020 A 
ATOM     43  C   UNL     1       9.223  -3.323  -9.841  1.00  0.00     0.054 A 
BRANCH  43  44
ATOM     44  S   UNL     1       9.848  -2.478 -11.320  1.00  0.00     0.124 S 
ATOM     45  O   UNL     1       9.300  -1.134 -11.153  1.00  0.00    -0.237 OA
ATOM     46  O   UNL     1      11.296  -2.588 -11.165  1.00  0.00    -0.237 OA
ATOM     47  O   UNL     1       9.283  -3.247 -12.426  1.00  0.00    -0.744 OA
ENDBRANCH  43  44
ENDBRANCH  24  38
BRANCH  25  48
ATOM     48  C   UNL     1       5.180 -10.041   0.303  1.00  0.00    -0.014 A 
ATOM     49  C   UNL     1       6.044 -10.517   1.304  1.00  0.00     0.010 A 
ATOM     50  C   UNL     1       3.804 -10.325   0.396  1.00  0.00     0.010 A 
ATOM     51  C   UNL     1       5.542 -11.276   2.367  1.00  0.00     0.020 A 
ATOM     52  C   UNL     1       3.295 -11.052   1.472  1.00  0.00     0.020 A 
ATOM     53  C   UNL     1       4.171 -11.539   2.443  1.00  0.00     0.054 A 
BRANCH  53  54
ATOM     54  S   UNL     1       3.528 -12.491   3.847  1.00  0.00     0.124 S 
ATOM     55  O   UNL     1       3.850 -13.859   3.455  1.00  0.00    -0.237 OA
ATOM     56  O   UNL     1       4.291 -11.957   4.972  1.00  0.00    -0.237 OA
ATOM     57  O   UNL     1       2.104 -12.159   3.857  1.00  0.00    -0.744 OA
ENDBRANCH  53  54
ENDBRANCH  25  48
BRANCH  37  58
ATOM     58  C   UNL     1       9.035 -11.482  -5.308  1.00  0.00    -0.014 A 
ATOM     59  C   UNL     1       8.233 -12.503  -5.847  1.00  0.00     0.010 A 
ATOM     60  C   UNL     1      10.430 -11.651  -5.257  1.00  0.00     0.010 A 
ATOM     61  C   UNL     1       8.815 -13.689  -6.298  1.00  0.00     0.020 A 
ATOM     62  C   UNL     1      11.016 -12.826  -5.730  1.00  0.00     0.020 A 
ATOM     63  C   UNL     1      10.203 -13.844  -6.233  1.00  0.00     0.054 A 
BRANCH  63  64
ATOM     64  S   UNL     1      10.939 -15.381  -6.853  1.00  0.00     0.124 S 
ATOM     65  O   UNL     1      10.631 -16.319  -5.777  1.00  0.00    -0.237 OA
ATOM     66  O   UNL     1      10.220 -15.601  -8.105  1.00  0.00    -0.237 OA
ATOM     67  O   UNL     1      12.354 -15.049  -7.004  1.00  0.00    -0.744 OA
ENDBRANCH  63  64
ENDBRANCH  37  58
ENDBRANCH  11  12
ENDBRANCH   4   6
ENDBRANCH   1   2
BRANCH   1  68
ATOM     68  C   UNL     1       5.703   1.503   0.408  1.00  0.00     0.042 C 
BRANCH  68  69
ATOM     69  C   UNL     1       5.446   2.984   0.616  1.00  0.00     0.117 C 
BRANCH  69  70
ATOM     70  N   UNL     1       5.701   3.432   1.974  1.00  0.00    -0.354 N 
ATOM     71  C   UNL     1       5.606   4.678   2.517  1.00  0.00     0.247 C 
ATOM     72  H   UNL     1       5.986   2.727   2.599  1.00  0.00     0.163 HD
ATOM     73  O   UNL     1       5.402   4.732   3.736  1.00  0.00    -0.272 OA
BRANCH  71  74
ATOM     74  C   UNL     1       5.713   5.974   1.680  1.00  0.00     0.203 C 
BRANCH  74  75
ATOM     75  N   UNL     1       6.553   5.880   0.484  1.00  0.00    -0.335 N 
ATOM     76  C   UNL     1       6.345   5.914  -0.864  1.00  0.00     0.271 C 
ATOM     77  H   UNL     1       7.505   5.763   0.708  1.00  0.00     0.165 HD
ATOM     78  O   UNL     1       7.196   5.382  -1.578  1.00  0.00    -0.267 OA
BRANCH  76  79
ATOM     79  C   UNL     1       5.168   6.546  -1.430  1.00  0.00     0.139 A 
ATOM     80  C   UNL     1       4.386   5.950  -2.405  1.00  0.00     0.100 A 
ATOM     81  N   UNL     1       4.818   7.858  -1.134  1.00  0.00    -0.240 NA
ATOM     82  S   UNL     1       3.129   7.009  -2.886  1.00  0.00    -0.130 S 
ATOM     83  C   UNL     1       3.760   8.202  -1.833  1.00  0.00     0.176 A 
ENDBRANCH  76  79
ENDBRANCH  74  75
BRANCH  74  84
ATOM     84  C   UNL     1       4.507   6.913   1.699  1.00  0.00    -0.004 A 
ATOM     85  C   UNL     1       4.808   8.280   1.933  1.00  0.00     0.007 A 
ATOM     86  C   UNL     1       3.143   6.565   1.512  1.00  0.00     0.061 A 
ATOM     87  C   UNL     1       3.821   9.264   1.982  1.00  0.00     0.000 A 
ATOM     88  C   UNL     1       2.161   7.586   1.568  1.00  0.00     0.013 A 
ATOM     89  C   UNL     1       2.494   8.916   1.800  1.00  0.00     0.001 A 
BRANCH  86  90
ATOM     90  C   UNL     1       2.630   5.180   1.188  1.00  0.00     0.416 C 
ATOM     91  F   UNL     1       2.992   4.230   2.088  1.00  0.00    -0.166 F 
ATOM     92  F   UNL     1       1.268   5.101   1.128  1.00  0.00    -0.166 F 
ATOM     93  F   UNL     1       3.060   4.750  -0.027  1.00  0.00    -0.166 F 
ENDBRANCH  86  90
ENDBRANCH  74  84
ENDBRANCH  71  74
ENDBRANCH  69  70
ENDBRANCH  68  69
ENDBRANCH   1  68
TORSDOF 17
