REMARK SMILES COc1cc2c(cc1OC)-c1c(c(C(=O)Nc3ccc(C(=O)NCCCNC(=O)c4ccc(-c5c6nc(c(-c7ccc(S(=O)(=O)[O-])cc7)c7ccc([nH]7)c(-c7ccc(S(=O)(=O)[O-])cc7)c7nc(c(-c8ccc(S(=O)(=O)[O-])cc8)c8ccc5[nH]8)C=C7)C=C6)cc4)cc3)nn1-c1ccc(F)cc1)C2
REMARK SMILES IDX 25 1 24 2 23 3 21 4 22 5 20 7 17 8 18 9 91 10 19 11 90 12
REMARK SMILES IDX 16 13 14 14 15 15 13 17 3 18 4 19 8 20 5 21 7 22 6 23 101 24
REMARK SMILES IDX 11 25 12 26 93 27 92 28 2 29 1 30 9 31 10 32 94 33 95 34
REMARK SMILES IDX 100 35 96 36 99 37 97 38 98 39 26 40 27 41 28 42 29 44 30 45
REMARK SMILES IDX 31 46 89 47 32 48 88 49 33 50 34 51 35 52 82 53 36 54 87 55
REMARK SMILES IDX 81 56 83 57 37 58 86 59 80 60 79 61 38 63 68 64 49 65 67 66
REMARK SMILES IDX 50 67 53 68 66 69 84 70 51 71 52 72 65 74 85 75 54 76 39 77
REMARK SMILES IDX 40 78 48 79 41 80 47 81 42 82 43 83 44 84 45 85 46 86 69 87
REMARK SMILES IDX 70 88 78 89 71 90 77 91 72 92 73 93 74 94 75 95 76 96 55 97
REMARK SMILES IDX 56 98 64 99 57 100 63 101 58 102 59 103 60 104 61 105 62 106
REMARK H PARENT 23 6 16 16 27 43 83 62 53 73
REMARK Flexibility Score: inf
ROOT
ATOM      1  C   UNL     1      -4.522  -6.469  -2.796  1.00  0.00     0.042 C 
ENDROOT
BRANCH   1   2
ATOM      2  C   UNL     1      -5.097  -5.276  -3.556  1.00  0.00     0.118 C 
BRANCH   2   3
ATOM      3  N   UNL     1      -4.566  -3.977  -3.181  1.00  0.00    -0.352 N 
ATOM      4  C   UNL     1      -4.285  -2.828  -3.888  1.00  0.00     0.251 C 
ATOM      5  O   UNL     1      -4.076  -1.817  -3.209  1.00  0.00    -0.269 OA
ATOM      6  H   UNL     1      -4.364  -3.901  -2.220  1.00  0.00     0.163 HD
BRANCH   4   7
ATOM      7  C   UNL     1      -4.035  -2.750  -5.369  1.00  0.00     0.039 A 
ATOM      8  C   UNL     1      -2.488  -2.878  -7.688  1.00  0.00     0.041 A 
ATOM      9  C   UNL     1      -2.530  -1.692  -6.974  1.00  0.00     0.027 A 
ATOM     10  C   UNL     1      -3.467  -3.839  -7.451  1.00  0.00     0.027 A 
ATOM     11  C   UNL     1      -3.318  -1.625  -5.816  1.00  0.00     0.016 A 
ATOM     12  C   UNL     1      -4.249  -3.765  -6.293  1.00  0.00     0.016 A 
BRANCH   8  13
ATOM     13  N   UNL     1      -1.521  -3.158  -8.646  1.00  0.00    -0.321 N 
ATOM     14  C   UNL     1      -0.191  -2.811  -8.768  1.00  0.00     0.276 C 
ATOM     15  O   UNL     1       0.270  -2.937  -9.911  1.00  0.00    -0.267 OA
ATOM     16  H   UNL     1      -1.852  -3.716  -9.387  1.00  0.00     0.170 HD
BRANCH  14  17
ATOM     17  C   UNL     1       0.710  -2.466  -7.622  1.00  0.00     0.155 A 
ATOM     18  C   UNL     1       1.177  -1.565  -1.684  1.00  0.00     0.161 A 
ATOM     19  C   UNL     1       0.223  -2.112  -2.565  1.00  0.00     0.055 A 
ATOM     20  C   UNL     1       2.481  -1.254  -2.126  1.00  0.00     0.161 A 
ATOM     21  C   UNL     1       0.582  -2.323  -3.891  1.00  0.00    -0.030 A 
ATOM     22  C   UNL     1       2.810  -1.443  -3.474  1.00  0.00     0.061 A 
ATOM     23  C   UNL     1       1.875  -1.992  -4.325  1.00  0.00     0.008 A 
ATOM     24  C   UNL     1      -0.338  -2.743  -5.053  1.00  0.00     0.076 C 
ATOM     25  C   UNL     1       1.855  -2.194  -5.736  1.00  0.00     0.079 A 
ATOM     26  C   UNL     1       0.605  -2.518  -6.198  1.00  0.00     0.016 A 
ATOM     27  N   UNL     1       2.684  -2.044  -6.791  1.00  0.00    -0.232 N 
ATOM     28  N   UNL     1       1.974  -2.044  -7.943  1.00  0.00    -0.162 NA
BRANCH  18  29
ATOM     29  O   UNL     1       0.784  -1.388  -0.383  1.00  0.00    -0.493 OA
ATOM     30  C   UNL     1       0.261  -0.076  -0.167  1.00  0.00     0.278 C 
ENDBRANCH  18  29
BRANCH  20  31
ATOM     31  O   UNL     1       3.529  -0.731  -1.421  1.00  0.00    -0.493 OA
ATOM     32  C   UNL     1       3.481  -0.723  -0.006  1.00  0.00     0.278 C 
ENDBRANCH  20  31
BRANCH  27  33
ATOM     33  C   UNL     1       4.083  -1.859  -6.745  1.00  0.00     0.065 A 
ATOM     34  C   UNL     1       4.689  -0.921  -7.585  1.00  0.00     0.031 A 
ATOM     35  C   UNL     1       4.839  -2.551  -5.784  1.00  0.00     0.031 A 
ATOM     36  C   UNL     1       6.030  -0.594  -7.374  1.00  0.00     0.041 A 
ATOM     37  C   UNL     1       6.183  -2.236  -5.597  1.00  0.00     0.041 A 
ATOM     38  C   UNL     1       6.758  -1.241  -6.376  1.00  0.00     0.123 A 
ATOM     39  F   UNL     1       8.032  -0.890  -6.154  1.00  0.00    -0.207 F 
ENDBRANCH  27  33
ENDBRANCH  14  17
ENDBRANCH   8  13
ENDBRANCH   4   7
ENDBRANCH   2   3
ENDBRANCH   1   2
BRANCH   1  40
ATOM     40  C   UNL     1      -4.831  -6.568  -1.306  1.00  0.00     0.118 C 
BRANCH  40  41
ATOM     41  N   UNL     1      -6.187  -6.240  -0.925  1.00  0.00    -0.352 N 
ATOM     42  C   UNL     1      -7.357  -6.930  -0.781  1.00  0.00     0.251 C 
ATOM     43  H   UNL     1      -6.293  -5.283  -0.719  1.00  0.00     0.163 HD
ATOM     44  O   UNL     1      -8.265  -6.308  -0.221  1.00  0.00    -0.269 OA
BRANCH  42  45
ATOM     45  C   UNL     1      -7.641  -8.303  -1.287  1.00  0.00     0.039 A 
ATOM     46  C   UNL     1      -6.761  -9.120  -1.996  1.00  0.00     0.014 A 
ATOM     47  C   UNL     1      -8.962  -8.756  -1.096  1.00  0.00     0.014 A 
ATOM     48  C   UNL     1      -7.223 -10.290  -2.608  1.00  0.00     0.010 A 
ATOM     49  C   UNL     1      -9.418  -9.934  -1.679  1.00  0.00     0.010 A 
ATOM     50  C   UNL     1      -8.565 -10.671  -2.492  1.00  0.00    -0.014 A 
BRANCH  50  51
ATOM     51  C   UNL     1      -9.030 -11.866  -3.201  1.00  0.00     0.031 A 
ATOM     52  C   UNL     1      -8.369 -13.153  -2.834  1.00  0.00     0.074 A 
ATOM     53  C   UNL     1     -10.074 -11.870  -4.058  1.00  0.00     0.049 A 
ATOM     54  N   UNL     1      -7.694 -13.955  -3.593  1.00  0.00    -0.248 NA
ATOM     55  C   UNL     1      -8.412 -13.563  -1.423  1.00  0.00     0.031 C 
ATOM     56  C   UNL     1     -11.030 -10.793  -4.337  1.00  0.00     0.029 A 
ATOM     57  N   UNL     1     -10.560 -12.905  -4.800  1.00  0.00    -0.354 N 
ATOM     58  C   UNL     1      -7.340 -15.047  -2.799  1.00  0.00     0.074 A 
ATOM     59  C   UNL     1      -7.724 -14.705  -1.452  1.00  0.00     0.031 C 
ATOM     60  C   UNL     1     -12.099 -11.300  -4.994  1.00  0.00     0.029 A 
ATOM     61  C   UNL     1     -11.826 -12.686  -5.328  1.00  0.00     0.049 A 
ATOM     62  H   UNL     1     -10.057 -13.738  -4.950  1.00  0.00     0.167 HD
ATOM     63  C   UNL     1      -6.874 -16.219  -3.317  1.00  0.00     0.031 A 
ATOM     64  C   UNL     1     -12.615 -13.594  -5.955  1.00  0.00     0.031 A 
ATOM     65  C   UNL     1      -6.453 -16.078  -4.682  1.00  0.00     0.049 A 
ATOM     66  C   UNL     1     -11.729 -14.670  -6.456  1.00  0.00     0.074 A 
ATOM     67  C   UNL     1      -5.447 -15.382  -5.318  1.00  0.00     0.029 A 
ATOM     68  N   UNL     1      -7.334 -16.457  -5.665  1.00  0.00    -0.354 N 
ATOM     69  N   UNL     1     -10.826 -14.494  -7.381  1.00  0.00    -0.248 NA
ATOM     70  C   UNL     1     -11.570 -15.863  -5.643  1.00  0.00     0.031 C 
ATOM     71  C   UNL     1      -6.017 -14.964  -6.554  1.00  0.00     0.029 A 
ATOM     72  C   UNL     1      -7.318 -15.474  -6.621  1.00  0.00     0.049 A 
ATOM     73  H   UNL     1      -7.876 -17.279  -5.680  1.00  0.00     0.167 HD
ATOM     74  C   UNL     1      -9.771 -15.311  -7.005  1.00  0.00     0.074 A 
ATOM     75  C   UNL     1     -10.326 -16.201  -5.989  1.00  0.00     0.031 C 
ATOM     76  C   UNL     1      -8.484 -15.020  -7.356  1.00  0.00     0.031 A 
BRANCH  63  77
ATOM     77  C   UNL     1      -7.030 -17.570  -2.665  1.00  0.00    -0.014 A 
ATOM     78  C   UNL     1      -7.972 -17.819  -1.647  1.00  0.00     0.010 A 
ATOM     79  C   UNL     1      -6.393 -18.694  -3.233  1.00  0.00     0.010 A 
ATOM     80  C   UNL     1      -8.255 -19.112  -1.200  1.00  0.00     0.020 A 
ATOM     81  C   UNL     1      -6.701 -20.000  -2.822  1.00  0.00     0.020 A 
ATOM     82  C   UNL     1      -7.629 -20.198  -1.802  1.00  0.00     0.054 A 
BRANCH  82  83
ATOM     83  S   UNL     1      -8.120 -21.862  -1.281  1.00  0.00     0.124 S 
ATOM     84  O   UNL     1      -7.583 -21.924   0.075  1.00  0.00    -0.237 OA
ATOM     85  O   UNL     1      -9.574 -21.805  -1.383  1.00  0.00    -0.237 OA
ATOM     86  O   UNL     1      -7.463 -22.734  -2.254  1.00  0.00    -0.744 OA
ENDBRANCH  82  83
ENDBRANCH  63  77
BRANCH  64  87
ATOM     87  C   UNL     1     -14.068 -13.813  -5.725  1.00  0.00    -0.014 A 
ATOM     88  C   UNL     1     -14.634 -13.477  -4.478  1.00  0.00     0.010 A 
ATOM     89  C   UNL     1     -14.818 -14.636  -6.588  1.00  0.00     0.010 A 
ATOM     90  C   UNL     1     -15.862 -14.008  -4.070  1.00  0.00     0.020 A 
ATOM     91  C   UNL     1     -16.053 -15.173  -6.184  1.00  0.00     0.020 A 
ATOM     92  C   UNL     1     -16.547 -14.884  -4.910  1.00  0.00     0.054 A 
BRANCH  92  93
ATOM     93  S   UNL     1     -18.036 -15.701  -4.266  1.00  0.00     0.124 S 
ATOM     94  O   UNL     1     -17.483 -16.564  -3.227  1.00  0.00    -0.237 OA
ATOM     95  O   UNL     1     -18.833 -14.575  -3.788  1.00  0.00    -0.237 OA
ATOM     96  O   UNL     1     -18.582 -16.396  -5.431  1.00  0.00    -0.744 OA
ENDBRANCH  92  93
ENDBRANCH  64  87
BRANCH  76  97
ATOM     97  C   UNL     1      -8.222 -13.931  -8.377  1.00  0.00    -0.014 A 
ATOM     98  C   UNL     1      -7.379 -14.244  -9.459  1.00  0.00     0.010 A 
ATOM     99  C   UNL     1      -8.561 -12.579  -8.161  1.00  0.00     0.010 A 
ATOM    100  C   UNL     1      -6.828 -13.238 -10.258  1.00  0.00     0.020 A 
ATOM    101  C   UNL     1      -8.032 -11.566  -8.977  1.00  0.00     0.020 A 
ATOM    102  C   UNL     1      -7.137 -11.902  -9.995  1.00  0.00     0.054 A 
BRANCH 102 103
ATOM    103  S   UNL     1      -6.295 -10.620 -10.965  1.00  0.00     0.124 S 
ATOM    104  O   UNL     1      -4.926 -10.696 -10.457  1.00  0.00    -0.237 OA
ATOM    105  O   UNL     1      -6.476 -11.081 -12.340  1.00  0.00    -0.237 OA
ATOM    106  O   UNL     1      -7.008  -9.390 -10.627  1.00  0.00    -0.744 OA
ENDBRANCH 102 103
ENDBRANCH  76  97
ENDBRANCH  50  51
ENDBRANCH  42  45
ENDBRANCH  40  41
ENDBRANCH   1  40
TORSDOF 18
