REMARK SMILES O=C(C[C@@H](NS(=O)(=O)c1ccc2c(c1)OCCO2)c1ccccc1)NCCCNC(=O)c1ccc(-c2c3nc(c(-c4ccc(S(=O)(=O)[O-])cc4)c4ccc([nH]4)c(-c4ccc(S(=O)(=O)[O-])cc4)c4nc(c(-c5ccc(S(=O)(=O)[O-])cc5)c5ccc2[nH]5)C=C4)C=C3)cc1
REMARK SMILES IDX 26 1 25 2 1 3 2 4 3 6 4 7 5 8 6 10 7 11 8 12 9 13 10 14
REMARK SMILES IDX 14 15 11 16 13 17 12 18 15 19 18 20 16 21 17 22 19 23 20 24
REMARK SMILES IDX 24 25 21 26 23 27 22 28 27 29 28 30 29 31 30 32 31 34 32 35
REMARK SMILES IDX 33 36 91 37 34 38 90 39 35 40 36 41 37 42 84 43 38 44 89 45
REMARK SMILES IDX 83 46 85 47 39 48 88 49 82 50 81 51 40 53 70 54 51 55 69 56
REMARK SMILES IDX 52 57 55 58 68 59 86 60 53 61 54 62 67 64 87 65 56 66 41 67
REMARK SMILES IDX 42 68 50 69 43 70 49 71 44 72 45 73 46 74 47 75 48 76 71 77
REMARK SMILES IDX 72 78 80 79 73 80 79 81 74 82 75 83 76 84 77 85 78 86 57 87
REMARK SMILES IDX 58 88 66 89 59 90 65 91 60 92 61 93 62 94 63 95 64 96
REMARK H PARENT 25 5 5 9 29 33 85 52 55 63
REMARK Flexibility Score: inf
ROOT
ATOM      1  C   UNL     1       2.276  -2.311   1.024  1.00  0.00     0.117 C 
ENDROOT
BRANCH   1   2
ATOM      2  N   UNL     1       2.932  -1.166   0.425  1.00  0.00    -0.356 N 
ATOM      3  O   UNL     1       1.177   0.306   0.658  1.00  0.00    -0.275 OA
ATOM      4  C   UNL     1       2.315   0.054   0.283  1.00  0.00     0.221 C 
ATOM      5  H   UNL     1       3.858  -1.266   0.107  1.00  0.00     0.163 HD
BRANCH   4   6
ATOM      6  C   UNL     1       3.199   1.084  -0.363  1.00  0.00     0.124 C 
BRANCH   6   7
ATOM      7  C   UNL     1       4.023   1.841   0.690  1.00  0.00     0.109 C 
BRANCH   7   8
ATOM      8  N   UNL     1       5.108   0.969   1.233  1.00  0.00    -0.203 NA
ATOM      9  H   UNL     1       5.821   0.889   0.508  1.00  0.00     0.142 HD
BRANCH   8  10
ATOM     10  S   UNL     1       5.898   1.448   2.660  1.00  0.00     0.241 S 
ATOM     11  O   UNL     1       4.876   1.854   3.596  1.00  0.00    -0.207 OA
ATOM     12  O   UNL     1       6.804   0.362   2.975  1.00  0.00    -0.207 OA
BRANCH  10  13
ATOM     13  C   UNL     1       6.879   2.851   2.219  1.00  0.00     0.086 A 
ATOM     14  C   UNL     1       8.064   2.686   1.493  1.00  0.00     0.026 A 
ATOM     15  C   UNL     1       6.440   4.125   2.592  1.00  0.00     0.072 A 
ATOM     16  C   UNL     1       8.770   3.816   1.069  1.00  0.00     0.052 A 
ATOM     17  C   UNL     1       7.132   5.244   2.139  1.00  0.00     0.162 A 
ATOM     18  C   UNL     1       8.295   5.093   1.376  1.00  0.00     0.161 A 
ATOM     19  O   UNL     1       6.591   6.464   2.454  1.00  0.00    -0.486 OA
ATOM     20  O   UNL     1       9.000   6.153   0.865  1.00  0.00    -0.486 OA
ATOM     21  C   UNL     1       7.071   7.478   1.569  1.00  0.00     0.271 C 
ATOM     22  C   UNL     1       8.582   7.400   1.431  1.00  0.00     0.271 C 
ENDBRANCH  10  13
ENDBRANCH   8  10
ENDBRANCH   7   8
BRANCH   7  23
ATOM     23  C   UNL     1       4.572   3.068  -0.015  1.00  0.00    -0.029 A 
ATOM     24  C   UNL     1       5.660   2.967  -0.900  1.00  0.00     0.005 A 
ATOM     25  C   UNL     1       3.971   4.319   0.182  1.00  0.00     0.005 A 
ATOM     26  C   UNL     1       6.170   4.101  -1.529  1.00  0.00     0.000 A 
ATOM     27  C   UNL     1       4.474   5.449  -0.462  1.00  0.00     0.000 A 
ATOM     28  C   UNL     1       5.578   5.341  -1.308  1.00  0.00     0.000 A 
ENDBRANCH   7  23
ENDBRANCH   6   7
ENDBRANCH   4   6
ENDBRANCH   1   2
BRANCH   1  29
ATOM     29  C   UNL     1       2.565  -3.588   0.247  1.00  0.00     0.042 C 
BRANCH  29  30
ATOM     30  C   UNL     1       4.041  -3.971   0.187  1.00  0.00     0.118 C 
BRANCH  30  31
ATOM     31  N   UNL     1       4.613  -4.274   1.490  1.00  0.00    -0.352 N 
ATOM     32  C   UNL     1       5.255  -5.413   1.915  1.00  0.00     0.251 C 
ATOM     33  H   UNL     1       4.528  -3.561   2.164  1.00  0.00     0.163 HD
ATOM     34  O   UNL     1       5.537  -5.550   3.101  1.00  0.00    -0.269 OA
BRANCH  32  35
ATOM     35  C   UNL     1       5.568  -6.487   0.948  1.00  0.00     0.039 A 
ATOM     36  C   UNL     1       5.244  -7.804   1.281  1.00  0.00     0.014 A 
ATOM     37  C   UNL     1       6.148  -6.197  -0.290  1.00  0.00     0.014 A 
ATOM     38  C   UNL     1       5.420  -8.818   0.337  1.00  0.00     0.010 A 
ATOM     39  C   UNL     1       6.251  -7.196  -1.255  1.00  0.00     0.010 A 
ATOM     40  C   UNL     1       5.876  -8.514  -0.957  1.00  0.00    -0.014 A 
BRANCH  40  41
ATOM     41  C   UNL     1       5.925  -9.553  -2.019  1.00  0.00     0.031 A 
ATOM     42  C   UNL     1       7.235  -9.943  -2.647  1.00  0.00     0.074 A 
ATOM     43  C   UNL     1       4.774 -10.095  -2.469  1.00  0.00     0.049 A 
ATOM     44  N   UNL     1       7.460 -10.776  -3.630  1.00  0.00    -0.248 NA
ATOM     45  C   UNL     1       8.446  -9.299  -2.115  1.00  0.00     0.031 C 
ATOM     46  C   UNL     1       3.435  -9.777  -1.966  1.00  0.00     0.029 A 
ATOM     47  N   UNL     1       4.544 -11.021  -3.456  1.00  0.00    -0.354 N 
ATOM     48  C   UNL     1       8.833 -10.749  -3.843  1.00  0.00     0.074 A 
ATOM     49  C   UNL     1       9.383  -9.781  -2.919  1.00  0.00     0.031 C 
ATOM     50  C   UNL     1       2.529 -10.514  -2.628  1.00  0.00     0.029 A 
ATOM     51  C   UNL     1       3.213 -11.317  -3.637  1.00  0.00     0.049 A 
ATOM     52  H   UNL     1       5.264 -11.435  -3.984  1.00  0.00     0.167 HD
ATOM     53  C   UNL     1       9.571 -11.476  -4.717  1.00  0.00     0.031 A 
ATOM     54  C   UNL     1       2.605 -12.129  -4.524  1.00  0.00     0.031 A 
ATOM     55  C   UNL     1       9.019 -12.436  -5.637  1.00  0.00     0.049 A 
ATOM     56  C   UNL     1       3.443 -12.893  -5.513  1.00  0.00     0.074 A 
ATOM     57  C   UNL     1       9.690 -13.257  -6.527  1.00  0.00     0.029 A 
ATOM     58  N   UNL     1       7.666 -12.699  -5.796  1.00  0.00    -0.354 N 
ATOM     59  N   UNL     1       4.747 -12.905  -5.651  1.00  0.00    -0.248 NA
ATOM     60  C   UNL     1       2.727 -13.758  -6.461  1.00  0.00     0.031 C 
ATOM     61  C   UNL     1       8.741 -13.966  -7.270  1.00  0.00     0.029 A 
ATOM     62  C   UNL     1       7.481 -13.641  -6.794  1.00  0.00     0.049 A 
ATOM     63  H   UNL     1       6.944 -12.277  -5.276  1.00  0.00     0.167 HD
ATOM     64  C   UNL     1       5.009 -13.796  -6.686  1.00  0.00     0.074 A 
ATOM     65  C   UNL     1       3.731 -14.319  -7.122  1.00  0.00     0.031 C 
ATOM     66  C   UNL     1       6.202 -14.149  -7.226  1.00  0.00     0.031 A 
BRANCH  53  67
ATOM     67  C   UNL     1      11.061 -11.248  -4.732  1.00  0.00    -0.014 A 
ATOM     68  C   UNL     1      11.870 -11.645  -3.651  1.00  0.00     0.010 A 
ATOM     69  C   UNL     1      11.669 -10.674  -5.864  1.00  0.00     0.010 A 
ATOM     70  C   UNL     1      13.251 -11.433  -3.685  1.00  0.00     0.020 A 
ATOM     71  C   UNL     1      13.053 -10.489  -5.915  1.00  0.00     0.020 A 
ATOM     72  C   UNL     1      13.834 -10.855  -4.817  1.00  0.00     0.054 A 
BRANCH  72  73
ATOM     73  S   UNL     1      15.632 -10.615  -4.840  1.00  0.00     0.124 S 
ATOM     74  O   UNL     1      15.804  -9.537  -3.869  1.00  0.00    -0.237 OA
ATOM     75  O   UNL     1      16.134 -11.921  -4.424  1.00  0.00    -0.237 OA
ATOM     76  O   UNL     1      15.916 -10.253  -6.227  1.00  0.00    -0.744 OA
ENDBRANCH  72  73
ENDBRANCH  53  67
BRANCH  54  77
ATOM     77  C   UNL     1       1.120 -12.257  -4.521  1.00  0.00    -0.014 A 
ATOM     78  C   UNL     1       0.506 -13.461  -4.134  1.00  0.00     0.010 A 
ATOM     79  C   UNL     1       0.311 -11.170  -4.902  1.00  0.00     0.010 A 
ATOM     80  C   UNL     1      -0.887 -13.582  -4.145  1.00  0.00     0.020 A 
ATOM     81  C   UNL     1      -1.082 -11.277  -4.883  1.00  0.00     0.020 A 
ATOM     82  C   UNL     1      -1.672 -12.487  -4.515  1.00  0.00     0.054 A 
BRANCH  82  83
ATOM     83  S   UNL     1      -3.478 -12.653  -4.474  1.00  0.00     0.124 S 
ATOM     84  O   UNL     1      -3.728 -13.534  -5.611  1.00  0.00    -0.237 OA
ATOM     85  O   UNL     1      -3.710 -13.238  -3.156  1.00  0.00    -0.237 OA
ATOM     86  O   UNL     1      -3.951 -11.279  -4.630  1.00  0.00    -0.744 OA
ENDBRANCH  82  83
ENDBRANCH  54  77
BRANCH  66  87
ATOM     87  C   UNL     1       6.188 -15.168  -8.337  1.00  0.00    -0.014 A 
ATOM     88  C   UNL     1       5.689 -14.851  -9.613  1.00  0.00     0.010 A 
ATOM     89  C   UNL     1       6.735 -16.446  -8.115  1.00  0.00     0.010 A 
ATOM     90  C   UNL     1       5.709 -15.802 -10.636  1.00  0.00     0.020 A 
ATOM     91  C   UNL     1       6.787 -17.388  -9.145  1.00  0.00     0.020 A 
ATOM     92  C   UNL     1       6.261 -17.064 -10.397  1.00  0.00     0.054 A 
BRANCH  92  93
ATOM     93  S   UNL     1       6.319 -18.262 -11.758  1.00  0.00     0.124 S 
ATOM     94  O   UNL     1       4.913 -18.627 -11.902  1.00  0.00    -0.237 OA
ATOM     95  O   UNL     1       6.880 -17.473 -12.852  1.00  0.00    -0.237 OA
ATOM     96  O   UNL     1       7.189 -19.321 -11.251  1.00  0.00    -0.744 OA
ENDBRANCH  92  93
ENDBRANCH  66  87
ENDBRANCH  40  41
ENDBRANCH  32  35
ENDBRANCH  30  31
ENDBRANCH  29  30
ENDBRANCH   1  29
TORSDOF 18
