REMARK SMILES O=C(C[C@@H]1COCCN1C(=O)c1csc(Cc2ccccc2)n1)NCCCNC(=O)c1ccc(-c2c3nc(c(-c4ccc(S(=O)(=O)[O-])cc4)c4ccc([nH]4)c(-c4ccc(S(=O)(=O)[O-])cc4)c4nc(c(-c5ccc(S(=O)(=O)[O-])cc5)c5ccc2[nH]5)C=C4)C=C3)cc1
REMARK SMILES IDX 25 1 24 2 1 3 2 4 3 6 4 7 5 8 9 9 6 10 8 11 7 12 10 13 11 14
REMARK SMILES IDX 12 15 13 16 23 17 14 18 15 19 16 20 17 21 18 22 22 23 19 24
REMARK SMILES IDX 21 25 20 26 26 27 27 28 28 29 29 30 30 32 31 33 32 34 90 35
REMARK SMILES IDX 33 36 89 37 34 38 35 39 36 40 83 41 37 42 88 43 82 44 84 45
REMARK SMILES IDX 38 46 87 47 81 48 80 49 39 51 69 52 50 53 68 54 51 55 54 56
REMARK SMILES IDX 67 57 85 58 52 59 53 60 66 62 86 63 55 64 40 65 41 66 49 67
REMARK SMILES IDX 42 68 48 69 43 70 44 71 45 72 46 73 47 74 70 75 71 76 79 77
REMARK SMILES IDX 72 78 78 79 73 80 74 81 75 82 76 83 77 84 56 85 57 86 65 87
REMARK SMILES IDX 58 88 64 89 59 90 60 91 61 92 62 93 63 94
REMARK H PARENT 24 5 28 31 84 50 54 61
REMARK Flexibility Score: inf
ROOT
ATOM      1  C   UNL     1       2.191   1.181  -2.497  1.00  0.00     0.117 C 
ENDROOT
BRANCH   1   2
ATOM      2  N   UNL     1       2.763   0.893  -1.201  1.00  0.00    -0.356 N 
ATOM      3  O   UNL     1       1.580  -1.039  -0.990  1.00  0.00    -0.275 OA
ATOM      4  C   UNL     1       2.406  -0.257  -0.536  1.00  0.00     0.222 C 
ATOM      5  H   UNL     1       3.407   1.518  -0.795  1.00  0.00     0.163 HD
BRANCH   4   6
ATOM      6  C   UNL     1       3.221  -0.501   0.719  1.00  0.00     0.127 C 
BRANCH   6   7
ATOM      7  C   UNL     1       3.841  -1.900   0.720  1.00  0.00     0.120 C 
ATOM      8  C   UNL     1       4.649  -2.031  -0.612  1.00  0.00     0.185 C 
ATOM      9  N   UNL     1       3.015  -3.120   0.986  1.00  0.00    -0.329 N 
ATOM     10  O   UNL     1       5.371  -3.259  -0.695  1.00  0.00    -0.377 OA
ATOM     11  C   UNL     1       3.713  -4.375   0.658  1.00  0.00     0.148 C 
ATOM     12  C   UNL     1       4.437  -4.341  -0.682  1.00  0.00     0.181 C 
BRANCH   9  13
ATOM     13  C   UNL     1       1.957  -3.287   1.911  1.00  0.00     0.273 C 
ATOM     14  O   UNL     1       1.698  -4.404   2.370  1.00  0.00    -0.267 OA
BRANCH  13  15
ATOM     15  C   UNL     1       1.186  -2.142   2.403  1.00  0.00     0.139 A 
ATOM     16  C   UNL     1       0.954  -1.915   3.748  1.00  0.00     0.101 A 
ATOM     17  N   UNL     1       0.536  -1.238   1.571  1.00  0.00    -0.236 NA
ATOM     18  S   UNL     1       0.062  -0.469   3.969  1.00  0.00    -0.126 S 
ATOM     19  C   UNL     1      -0.038  -0.273   2.261  1.00  0.00     0.098 A 
BRANCH  19  20
ATOM     20  C   UNL     1      -0.549   1.001   1.640  1.00  0.00     0.103 C 
BRANCH  20  21
ATOM     21  C   UNL     1      -2.046   1.208   1.643  1.00  0.00    -0.041 A 
ATOM     22  C   UNL     1      -2.758   1.221   0.433  1.00  0.00     0.004 A 
ATOM     23  C   UNL     1      -2.739   1.484   2.831  1.00  0.00     0.004 A 
ATOM     24  C   UNL     1      -4.126   1.503   0.414  1.00  0.00     0.000 A 
ATOM     25  C   UNL     1      -4.109   1.752   2.812  1.00  0.00     0.000 A 
ATOM     26  C   UNL     1      -4.802   1.765   1.603  1.00  0.00     0.000 A 
ENDBRANCH  20  21
ENDBRANCH  19  20
ENDBRANCH  13  15
ENDBRANCH   9  13
ENDBRANCH   6   7
ENDBRANCH   4   6
ENDBRANCH   1   2
BRANCH   1  27
ATOM     27  C   UNL     1       2.534   2.574  -2.984  1.00  0.00     0.042 C 
BRANCH  27  28
ATOM     28  C   UNL     1       4.024   2.810  -3.184  1.00  0.00     0.118 C 
BRANCH  28  29
ATOM     29  N   UNL     1       4.613   1.977  -4.222  1.00  0.00    -0.352 N 
ATOM     30  C   UNL     1       5.369   2.365  -5.303  1.00  0.00     0.251 C 
ATOM     31  H   UNL     1       4.448   1.010  -4.140  1.00  0.00     0.163 HD
ATOM     32  O   UNL     1       5.685   1.554  -6.168  1.00  0.00    -0.269 OA
BRANCH  30  33
ATOM     33  C   UNL     1       5.763   3.783  -5.424  1.00  0.00     0.039 A 
ATOM     34  C   UNL     1       5.496   4.462  -6.613  1.00  0.00     0.014 A 
ATOM     35  C   UNL     1       6.325   4.452  -4.333  1.00  0.00     0.014 A 
ATOM     36  C   UNL     1       5.723   5.837  -6.681  1.00  0.00     0.010 A 
ATOM     37  C   UNL     1       6.464   5.834  -4.374  1.00  0.00     0.010 A 
ATOM     38  C   UNL     1       6.168   6.542  -5.549  1.00  0.00    -0.014 A 
BRANCH  38  39
ATOM     39  C   UNL     1       6.331   8.017  -5.575  1.00  0.00     0.031 A 
ATOM     40  C   UNL     1       7.689   8.626  -5.354  1.00  0.00     0.074 A 
ATOM     41  C   UNL     1       5.251   8.808  -5.734  1.00  0.00     0.049 A 
ATOM     42  N   UNL     1       8.026   9.888  -5.290  1.00  0.00    -0.248 NA
ATOM     43  C   UNL     1       8.812   7.695  -5.147  1.00  0.00     0.031 C 
ATOM     44  C   UNL     1       3.873   8.340  -5.909  1.00  0.00     0.029 A 
ATOM     45  N   UNL     1       5.141  10.176  -5.772  1.00  0.00    -0.354 N 
ATOM     46  C   UNL     1       9.390   9.902  -5.023  1.00  0.00     0.074 A 
ATOM     47  C   UNL     1       9.807   8.526  -4.876  1.00  0.00     0.031 C 
ATOM     48  C   UNL     1       3.065   9.400  -6.070  1.00  0.00     0.029 A 
ATOM     49  C   UNL     1       3.855  10.623  -5.967  1.00  0.00     0.049 A 
ATOM     50  H   UNL     1       5.911  10.781  -5.670  1.00  0.00     0.167 HD
ATOM     51  C   UNL     1      10.226  10.963  -4.933  1.00  0.00     0.031 A 
ATOM     52  C   UNL     1       3.365  11.875  -6.050  1.00  0.00     0.031 A 
ATOM     53  C   UNL     1       9.809  12.330  -5.094  1.00  0.00     0.049 A 
ATOM     54  C   UNL     1       4.312  13.039  -5.935  1.00  0.00     0.074 A 
ATOM     55  C   UNL     1      10.588  13.473  -5.082  1.00  0.00     0.029 A 
ATOM     56  N   UNL     1       8.500  12.739  -5.295  1.00  0.00    -0.354 N 
ATOM     57  N   UNL     1       5.612  13.028  -5.756  1.00  0.00    -0.248 NA
ATOM     58  C   UNL     1       3.728  14.383  -6.043  1.00  0.00     0.031 C 
ATOM     59  C   UNL     1       9.742  14.578  -5.218  1.00  0.00     0.029 A 
ATOM     60  C   UNL     1       8.444  14.120  -5.379  1.00  0.00     0.049 A 
ATOM     61  H   UNL     1       7.724  12.137  -5.368  1.00  0.00     0.167 HD
ATOM     62  C   UNL     1       6.004  14.363  -5.753  1.00  0.00     0.074 A 
ATOM     63  C   UNL     1       4.807  15.150  -5.969  1.00  0.00     0.031 C 
ATOM     64  C   UNL     1       7.243  14.889  -5.588  1.00  0.00     0.031 A 
BRANCH  51  65
ATOM     65  C   UNL     1      11.677  10.683  -4.642  1.00  0.00    -0.014 A 
ATOM     66  C   UNL     1      12.501  10.054  -5.593  1.00  0.00     0.010 A 
ATOM     67  C   UNL     1      12.234  11.083  -3.413  1.00  0.00     0.010 A 
ATOM     68  C   UNL     1      13.843   9.790  -5.304  1.00  0.00     0.020 A 
ATOM     69  C   UNL     1      13.583  10.849  -3.133  1.00  0.00     0.020 A 
ATOM     70  C   UNL     1      14.374  10.188  -4.074  1.00  0.00     0.054 A 
BRANCH  70  71
ATOM     71  S   UNL     1      16.124   9.851  -3.736  1.00  0.00     0.124 S 
ATOM     72  O   UNL     1      16.118   8.404  -3.536  1.00  0.00    -0.237 OA
ATOM     73  O   UNL     1      16.780  10.313  -4.956  1.00  0.00    -0.237 OA
ATOM     74  O   UNL     1      16.405  10.643  -2.541  1.00  0.00    -0.744 OA
ENDBRANCH  70  71
ENDBRANCH  51  65
BRANCH  52  75
ATOM     75  C   UNL     1       1.908  12.093  -6.264  1.00  0.00    -0.014 A 
ATOM     76  C   UNL     1       1.433  12.601  -7.486  1.00  0.00     0.010 A 
ATOM     77  C   UNL     1       0.984  11.784  -5.249  1.00  0.00     0.010 A 
ATOM     78  C   UNL     1       0.065  12.814  -7.682  1.00  0.00     0.020 A 
ATOM     79  C   UNL     1      -0.387  11.967  -5.452  1.00  0.00     0.020 A 
ATOM     80  C   UNL     1      -0.837  12.493  -6.664  1.00  0.00     0.054 A 
BRANCH  80  81
ATOM     81  S   UNL     1      -2.612  12.730  -6.959  1.00  0.00     0.124 S 
ATOM     82  O   UNL     1      -2.736  14.183  -6.909  1.00  0.00    -0.237 OA
ATOM     83  O   UNL     1      -2.796  12.123  -8.275  1.00  0.00    -0.237 OA
ATOM     84  O   UNL     1      -3.240  12.008  -5.855  1.00  0.00    -0.744 OA
ENDBRANCH  80  81
ENDBRANCH  52  75
BRANCH  64  85
ATOM     85  C   UNL     1       7.374  16.387  -5.654  1.00  0.00    -0.014 A 
ATOM     86  C   UNL     1       6.892  17.207  -4.618  1.00  0.00     0.010 A 
ATOM     87  C   UNL     1       8.042  16.978  -6.743  1.00  0.00     0.010 A 
ATOM     88  C   UNL     1       7.050  18.593  -4.685  1.00  0.00     0.020 A 
ATOM     89  C   UNL     1       8.228  18.361  -6.798  1.00  0.00     0.020 A 
ATOM     90  C   UNL     1       7.718  19.162  -5.774  1.00  0.00     0.054 A 
BRANCH  90  91
ATOM     91  S   UNL     1       7.951  20.960  -5.812  1.00  0.00     0.124 S 
ATOM     92  O   UNL     1       6.603  21.434  -6.113  1.00  0.00    -0.237 OA
ATOM     93  O   UNL     1       8.432  21.248  -4.463  1.00  0.00    -0.237 OA
ATOM     94  O   UNL     1       8.934  21.160  -6.875  1.00  0.00    -0.744 OA
ENDBRANCH  90  91
ENDBRANCH  64  85
ENDBRANCH  38  39
ENDBRANCH  30  33
ENDBRANCH  28  29
ENDBRANCH  27  28
ENDBRANCH   1  27
TORSDOF 18
