REMARK SMILES O=C(C[C@@H](C(=O)NCCCNC(=O)c1ccc(-c2c3nc(c(-c4ccc(S(=O)(=O)[O-])cc4)c4ccc([nH]4)c(-c4ccc(S(=O)(=O)[O-])cc4)c4nc(c(-c5ccc(S(=O)(=O)[O-])cc5)c5ccc2[nH]5)C=C4)C=C3)cc1)c1ccccc1)Nc1cc(C(F)(F)F)ccc1-n1cncn1
REMARK SMILES IDX 8 1 7 2 5 3 6 4 4 6 3 7 2 8 1 9 80 10 81 12 82 13 90 14
REMARK SMILES IDX 83 15 89 16 88 17 91 18 92 19 95 20 93 21 94 22 84 23 85 24
REMARK SMILES IDX 86 25 87 26 74 27 75 28 79 29 76 30 78 31 77 32 9 33 10 34
REMARK SMILES IDX 11 35 12 36 13 38 14 39 15 40 73 41 16 42 72 43 17 44 18 45
REMARK SMILES IDX 19 46 66 47 20 48 71 49 65 50 67 51 21 52 70 53 64 54 63 55
REMARK SMILES IDX 22 57 52 58 33 59 51 60 34 61 37 62 50 63 68 64 35 65 36 66
REMARK SMILES IDX 49 68 69 69 38 70 23 71 24 72 32 73 25 74 31 75 26 76 27 77
REMARK SMILES IDX 28 78 29 79 30 80 53 81 54 82 62 83 55 84 61 85 56 86 57 87
REMARK SMILES IDX 58 88 59 89 60 90 39 91 40 92 48 93 41 94 47 95 42 96 43 97
REMARK SMILES IDX 44 98 45 99 46 100
REMARK H PARENT 7 5 80 11 11 37 67 56 37 67
REMARK Flexibility Score: inf
ROOT
ATOM      1  C   UNL     1       3.784   0.394   3.420  1.00  0.00     0.117 C 
ENDROOT
BRANCH   1   2
ATOM      2  N   UNL     1       4.890   0.681   2.460  1.00  0.00    -0.355 N 
ATOM      3  C   UNL     1       4.884   0.945   1.108  1.00  0.00     0.228 C 
ATOM      4  O   UNL     1       5.750   0.360   0.444  1.00  0.00    -0.274 OA
ATOM      5  H   UNL     1       5.787   0.683   2.867  1.00  0.00     0.163 HD
BRANCH   3   6
ATOM      6  C   UNL     1       3.902   1.931   0.422  1.00  0.00     0.118 C 
BRANCH   6   7
ATOM      7  C   UNL     1       3.173   1.296  -0.773  1.00  0.00     0.118 C 
BRANCH   7   8
ATOM      8  C   UNL     1       2.343   0.138  -0.341  1.00  0.00     0.225 C 
ATOM      9  O   UNL     1       1.314   0.271   0.329  1.00  0.00    -0.275 OA
ATOM     10  N   UNL     1       2.933  -1.051  -0.679  1.00  0.00    -0.324 N 
ATOM     11  H   UNL     1       3.776  -1.024  -1.187  1.00  0.00     0.170 HD
BRANCH  10  12
ATOM     12  C   UNL     1       2.408  -2.295  -0.344  1.00  0.00     0.067 A 
ATOM     13  C   UNL     1       3.250  -3.005   0.468  1.00  0.00     0.041 A 
ATOM     14  C   UNL     1       1.135  -2.788  -0.532  1.00  0.00     0.090 A 
ATOM     15  C   UNL     1       3.152  -4.349   0.675  1.00  0.00     0.058 A 
ATOM     16  C   UNL     1       0.805  -4.020   0.033  1.00  0.00     0.031 A 
ATOM     17  C   UNL     1       1.848  -4.826   0.549  1.00  0.00     0.015 A 
BRANCH  14  18
ATOM     18  N   UNL     1       0.279  -2.157  -1.437  1.00  0.00    -0.219 N 
ATOM     19  C   UNL     1       0.649  -1.644  -2.655  1.00  0.00     0.226 A 
ATOM     20  N   UNL     1      -1.036  -1.956  -1.232  1.00  0.00    -0.155 NA
ATOM     21  N   UNL     1      -0.331  -0.942  -3.165  1.00  0.00    -0.223 NA
ATOM     22  C   UNL     1      -1.329  -1.141  -2.252  1.00  0.00     0.246 A 
ENDBRANCH  14  18
BRANCH  15  23
ATOM     23  C   UNL     1       4.450  -4.897   1.217  1.00  0.00     0.416 C 
ATOM     24  F   UNL     1       5.534  -4.348   0.587  1.00  0.00    -0.166 F 
ATOM     25  F   UNL     1       4.657  -4.566   2.527  1.00  0.00    -0.166 F 
ATOM     26  F   UNL     1       4.620  -6.233   1.123  1.00  0.00    -0.166 F 
ENDBRANCH  15  23
ENDBRANCH  10  12
ENDBRANCH   7   8
ENDBRANCH   6   7
BRANCH   6  27
ATOM     27  C   UNL     1       4.629   3.144  -0.199  1.00  0.00    -0.035 A 
ATOM     28  C   UNL     1       5.722   2.986  -1.078  1.00  0.00     0.004 A 
ATOM     29  C   UNL     1       4.105   4.434  -0.035  1.00  0.00     0.004 A 
ATOM     30  C   UNL     1       6.297   4.080  -1.729  1.00  0.00     0.000 A 
ATOM     31  C   UNL     1       4.683   5.530  -0.687  1.00  0.00     0.000 A 
ATOM     32  C   UNL     1       5.783   5.355  -1.525  1.00  0.00     0.000 A 
ENDBRANCH   6  27
ENDBRANCH   3   6
ENDBRANCH   1   2
BRANCH   1  33
ATOM     33  C   UNL     1       3.157  -1.025   3.198  1.00  0.00     0.042 C 
BRANCH  33  34
ATOM     34  C   UNL     1       3.381  -2.318   4.119  1.00  0.00     0.118 C 
BRANCH  34  35
ATOM     35  N   UNL     1       2.153  -3.220   4.426  1.00  0.00    -0.352 N 
ATOM     36  C   UNL     1       1.488  -4.463   4.484  1.00  0.00     0.251 C 
ATOM     37  H   UNL     1       1.479  -2.584   4.758  1.00  0.00     0.163 HD
ATOM     38  O   UNL     1       0.545  -4.391   5.298  1.00  0.00    -0.269 OA
BRANCH  36  39
ATOM     39  C   UNL     1       1.531  -5.839   3.772  1.00  0.00     0.039 A 
ATOM     40  C   UNL     1       0.344  -6.637   3.737  1.00  0.00     0.014 A 
ATOM     41  C   UNL     1       2.585  -6.467   3.141  1.00  0.00     0.014 A 
ATOM     42  C   UNL     1       0.162  -7.813   2.909  1.00  0.00     0.010 A 
ATOM     43  C   UNL     1       2.387  -7.575   2.233  1.00  0.00     0.010 A 
ATOM     44  C   UNL     1       1.161  -8.237   2.030  1.00  0.00    -0.014 A 
BRANCH  44  45
ATOM     45  C   UNL     1       1.024  -9.261   0.886  1.00  0.00     0.031 A 
ATOM     46  C   UNL     1       2.030 -10.409   0.733  1.00  0.00     0.074 A 
ATOM     47  C   UNL     1       0.209  -9.051  -0.186  1.00  0.00     0.049 A 
ATOM     48  N   UNL     1       2.188 -11.281  -0.240  1.00  0.00    -0.248 NA
ATOM     49  C   UNL     1       3.044 -10.528   1.789  1.00  0.00     0.031 C 
ATOM     50  C   UNL     1      -0.710  -7.924  -0.346  1.00  0.00     0.029 A 
ATOM     51  N   UNL     1       0.071  -9.737  -1.388  1.00  0.00    -0.354 N 
ATOM     52  C   UNL     1       3.338 -12.012   0.073  1.00  0.00     0.074 A 
ATOM     53  C   UNL     1       3.885 -11.408   1.267  1.00  0.00     0.031 C 
ATOM     54  C   UNL     1      -1.286  -7.976  -1.563  1.00  0.00     0.029 A 
ATOM     55  C   UNL     1      -0.809  -9.154  -2.285  1.00  0.00     0.049 A 
ATOM     56  H   UNL     1       0.559 -10.569  -1.586  1.00  0.00     0.167 HD
ATOM     57  C   UNL     1       3.889 -13.102  -0.529  1.00  0.00     0.031 A 
ATOM     58  C   UNL     1      -1.213  -9.518  -3.527  1.00  0.00     0.031 A 
ATOM     59  C   UNL     1       3.371 -13.715  -1.726  1.00  0.00     0.049 A 
ATOM     60  C   UNL     1      -0.680 -10.790  -4.155  1.00  0.00     0.074 A 
ATOM     61  C   UNL     1       3.753 -14.902  -2.332  1.00  0.00     0.029 A 
ATOM     62  N   UNL     1       2.365 -13.175  -2.509  1.00  0.00    -0.354 N 
ATOM     63  N   UNL     1       0.263 -11.590  -3.718  1.00  0.00    -0.248 NA
ATOM     64  C   UNL     1      -1.296 -11.233  -5.419  1.00  0.00     0.031 C 
ATOM     65  C   UNL     1       3.007 -15.055  -3.506  1.00  0.00     0.029 A 
ATOM     66  C   UNL     1       2.117 -13.997  -3.595  1.00  0.00     0.049 A 
ATOM     67  H   UNL     1       1.894 -12.331  -2.321  1.00  0.00     0.167 HD
ATOM     68  C   UNL     1       0.311 -12.653  -4.618  1.00  0.00     0.074 A 
ATOM     69  C   UNL     1      -0.693 -12.396  -5.627  1.00  0.00     0.031 C 
ATOM     70  C   UNL     1       1.108 -13.751  -4.594  1.00  0.00     0.031 A 
BRANCH  57  71
ATOM     71  C   UNL     1       5.086 -13.752   0.145  1.00  0.00    -0.014 A 
ATOM     72  C   UNL     1       4.962 -14.294   1.440  1.00  0.00     0.010 A 
ATOM     73  C   UNL     1       6.324 -13.877  -0.515  1.00  0.00     0.010 A 
ATOM     74  C   UNL     1       6.056 -14.873   2.087  1.00  0.00     0.020 A 
ATOM     75  C   UNL     1       7.415 -14.496   0.115  1.00  0.00     0.020 A 
ATOM     76  C   UNL     1       7.279 -14.968   1.422  1.00  0.00     0.054 A 
BRANCH  76  77
ATOM     77  S   UNL     1       8.671 -15.742   2.292  1.00  0.00     0.124 S 
ATOM     78  O   UNL     1       8.996 -14.735   3.298  1.00  0.00    -0.237 OA
ATOM     79  O   UNL     1       8.079 -16.974   2.808  1.00  0.00    -0.237 OA
ATOM     80  O   UNL     1       9.676 -15.927   1.248  1.00  0.00    -0.744 OA
ENDBRANCH  76  77
ENDBRANCH  57  71
BRANCH  58  81
ATOM     81  C   UNL     1      -2.295  -8.750  -4.230  1.00  0.00    -0.014 A 
ATOM     82  C   UNL     1      -3.595  -9.292  -4.297  1.00  0.00     0.010 A 
ATOM     83  C   UNL     1      -2.062  -7.496  -4.824  1.00  0.00     0.010 A 
ATOM     84  C   UNL     1      -4.632  -8.607  -4.940  1.00  0.00     0.020 A 
ATOM     85  C   UNL     1      -3.107  -6.792  -5.448  1.00  0.00     0.020 A 
ATOM     86  C   UNL     1      -4.384  -7.355  -5.506  1.00  0.00     0.054 A 
BRANCH  86  87
ATOM     87  S   UNL     1      -5.770  -6.459  -6.269  1.00  0.00     0.124 S 
ATOM     88  O   UNL     1      -6.031  -7.257  -7.463  1.00  0.00    -0.237 OA
ATOM     89  O   UNL     1      -6.796  -6.525  -5.230  1.00  0.00    -0.237 OA
ATOM     90  O   UNL     1      -5.226  -5.126  -6.514  1.00  0.00    -0.744 OA
ENDBRANCH  86  87
ENDBRANCH  58  81
BRANCH  70  91
ATOM     91  C   UNL     1       0.901 -14.808  -5.649  1.00  0.00    -0.014 A 
ATOM     92  C   UNL     1       1.279 -14.603  -6.987  1.00  0.00     0.010 A 
ATOM     93  C   UNL     1       0.399 -16.067  -5.266  1.00  0.00     0.010 A 
ATOM     94  C   UNL     1       1.139 -15.630  -7.926  1.00  0.00     0.020 A 
ATOM     95  C   UNL     1       0.286 -17.105  -6.195  1.00  0.00     0.020 A 
ATOM     96  C   UNL     1       0.649 -16.877  -7.523  1.00  0.00     0.054 A 
BRANCH  96  97
ATOM     97  S   UNL     1       0.543 -18.212  -8.746  1.00  0.00     0.124 S 
ATOM     98  O   UNL     1      -0.573 -17.773  -9.581  1.00  0.00    -0.237 OA
ATOM     99  O   UNL     1       1.858 -18.168  -9.381  1.00  0.00    -0.237 OA
ATOM    100  O   UNL     1       0.286 -19.403  -7.940  1.00  0.00    -0.744 OA
ENDBRANCH  96  97
ENDBRANCH  70  91
ENDBRANCH  44  45
ENDBRANCH  36  39
ENDBRANCH  34  35
ENDBRANCH  33  34
ENDBRANCH   1  33
TORSDOF 19
