REMARK SMILES O=C(CCC(=O)/[NH+]=C1\S[C@H]2CS(=O)(=O)C[C@@H]2N1c1ccc(Oc2ccccc2)cc1)NCCCNC(=O)c1ccc(-c2c3nc(c(-c4ccc(S(=O)(=O)[O-])cc4)c4ccc([nH]4)c(-c4ccc(S(=O)(=O)[O-])cc4)c4nc(c(-c5ccc(S(=O)(=O)[O-])cc5)c5ccc2[nH]5)C=C4)C=C3)cc1
REMARK SMILES IDX 32 1 31 2 2 3 1 4 3 6 4 7 5 8 6 9 7 10 8 11 9 13 17 14 10 15
REMARK SMILES IDX 16 16 11 17 15 18 12 19 13 20 14 21 18 22 19 23 30 24 20 25
REMARK SMILES IDX 29 26 21 27 22 28 23 29 24 30 28 31 25 32 27 33 26 34 33 35
REMARK SMILES IDX 34 36 35 37 36 38 37 40 38 41 39 42 97 43 40 44 96 45 41 46
REMARK SMILES IDX 42 47 43 48 90 49 44 50 95 51 89 52 91 53 45 54 94 55 88 56
REMARK SMILES IDX 87 57 46 59 76 60 57 61 75 62 58 63 61 64 74 65 92 66 59 67
REMARK SMILES IDX 60 68 73 70 93 71 62 72 47 73 48 74 56 75 49 76 55 77 50 78
REMARK SMILES IDX 51 79 52 80 53 81 54 82 77 83 78 84 86 85 79 86 85 87 80 88
REMARK SMILES IDX 81 89 82 90 83 91 84 92 63 93 64 94 72 95 65 96 71 97 66 98
REMARK SMILES IDX 67 99 68 100 69 101 70 102
REMARK H PARENT 31 5 7 12 35 39 91 58 61 69
REMARK Flexibility Score: inf
ROOT
ATOM      1  C   UNL     1       2.239  -2.638   0.665  1.00  0.00     0.117 C 
ENDROOT
BRANCH   1   2
ATOM      2  N   UNL     1       3.659  -2.340   0.757  1.00  0.00    -0.356 N 
ATOM      3  C   UNL     1       4.307  -1.244   1.234  1.00  0.00     0.220 C 
ATOM      4  O   UNL     1       5.538  -1.266   1.308  1.00  0.00    -0.275 OA
ATOM      5  H   UNL     1       4.250  -3.050   0.418  1.00  0.00     0.163 HD
BRANCH   3   6
ATOM      6  C   UNL     1       3.534  -0.024   1.652  1.00  0.00     0.112 C 
BRANCH   6   7
ATOM      7  C   UNL     1       3.259   1.026   0.584  1.00  0.00     0.138 C 
BRANCH   7   8
ATOM      8  C   UNL     1       3.177   0.696  -0.912  1.00  0.00     0.308 C 
ATOM      9  O   UNL     1       2.349   1.302  -1.590  1.00  0.00    -0.247 OA
ATOM     10  N   UNL     1       3.969  -0.275  -1.476  1.00  0.00    -0.204 N 
ATOM     11  C   UNL     1       5.248  -0.142  -1.578  1.00  0.00     0.319 C 
ATOM     12  H   UNL     1       3.547  -1.098  -1.813  1.00  0.00     0.316 HD
ATOM     13  S   UNL     1       6.155   1.261  -0.908  1.00  0.00    -0.029 SA
ATOM     14  N   UNL     1       6.166  -1.068  -2.073  1.00  0.00    -0.217 N 
ATOM     15  C   UNL     1       7.736   0.516  -1.341  1.00  0.00     0.120 C 
ATOM     16  C   UNL     1       7.440  -0.984  -1.375  1.00  0.00     0.212 C 
ATOM     17  C   UNL     1       8.930   0.632  -0.431  1.00  0.00     0.156 C 
ATOM     18  C   UNL     1       8.693  -1.594  -1.960  1.00  0.00     0.188 C 
ATOM     19  S   UNL     1       9.977  -0.684  -1.083  1.00  0.00     0.155 S 
ATOM     20  O   UNL     1      10.875  -0.104  -2.064  1.00  0.00    -0.229 OA
ATOM     21  O   UNL     1      10.451  -1.486   0.019  1.00  0.00    -0.229 OA
BRANCH  14  22
ATOM     22  C   UNL     1       5.934  -2.164  -2.911  1.00  0.00     0.128 A 
ATOM     23  C   UNL     1       6.129  -3.475  -2.460  1.00  0.00     0.056 A 
ATOM     24  C   UNL     1       5.656  -1.982  -4.276  1.00  0.00     0.056 A 
ATOM     25  C   UNL     1       6.050  -4.558  -3.339  1.00  0.00     0.051 A 
ATOM     26  C   UNL     1       5.618  -3.074  -5.174  1.00  0.00     0.051 A 
ATOM     27  C   UNL     1       5.794  -4.371  -4.700  1.00  0.00     0.127 A 
BRANCH  27  28
ATOM     28  O   UNL     1       5.710  -5.553  -5.392  1.00  0.00    -0.457 OA
BRANCH  28  29
ATOM     29  C   UNL     1       5.332  -5.618  -6.707  1.00  0.00     0.127 A 
ATOM     30  C   UNL     1       4.161  -6.326  -7.004  1.00  0.00     0.047 A 
ATOM     31  C   UNL     1       6.205  -5.252  -7.730  1.00  0.00     0.047 A 
ATOM     32  C   UNL     1       3.858  -6.664  -8.324  1.00  0.00     0.004 A 
ATOM     33  C   UNL     1       5.911  -5.611  -9.048  1.00  0.00     0.004 A 
ATOM     34  C   UNL     1       4.745  -6.325  -9.343  1.00  0.00     0.000 A 
ENDBRANCH  28  29
ENDBRANCH  27  28
ENDBRANCH  14  22
ENDBRANCH   7   8
ENDBRANCH   6   7
ENDBRANCH   3   6
ENDBRANCH   1   2
BRANCH   1  35
ATOM     35  C   UNL     1       1.622  -2.465  -0.722  1.00  0.00     0.042 C 
BRANCH  35  36
ATOM     36  C   UNL     1       2.389  -3.092  -1.881  1.00  0.00     0.118 C 
BRANCH  36  37
ATOM     37  N   UNL     1       2.175  -4.526  -2.012  1.00  0.00    -0.352 N 
ATOM     38  C   UNL     1       1.727  -5.276  -3.079  1.00  0.00     0.251 C 
ATOM     39  H   UNL     1       2.386  -5.048  -1.204  1.00  0.00     0.163 HD
ATOM     40  O   UNL     1       1.488  -6.469  -2.891  1.00  0.00    -0.269 OA
BRANCH  38  41
ATOM     41  C   UNL     1       1.536  -4.702  -4.441  1.00  0.00     0.039 A 
ATOM     42  C   UNL     1       0.540  -5.209  -5.284  1.00  0.00     0.014 A 
ATOM     43  C   UNL     1       2.381  -3.717  -4.941  1.00  0.00     0.014 A 
ATOM     44  C   UNL     1       0.384  -4.702  -6.589  1.00  0.00     0.010 A 
ATOM     45  C   UNL     1       2.206  -3.182  -6.218  1.00  0.00     0.010 A 
ATOM     46  C   UNL     1       1.217  -3.675  -7.069  1.00  0.00    -0.014 A 
BRANCH  46  47
ATOM     47  C   UNL     1       0.966  -2.993  -8.363  1.00  0.00     0.031 A 
ATOM     48  C   UNL     1       1.885  -3.076  -9.547  1.00  0.00     0.074 A 
ATOM     49  C   UNL     1      -0.035  -2.100  -8.438  1.00  0.00     0.049 A 
ATOM     50  N   UNL     1       1.611  -2.882 -10.815  1.00  0.00    -0.248 NA
ATOM     51  C   UNL     1       3.292  -3.382  -9.289  1.00  0.00     0.031 C 
ATOM     52  C   UNL     1      -0.921  -1.722  -7.339  1.00  0.00     0.029 A 
ATOM     53  N   UNL     1      -0.420  -1.302  -9.481  1.00  0.00    -0.354 N 
ATOM     54  C   UNL     1       2.767  -3.229 -11.502  1.00  0.00     0.074 A 
ATOM     55  C   UNL     1       3.781  -3.482 -10.518  1.00  0.00     0.031 C 
ATOM     56  C   UNL     1      -1.727  -0.734  -7.758  1.00  0.00     0.029 A 
ATOM     57  C   UNL     1      -1.419  -0.425  -9.153  1.00  0.00     0.049 A 
ATOM     58  H   UNL     1      -0.018  -1.353 -10.378  1.00  0.00     0.167 HD
ATOM     59  C   UNL     1       2.977  -3.318 -12.834  1.00  0.00     0.031 A 
ATOM     60  C   UNL     1      -2.010   0.523  -9.901  1.00  0.00     0.031 A 
ATOM     61  C   UNL     1       2.171  -2.615 -13.787  1.00  0.00     0.049 A 
ATOM     62  C   UNL     1      -1.630   0.669 -11.350  1.00  0.00     0.074 A 
ATOM     63  C   UNL     1       2.328  -2.513 -15.156  1.00  0.00     0.029 A 
ATOM     64  N   UNL     1       1.158  -1.742 -13.427  1.00  0.00    -0.354 N 
ATOM     65  N   UNL     1      -0.782  -0.038 -12.061  1.00  0.00    -0.248 NA
ATOM     66  C   UNL     1      -2.310   1.730 -12.104  1.00  0.00     0.031 C 
ATOM     67  C   UNL     1       1.520  -1.455 -15.595  1.00  0.00     0.029 A 
ATOM     68  C   UNL     1       0.783  -0.985 -14.517  1.00  0.00     0.049 A 
ATOM     69  H   UNL     1       0.765  -1.672 -12.527  1.00  0.00     0.167 HD
ATOM     70  C   UNL     1      -0.851   0.474 -13.354  1.00  0.00     0.074 A 
ATOM     71  C   UNL     1      -1.829   1.542 -13.326  1.00  0.00     0.031 C 
ATOM     72  C   UNL     1      -0.175   0.089 -14.467  1.00  0.00     0.031 A 
BRANCH  59  73
ATOM     73  C   UNL     1       4.147  -4.133 -13.316  1.00  0.00    -0.014 A 
ATOM     74  C   UNL     1       4.058  -5.539 -13.295  1.00  0.00     0.010 A 
ATOM     75  C   UNL     1       5.285  -3.533 -13.878  1.00  0.00     0.010 A 
ATOM     76  C   UNL     1       5.084  -6.329 -13.823  1.00  0.00     0.020 A 
ATOM     77  C   UNL     1       6.313  -4.320 -14.415  1.00  0.00     0.020 A 
ATOM     78  C   UNL     1       6.206  -5.713 -14.383  1.00  0.00     0.054 A 
BRANCH  78  79
ATOM     79  S   UNL     1       7.501  -6.764 -15.100  1.00  0.00     0.124 S 
ATOM     80  O   UNL     1       8.012  -7.461 -13.922  1.00  0.00    -0.237 OA
ATOM     81  O   UNL     1       6.753  -7.591 -16.044  1.00  0.00    -0.237 OA
ATOM     82  O   UNL     1       8.427  -5.811 -15.706  1.00  0.00    -0.744 OA
ENDBRANCH  78  79
ENDBRANCH  59  73
BRANCH  60  83
ATOM     83  C   UNL     1      -3.051   1.380  -9.282  1.00  0.00    -0.014 A 
ATOM     84  C   UNL     1      -4.397   1.231  -9.648  1.00  0.00     0.010 A 
ATOM     85  C   UNL     1      -2.703   2.322  -8.295  1.00  0.00     0.010 A 
ATOM     86  C   UNL     1      -5.379   2.027  -9.055  1.00  0.00     0.020 A 
ATOM     87  C   UNL     1      -3.686   3.099  -7.679  1.00  0.00     0.020 A 
ATOM     88  C   UNL     1      -5.017   2.955  -8.074  1.00  0.00     0.054 A 
BRANCH  88  89
ATOM     89  S   UNL     1      -6.319   3.950  -7.299  1.00  0.00     0.124 S 
ATOM     90  O   UNL     1      -6.691   4.856  -8.381  1.00  0.00    -0.237 OA
ATOM     91  O   UNL     1      -7.316   2.942  -6.945  1.00  0.00    -0.237 OA
ATOM     92  O   UNL     1      -5.644   4.574  -6.163  1.00  0.00    -0.744 OA
ENDBRANCH  88  89
ENDBRANCH  60  83
BRANCH  72  93
ATOM     93  C   UNL     1      -0.453   0.820 -15.751  1.00  0.00    -0.014 A 
ATOM     94  C   UNL     1      -0.031   2.147 -15.942  1.00  0.00     0.010 A 
ATOM     95  C   UNL     1      -1.051   0.127 -16.820  1.00  0.00     0.010 A 
ATOM     96  C   UNL     1      -0.218   2.774 -17.175  1.00  0.00     0.020 A 
ATOM     97  C   UNL     1      -1.209   0.739 -18.064  1.00  0.00     0.020 A 
ATOM     98  C   UNL     1      -0.798   2.063 -18.231  1.00  0.00     0.054 A 
BRANCH  98  99
ATOM     99  S   UNL     1      -0.955   2.874 -19.844  1.00  0.00     0.124 S 
ATOM    100  O   UNL     1      -2.019   3.842 -19.596  1.00  0.00    -0.237 OA
ATOM    101  O   UNL     1       0.376   3.440 -20.047  1.00  0.00    -0.237 OA
ATOM    102  O   UNL     1      -1.305   1.781 -20.749  1.00  0.00    -0.744 OA
ENDBRANCH  98  99
ENDBRANCH  72  93
ENDBRANCH  46  47
ENDBRANCH  38  41
ENDBRANCH  36  37
ENDBRANCH  35  36
ENDBRANCH   1  35
TORSDOF 18
