REMARK SMILES Cc1cc(N2N=C(C(=O)NCCCNC(=O)c3ccc(-c4c5nc(c(-c6ccc(S(=O)(=O)[O-])cc6)c6ccc([nH]6)c(-c6ccc(S(=O)(=O)[O-])cc6)c6nc(c(-c7ccc(S(=O)(=O)[O-])cc7)c7ccc4[nH]7)C=C6)C=C5)cc3)C[C@H]2c2ccccc2)c([N+](=O)[O-])cc1C
REMARK SMILES IDX 12 1 11 2 10 3 8 4 9 5 7 7 5 8 6 9 78 10 77 11 4 12 1 13
REMARK SMILES IDX 2 14 3 15 90 16 89 17 91 18 85 19 86 20 87 21 88 22 79 23
REMARK SMILES IDX 80 24 84 25 81 26 83 27 82 28 13 29 14 30 15 31 16 33 17 34
REMARK SMILES IDX 18 35 76 36 19 37 75 38 20 39 21 40 22 41 69 42 23 43 74 44
REMARK SMILES IDX 68 45 70 46 24 47 73 48 67 49 66 50 25 52 55 53 36 54 54 55
REMARK SMILES IDX 37 56 40 57 53 58 71 59 38 60 39 61 52 63 72 64 41 65 26 66
REMARK SMILES IDX 27 67 35 68 28 69 34 70 29 71 30 72 31 73 32 74 33 75 56 76
REMARK SMILES IDX 57 77 65 78 58 79 64 80 59 81 60 82 61 83 62 84 63 85 42 86
REMARK SMILES IDX 43 87 51 88 44 89 50 90 45 91 46 92 47 93 48 94 49 95
REMARK H PARENT 10 6 14 32 70 51 40 62
REMARK Flexibility Score: inf
ROOT
ATOM      1  C   UNL     1      -8.576   3.347  -0.643  1.00  0.00     0.042 C 
ENDROOT
BRANCH   1   2
ATOM      2  C   UNL     1      -7.498   3.859   0.303  1.00  0.00     0.118 C 
BRANCH   2   3
ATOM      3  N   UNL     1      -7.188   2.877   1.320  1.00  0.00    -0.351 N 
ATOM      4  C   UNL     1      -6.134   2.032   1.540  1.00  0.00     0.267 C 
ATOM      5  O   UNL     1      -6.209   1.274   2.505  1.00  0.00    -0.268 OA
ATOM      6  H   UNL     1      -7.890   2.800   2.006  1.00  0.00     0.163 HD
BRANCH   4   7
ATOM      7  C   UNL     1      -4.862   2.018   0.708  1.00  0.00     0.128 C 
ATOM      8  N   UNL     1      -2.802   1.672   0.271  1.00  0.00    -0.250 N 
ATOM      9  N   UNL     1      -3.761   1.545   1.219  1.00  0.00    -0.171 NA
ATOM     10  C   UNL     1      -3.276   2.281  -0.978  1.00  0.00     0.144 C 
ATOM     11  C   UNL     1      -4.786   2.400  -0.738  1.00  0.00     0.096 C 
BRANCH   8  12
ATOM     12  C   UNL     1      -1.714   0.803   0.258  1.00  0.00     0.138 A 
ATOM     13  C   UNL     1       2.055   1.377   0.236  1.00  0.00     0.045 C 
ATOM     14  C   UNL     1       0.749   0.631   0.229  1.00  0.00    -0.046 A 
ATOM     15  C   UNL     1      -0.436   1.375   0.362  1.00  0.00     0.039 A 
ATOM     16  C   UNL     1       0.668  -0.761   0.074  1.00  0.00    -0.041 A 
ATOM     17  C   UNL     1      -0.600  -1.365   0.025  1.00  0.00     0.091 A 
ATOM     18  C   UNL     1       1.880  -1.645  -0.031  1.00  0.00     0.045 C 
ATOM     19  C   UNL     1      -1.772  -0.586   0.101  1.00  0.00     0.294 A 
BRANCH  19  20
ATOM     20  N   UNL     1      -3.042  -1.280  -0.074  1.00  0.00     0.065 N 
ATOM     21  O   UNL     1      -3.179  -2.362   0.518  1.00  0.00    -0.258 OA
ATOM     22  O   UNL     1      -3.855  -0.812  -0.887  1.00  0.00    -0.258 OA
ENDBRANCH  19  20
ENDBRANCH   8  12
BRANCH  10  23
ATOM     23  C   UNL     1      -2.521   3.583  -1.252  1.00  0.00    -0.023 A 
ATOM     24  C   UNL     1      -2.946   4.845  -0.807  1.00  0.00     0.006 A 
ATOM     25  C   UNL     1      -1.296   3.513  -1.944  1.00  0.00     0.006 A 
ATOM     26  C   UNL     1      -2.188   5.992  -1.070  1.00  0.00     0.000 A 
ATOM     27  C   UNL     1      -0.518   4.650  -2.165  1.00  0.00     0.000 A 
ATOM     28  C   UNL     1      -0.970   5.893  -1.738  1.00  0.00     0.000 A 
ENDBRANCH  10  23
ENDBRANCH   4   7
ENDBRANCH   2   3
ENDBRANCH   1   2
BRANCH   1  29
ATOM     29  C   UNL     1      -9.966   3.413  -0.018  1.00  0.00     0.118 C 
BRANCH  29  30
ATOM     30  N   UNL     1     -10.375   4.790   0.247  1.00  0.00    -0.352 N 
ATOM     31  C   UNL     1     -11.366   5.541  -0.332  1.00  0.00     0.251 C 
ATOM     32  H   UNL     1      -9.859   5.250   0.949  1.00  0.00     0.163 HD
ATOM     33  O   UNL     1     -11.379   6.760  -0.173  1.00  0.00    -0.269 OA
BRANCH  31  34
ATOM     34  C   UNL     1     -12.406   4.881  -1.143  1.00  0.00     0.039 A 
ATOM     35  C   UNL     1     -12.840   5.477  -2.329  1.00  0.00     0.014 A 
ATOM     36  C   UNL     1     -12.955   3.668  -0.720  1.00  0.00     0.014 A 
ATOM     37  C   UNL     1     -13.777   4.818  -3.127  1.00  0.00     0.010 A 
ATOM     38  C   UNL     1     -13.808   2.970  -1.562  1.00  0.00     0.010 A 
ATOM     39  C   UNL     1     -14.238   3.542  -2.768  1.00  0.00    -0.014 A 
BRANCH  39  40
ATOM     40  C   UNL     1     -15.193   2.780  -3.609  1.00  0.00     0.031 A 
ATOM     41  C   UNL     1     -16.533   2.393  -3.042  1.00  0.00     0.074 A 
ATOM     42  C   UNL     1     -14.820   2.354  -4.832  1.00  0.00     0.049 A 
ATOM     43  N   UNL     1     -17.447   1.608  -3.548  1.00  0.00    -0.248 NA
ATOM     44  C   UNL     1     -16.872   2.932  -1.713  1.00  0.00     0.031 C 
ATOM     45  C   UNL     1     -13.536   2.638  -5.477  1.00  0.00     0.029 A 
ATOM     46  N   UNL     1     -15.483   1.573  -5.745  1.00  0.00    -0.354 N 
ATOM     47  C   UNL     1     -18.452   1.535  -2.589  1.00  0.00     0.074 A 
ATOM     48  C   UNL     1     -18.012   2.311  -1.452  1.00  0.00     0.031 C 
ATOM     49  C   UNL     1     -13.514   2.058  -6.688  1.00  0.00     0.029 A 
ATOM     50  C   UNL     1     -14.756   1.317  -6.884  1.00  0.00     0.049 A 
ATOM     51  H   UNL     1     -16.393   1.228  -5.599  1.00  0.00     0.167 HD
ATOM     52  C   UNL     1     -19.643   0.896  -2.658  1.00  0.00     0.031 A 
ATOM     53  C   UNL     1     -15.049   0.557  -7.957  1.00  0.00     0.031 A 
ATOM     54  C   UNL     1     -20.080   0.142  -3.802  1.00  0.00     0.049 A 
ATOM     55  C   UNL     1     -16.373  -0.157  -8.006  1.00  0.00     0.074 A 
ATOM     56  C   UNL     1     -21.290  -0.498  -3.997  1.00  0.00     0.029 A 
ATOM     57  N   UNL     1     -19.323  -0.071  -4.944  1.00  0.00    -0.354 N 
ATOM     58  N   UNL     1     -17.334  -0.170  -7.114  1.00  0.00    -0.248 NA
ATOM     59  C   UNL     1     -16.657  -0.950  -9.210  1.00  0.00     0.031 C 
ATOM     60  C   UNL     1     -21.244  -1.146  -5.235  1.00  0.00     0.029 A 
ATOM     61  C   UNL     1     -20.032  -0.851  -5.840  1.00  0.00     0.049 A 
ATOM     62  H   UNL     1     -18.415   0.280  -5.095  1.00  0.00     0.167 HD
ATOM     63  C   UNL     1     -18.353  -0.940  -7.665  1.00  0.00     0.074 A 
ATOM     64  C   UNL     1     -17.892  -1.370  -8.969  1.00  0.00     0.031 C 
ATOM     65  C   UNL     1     -19.563  -1.255  -7.142  1.00  0.00     0.031 A 
BRANCH  52  66
ATOM     66  C   UNL     1     -20.552   0.981  -1.460  1.00  0.00    -0.014 A 
ATOM     67  C   UNL     1     -21.161   2.195  -1.092  1.00  0.00     0.010 A 
ATOM     68  C   UNL     1     -20.831  -0.177  -0.712  1.00  0.00     0.010 A 
ATOM     69  C   UNL     1     -21.994   2.258   0.028  1.00  0.00     0.020 A 
ATOM     70  C   UNL     1     -21.690  -0.125   0.389  1.00  0.00     0.020 A 
ATOM     71  C   UNL     1     -22.252   1.097   0.762  1.00  0.00     0.054 A 
BRANCH  71  72
ATOM     72  S   UNL     1     -23.357   1.206   2.196  1.00  0.00     0.124 S 
ATOM     73  O   UNL     1     -22.529   1.931   3.158  1.00  0.00    -0.237 OA
ATOM     74  O   UNL     1     -24.497   1.949   1.666  1.00  0.00    -0.237 OA
ATOM     75  O   UNL     1     -23.627  -0.189   2.534  1.00  0.00    -0.744 OA
ENDBRANCH  71  72
ENDBRANCH  52  66
BRANCH  53  76
ATOM     76  C   UNL     1     -14.075   0.445  -9.078  1.00  0.00    -0.014 A 
ATOM     77  C   UNL     1     -14.349   1.036 -10.324  1.00  0.00     0.010 A 
ATOM     78  C   UNL     1     -12.859  -0.243  -8.903  1.00  0.00     0.010 A 
ATOM     79  C   UNL     1     -13.438   0.926 -11.378  1.00  0.00     0.020 A 
ATOM     80  C   UNL     1     -11.932  -0.329  -9.945  1.00  0.00     0.020 A 
ATOM     81  C   UNL     1     -12.233   0.246 -11.181  1.00  0.00     0.054 A 
BRANCH  81  82
ATOM     82  S   UNL     1     -11.045   0.159 -12.550  1.00  0.00     0.124 S 
ATOM     83  O   UNL     1     -11.699  -0.776 -13.460  1.00  0.00    -0.237 OA
ATOM     84  O   UNL     1     -10.986   1.547 -13.003  1.00  0.00    -0.237 OA
ATOM     85  O   UNL     1      -9.825  -0.333 -11.914  1.00  0.00    -0.744 OA
ENDBRANCH  81  82
ENDBRANCH  53  76
BRANCH  65  86
ATOM     86  C   UNL     1     -20.509  -2.057  -7.995  1.00  0.00    -0.014 A 
ATOM     87  C   UNL     1     -20.301  -3.426  -8.237  1.00  0.00     0.010 A 
ATOM     88  C   UNL     1     -21.676  -1.442  -8.486  1.00  0.00     0.010 A 
ATOM     89  C   UNL     1     -21.237  -4.161  -8.969  1.00  0.00     0.020 A 
ATOM     90  C   UNL     1     -22.628  -2.180  -9.191  1.00  0.00     0.020 A 
ATOM     91  C   UNL     1     -22.398  -3.535  -9.436  1.00  0.00     0.054 A 
BRANCH  91  92
ATOM     92  S   UNL     1     -23.632  -4.530 -10.317  1.00  0.00     0.124 S 
ATOM     93  O   UNL     1     -22.969  -4.773 -11.596  1.00  0.00    -0.237 OA
ATOM     94  O   UNL     1     -23.778  -5.698  -9.452  1.00  0.00    -0.237 OA
ATOM     95  O   UNL     1     -24.802  -3.657 -10.379  1.00  0.00    -0.744 OA
ENDBRANCH  91  92
ENDBRANCH  65  86
ENDBRANCH  39  40
ENDBRANCH  31  34
ENDBRANCH  29  30
ENDBRANCH   1  29
TORSDOF 16
