REMARK SMILES Cc1oc2c(C)c3oc(=O)c(CCC(=O)N[C@H](Cc4ccc(Cl)cc4)C(=O)NCCCNC(=O)c4ccc(-c5c6nc(c(-c7ccc(S(=O)(=O)[O-])cc7)c7ccc([nH]7)c(-c7ccc(S(=O)(=O)[O-])cc7)c7nc(c(-c8ccc(S(=O)(=O)[O-])cc8)c8ccc5[nH]8)C=C7)C=C6)cc4)c(C)c3cc2c1C
REMARK SMILES IDX 29 1 28 2 26 3 27 4 17 6 16 7 14 8 15 9 13 11 12 12 11 13
REMARK SMILES IDX 1 14 2 15 3 16 100 17 4 18 99 19 101 20 5 21 98 22 6 23 7 24
REMARK SMILES IDX 97 25 8 26 95 27 9 28 96 29 10 30 18 31 19 32 20 33 25 34
REMARK SMILES IDX 21 35 24 36 22 37 23 38 30 39 31 40 32 41 33 42 34 44 35 45
REMARK SMILES IDX 36 46 94 47 37 48 93 49 38 50 39 51 40 52 87 53 41 54 92 55
REMARK SMILES IDX 86 56 88 57 42 58 91 59 85 60 84 61 43 63 73 64 54 65 72 66
REMARK SMILES IDX 55 67 58 68 71 69 89 70 56 71 57 72 70 74 90 75 59 76 44 77
REMARK SMILES IDX 45 78 53 79 46 80 52 81 47 82 48 83 49 84 50 85 51 86 74 87
REMARK SMILES IDX 75 88 83 89 76 90 82 91 77 92 78 93 79 94 80 95 81 96 60 97
REMARK SMILES IDX 61 98 69 99 62 100 68 101 63 102 64 103 65 104 66 105 67 106
REMARK H PARENT 28 5 16 10 32 43 88 62 58 73
REMARK Flexibility Score: inf
ROOT
ATOM      1  C   UNL     1      -0.994   3.808  -0.548  1.00  0.00     0.117 C 
ENDROOT
BRANCH   1   2
ATOM      2  N   UNL     1      -1.233   3.084  -1.792  1.00  0.00    -0.354 N 
ATOM      3  C   UNL     1      -0.886   3.174  -3.090  1.00  0.00     0.242 C 
ATOM      4  O   UNL     1      -0.845   2.030  -3.591  1.00  0.00    -0.273 OA
ATOM      5  H   UNL     1      -1.817   2.307  -1.638  1.00  0.00     0.163 HD
BRANCH   3   6
ATOM      6  C   UNL     1      -0.571   4.370  -4.074  1.00  0.00     0.175 C 
BRANCH   6   7
ATOM      7  N   UNL     1       0.646   3.982  -4.848  1.00  0.00    -0.344 N 
ATOM      8  C   UNL     1       0.718   3.531  -6.146  1.00  0.00     0.220 C 
ATOM      9  O   UNL     1       1.508   2.615  -6.391  1.00  0.00    -0.275 OA
ATOM     10  H   UNL     1       1.503   4.058  -4.370  1.00  0.00     0.164 HD
BRANCH   8  11
ATOM     11  C   UNL     1      -0.009   4.240  -7.293  1.00  0.00     0.105 C 
BRANCH  11  12
ATOM     12  C   UNL     1      -1.139   3.475  -8.013  1.00  0.00     0.053 C 
BRANCH  12  13
ATOM     13  C   UNL     1      -2.483   3.745  -7.372  1.00  0.00     0.042 A 
ATOM     14  C   UNL     1      -6.577   5.197  -0.288  1.00  0.00     0.088 C 
ATOM     15  C   UNL     1      -6.019   4.710  -1.569  1.00  0.00     0.105 A 
ATOM     16  O   UNL     1      -6.207   5.526  -2.648  1.00  0.00    -0.461 OA
ATOM     17  C   UNL     1      -5.299   3.587  -1.937  1.00  0.00    -0.002 A 
ATOM     18  C   UNL     1      -5.569   4.958  -3.710  1.00  0.00     0.141 A 
ATOM     19  C   UNL     1      -4.961   3.784  -3.303  1.00  0.00     0.025 A 
ATOM     20  C   UNL     1      -4.894   2.408  -1.134  1.00  0.00     0.049 C 
ATOM     21  C   UNL     1      -5.492   5.481  -5.005  1.00  0.00     0.036 A 
ATOM     22  C   UNL     1      -4.175   3.069  -4.216  1.00  0.00     0.024 A 
ATOM     23  C   UNL     1      -6.213   6.732  -5.395  1.00  0.00     0.052 C 
ATOM     24  C   UNL     1      -4.628   4.758  -5.863  1.00  0.00     0.145 A 
ATOM     25  C   UNL     1      -3.990   3.561  -5.511  1.00  0.00     0.022 A 
ATOM     26  O   UNL     1      -4.342   5.334  -7.122  1.00  0.00    -0.422 OA
ATOM     27  C   UNL     1      -2.997   2.954  -6.412  1.00  0.00    -0.030 A 
ATOM     28  C   UNL     1      -3.241   4.930  -7.863  1.00  0.00     0.339 A 
ATOM     29  C   UNL     1      -2.423   1.589  -6.131  1.00  0.00     0.046 C 
ATOM     30  O   UNL     1      -2.925   5.508  -8.898  1.00  0.00    -0.246 OA
ENDBRANCH  12  13
ENDBRANCH  11  12
ENDBRANCH   8  11
ENDBRANCH   6   7
BRANCH   6  31
ATOM     31  C   UNL     1      -0.697   5.887  -3.870  1.00  0.00     0.070 C 
BRANCH  31  32
ATOM     32  C   UNL     1      -0.461   6.536  -2.540  1.00  0.00    -0.045 A 
ATOM     33  C   UNL     1      -1.521   7.207  -1.905  1.00  0.00     0.005 A 
ATOM     34  C   UNL     1       0.802   6.542  -1.939  1.00  0.00     0.005 A 
ATOM     35  C   UNL     1      -1.351   7.779  -0.642  1.00  0.00     0.021 A 
ATOM     36  C   UNL     1       0.968   7.093  -0.663  1.00  0.00     0.021 A 
ATOM     37  C   UNL     1      -0.115   7.679  -0.008  1.00  0.00     0.041 A 
ATOM     38  Cl  UNL     1       0.044   8.179   1.630  1.00  0.00    -0.084 Cl
ENDBRANCH  31  32
ENDBRANCH   6  31
ENDBRANCH   3   6
ENDBRANCH   1   2
BRANCH   1  39
ATOM     39  C   UNL     1      -2.171   4.643  -0.054  1.00  0.00     0.042 C 
BRANCH  39  40
ATOM     40  C   UNL     1      -3.088   4.262   1.120  1.00  0.00     0.118 C 
BRANCH  40  41
ATOM     41  N   UNL     1      -2.997   2.946   1.690  1.00  0.00    -0.352 N 
ATOM     42  C   UNL     1      -3.437   2.597   2.954  1.00  0.00     0.251 C 
ATOM     43  H   UNL     1      -2.590   2.239   1.139  1.00  0.00     0.163 HD
ATOM     44  O   UNL     1      -3.046   1.569   3.482  1.00  0.00    -0.269 OA
BRANCH  42  45
ATOM     45  C   UNL     1      -4.421   3.463   3.651  1.00  0.00     0.039 A 
ATOM     46  C   UNL     1      -4.067   4.107   4.838  1.00  0.00     0.014 A 
ATOM     47  C   UNL     1      -5.742   3.514   3.186  1.00  0.00     0.014 A 
ATOM     48  C   UNL     1      -5.040   4.807   5.556  1.00  0.00     0.010 A 
ATOM     49  C   UNL     1      -6.712   4.222   3.902  1.00  0.00     0.010 A 
ATOM     50  C   UNL     1      -6.367   4.864   5.096  1.00  0.00    -0.014 A 
BRANCH  50  51
ATOM     51  C   UNL     1      -7.341   5.582   5.947  1.00  0.00     0.031 A 
ATOM     52  C   UNL     1      -8.113   6.676   5.248  1.00  0.00     0.074 A 
ATOM     53  C   UNL     1      -7.984   4.857   6.890  1.00  0.00     0.049 A 
ATOM     54  N   UNL     1      -9.158   6.511   4.489  1.00  0.00    -0.248 NA
ATOM     55  C   UNL     1      -7.584   8.044   5.209  1.00  0.00     0.031 C 
ATOM     56  C   UNL     1      -8.594   3.539   6.685  1.00  0.00     0.029 A 
ATOM     57  N   UNL     1      -8.321   5.189   8.184  1.00  0.00    -0.354 N 
ATOM     58  C   UNL     1      -9.443   7.739   3.891  1.00  0.00     0.074 A 
ATOM     59  C   UNL     1      -8.418   8.649   4.348  1.00  0.00     0.031 C 
ATOM     60  C   UNL     1      -9.364   3.242   7.750  1.00  0.00     0.029 A 
ATOM     61  C   UNL     1      -9.248   4.308   8.743  1.00  0.00     0.049 A 
ATOM     62  H   UNL     1      -7.949   5.965   8.663  1.00  0.00     0.167 HD
ATOM     63  C   UNL     1     -10.524   7.954   3.089  1.00  0.00     0.031 A 
ATOM     64  C   UNL     1     -10.237   4.696   9.600  1.00  0.00     0.031 A 
ATOM     65  C   UNL     1     -11.400   6.827   2.979  1.00  0.00     0.049 A 
ATOM     66  C   UNL     1     -11.258   5.213   8.611  1.00  0.00     0.074 A 
ATOM     67  C   UNL     1     -11.650   5.809   2.088  1.00  0.00     0.029 A 
ATOM     68  N   UNL     1     -12.245   6.589   4.035  1.00  0.00    -0.354 N 
ATOM     69  N   UNL     1     -12.034   4.477   7.858  1.00  0.00    -0.248 NA
ATOM     70  C   UNL     1     -11.100   6.594   8.143  1.00  0.00     0.031 C 
ATOM     71  C   UNL     1     -12.285   4.785   2.858  1.00  0.00     0.029 A 
ATOM     72  C   UNL     1     -12.360   5.233   4.178  1.00  0.00     0.049 A 
ATOM     73  H   UNL     1     -12.689   7.271   4.590  1.00  0.00     0.167 HD
ATOM     74  C   UNL     1     -12.162   5.179   6.657  1.00  0.00     0.074 A 
ATOM     75  C   UNL     1     -11.599   6.493   6.916  1.00  0.00     0.031 C 
ATOM     76  C   UNL     1     -12.515   4.597   5.471  1.00  0.00     0.031 A 
BRANCH  63  77
ATOM     77  C   UNL     1     -10.966   9.252   2.505  1.00  0.00    -0.014 A 
ATOM     78  C   UNL     1     -12.082   9.886   3.087  1.00  0.00     0.010 A 
ATOM     79  C   UNL     1     -10.495   9.723   1.268  1.00  0.00     0.010 A 
ATOM     80  C   UNL     1     -12.755  10.917   2.428  1.00  0.00     0.020 A 
ATOM     81  C   UNL     1     -11.161  10.771   0.607  1.00  0.00     0.020 A 
ATOM     82  C   UNL     1     -12.302  11.342   1.180  1.00  0.00     0.054 A 
BRANCH  82  83
ATOM     83  S   UNL     1     -13.275  12.603   0.306  1.00  0.00     0.124 S 
ATOM     84  O   UNL     1     -14.562  11.936   0.127  1.00  0.00    -0.237 OA
ATOM     85  O   UNL     1     -13.270  13.712   1.257  1.00  0.00    -0.237 OA
ATOM     86  O   UNL     1     -12.519  12.835  -0.922  1.00  0.00    -0.744 OA
ENDBRANCH  82  83
ENDBRANCH  63  77
BRANCH  64  87
ATOM     87  C   UNL     1      -9.760   5.446  10.806  1.00  0.00    -0.014 A 
ATOM     88  C   UNL     1      -8.722   4.848  11.557  1.00  0.00     0.010 A 
ATOM     89  C   UNL     1     -10.204   6.715  11.209  1.00  0.00     0.010 A 
ATOM     90  C   UNL     1      -8.023   5.561  12.532  1.00  0.00     0.020 A 
ATOM     91  C   UNL     1      -9.497   7.446  12.177  1.00  0.00     0.020 A 
ATOM     92  C   UNL     1      -8.379   6.881  12.792  1.00  0.00     0.054 A 
BRANCH  92  93
ATOM     93  S   UNL     1      -7.294   7.864  13.861  1.00  0.00     0.124 S 
ATOM     94  O   UNL     1      -7.292   7.095  15.102  1.00  0.00    -0.237 OA
ATOM     95  O   UNL     1      -6.042   7.851  13.107  1.00  0.00    -0.237 OA
ATOM     96  O   UNL     1      -7.962   9.161  13.930  1.00  0.00    -0.744 OA
ENDBRANCH  92  93
ENDBRANCH  64  87
BRANCH  76  97
ATOM     97  C   UNL     1     -12.867   3.140   5.513  1.00  0.00    -0.014 A 
ATOM     98  C   UNL     1     -14.023   2.708   6.175  1.00  0.00     0.010 A 
ATOM     99  C   UNL     1     -12.088   2.197   4.811  1.00  0.00     0.010 A 
ATOM    100  C   UNL     1     -14.426   1.373   6.093  1.00  0.00     0.020 A 
ATOM    101  C   UNL     1     -12.496   0.866   4.707  1.00  0.00     0.020 A 
ATOM    102  C   UNL     1     -13.673   0.466   5.340  1.00  0.00     0.054 A 
BRANCH 102 103
ATOM    103  S   UNL     1     -14.294  -1.226   5.151  1.00  0.00     0.124 S 
ATOM    104  O   UNL     1     -14.236  -1.737   6.518  1.00  0.00    -0.237 OA
ATOM    105  O   UNL     1     -15.638  -1.010   4.618  1.00  0.00    -0.237 OA
ATOM    106  O   UNL     1     -13.354  -1.842   4.217  1.00  0.00    -0.744 OA
ENDBRANCH 102 103
ENDBRANCH  76  97
ENDBRANCH  50  51
ENDBRANCH  42  45
ENDBRANCH  40  41
ENDBRANCH  39  40
ENDBRANCH   1  39
TORSDOF 19
