REMARK SMILES C[C@H](Nc1ccc(F)cc1Br)[C@@H](C)C(=O)NCCCNC(=O)c1ccc(-c2c3nc(c(-c4ccc(S(=O)(=O)[O-])cc4)c4ccc([nH]4)c(-c4ccc(S(=O)(=O)[O-])cc4)c4nc(c(-c5ccc(S(=O)(=O)[O-])cc5)c5ccc2[nH]5)C=C4)C=C3)cc1
REMARK SMILES IDX 18 1 17 2 16 3 14 4 15 5 12 7 13 8 2 9 1 10 3 11 4 13 5 14
REMARK SMILES IDX 10 15 6 16 9 17 11 18 7 19 8 20 19 21 20 22 21 23 22 25
REMARK SMILES IDX 23 26 24 27 82 28 25 29 81 30 26 31 27 32 28 33 75 34 29 35
REMARK SMILES IDX 80 36 74 37 76 38 30 39 79 40 73 41 72 42 31 44 61 45 42 46
REMARK SMILES IDX 60 47 43 48 46 49 59 50 77 51 44 52 45 53 58 55 78 56 47 57
REMARK SMILES IDX 32 58 33 59 41 60 34 61 40 62 35 63 36 64 37 65 38 66 39 67
REMARK SMILES IDX 62 68 63 69 71 70 64 71 70 72 65 73 66 74 67 75 68 76 69 77
REMARK SMILES IDX 48 78 49 79 57 80 50 81 56 82 51 83 52 84 53 85 54 86 55 87
REMARK H PARENT 16 6 3 12 20 24 76 43 46 54
REMARK Flexibility Score: inf
ROOT
ATOM      1  C   UNL     1       0.738   1.321  -4.657  1.00  0.00     0.042 C 
ENDROOT
BRANCH   1   2
ATOM      2  C   UNL     1      -0.538   1.516  -3.847  1.00  0.00     0.117 C 
BRANCH   2   3
ATOM      3  N   UNL     1      -1.342   0.307  -3.773  1.00  0.00    -0.356 N 
ATOM      4  C   UNL     1      -1.590  -0.561  -2.756  1.00  0.00     0.224 C 
ATOM      5  O   UNL     1      -2.336  -1.514  -2.999  1.00  0.00    -0.275 OA
ATOM      6  H   UNL     1      -1.791   0.072  -4.617  1.00  0.00     0.163 HD
BRANCH   4   7
ATOM      7  C   UNL     1      -1.005  -0.381  -1.357  1.00  0.00     0.097 C 
ATOM      8  C   UNL     1      -1.641   0.854  -0.714  1.00  0.00     0.020 C 
BRANCH   7   9
ATOM      9  C   UNL     1       0.543  -0.445  -1.342  1.00  0.00     0.088 C 
ATOM     10  C   UNL     1       1.044  -1.702  -2.061  1.00  0.00     0.031 C 
BRANCH   9  11
ATOM     11  N   UNL     1       1.075  -0.256   0.025  1.00  0.00    -0.381 N 
ATOM     12  H   UNL     1       1.215   0.679   0.300  1.00  0.00     0.160 HD
BRANCH  11  13
ATOM     13  C   UNL     1       1.404  -1.213   0.972  1.00  0.00     0.049 A 
ATOM     14  C   UNL     1       2.275  -2.273   0.687  1.00  0.00     0.030 A 
ATOM     15  C   UNL     1       0.879  -1.163   2.284  1.00  0.00     0.044 A 
ATOM     16  C   UNL     1       2.568  -3.265   1.628  1.00  0.00     0.041 A 
ATOM     17  C   UNL     1       1.156  -2.156   3.229  1.00  0.00     0.057 A 
ATOM     18  Br  UNL     1      -0.206   0.285   2.873  1.00  0.00    -0.048 Br
ATOM     19  C   UNL     1       1.992  -3.204   2.885  1.00  0.00     0.124 A 
ATOM     20  F   UNL     1       2.264  -4.156   3.786  1.00  0.00    -0.207 F 
ENDBRANCH  11  13
ENDBRANCH   9  11
ENDBRANCH   7   9
ENDBRANCH   4   7
ENDBRANCH   2   3
ENDBRANCH   1   2
BRANCH   1  21
ATOM     21  C   UNL     1       0.497   1.060  -6.138  1.00  0.00     0.118 C 
BRANCH  21  22
ATOM     22  N   UNL     1      -0.156   2.182  -6.800  1.00  0.00    -0.352 N 
ATOM     23  C   UNL     1       0.305   3.023  -7.780  1.00  0.00     0.251 C 
ATOM     24  H   UNL     1      -1.074   2.364  -6.496  1.00  0.00     0.163 HD
ATOM     25  O   UNL     1      -0.331   4.046  -8.040  1.00  0.00    -0.269 OA
BRANCH  23  26
ATOM     26  C   UNL     1       1.556   2.725  -8.509  1.00  0.00     0.039 A 
ATOM     27  C   UNL     1       2.430   3.772  -8.813  1.00  0.00     0.014 A 
ATOM     28  C   UNL     1       1.859   1.425  -8.920  1.00  0.00     0.014 A 
ATOM     29  C   UNL     1       3.637   3.504  -9.464  1.00  0.00     0.010 A 
ATOM     30  C   UNL     1       3.099   1.146  -9.490  1.00  0.00     0.010 A 
ATOM     31  C   UNL     1       4.000   2.183  -9.772  1.00  0.00    -0.014 A 
BRANCH  31  32
ATOM     32  C   UNL     1       5.317   1.863 -10.382  1.00  0.00     0.031 A 
ATOM     33  C   UNL     1       5.387   1.217 -11.741  1.00  0.00     0.074 A 
ATOM     34  C   UNL     1       6.447   2.091  -9.682  1.00  0.00     0.049 A 
ATOM     35  N   UNL     1       6.437   0.796 -12.399  1.00  0.00    -0.248 NA
ATOM     36  C   UNL     1       4.111   0.989 -12.441  1.00  0.00     0.031 C 
ATOM     37  C   UNL     1       6.510   2.671  -8.338  1.00  0.00     0.029 A 
ATOM     38  N   UNL     1       7.761   1.851  -9.998  1.00  0.00    -0.354 N 
ATOM     39  C   UNL     1       5.949   0.238 -13.575  1.00  0.00     0.074 A 
ATOM     40  C   UNL     1       4.507   0.332 -13.523  1.00  0.00     0.031 C 
ATOM     41  C   UNL     1       7.794   2.761  -7.956  1.00  0.00     0.029 A 
ATOM     42  C   UNL     1       8.644   2.205  -9.004  1.00  0.00     0.049 A 
ATOM     43  H   UNL     1       8.046   1.462 -10.857  1.00  0.00     0.167 HD
ATOM     44  C   UNL     1       6.641  -0.290 -14.613  1.00  0.00     0.031 A 
ATOM     45  C   UNL     1       9.984   2.083  -8.934  1.00  0.00     0.031 A 
ATOM     46  C   UNL     1       8.076  -0.362 -14.671  1.00  0.00     0.049 A 
ATOM     47  C   UNL     1      10.726   1.488 -10.100  1.00  0.00     0.074 A 
ATOM     48  C   UNL     1       8.871  -0.817 -15.710  1.00  0.00     0.029 A 
ATOM     49  N   UNL     1       8.933   0.026 -13.653  1.00  0.00    -0.354 N 
ATOM     50  N   UNL     1      10.249   1.036 -11.236  1.00  0.00    -0.248 NA
ATOM     51  C   UNL     1      12.188   1.396  -9.980  1.00  0.00     0.031 C 
ATOM     52  C   UNL     1      10.205  -0.759 -15.296  1.00  0.00     0.029 A 
ATOM     53  C   UNL     1      10.245  -0.206 -14.027  1.00  0.00     0.049 A 
ATOM     54  H   UNL     1       8.649   0.409 -12.791  1.00  0.00     0.167 HD
ATOM     55  C   UNL     1      11.356   0.634 -11.976  1.00  0.00     0.074 A 
ATOM     56  C   UNL     1      12.524   0.913 -11.169  1.00  0.00     0.031 C 
ATOM     57  C   UNL     1      11.400   0.083 -13.214  1.00  0.00     0.031 A 
BRANCH  44  58
ATOM     58  C   UNL     1       5.858  -0.836 -15.779  1.00  0.00    -0.014 A 
ATOM     59  C   UNL     1       5.173   0.020 -16.660  1.00  0.00     0.010 A 
ATOM     60  C   UNL     1       5.873  -2.218 -16.042  1.00  0.00     0.010 A 
ATOM     61  C   UNL     1       4.498  -0.498 -17.768  1.00  0.00     0.020 A 
ATOM     62  C   UNL     1       5.223  -2.738 -17.165  1.00  0.00     0.020 A 
ATOM     63  C   UNL     1       4.530  -1.874 -18.016  1.00  0.00     0.054 A 
BRANCH  63  64
ATOM     64  S   UNL     1       3.691  -2.510 -19.493  1.00  0.00     0.124 S 
ATOM     65  O   UNL     1       2.284  -2.350 -19.132  1.00  0.00    -0.237 OA
ATOM     66  O   UNL     1       4.174  -1.618 -20.544  1.00  0.00    -0.237 OA
ATOM     67  O   UNL     1       4.155  -3.892 -19.590  1.00  0.00    -0.744 OA
ENDBRANCH  63  64
ENDBRANCH  44  58
BRANCH  45  68
ATOM     68  C   UNL     1      10.715   2.526  -7.713  1.00  0.00    -0.014 A 
ATOM     69  C   UNL     1      11.579   3.634  -7.756  1.00  0.00     0.010 A 
ATOM     70  C   UNL     1      10.560   1.827  -6.501  1.00  0.00     0.010 A 
ATOM     71  C   UNL     1      12.300   4.015  -6.620  1.00  0.00     0.020 A 
ATOM     72  C   UNL     1      11.255   2.225  -5.356  1.00  0.00     0.020 A 
ATOM     73  C   UNL     1      12.135   3.306  -5.428  1.00  0.00     0.054 A 
BRANCH  73  74
ATOM     74  S   UNL     1      13.063   3.831  -3.960  1.00  0.00     0.124 S 
ATOM     75  O   UNL     1      14.415   3.385  -4.281  1.00  0.00    -0.237 OA
ATOM     76  O   UNL     1      12.856   5.277  -3.956  1.00  0.00    -0.237 OA
ATOM     77  O   UNL     1      12.409   3.113  -2.868  1.00  0.00    -0.744 OA
ENDBRANCH  73  74
ENDBRANCH  45  68
BRANCH  57  78
ATOM     78  C   UNL     1      12.756  -0.219 -13.793  1.00  0.00    -0.014 A 
ATOM     79  C   UNL     1      13.543  -1.276 -13.301  1.00  0.00     0.010 A 
ATOM     80  C   UNL     1      13.223   0.531 -14.889  1.00  0.00     0.010 A 
ATOM     81  C   UNL     1      14.786  -1.556 -13.873  1.00  0.00     0.020 A 
ATOM     82  C   UNL     1      14.451   0.234 -15.483  1.00  0.00     0.020 A 
ATOM     83  C   UNL     1      15.232  -0.800 -14.962  1.00  0.00     0.054 A 
BRANCH  83  84
ATOM     84  S   UNL     1      16.828  -1.214 -15.717  1.00  0.00     0.124 S 
ATOM     85  O   UNL     1      17.773  -0.733 -14.713  1.00  0.00    -0.237 OA
ATOM     86  O   UNL     1      16.747  -2.666 -15.859  1.00  0.00    -0.237 OA
ATOM     87  O   UNL     1      16.822  -0.469 -16.974  1.00  0.00    -0.744 OA
ENDBRANCH  83  84
ENDBRANCH  57  78
ENDBRANCH  31  32
ENDBRANCH  23  26
ENDBRANCH  21  22
ENDBRANCH   1  21
TORSDOF 16
