REMARK SMILES O=C(CSc1nc(O)cc(=O)[nH]1)Nc1cccc(C(=O)NCCCNC(=O)c2ccc(-c3c4nc(c(-c5ccc(S(=O)(=O)[O-])cc5)c5ccc([nH]5)c(-c5ccc(S(=O)(=O)[O-])cc5)c5nc(c(-c6ccc(S(=O)(=O)[O-])cc6)c6ccc3[nH]6)C=C5)C=C4)cc2)c1
REMARK SMILES IDX 22 1 21 2 19 3 20 4 18 6 14 7 15 8 88 9 16 10 17 11 13 12
REMARK SMILES IDX 1 13 2 14 3 16 4 17 5 18 6 19 12 20 7 21 10 22 9 24 11 25
REMARK SMILES IDX 8 26 23 28 24 29 25 30 26 31 27 33 28 34 29 35 87 36 30 37
REMARK SMILES IDX 86 38 31 39 32 40 33 41 80 42 34 43 85 44 79 45 81 46 35 47
REMARK SMILES IDX 84 48 78 49 77 50 36 52 66 53 47 54 65 55 48 56 51 57 64 58
REMARK SMILES IDX 82 59 49 60 50 61 63 63 83 64 52 65 37 66 38 67 46 68 39 69
REMARK SMILES IDX 45 70 40 71 41 72 42 73 43 74 44 75 67 76 68 77 76 78 69 79
REMARK SMILES IDX 75 80 70 81 71 82 72 83 73 84 74 85 53 86 54 87 62 88 55 89
REMARK SMILES IDX 61 90 56 91 57 92 58 93 59 94 60 95
REMARK H PARENT 21 5 13 15 12 23 8 27 25 32 81 51 51 62
REMARK Flexibility Score: inf
ROOT
ATOM      1  C   UNL     1      -0.395   0.020   3.162  1.00  0.00     0.118 C 
ENDROOT
BRANCH   1   2
ATOM      2  N   UNL     1      -0.802   1.272   3.793  1.00  0.00    -0.352 N 
ATOM      3  C   UNL     1      -0.363   2.573   3.664  1.00  0.00     0.251 C 
ATOM      4  O   UNL     1      -0.908   3.441   4.347  1.00  0.00    -0.269 OA
ATOM      5  H   UNL     1      -1.536   1.167   4.440  1.00  0.00     0.163 HD
BRANCH   3   6
ATOM      6  C   UNL     1       0.787   2.958   2.800  1.00  0.00     0.041 A 
ATOM      7  C   UNL     1       2.365   2.430   1.039  1.00  0.00     0.041 A 
ATOM      8  C   UNL     1       3.180   3.484   1.459  1.00  0.00     0.026 A 
ATOM      9  C   UNL     1       1.114   2.272   1.632  1.00  0.00     0.040 A 
ATOM     10  C   UNL     1       2.771   4.315   2.506  1.00  0.00     0.003 A 
ATOM     11  C   UNL     1       1.596   4.027   3.202  1.00  0.00     0.014 A 
BRANCH   7  12
ATOM     12  N   UNL     1       2.902   1.486   0.135  1.00  0.00    -0.325 N 
ATOM     13  O   UNL     1       1.062   0.124  -0.303  1.00  0.00    -0.274 OA
ATOM     14  C   UNL     1       2.271   0.347  -0.340  1.00  0.00     0.234 C 
ATOM     15  H   UNL     1       3.816   1.653  -0.189  1.00  0.00     0.169 HD
BRANCH  14  16
ATOM     16  C   UNL     1       3.212  -0.731  -0.848  1.00  0.00     0.178 C 
BRANCH  16  17
ATOM     17  S   UNL     1       4.389  -0.148  -2.087  1.00  0.00    -0.078 SA
BRANCH  17  18
ATOM     18  C   UNL     1       3.323   0.734  -3.129  1.00  0.00     0.172 A 
ATOM     19  N   UNL     1       3.392   2.022  -3.169  1.00  0.00    -0.189 NA
ATOM     20  N   UNL     1       2.479  -0.026  -3.871  1.00  0.00    -0.301 N 
ATOM     21  C   UNL     1       2.540   2.635  -4.039  1.00  0.00     0.218 A 
ATOM     22  C   UNL     1       1.613   0.542  -4.756  1.00  0.00     0.255 A 
ATOM     23  H   UNL     1       2.493  -1.005  -3.768  1.00  0.00     0.172 HD
ATOM     24  C   UNL     1       1.664   2.008  -4.826  1.00  0.00     0.139 A 
ATOM     25  O   UNL     1       0.856  -0.108  -5.463  1.00  0.00    -0.269 OA
BRANCH  21  26
ATOM     26  O   UNL     1       2.638   3.999  -4.085  1.00  0.00    -0.493 OA
ATOM     27  H   UNL     1       3.252   4.444  -3.534  1.00  0.00     0.295 HD
ENDBRANCH  21  26
ENDBRANCH  17  18
ENDBRANCH  16  17
ENDBRANCH  14  16
ENDBRANCH   7  12
ENDBRANCH   3   6
ENDBRANCH   1   2
BRANCH   1  28
ATOM     28  C   UNL     1       0.045  -1.063   4.133  1.00  0.00     0.042 C 
BRANCH  28  29
ATOM     29  C   UNL     1      -1.055  -1.632   5.013  1.00  0.00     0.118 C 
BRANCH  29  30
ATOM     30  N   UNL     1      -2.134  -2.246   4.251  1.00  0.00    -0.352 N 
ATOM     31  C   UNL     1      -2.533  -3.554   4.120  1.00  0.00     0.251 C 
ATOM     32  H   UNL     1      -2.676  -1.607   3.735  1.00  0.00     0.163 HD
ATOM     33  O   UNL     1      -3.366  -3.830   3.259  1.00  0.00    -0.269 OA
BRANCH  31  34
ATOM     34  C   UNL     1      -1.977  -4.632   4.972  1.00  0.00     0.039 A 
ATOM     35  C   UNL     1      -1.832  -5.910   4.420  1.00  0.00     0.014 A 
ATOM     36  C   UNL     1      -1.645  -4.426   6.312  1.00  0.00     0.014 A 
ATOM     37  C   UNL     1      -1.303  -6.949   5.191  1.00  0.00     0.010 A 
ATOM     38  C   UNL     1      -1.015  -5.431   7.044  1.00  0.00     0.010 A 
ATOM     39  C   UNL     1      -0.849  -6.709   6.499  1.00  0.00    -0.014 A 
BRANCH  39  40
ATOM     40  C   UNL     1      -0.199  -7.790   7.287  1.00  0.00     0.031 A 
ATOM     41  C   UNL     1      -0.799  -8.272   8.582  1.00  0.00     0.074 A 
ATOM     42  C   UNL     1       0.955  -8.325   6.839  1.00  0.00     0.049 A 
ATOM     43  N   UNL     1      -0.394  -9.240   9.367  1.00  0.00    -0.248 NA
ATOM     44  C   UNL     1      -1.991  -7.565   9.078  1.00  0.00     0.031 C 
ATOM     45  C   UNL     1       1.674  -7.898   5.634  1.00  0.00     0.029 A 
ATOM     46  N   UNL     1       1.722  -9.351   7.333  1.00  0.00    -0.354 N 
ATOM     47  C   UNL     1      -1.272  -9.250  10.445  1.00  0.00     0.074 A 
ATOM     48  C   UNL     1      -2.193  -8.154  10.247  1.00  0.00     0.031 C 
ATOM     49  C   UNL     1       2.740  -8.692   5.452  1.00  0.00     0.029 A 
ATOM     50  C   UNL     1       2.808  -9.655   6.545  1.00  0.00     0.049 A 
ATOM     51  H   UNL     1       1.514  -9.823   8.171  1.00  0.00     0.167 HD
ATOM     52  C   UNL     1      -1.325 -10.109  11.492  1.00  0.00     0.031 A 
ATOM     53  C   UNL     1       3.748 -10.610   6.679  1.00  0.00     0.031 A 
ATOM     54  C   UNL     1      -0.407 -11.202  11.683  1.00  0.00     0.049 A 
ATOM     55  C   UNL     1       3.660 -11.559   7.841  1.00  0.00     0.074 A 
ATOM     56  C   UNL     1      -0.409 -12.165  12.677  1.00  0.00     0.029 A 
ATOM     57  N   UNL     1       0.679 -11.476  10.865  1.00  0.00    -0.354 N 
ATOM     58  N   UNL     1       2.771 -11.603   8.805  1.00  0.00    -0.248 NA
ATOM     59  C   UNL     1       4.693 -12.600   7.922  1.00  0.00     0.031 C 
ATOM     60  C   UNL     1       0.712 -12.983  12.495  1.00  0.00     0.029 A 
ATOM     61  C   UNL     1       1.372 -12.574  11.348  1.00  0.00     0.049 A 
ATOM     62  H   UNL     1       0.922 -10.964  10.059  1.00  0.00     0.167 HD
ATOM     63  C   UNL     1       3.127 -12.688   9.598  1.00  0.00     0.074 A 
ATOM     64  C   UNL     1       4.291 -13.290   8.979  1.00  0.00     0.031 C 
ATOM     65  C   UNL     1       2.545 -13.146  10.735  1.00  0.00     0.031 A 
BRANCH  52  66
ATOM     66  C   UNL     1      -2.414  -9.897  12.516  1.00  0.00    -0.014 A 
ATOM     67  C   UNL     1      -3.768 -10.112  12.196  1.00  0.00     0.010 A 
ATOM     68  C   UNL     1      -2.077  -9.519  13.828  1.00  0.00     0.010 A 
ATOM     69  C   UNL     1      -4.765  -9.911  13.155  1.00  0.00     0.020 A 
ATOM     70  C   UNL     1      -3.069  -9.348  14.800  1.00  0.00     0.020 A 
ATOM     71  C   UNL     1      -4.409  -9.529  14.451  1.00  0.00     0.054 A 
BRANCH  71  72
ATOM     72  S   UNL     1      -5.723  -9.302  15.681  1.00  0.00     0.124 S 
ATOM     73  O   UNL     1      -6.359  -8.071  15.219  1.00  0.00    -0.237 OA
ATOM     74  O   UNL     1      -6.518 -10.517  15.526  1.00  0.00    -0.237 OA
ATOM     75  O   UNL     1      -5.000  -9.191  16.946  1.00  0.00    -0.744 OA
ENDBRANCH  71  72
ENDBRANCH  52  66
BRANCH  53  76
ATOM     76  C   UNL     1       4.836 -10.729   5.668  1.00  0.00    -0.014 A 
ATOM     77  C   UNL     1       4.887 -11.829   4.794  1.00  0.00     0.010 A 
ATOM     78  C   UNL     1       5.820  -9.729   5.564  1.00  0.00     0.010 A 
ATOM     79  C   UNL     1       5.911 -11.937   3.848  1.00  0.00     0.020 A 
ATOM     80  C   UNL     1       6.827  -9.816   4.599  1.00  0.00     0.020 A 
ATOM     81  C   UNL     1       6.873 -10.927   3.754  1.00  0.00     0.054 A 
BRANCH  81  82
ATOM     82  S   UNL     1       8.160 -11.057   2.482  1.00  0.00     0.124 S 
ATOM     83  O   UNL     1       9.008 -12.118   3.016  1.00  0.00    -0.237 OA
ATOM     84  O   UNL     1       7.390 -11.400   1.289  1.00  0.00    -0.237 OA
ATOM     85  O   UNL     1       8.759  -9.724   2.465  1.00  0.00    -0.744 OA
ENDBRANCH  81  82
ENDBRANCH  53  76
BRANCH  65  86
ATOM     86  C   UNL     1       3.157 -14.368  11.369  1.00  0.00    -0.014 A 
ATOM     87  C   UNL     1       4.430 -14.322  11.966  1.00  0.00     0.010 A 
ATOM     88  C   UNL     1       2.446 -15.582  11.368  1.00  0.00     0.010 A 
ATOM     89  C   UNL     1       5.007 -15.481  12.491  1.00  0.00     0.020 A 
ATOM     90  C   UNL     1       3.004 -16.735  11.924  1.00  0.00     0.020 A 
ATOM     91  C   UNL     1       4.293 -16.683  12.459  1.00  0.00     0.054 A 
BRANCH  91  92
ATOM     92  S   UNL     1       5.067 -18.175  13.136  1.00  0.00     0.124 S 
ATOM     93  O   UNL     1       6.058 -18.495  12.111  1.00  0.00    -0.237 OA
ATOM     94  O   UNL     1       5.609 -17.706  14.409  1.00  0.00    -0.237 OA
ATOM     95  O   UNL     1       3.959 -19.121  13.248  1.00  0.00    -0.744 OA
ENDBRANCH  91  92
ENDBRANCH  65  86
ENDBRANCH  39  40
ENDBRANCH  31  34
ENDBRANCH  29  30
ENDBRANCH  28  29
ENDBRANCH   1  28
TORSDOF 18
