REMARK SMILES CN(C[C@H]1C[C@H](O)C1)C(=O)NCCOCC(=O)NCCCNC(=O)c1ccc(-c2c3nc(c(-c4ccc(S(=O)(=O)[O-])cc4)c4ccc([nH]4)c(-c4ccc(S(=O)(=O)[O-])cc4)c4nc(c(-c5ccc(S(=O)(=O)[O-])cc5)c5ccc2[nH]5)C=C4)C=C3)cc1
REMARK SMILES IDX 16 1 17 2 18 3 15 5 14 6 13 7 12 8 11 9 9 10 10 11 2 13 1 14
REMARK SMILES IDX 3 15 4 16 8 17 5 18 6 19 7 20 19 22 20 23 21 24 22 25 23 26
REMARK SMILES IDX 24 28 25 29 26 30 84 31 27 32 83 33 28 34 29 35 30 36 77 37
REMARK SMILES IDX 31 38 82 39 76 40 78 41 32 42 81 43 75 44 74 45 33 47 63 48
REMARK SMILES IDX 44 49 62 50 45 51 48 52 61 53 79 54 46 55 47 56 60 58 80 59
REMARK SMILES IDX 49 60 34 61 35 62 43 63 36 64 42 65 37 66 38 67 39 68 40 69
REMARK SMILES IDX 41 70 64 71 65 72 73 73 66 74 72 75 67 76 68 77 69 78 70 79
REMARK SMILES IDX 71 80 50 81 51 82 59 83 52 84 58 85 53 86 54 87 55 88 56 89
REMARK SMILES IDX 57 90
REMARK H PARENT 18 4 11 12 7 21 22 27 78 46 48 57
REMARK Flexibility Score: inf
ROOT
ATOM      1  C   UNL     1      -1.272  -2.224   5.269  1.00  0.00     0.245 C 
ATOM      2  O   UNL     1      -0.742  -2.680   4.256  1.00  0.00    -0.272 OA
ATOM      3  N   UNL     1      -2.561  -2.574   5.545  1.00  0.00    -0.354 N 
ATOM      4  H   UNL     1      -2.998  -3.152   4.878  1.00  0.00     0.163 HD
ENDROOT
BRANCH   1   5
ATOM      5  C   UNL     1      -0.518  -1.283   6.222  1.00  0.00     0.260 C 
BRANCH   5   6
ATOM      6  O   UNL     1      -0.988   0.046   6.380  1.00  0.00    -0.370 OA
BRANCH   6   7
ATOM      7  C   UNL     1      -1.214   0.753   5.159  1.00  0.00     0.182 C 
BRANCH   7   8
ATOM      8  C   UNL     1       0.053   1.353   4.522  1.00  0.00     0.146 C 
BRANCH   8   9
ATOM      9  N   UNL     1       0.839   0.395   3.760  1.00  0.00    -0.336 N 
ATOM     10  C   UNL     1       1.073   0.052   2.487  1.00  0.00     0.317 C 
ATOM     11  O   UNL     1       1.895  -0.865   2.359  1.00  0.00    -0.249 OA
ATOM     12  H   UNL     1       1.359  -0.179   4.368  1.00  0.00     0.165 HD
BRANCH  10  13
ATOM     13  N   UNL     1       0.496   0.637   1.395  1.00  0.00    -0.328 N 
ATOM     14  C   UNL     1       0.889   0.047   0.115  1.00  0.00     0.148 C 
BRANCH  13  15
ATOM     15  C   UNL     1      -0.457   1.743   1.306  1.00  0.00     0.124 C 
BRANCH  15  16
ATOM     16  C   UNL     1      -1.837   1.241   1.678  1.00  0.00     0.014 C 
ATOM     17  C   UNL     1      -2.474   0.013   0.977  1.00  0.00     0.037 C 
ATOM     18  C   UNL     1      -3.065   2.051   1.188  1.00  0.00     0.037 C 
ATOM     19  C   UNL     1      -3.844   0.710   1.161  1.00  0.00     0.115 C 
BRANCH  19  20
ATOM     20  O   UNL     1      -4.583   0.365   2.353  1.00  0.00    -0.393 OA
ATOM     21  H   UNL     1      -4.004   0.449   3.128  1.00  0.00     0.210 HD
ENDBRANCH  19  20
ENDBRANCH  15  16
ENDBRANCH  13  15
ENDBRANCH  10  13
ENDBRANCH   8   9
ENDBRANCH   7   8
ENDBRANCH   6   7
ENDBRANCH   5   6
ENDBRANCH   1   5
BRANCH   3  22
ATOM     22  C   UNL     1      -3.374  -2.206   6.688  1.00  0.00     0.117 C 
BRANCH  22  23
ATOM     23  C   UNL     1      -4.666  -1.504   6.281  1.00  0.00     0.042 C 
BRANCH  23  24
ATOM     24  C   UNL     1      -5.607  -2.342   5.417  1.00  0.00     0.118 C 
BRANCH  24  25
ATOM     25  N   UNL     1      -6.034  -3.573   6.069  1.00  0.00    -0.352 N 
ATOM     26  C   UNL     1      -7.287  -4.008   6.428  1.00  0.00     0.251 C 
ATOM     27  H   UNL     1      -5.304  -4.196   6.289  1.00  0.00     0.163 HD
ATOM     28  O   UNL     1      -7.394  -5.008   7.133  1.00  0.00    -0.269 OA
BRANCH  26  29
ATOM     29  C   UNL     1      -8.500  -3.277   5.997  1.00  0.00     0.039 A 
ATOM     30  C   UNL     1      -9.541  -3.103   6.915  1.00  0.00     0.014 A 
ATOM     31  C   UNL     1      -8.635  -2.790   4.695  1.00  0.00     0.014 A 
ATOM     32  C   UNL     1     -10.678  -2.376   6.550  1.00  0.00     0.010 A 
ATOM     33  C   UNL     1      -9.736  -2.003   4.355  1.00  0.00     0.010 A 
ATOM     34  C   UNL     1     -10.767  -1.782   5.281  1.00  0.00    -0.014 A 
BRANCH  34  35
ATOM     35  C   UNL     1     -11.910  -0.903   4.919  1.00  0.00     0.031 A 
ATOM     36  C   UNL     1     -12.840  -1.279   3.795  1.00  0.00     0.074 A 
ATOM     37  C   UNL     1     -12.067   0.275   5.558  1.00  0.00     0.049 A 
ATOM     38  N   UNL     1     -13.846  -0.604   3.300  1.00  0.00    -0.248 NA
ATOM     39  C   UNL     1     -12.598  -2.568   3.125  1.00  0.00     0.031 C 
ATOM     40  C   UNL     1     -11.206   0.778   6.633  1.00  0.00     0.029 A 
ATOM     41  N   UNL     1     -12.997   1.272   5.390  1.00  0.00    -0.354 N 
ATOM     42  C   UNL     1     -14.339  -1.370   2.249  1.00  0.00     0.074 A 
ATOM     43  C   UNL     1     -13.504  -2.547   2.157  1.00  0.00     0.031 C 
ATOM     44  C   UNL     1     -11.658   1.977   7.037  1.00  0.00     0.029 A 
ATOM     45  C   UNL     1     -12.810   2.350   6.225  1.00  0.00     0.049 A 
ATOM     46  H   UNL     1     -13.729   1.220   4.734  1.00  0.00     0.167 HD
ATOM     47  C   UNL     1     -15.397  -1.119   1.442  1.00  0.00     0.031 A 
ATOM     48  C   UNL     1     -13.478   3.517   6.317  1.00  0.00     0.031 A 
ATOM     49  C   UNL     1     -16.243   0.040   1.555  1.00  0.00     0.049 A 
ATOM     50  C   UNL     1     -14.651   3.765   5.405  1.00  0.00     0.074 A 
ATOM     51  C   UNL     1     -17.392   0.335   0.839  1.00  0.00     0.029 A 
ATOM     52  N   UNL     1     -16.035   1.096   2.428  1.00  0.00    -0.354 N 
ATOM     53  N   UNL     1     -15.158   2.981   4.484  1.00  0.00    -0.248 NA
ATOM     54  C   UNL     1     -15.347   5.051   5.552  1.00  0.00     0.031 C 
ATOM     55  C   UNL     1     -17.842   1.597   1.235  1.00  0.00     0.029 A 
ATOM     56  C   UNL     1     -17.012   2.059   2.243  1.00  0.00     0.049 A 
ATOM     57  H   UNL     1     -15.301   1.152   3.082  1.00  0.00     0.167 HD
ATOM     58  C   UNL     1     -16.250   3.668   3.964  1.00  0.00     0.074 A 
ATOM     59  C   UNL     1     -16.342   4.919   4.686  1.00  0.00     0.031 C 
ATOM     60  C   UNL     1     -17.099   3.297   2.974  1.00  0.00     0.031 A 
BRANCH  47  61
ATOM     61  C   UNL     1     -15.714  -2.108   0.352  1.00  0.00    -0.014 A 
ATOM     62  C   UNL     1     -16.284  -3.359   0.646  1.00  0.00     0.010 A 
ATOM     63  C   UNL     1     -15.544  -1.733  -0.994  1.00  0.00     0.010 A 
ATOM     64  C   UNL     1     -16.669  -4.221  -0.385  1.00  0.00     0.020 A 
ATOM     65  C   UNL     1     -15.950  -2.581  -2.028  1.00  0.00     0.020 A 
ATOM     66  C   UNL     1     -16.506  -3.823  -1.716  1.00  0.00     0.054 A 
BRANCH  66  67
ATOM     67  S   UNL     1     -17.088  -4.929  -3.031  1.00  0.00     0.124 S 
ATOM     68  O   UNL     1     -16.105  -6.008  -2.974  1.00  0.00    -0.237 OA
ATOM     69  O   UNL     1     -18.432  -5.281  -2.580  1.00  0.00    -0.237 OA
ATOM     70  O   UNL     1     -17.033  -4.101  -4.232  1.00  0.00    -0.744 OA
ENDBRANCH  66  67
ENDBRANCH  47  61
BRANCH  48  71
ATOM     71  C   UNL     1     -13.050   4.559   7.293  1.00  0.00    -0.014 A 
ATOM     72  C   UNL     1     -13.871   4.905   8.381  1.00  0.00     0.010 A 
ATOM     73  C   UNL     1     -11.832   5.240   7.114  1.00  0.00     0.010 A 
ATOM     74  C   UNL     1     -13.506   5.944   9.242  1.00  0.00     0.020 A 
ATOM     75  C   UNL     1     -11.447   6.256   7.992  1.00  0.00     0.020 A 
ATOM     76  C   UNL     1     -12.298   6.618   9.038  1.00  0.00     0.054 A 
BRANCH  76  77
ATOM     77  S   UNL     1     -11.841   7.964  10.166  1.00  0.00     0.124 S 
ATOM     78  O   UNL     1     -12.726   9.038   9.728  1.00  0.00    -0.237 OA
ATOM     79  O   UNL     1     -12.137   7.393  11.477  1.00  0.00    -0.237 OA
ATOM     80  O   UNL     1     -10.421   8.170   9.891  1.00  0.00    -0.744 OA
ENDBRANCH  76  77
ENDBRANCH  48  71
BRANCH  60  81
ATOM     81  C   UNL     1     -18.228   4.234   2.639  1.00  0.00    -0.014 A 
ATOM     82  C   UNL     1     -17.994   5.452   1.976  1.00  0.00     0.010 A 
ATOM     83  C   UNL     1     -19.550   3.863   2.945  1.00  0.00     0.010 A 
ATOM     84  C   UNL     1     -19.059   6.297   1.656  1.00  0.00     0.020 A 
ATOM     85  C   UNL     1     -20.621   4.691   2.598  1.00  0.00     0.020 A 
ATOM     86  C   UNL     1     -20.366   5.911   1.969  1.00  0.00     0.054 A 
BRANCH  86  87
ATOM     87  S   UNL     1     -21.735   7.006   1.504  1.00  0.00     0.124 S 
ATOM     88  O   UNL     1     -21.601   8.089   2.474  1.00  0.00    -0.237 OA
ATOM     89  O   UNL     1     -21.411   7.356   0.123  1.00  0.00    -0.237 OA
ATOM     90  O   UNL     1     -22.921   6.168   1.666  1.00  0.00    -0.744 OA
ENDBRANCH  86  87
ENDBRANCH  60  81
ENDBRANCH  34  35
ENDBRANCH  26  29
ENDBRANCH  24  25
ENDBRANCH  23  24
ENDBRANCH  22  23
ENDBRANCH   3  22
TORSDOF 21
