REMARK SMILES CC(C)[C@@H](NC(N)=O)C(=O)Nc1cccc(F)c1C(=O)NCCCNC(=O)c1ccc(-c2c3nc(c(-c4ccc(S(=O)(=O)[O-])cc4)c4ccc([nH]4)c(-c4ccc(S(=O)(=O)[O-])cc4)c4nc(c(-c5ccc(S(=O)(=O)[O-])cc5)c5ccc2[nH]5)C=C4)C=C3)cc1
REMARK SMILES IDX 23 1 22 2 21 3 19 4 20 5 18 7 12 8 13 9 14 10 16 11 15 12
REMARK SMILES IDX 17 13 11 14 9 15 10 16 4 18 2 19 1 20 3 21 5 22 6 23 7 25
REMARK SMILES IDX 8 26 24 29 25 30 26 31 27 33 28 34 29 35 87 36 30 37 86 38
REMARK SMILES IDX 31 39 32 40 33 41 80 42 34 43 85 44 79 45 81 46 35 47 84 48
REMARK SMILES IDX 78 49 77 50 36 52 66 53 47 54 65 55 48 56 51 57 64 58 82 59
REMARK SMILES IDX 49 60 50 61 63 63 83 64 52 65 37 66 38 67 46 68 39 69 45 70
REMARK SMILES IDX 40 71 41 72 42 73 43 74 44 75 67 76 68 77 76 78 69 79 75 80
REMARK SMILES IDX 70 81 71 82 72 83 73 84 74 85 53 86 54 87 62 88 55 89 61 90
REMARK SMILES IDX 56 91 57 92 58 93 59 94 60 95
REMARK H PARENT 21 6 11 17 5 24 7 27 7 28 25 32 81 51 51 62
REMARK Flexibility Score: inf
ROOT
ATOM      1  C   UNL     1      -0.862   6.748  -6.115  1.00  0.00     0.042 C 
ENDROOT
BRANCH   1   2
ATOM      2  C   UNL     1      -1.276   6.223  -4.751  1.00  0.00     0.118 C 
BRANCH   2   3
ATOM      3  N   UNL     1      -1.975   4.948  -4.809  1.00  0.00    -0.352 N 
ATOM      4  C   UNL     1      -1.657   3.675  -4.407  1.00  0.00     0.256 C 
ATOM      5  O   UNL     1      -2.436   2.787  -4.758  1.00  0.00    -0.269 OA
ATOM      6  H   UNL     1      -2.866   5.013  -5.224  1.00  0.00     0.163 HD
BRANCH   4   7
ATOM      7  C   UNL     1      -0.394   3.309  -3.708  1.00  0.00     0.099 A 
ATOM      8  C   UNL     1       0.081   1.989  -3.759  1.00  0.00     0.057 A 
ATOM      9  C   UNL     1       1.417   1.708  -3.446  1.00  0.00     0.027 A 
ATOM     10  C   UNL     1       2.226   2.679  -2.870  1.00  0.00     0.005 A 
ATOM     11  C   UNL     1       0.350   4.188  -2.925  1.00  0.00     0.138 A 
ATOM     12  C   UNL     1       1.661   3.901  -2.536  1.00  0.00     0.040 A 
ATOM     13  F   UNL     1      -0.206   5.289  -2.397  1.00  0.00    -0.206 F 
BRANCH   8  14
ATOM     14  N   UNL     1      -0.771   0.904  -4.032  1.00  0.00    -0.323 N 
ATOM     15  C   UNL     1      -1.142  -0.081  -3.136  1.00  0.00     0.247 C 
ATOM     16  O   UNL     1      -1.606  -1.139  -3.579  1.00  0.00    -0.272 OA
ATOM     17  H   UNL     1      -1.136   0.841  -4.944  1.00  0.00     0.170 HD
BRANCH  15  18
ATOM     18  C   UNL     1      -0.922   0.082  -1.584  1.00  0.00     0.176 C 
BRANCH  18  19
ATOM     19  C   UNL     1       0.502  -0.294  -1.097  1.00  0.00     0.015 C 
ATOM     20  C   UNL     1       0.603  -0.390   0.432  1.00  0.00     0.010 C 
ATOM     21  C   UNL     1       1.023  -1.592  -1.715  1.00  0.00     0.010 C 
ENDBRANCH  18  19
BRANCH  18  22
ATOM     22  N   UNL     1      -1.289   1.430  -1.124  1.00  0.00    -0.326 N 
ATOM     23  C   UNL     1      -2.554   1.913  -1.282  1.00  0.00     0.312 C 
ATOM     24  H   UNL     1      -0.608   1.995  -0.693  1.00  0.00     0.166 HD
ATOM     25  N   UNL     1      -2.705   3.166  -0.789  1.00  0.00    -0.352 N 
ATOM     26  O   UNL     1      -3.468   1.330  -1.833  1.00  0.00    -0.249 OA
ATOM     27  H   UNL     1      -1.948   3.615  -0.347  1.00  0.00     0.161 HD
ATOM     28  H   UNL     1      -3.570   3.628  -0.874  1.00  0.00     0.161 HD
ENDBRANCH  18  22
ENDBRANCH  15  18
ENDBRANCH   8  14
ENDBRANCH   4   7
ENDBRANCH   2   3
ENDBRANCH   1   2
BRANCH   1  29
ATOM     29  C   UNL     1      -2.021   7.193  -6.989  1.00  0.00     0.118 C 
BRANCH  29  30
ATOM     30  N   UNL     1      -2.771   8.302  -6.408  1.00  0.00    -0.352 N 
ATOM     31  C   UNL     1      -2.807   9.634  -6.746  1.00  0.00     0.251 C 
ATOM     32  H   UNL     1      -3.346   8.055  -5.648  1.00  0.00     0.163 HD
ATOM     33  O   UNL     1      -3.337  10.438  -5.983  1.00  0.00    -0.269 OA
BRANCH  31  34
ATOM     34  C   UNL     1      -2.194  10.102  -8.008  1.00  0.00     0.039 A 
ATOM     35  C   UNL     1      -1.480  11.304  -8.021  1.00  0.00     0.014 A 
ATOM     36  C   UNL     1      -2.330   9.361  -9.181  1.00  0.00     0.014 A 
ATOM     37  C   UNL     1      -0.831  11.710  -9.191  1.00  0.00     0.010 A 
ATOM     38  C   UNL     1      -1.595   9.707 -10.308  1.00  0.00     0.010 A 
ATOM     39  C   UNL     1      -0.843  10.889 -10.330  1.00  0.00    -0.014 A 
BRANCH  39  40
ATOM     40  C   UNL     1      -0.090  11.240 -11.562  1.00  0.00     0.031 A 
ATOM     41  C   UNL     1      -0.827  11.420 -12.864  1.00  0.00     0.074 A 
ATOM     42  C   UNL     1       1.256  11.304 -11.529  1.00  0.00     0.049 A 
ATOM     43  N   UNL     1      -0.344  11.614 -14.064  1.00  0.00    -0.248 NA
ATOM     44  C   UNL     1      -2.297  11.338 -12.815  1.00  0.00     0.031 C 
ATOM     45  C   UNL     1       2.087  11.107 -10.339  1.00  0.00     0.029 A 
ATOM     46  N   UNL     1       2.165  11.541 -12.530  1.00  0.00    -0.354 N 
ATOM     47  C   UNL     1      -1.446  11.651 -14.912  1.00  0.00     0.074 A 
ATOM     48  C   UNL     1      -2.615  11.403 -14.099  1.00  0.00     0.031 C 
ATOM     49  C   UNL     1       3.379  11.259 -10.672  1.00  0.00     0.029 A 
ATOM     50  C   UNL     1       3.474  11.511 -12.107  1.00  0.00     0.049 A 
ATOM     51  H   UNL     1       1.905  11.716 -13.463  1.00  0.00     0.167 HD
ATOM     52  C   UNL     1      -1.484  11.892 -16.244  1.00  0.00     0.031 A 
ATOM     53  C   UNL     1       4.623  11.655 -12.796  1.00  0.00     0.031 A 
ATOM     54  C   UNL     1      -0.318  12.153 -17.044  1.00  0.00     0.049 A 
ATOM     55  C   UNL     1       4.557  11.906 -14.278  1.00  0.00     0.074 A 
ATOM     56  C   UNL     1      -0.252  12.467 -18.389  1.00  0.00     0.029 A 
ATOM     57  N   UNL     1       0.987  12.129 -16.573  1.00  0.00    -0.354 N 
ATOM     58  N   UNL     1       3.501  12.004 -15.051  1.00  0.00    -0.248 NA
ATOM     59  C   UNL     1       5.836  12.076 -14.981  1.00  0.00     0.031 C 
ATOM     60  C   UNL     1       1.096  12.573 -18.745  1.00  0.00     0.029 A 
ATOM     61  C   UNL     1       1.867  12.396 -17.607  1.00  0.00     0.049 A 
ATOM     62  H   UNL     1       1.248  11.948 -15.641  1.00  0.00     0.167 HD
ATOM     63  C   UNL     1       3.987  12.278 -16.324  1.00  0.00     0.074 A 
ATOM     64  C   UNL     1       5.431  12.343 -16.215  1.00  0.00     0.031 C 
ATOM     65  C   UNL     1       3.301  12.462 -17.479  1.00  0.00     0.031 A 
BRANCH  52  66
ATOM     66  C   UNL     1      -2.831  11.879 -16.919  1.00  0.00    -0.014 A 
ATOM     67  C   UNL     1      -3.790  12.874 -16.653  1.00  0.00     0.010 A 
ATOM     68  C   UNL     1      -3.131  10.879 -17.863  1.00  0.00     0.010 A 
ATOM     69  C   UNL     1      -5.036  12.845 -17.284  1.00  0.00     0.020 A 
ATOM     70  C   UNL     1      -4.364  10.866 -18.521  1.00  0.00     0.020 A 
ATOM     71  C   UNL     1      -5.315  11.840 -18.214  1.00  0.00     0.054 A 
BRANCH  71  72
ATOM     72  S   UNL     1      -6.932  11.845 -19.036  1.00  0.00     0.124 S 
ATOM     73  O   UNL     1      -7.823  11.447 -17.950  1.00  0.00    -0.237 OA
ATOM     74  O   UNL     1      -7.061  13.232 -19.477  1.00  0.00    -0.237 OA
ATOM     75  O   UNL     1      -6.780  10.864 -20.108  1.00  0.00    -0.744 OA
ENDBRANCH  71  72
ENDBRANCH  52  66
BRANCH  53  76
ATOM     76  C   UNL     1       5.932  11.577 -12.089  1.00  0.00    -0.014 A 
ATOM     77  C   UNL     1       6.733  12.723 -11.939  1.00  0.00     0.010 A 
ATOM     78  C   UNL     1       6.380  10.357 -11.550  1.00  0.00     0.010 A 
ATOM     79  C   UNL     1       7.964  12.647 -11.281  1.00  0.00     0.020 A 
ATOM     80  C   UNL     1       7.596  10.283 -10.864  1.00  0.00     0.020 A 
ATOM     81  C   UNL     1       8.386  11.428 -10.744  1.00  0.00     0.054 A 
BRANCH  81  82
ATOM     82  S   UNL     1       9.964  11.365  -9.850  1.00  0.00     0.124 S 
ATOM     83  O   UNL     1      10.933  11.499 -10.933  1.00  0.00    -0.237 OA
ATOM     84  O   UNL     1       9.859  12.509  -8.947  1.00  0.00    -0.237 OA
ATOM     85  O   UNL     1       9.934  10.059  -9.194  1.00  0.00    -0.744 OA
ENDBRANCH  81  82
ENDBRANCH  53  76
BRANCH  65  86
ATOM     86  C   UNL     1       4.093  12.795 -18.716  1.00  0.00    -0.014 A 
ATOM     87  C   UNL     1       4.890  11.831 -19.357  1.00  0.00     0.010 A 
ATOM     88  C   UNL     1       3.977  14.078 -19.284  1.00  0.00     0.010 A 
ATOM     89  C   UNL     1       5.576  12.152 -20.532  1.00  0.00     0.020 A 
ATOM     90  C   UNL     1       4.634  14.392 -20.475  1.00  0.00     0.020 A 
ATOM     91  C   UNL     1       5.439  13.429 -21.086  1.00  0.00     0.054 A 
BRANCH  91  92
ATOM     92  S   UNL     1       6.292  13.800 -22.643  1.00  0.00     0.124 S 
ATOM     93  O   UNL     1       7.687  13.869 -22.217  1.00  0.00    -0.237 OA
ATOM     94  O   UNL     1       5.946  12.651 -23.477  1.00  0.00    -0.237 OA
ATOM     95  O   UNL     1       5.706  15.069 -23.067  1.00  0.00    -0.744 OA
ENDBRANCH  91  92
ENDBRANCH  65  86
ENDBRANCH  39  40
ENDBRANCH  31  34
ENDBRANCH  29  30
ENDBRANCH   1  29
TORSDOF 17
