REMARK SMILES Cc1cc(C)nc(N2CCCC[C@H]2C(=O)NCCCNC(=O)c2ccc(-c3c4nc(c(-c5ccc(S(=O)(=O)[O-])cc5)c5ccc([nH]5)c(-c5ccc(S(=O)(=O)[O-])cc5)c5nc(c(-c6ccc(S(=O)(=O)[O-])cc6)c6ccc3[nH]6)C=C5)C=C4)cc2)n1
REMARK SMILES IDX 19 1 18 2 17 3 16 4 14 5 15 6 13 8 8 9 9 10 10 11 12 12
REMARK SMILES IDX 11 13 7 14 1 15 2 16 3 17 83 18 4 19 5 20 6 21 20 22 21 23
REMARK SMILES IDX 22 25 23 26 24 27 82 28 25 29 81 30 26 31 27 32 28 33 75 34
REMARK SMILES IDX 29 35 80 36 74 37 76 38 30 39 79 40 73 41 72 42 31 44 61 45
REMARK SMILES IDX 42 46 60 47 43 48 46 49 59 50 77 51 44 52 45 53 58 55 78 56
REMARK SMILES IDX 47 57 32 58 33 59 41 60 34 61 40 62 35 63 36 64 37 65 38 66
REMARK SMILES IDX 39 67 62 68 63 69 71 70 64 71 70 72 65 73 66 74 67 75 68 76
REMARK SMILES IDX 69 77 48 78 49 79 57 80 50 81 56 82 51 83 52 84 53 85 54 86
REMARK SMILES IDX 55 87
REMARK H PARENT 16 7 20 24 76 43 46 54
REMARK Flexibility Score: inf
ROOT
ATOM      1  C   UNL     1       5.258  -0.536   1.007  1.00  0.00     0.118 C 
ENDROOT
BRANCH   1   2
ATOM      2  C   UNL     1       3.887  -0.559   1.651  1.00  0.00     0.042 C 
BRANCH   2   3
ATOM      3  C   UNL     1       2.905  -1.439   0.923  1.00  0.00     0.117 C 
BRANCH   3   4
ATOM      4  N   UNL     1       3.134  -2.850   1.070  1.00  0.00    -0.354 N 
ATOM      5  C   UNL     1       2.168  -3.816   1.079  1.00  0.00     0.242 C 
ATOM      6  O   UNL     1       2.566  -4.983   1.007  1.00  0.00    -0.273 OA
ATOM      7  H   UNL     1       4.067  -3.146   1.173  1.00  0.00     0.163 HD
BRANCH   5   8
ATOM      8  C   UNL     1       0.661  -3.428   1.218  1.00  0.00     0.174 C 
ATOM      9  N   UNL     1       0.052  -2.996  -0.047  1.00  0.00    -0.329 N 
ATOM     10  C   UNL     1      -0.043  -3.941  -1.133  1.00  0.00     0.120 C 
ATOM     11  C   UNL     1      -0.827  -5.169  -0.658  1.00  0.00     0.022 C 
ATOM     12  C   UNL     1      -0.136  -4.643   1.731  1.00  0.00     0.035 C 
ATOM     13  C   UNL     1      -0.315  -5.734   0.667  1.00  0.00     0.004 C 
BRANCH   9  14
ATOM     14  C   UNL     1      -0.227  -1.675  -0.283  1.00  0.00     0.226 A 
ATOM     15  C   UNL     1       1.756   1.305  -1.094  1.00  0.00     0.067 C 
ATOM     16  C   UNL     1       0.564   0.442  -0.793  1.00  0.00     0.043 A 
ATOM     17  C   UNL     1      -0.626   1.015  -0.426  1.00  0.00     0.047 A 
ATOM     18  N   UNL     1       0.744  -0.897  -0.783  1.00  0.00    -0.218 NA
ATOM     19  C   UNL     1      -1.623   0.143  -0.045  1.00  0.00     0.043 A 
ATOM     20  C   UNL     1      -2.981   0.688   0.282  1.00  0.00     0.067 C 
ATOM     21  N   UNL     1      -1.426  -1.192   0.072  1.00  0.00    -0.218 NA
ENDBRANCH   9  14
ENDBRANCH   5   8
ENDBRANCH   3   4
ENDBRANCH   2   3
ENDBRANCH   1   2
BRANCH   1  22
ATOM     22  N   UNL     1       5.261  -0.004  -0.356  1.00  0.00    -0.352 N 
ATOM     23  C   UNL     1       5.793   1.149  -0.882  1.00  0.00     0.251 C 
ATOM     24  H   UNL     1       4.801  -0.574  -1.013  1.00  0.00     0.163 HD
ATOM     25  O   UNL     1       5.522   1.465  -2.040  1.00  0.00    -0.269 OA
BRANCH  23  26
ATOM     26  C   UNL     1       6.652   2.027  -0.059  1.00  0.00     0.039 A 
ATOM     27  C   UNL     1       6.612   3.412  -0.247  1.00  0.00     0.014 A 
ATOM     28  C   UNL     1       7.495   1.491   0.910  1.00  0.00     0.014 A 
ATOM     29  C   UNL     1       7.359   4.245   0.590  1.00  0.00     0.010 A 
ATOM     30  C   UNL     1       8.084   2.318   1.851  1.00  0.00     0.010 A 
ATOM     31  C   UNL     1       8.068   3.705   1.675  1.00  0.00    -0.014 A 
BRANCH  31  32
ATOM     32  C   UNL     1       8.859   4.548   2.606  1.00  0.00     0.031 A 
ATOM     33  C   UNL     1      10.330   4.271   2.798  1.00  0.00     0.074 A 
ATOM     34  C   UNL     1       8.245   5.496   3.340  1.00  0.00     0.049 A 
ATOM     35  N   UNL     1      11.177   4.834   3.620  1.00  0.00    -0.248 NA
ATOM     36  C   UNL     1      10.916   3.178   2.000  1.00  0.00     0.031 C 
ATOM     37  C   UNL     1       6.812   5.803   3.308  1.00  0.00     0.029 A 
ATOM     38  N   UNL     1       8.750   6.372   4.267  1.00  0.00    -0.354 N 
ATOM     39  C   UNL     1      12.372   4.138   3.465  1.00  0.00     0.074 A 
ATOM     40  C   UNL     1      12.119   3.062   2.537  1.00  0.00     0.031 C 
ATOM     41  C   UNL     1       6.561   6.820   4.147  1.00  0.00     0.029 A 
ATOM     42  C   UNL     1       7.803   7.208   4.808  1.00  0.00     0.049 A 
ATOM     43  H   UNL     1       9.701   6.399   4.520  1.00  0.00     0.167 HD
ATOM     44  C   UNL     1      13.582   4.390   4.016  1.00  0.00     0.031 A 
ATOM     45  C   UNL     1       7.920   8.177   5.736  1.00  0.00     0.031 A 
ATOM     46  C   UNL     1      13.831   5.484   4.914  1.00  0.00     0.049 A 
ATOM     47  C   UNL     1       9.279   8.481   6.299  1.00  0.00     0.074 A 
ATOM     48  C   UNL     1      15.032   5.890   5.466  1.00  0.00     0.029 A 
ATOM     49  N   UNL     1      12.855   6.346   5.393  1.00  0.00    -0.354 N 
ATOM     50  N   UNL     1      10.420   7.873   6.069  1.00  0.00    -0.248 NA
ATOM     51  C   UNL     1       9.373   9.615   7.226  1.00  0.00     0.031 C 
ATOM     52  C   UNL     1      14.772   6.962   6.326  1.00  0.00     0.029 A 
ATOM     53  C   UNL     1      13.421   7.269   6.255  1.00  0.00     0.049 A 
ATOM     54  H   UNL     1      11.901   6.308   5.155  1.00  0.00     0.167 HD
ATOM     55  C   UNL     1      11.374   8.566   6.806  1.00  0.00     0.074 A 
ATOM     56  C   UNL     1      10.676   9.649   7.472  1.00  0.00     0.031 C 
ATOM     57  C   UNL     1      12.706   8.330   6.920  1.00  0.00     0.031 A 
BRANCH  44  58
ATOM     58  C   UNL     1      14.713   3.454   3.663  1.00  0.00    -0.014 A 
ATOM     59  C   UNL     1      15.206   3.359   2.347  1.00  0.00     0.010 A 
ATOM     60  C   UNL     1      15.281   2.643   4.661  1.00  0.00     0.010 A 
ATOM     61  C   UNL     1      16.189   2.421   2.022  1.00  0.00     0.020 A 
ATOM     62  C   UNL     1      16.294   1.731   4.349  1.00  0.00     0.020 A 
ATOM     63  C   UNL     1      16.721   1.606   3.025  1.00  0.00     0.054 A 
BRANCH  63  64
ATOM     64  S   UNL     1      17.985   0.387   2.575  1.00  0.00     0.124 S 
ATOM     65  O   UNL     1      17.195  -0.615   1.862  1.00  0.00    -0.237 OA
ATOM     66  O   UNL     1      18.902   1.167   1.747  1.00  0.00    -0.237 OA
ATOM     67  O   UNL     1      18.525  -0.045   3.861  1.00  0.00    -0.744 OA
ENDBRANCH  63  64
ENDBRANCH  44  58
BRANCH  45  68
ATOM     68  C   UNL     1       6.711   8.939   6.152  1.00  0.00    -0.014 A 
ATOM     69  C   UNL     1       6.520  10.268   5.736  1.00  0.00     0.010 A 
ATOM     70  C   UNL     1       5.707   8.310   6.911  1.00  0.00     0.010 A 
ATOM     71  C   UNL     1       5.348  10.954   6.072  1.00  0.00     0.020 A 
ATOM     72  C   UNL     1       4.522   8.983   7.224  1.00  0.00     0.020 A 
ATOM     73  C   UNL     1       4.352  10.303   6.805  1.00  0.00     0.054 A 
BRANCH  73  74
ATOM     74  S   UNL     1       2.800  11.181   7.145  1.00  0.00     0.124 S 
ATOM     75  O   UNL     1       3.216  12.160   8.143  1.00  0.00    -0.237 OA
ATOM     76  O   UNL     1       2.451  11.721   5.833  1.00  0.00    -0.237 OA
ATOM     77  O   UNL     1       1.911  10.128   7.632  1.00  0.00    -0.744 OA
ENDBRANCH  73  74
ENDBRANCH  45  68
BRANCH  57  78
ATOM     78  C   UNL     1      13.503   9.281   7.772  1.00  0.00    -0.014 A 
ATOM     79  C   UNL     1      13.365   9.304   9.171  1.00  0.00     0.010 A 
ATOM     80  C   UNL     1      14.439  10.136   7.160  1.00  0.00     0.010 A 
ATOM     81  C   UNL     1      14.116  10.199   9.938  1.00  0.00     0.020 A 
ATOM     82  C   UNL     1      15.215  11.007   7.927  1.00  0.00     0.020 A 
ATOM     83  C   UNL     1      15.034  11.047   9.310  1.00  0.00     0.054 A 
BRANCH  83  84
ATOM     84  S   UNL     1      16.010  12.184  10.330  1.00  0.00     0.124 S 
ATOM     85  O   UNL     1      15.012  13.181  10.711  1.00  0.00    -0.237 OA
ATOM     86  O   UNL     1      16.483  11.322  11.409  1.00  0.00    -0.237 OA
ATOM     87  O   UNL     1      17.049  12.660   9.420  1.00  0.00    -0.744 OA
ENDBRANCH  83  84
ENDBRANCH  57  78
ENDBRANCH  31  32
ENDBRANCH  23  26
ENDBRANCH   1  22
TORSDOF 14
