REMARK SMILES Cc1ccc(C#N)c(S[C@H](C(=O)NCCCNC(=O)c2ccc(-c3c4nc(c(-c5ccc(S(=O)(=O)[O-])cc5)c5ccc([nH]5)c(-c5ccc(S(=O)(=O)[O-])cc5)c5nc(c(-c6ccc(S(=O)(=O)[O-])cc6)c6ccc3[nH]6)C=C5)C=C4)cc2)c2ccccc2)n1
REMARK SMILES IDX 15 1 14 2 13 3 11 4 12 5 10 7 9 8 8 9 1 10 2 11 3 12 86 13
REMARK SMILES IDX 4 14 5 15 6 16 7 17 80 18 81 19 85 20 82 21 84 22 83 23
REMARK SMILES IDX 16 24 17 25 18 26 19 28 20 29 21 30 79 31 22 32 78 33 23 34
REMARK SMILES IDX 24 35 25 36 72 37 26 38 77 39 71 40 73 41 27 42 76 43 70 44
REMARK SMILES IDX 69 45 28 47 58 48 39 49 57 50 40 51 43 52 56 53 74 54 41 55
REMARK SMILES IDX 42 56 55 58 75 59 44 60 29 61 30 62 38 63 31 64 37 65 32 66
REMARK SMILES IDX 33 67 34 68 35 69 36 70 59 71 60 72 68 73 61 74 67 75 62 76
REMARK SMILES IDX 63 77 64 78 65 79 66 80 45 81 46 82 54 83 47 84 53 85 48 86
REMARK SMILES IDX 49 87 50 88 51 89 52 90
REMARK H PARENT 13 6 17 27 73 46 43 57
REMARK Flexibility Score: inf
ROOT
ATOM      1  C   UNL     1       0.998   3.336   3.399  1.00  0.00     0.042 C 
ENDROOT
BRANCH   1   2
ATOM      2  C   UNL     1       1.150   2.068   2.567  1.00  0.00     0.117 C 
BRANCH   2   3
ATOM      3  N   UNL     1       0.821   2.315   1.182  1.00  0.00    -0.355 N 
ATOM      4  C   UNL     1       1.513   2.425   0.030  1.00  0.00     0.238 C 
ATOM      5  O   UNL     1       0.779   2.718  -0.932  1.00  0.00    -0.273 OA
ATOM      6  H   UNL     1      -0.147   2.433   1.046  1.00  0.00     0.163 HD
BRANCH   4   7
ATOM      7  C   UNL     1       3.027   2.274  -0.214  1.00  0.00     0.172 C 
BRANCH   7   8
ATOM      8  S   UNL     1       4.149   1.614   1.068  1.00  0.00    -0.087 SA
BRANCH   8   9
ATOM      9  C   UNL     1       4.390   2.835   2.343  1.00  0.00     0.115 A 
ATOM     10  C   UNL     1       5.003   2.158   5.943  1.00  0.00     0.067 C 
ATOM     11  C   UNL     1       4.833   2.924   4.664  1.00  0.00     0.039 A 
ATOM     12  C   UNL     1       4.896   4.303   4.646  1.00  0.00     0.025 A 
ATOM     13  N   UNL     1       4.579   2.206   3.542  1.00  0.00    -0.245 NA
ATOM     14  C   UNL     1       4.700   4.954   3.433  1.00  0.00     0.024 A 
ATOM     15  C   UNL     1       4.447   4.223   2.261  1.00  0.00     0.084 A 
BRANCH  15  16
ATOM     16  C   UNL     1       4.268   4.971   1.060  1.00  0.00     0.102 C 
ATOM     17  N   UNL     1       4.099   5.607   0.107  1.00  0.00    -0.192 NA
ENDBRANCH  15  16
ENDBRANCH   8   9
ENDBRANCH   7   8
BRANCH   7  18
ATOM     18  C   UNL     1       3.257   1.425  -1.476  1.00  0.00    -0.025 A 
ATOM     19  C   UNL     1       2.797   0.098  -1.562  1.00  0.00     0.005 A 
ATOM     20  C   UNL     1       3.950   1.971  -2.569  1.00  0.00     0.005 A 
ATOM     21  C   UNL     1       3.034  -0.662  -2.709  1.00  0.00     0.000 A 
ATOM     22  C   UNL     1       4.183   1.208  -3.713  1.00  0.00     0.000 A 
ATOM     23  C   UNL     1       3.729  -0.107  -3.782  1.00  0.00     0.000 A 
ENDBRANCH   7  18
ENDBRANCH   4   7
ENDBRANCH   2   3
ENDBRANCH   1   2
BRANCH   1  24
ATOM     24  C   UNL     1      -0.462   3.692   3.666  1.00  0.00     0.118 C 
BRANCH  24  25
ATOM     25  N   UNL     1      -1.150   2.642   4.408  1.00  0.00    -0.352 N 
ATOM     26  C   UNL     1      -1.633   2.633   5.691  1.00  0.00     0.251 C 
ATOM     27  H   UNL     1      -1.290   1.806   3.908  1.00  0.00     0.163 HD
ATOM     28  O   UNL     1      -1.913   1.565   6.227  1.00  0.00    -0.269 OA
BRANCH  26  29
ATOM     29  C   UNL     1      -1.813   3.904   6.419  1.00  0.00     0.039 A 
ATOM     30  C   UNL     1      -1.523   3.957   7.784  1.00  0.00     0.014 A 
ATOM     31  C   UNL     1      -2.290   5.036   5.756  1.00  0.00     0.014 A 
ATOM     32  C   UNL     1      -1.657   5.165   8.468  1.00  0.00     0.010 A 
ATOM     33  C   UNL     1      -2.316   6.259   6.410  1.00  0.00     0.010 A 
ATOM     34  C   UNL     1      -2.018   6.334   7.777  1.00  0.00    -0.014 A 
BRANCH  34  35
ATOM     35  C   UNL     1      -2.103   7.645   8.466  1.00  0.00     0.031 A 
ATOM     36  C   UNL     1      -3.410   8.388   8.517  1.00  0.00     0.074 A 
ATOM     37  C   UNL     1      -0.989   8.191   8.990  1.00  0.00     0.049 A 
ATOM     38  N   UNL     1      -3.675   9.555   9.045  1.00  0.00    -0.248 NA
ATOM     39  C   UNL     1      -4.565   7.748   7.865  1.00  0.00     0.031 C 
ATOM     40  C   UNL     1       0.342   7.581   8.975  1.00  0.00     0.029 A 
ATOM     41  N   UNL     1      -0.801   9.382   9.644  1.00  0.00    -0.354 N 
ATOM     42  C   UNL     1      -5.018   9.793   8.778  1.00  0.00     0.074 A 
ATOM     43  C   UNL     1      -5.491   8.687   7.976  1.00  0.00     0.031 C 
ATOM     44  C   UNL     1       1.196   8.374   9.640  1.00  0.00     0.029 A 
ATOM     45  C   UNL     1       0.489   9.573  10.077  1.00  0.00     0.049 A 
ATOM     46  H   UNL     1      -1.522  10.036   9.790  1.00  0.00     0.167 HD
ATOM     47  C   UNL     1      -5.797  10.825   9.185  1.00  0.00     0.031 A 
ATOM     48  C   UNL     1       1.040  10.599  10.754  1.00  0.00     0.031 A 
ATOM     49  C   UNL     1      -5.311  11.931   9.966  1.00  0.00     0.049 A 
ATOM     50  C   UNL     1       0.175  11.763  11.146  1.00  0.00     0.074 A 
ATOM     51  C   UNL     1      -6.017  13.012  10.463  1.00  0.00     0.029 A 
ATOM     52  N   UNL     1      -3.989  12.107  10.353  1.00  0.00    -0.354 N 
ATOM     53  N   UNL     1      -1.109  11.942  10.942  1.00  0.00    -0.248 NA
ATOM     54  C   UNL     1       0.832  12.859  11.868  1.00  0.00     0.031 C 
ATOM     55  C   UNL     1      -5.110  13.877  11.083  1.00  0.00     0.029 A 
ATOM     56  C   UNL     1      -3.852  13.296  11.049  1.00  0.00     0.049 A 
ATOM     57  H   UNL     1      -3.256  11.478  10.159  1.00  0.00     0.167 HD
ATOM     58  C   UNL     1      -1.422  13.156  11.543  1.00  0.00     0.074 A 
ATOM     59  C   UNL     1      -0.194  13.659  12.127  1.00  0.00     0.031 C 
ATOM     60  C   UNL     1      -2.619  13.791  11.614  1.00  0.00     0.031 A 
BRANCH  47  61
ATOM     61  C   UNL     1      -7.245  10.804   8.758  1.00  0.00    -0.014 A 
ATOM     62  C   UNL     1      -8.124   9.795   9.198  1.00  0.00     0.010 A 
ATOM     63  C   UNL     1      -7.732  11.796   7.889  1.00  0.00     0.010 A 
ATOM     64  C   UNL     1      -9.434   9.733   8.715  1.00  0.00     0.020 A 
ATOM     65  C   UNL     1      -9.055  11.763   7.437  1.00  0.00     0.020 A 
ATOM     66  C   UNL     1      -9.888  10.714   7.829  1.00  0.00     0.054 A 
BRANCH  66  67
ATOM     67  S   UNL     1     -11.582  10.591   7.194  1.00  0.00     0.124 S 
ATOM     68  O   UNL     1     -11.486   9.435   6.306  1.00  0.00    -0.237 OA
ATOM     69  O   UNL     1     -12.364  10.385   8.411  1.00  0.00    -0.237 OA
ATOM     70  O   UNL     1     -11.797  11.872   6.527  1.00  0.00    -0.744 OA
ENDBRANCH  66  67
ENDBRANCH  47  61
BRANCH  48  71
ATOM     71  C   UNL     1       2.476  10.538  11.141  1.00  0.00    -0.014 A 
ATOM     72  C   UNL     1       2.837  10.374  12.490  1.00  0.00     0.010 A 
ATOM     73  C   UNL     1       3.487  10.597  10.165  1.00  0.00     0.010 A 
ATOM     74  C   UNL     1       4.182  10.269  12.856  1.00  0.00     0.020 A 
ATOM     75  C   UNL     1       4.831  10.461  10.523  1.00  0.00     0.020 A 
ATOM     76  C   UNL     1       5.170  10.301  11.868  1.00  0.00     0.054 A 
BRANCH  76  77
ATOM     77  S   UNL     1       6.900  10.072  12.360  1.00  0.00     0.124 S 
ATOM     78  O   UNL     1       7.175  11.303  13.094  1.00  0.00    -0.237 OA
ATOM     79  O   UNL     1       6.836   8.854  13.164  1.00  0.00    -0.237 OA
ATOM     80  O   UNL     1       7.602   9.931  11.086  1.00  0.00    -0.744 OA
ENDBRANCH  76  77
ENDBRANCH  48  71
BRANCH  60  81
ATOM     81  C   UNL     1      -2.671  15.089  12.380  1.00  0.00    -0.014 A 
ATOM     82  C   UNL     1      -2.039  16.252  11.904  1.00  0.00     0.010 A 
ATOM     83  C   UNL     1      -3.412  15.154  13.575  1.00  0.00     0.010 A 
ATOM     84  C   UNL     1      -2.118  17.445  12.628  1.00  0.00     0.020 A 
ATOM     85  C   UNL     1      -3.525  16.354  14.281  1.00  0.00     0.020 A 
ATOM     86  C   UNL     1      -2.865  17.489  13.809  1.00  0.00     0.054 A 
BRANCH  86  87
ATOM     87  S   UNL     1      -2.989  19.062  14.703  1.00  0.00     0.124 S 
ATOM     88  O   UNL     1      -1.634  19.226  15.221  1.00  0.00    -0.237 OA
ATOM     89  O   UNL     1      -3.377  19.996  13.648  1.00  0.00    -0.237 OA
ATOM     90  O   UNL     1      -4.016  18.809  15.711  1.00  0.00    -0.744 OA
ENDBRANCH  86  87
ENDBRANCH  60  81
ENDBRANCH  34  35
ENDBRANCH  26  29
ENDBRANCH  24  25
ENDBRANCH   1  24
TORSDOF 17
