REMARK SMILES CN1C(=O)/C(=C\c2ccc(-c3ccccc3C(=O)NCCCNC(=O)c3ccc(-c4c5nc(c(-c6ccc(S(=O)(=O)[O-])cc6)c6ccc([nH]6)c(-c6ccc(S(=O)(=O)[O-])cc6)c6nc(c(-c7ccc(S(=O)(=O)[O-])cc7)c7ccc4[nH]7)C=C6)C=C5)cc3)o2)C(=O)[NH+]=C1S
REMARK SMILES IDX 21 1 20 2 19 3 17 4 18 5 16 7 11 8 12 9 13 10 15 11 14 12
REMARK SMILES IDX 10 13 7 14 8 15 86 16 9 17 6 18 1 19 2 20 3 21 90 22 4 23
REMARK SMILES IDX 5 24 89 25 87 26 88 28 91 29 22 31 23 32 24 33 25 35 26 36
REMARK SMILES IDX 27 37 85 38 28 39 84 40 29 41 30 42 31 43 78 44 32 45 83 46
REMARK SMILES IDX 77 47 79 48 33 49 82 50 76 51 75 52 34 54 64 55 45 56 63 57
REMARK SMILES IDX 46 58 49 59 62 60 80 61 47 62 48 63 61 65 81 66 50 67 35 68
REMARK SMILES IDX 36 69 44 70 37 71 43 72 38 73 39 74 40 75 41 76 42 77 65 78
REMARK SMILES IDX 66 79 74 80 67 81 73 82 68 83 69 84 70 85 71 86 72 87 51 88
REMARK SMILES IDX 52 89 60 90 53 91 59 92 54 93 55 94 56 95 57 96 58 97
REMARK H PARENT 19 6 89 27 91 30 23 34 79 53 49 64
REMARK Flexibility Score: inf
ROOT
ATOM      1  C   UNL     1      -4.557   0.931  -5.267  1.00  0.00     0.042 C 
ENDROOT
BRANCH   1   2
ATOM      2  C   UNL     1      -3.964  -0.455  -5.274  1.00  0.00     0.118 C 
BRANCH   2   3
ATOM      3  N   UNL     1      -4.603  -1.504  -6.009  1.00  0.00    -0.352 N 
ATOM      4  C   UNL     1      -4.013  -2.600  -6.603  1.00  0.00     0.252 C 
ATOM      5  O   UNL     1      -4.795  -3.473  -6.999  1.00  0.00    -0.269 OA
ATOM      6  H   UNL     1      -5.581  -1.434  -6.101  1.00  0.00     0.163 HD
BRANCH   4   7
ATOM      7  C   UNL     1      -2.536  -2.782  -6.899  1.00  0.00     0.050 A 
ATOM      8  C   UNL     1      -1.382  -2.384  -6.181  1.00  0.00     0.030 A 
ATOM      9  C   UNL     1      -0.100  -2.671  -6.712  1.00  0.00     0.013 A 
ATOM     10  C   UNL     1       0.066  -3.381  -7.898  1.00  0.00     0.001 A 
ATOM     11  C   UNL     1      -2.326  -3.508  -8.101  1.00  0.00     0.014 A 
ATOM     12  C   UNL     1      -1.052  -3.811  -8.589  1.00  0.00     0.001 A 
BRANCH   8  13
ATOM     13  C   UNL     1      -1.349  -1.712  -4.893  1.00  0.00     0.135 A 
ATOM     14  C   UNL     1      -0.998   0.120  -3.669  1.00  0.00     0.128 A 
ATOM     15  C   UNL     1      -1.563  -0.855  -2.849  1.00  0.00     0.051 A 
ATOM     16  O   UNL     1      -0.859  -0.433  -4.920  1.00  0.00    -0.457 OA
ATOM     17  C   UNL     1      -1.729  -2.037  -3.613  1.00  0.00     0.051 A 
BRANCH  14  18
ATOM     18  C   UNL     1      -0.664   1.469  -3.356  1.00  0.00     0.071 C 
ATOM     19  C   UNL     1       1.429   0.081   0.712  1.00  0.00     0.301 C 
ATOM     20  N   UNL     1       1.072   1.157  -0.201  1.00  0.00    -0.189 N 
ATOM     21  C   UNL     1       0.816   0.785  -1.497  1.00  0.00     0.349 C 
ATOM     22  C   UNL     1       1.169   2.494   0.088  1.00  0.00     0.318 C 
ATOM     23  O   UNL     1       1.197  -0.286  -1.963  1.00  0.00    -0.240 OA
ATOM     24  C   UNL     1       0.102   1.796  -2.297  1.00  0.00     0.157 C 
ATOM     25  N   UNL     1       0.798   3.453  -0.679  1.00  0.00    -0.200 N 
ATOM     26  C   UNL     1       0.167   3.213  -1.870  1.00  0.00     0.347 C 
ATOM     27  H   UNL     1       0.972   4.383  -0.405  1.00  0.00     0.316 HD
ATOM     28  O   UNL     1      -0.369   4.098  -2.519  1.00  0.00    -0.241 OA
BRANCH  22  29
ATOM     29  S   UNL     1       1.900   2.949   1.610  1.00  0.00    -0.055 SA
ATOM     30  H   UNL     1       2.236   1.829   2.304  1.00  0.00     0.116 HD
ENDBRANCH  22  29
ENDBRANCH  14  18
ENDBRANCH   8  13
ENDBRANCH   4   7
ENDBRANCH   2   3
ENDBRANCH   1   2
BRANCH   1  31
ATOM     31  C   UNL     1      -5.612   1.206  -4.210  1.00  0.00     0.118 C 
BRANCH  31  32
ATOM     32  N   UNL     1      -5.208   0.925  -2.829  1.00  0.00    -0.352 N 
ATOM     33  C   UNL     1      -4.899   1.721  -1.747  1.00  0.00     0.251 C 
ATOM     34  H   UNL     1      -5.145  -0.038  -2.632  1.00  0.00     0.163 HD
ATOM     35  O   UNL     1      -4.486   1.179  -0.721  1.00  0.00    -0.269 OA
BRANCH  33  36
ATOM     36  C   UNL     1      -4.991   3.201  -1.802  1.00  0.00     0.039 A 
ATOM     37  C   UNL     1      -4.116   3.977  -1.031  1.00  0.00     0.014 A 
ATOM     38  C   UNL     1      -5.918   3.845  -2.612  1.00  0.00     0.014 A 
ATOM     39  C   UNL     1      -4.095   5.369  -1.180  1.00  0.00     0.010 A 
ATOM     40  C   UNL     1      -5.779   5.198  -2.890  1.00  0.00     0.010 A 
ATOM     41  C   UNL     1      -4.876   5.986  -2.169  1.00  0.00    -0.014 A 
BRANCH  41  42
ATOM     42  C   UNL     1      -4.795   7.442  -2.465  1.00  0.00     0.031 A 
ATOM     43  C   UNL     1      -6.047   8.288  -2.437  1.00  0.00     0.074 A 
ATOM     44  C   UNL     1      -3.623   7.984  -2.856  1.00  0.00     0.049 A 
ATOM     45  N   UNL     1      -6.208   9.538  -2.788  1.00  0.00    -0.248 NA
ATOM     46  C   UNL     1      -7.292   7.630  -2.000  1.00  0.00     0.031 C 
ATOM     47  C   UNL     1      -2.351   7.266  -2.982  1.00  0.00     0.029 A 
ATOM     48  N   UNL     1      -3.310   9.268  -3.230  1.00  0.00    -0.354 N 
ATOM     49  C   UNL     1      -7.567   9.799  -2.647  1.00  0.00     0.074 A 
ATOM     50  C   UNL     1      -8.198   8.562  -2.249  1.00  0.00     0.031 C 
ATOM     51  C   UNL     1      -1.392   8.126  -3.359  1.00  0.00     0.029 A 
ATOM     52  C   UNL     1      -1.985   9.442  -3.561  1.00  0.00     0.049 A 
ATOM     53  H   UNL     1      -3.972   9.997  -3.260  1.00  0.00     0.167 HD
ATOM     54  C   UNL     1      -8.230  10.970  -2.800  1.00  0.00     0.031 A 
ATOM     55  C   UNL     1      -1.323  10.534  -3.989  1.00  0.00     0.031 A 
ATOM     56  C   UNL     1      -7.592  12.206  -3.161  1.00  0.00     0.049 A 
ATOM     57  C   UNL     1      -2.080  11.825  -4.153  1.00  0.00     0.074 A 
ATOM     58  C   UNL     1      -8.156  13.464  -3.273  1.00  0.00     0.029 A 
ATOM     59  N   UNL     1      -6.245  12.341  -3.463  1.00  0.00    -0.354 N 
ATOM     60  N   UNL     1      -3.353  12.067  -3.941  1.00  0.00    -0.248 NA
ATOM     61  C   UNL     1      -1.312  12.992  -4.604  1.00  0.00     0.031 C 
ATOM     62  C   UNL     1      -7.163  14.348  -3.703  1.00  0.00     0.029 A 
ATOM     63  C   UNL     1      -5.965  13.656  -3.790  1.00  0.00     0.049 A 
ATOM     64  H   UNL     1      -5.586  11.609  -3.447  1.00  0.00     0.167 HD
ATOM     65  C   UNL     1      -3.530  13.420  -4.205  1.00  0.00     0.074 A 
ATOM     66  C   UNL     1      -2.231  13.947  -4.574  1.00  0.00     0.031 C 
ATOM     67  C   UNL     1      -4.664  14.161  -4.149  1.00  0.00     0.031 A 
BRANCH  54  68
ATOM     68  C   UNL     1      -9.721  10.968  -2.571  1.00  0.00    -0.014 A 
ATOM     69  C   UNL     1     -10.261  10.751  -1.289  1.00  0.00     0.010 A 
ATOM     70  C   UNL     1     -10.595  11.229  -3.642  1.00  0.00     0.010 A 
ATOM     71  C   UNL     1     -11.644  10.750  -1.092  1.00  0.00     0.020 A 
ATOM     72  C   UNL     1     -11.978  11.264  -3.443  1.00  0.00     0.020 A 
ATOM     73  C   UNL     1     -12.494  11.008  -2.171  1.00  0.00     0.054 A 
BRANCH  73  74
ATOM     74  S   UNL     1     -14.284  11.033  -1.876  1.00  0.00     0.124 S 
ATOM     75  O   UNL     1     -14.570   9.620  -1.641  1.00  0.00    -0.237 OA
ATOM     76  O   UNL     1     -14.402  11.900  -0.707  1.00  0.00    -0.237 OA
ATOM     77  O   UNL     1     -14.833  11.581  -3.114  1.00  0.00    -0.744 OA
ENDBRANCH  73  74
ENDBRANCH  54  68
BRANCH  55  78
ATOM     78  C   UNL     1       0.138  10.460  -4.276  1.00  0.00    -0.014 A 
ATOM     79  C   UNL     1       1.063  11.138  -3.461  1.00  0.00     0.010 A 
ATOM     80  C   UNL     1       0.617   9.706  -5.364  1.00  0.00     0.010 A 
ATOM     81  C   UNL     1       2.432  11.084  -3.741  1.00  0.00     0.020 A 
ATOM     82  C   UNL     1       1.988   9.623  -5.628  1.00  0.00     0.020 A 
ATOM     83  C   UNL     1       2.886  10.325  -4.823  1.00  0.00     0.054 A 
BRANCH  83  84
ATOM     84  S   UNL     1       4.670  10.241  -5.143  1.00  0.00     0.124 S 
ATOM     85  O   UNL     1       4.955  11.586  -5.633  1.00  0.00    -0.237 OA
ATOM     86  O   UNL     1       5.213   9.920  -3.825  1.00  0.00    -0.237 OA
ATOM     87  O   UNL     1       4.792   9.175  -6.135  1.00  0.00    -0.744 OA
ENDBRANCH  83  84
ENDBRANCH  55  78
BRANCH  67  88
ATOM     88  C   UNL     1      -4.551  15.631  -4.456  1.00  0.00    -0.014 A 
ATOM     89  C   UNL     1      -4.317  16.088  -5.765  1.00  0.00     0.010 A 
ATOM     90  C   UNL     1      -4.754  16.569  -3.427  1.00  0.00     0.010 A 
ATOM     91  C   UNL     1      -4.261  17.458  -6.033  1.00  0.00     0.020 A 
ATOM     92  C   UNL     1      -4.732  17.938  -3.697  1.00  0.00     0.020 A 
ATOM     93  C   UNL     1      -4.473  18.374  -4.998  1.00  0.00     0.054 A 
BRANCH  93  94
ATOM     94  S   UNL     1      -4.451  20.145  -5.386  1.00  0.00     0.124 S 
ATOM     95  O   UNL     1      -3.034  20.383  -5.643  1.00  0.00    -0.237 OA
ATOM     96  O   UNL     1      -5.325  20.227  -6.553  1.00  0.00    -0.237 OA
ATOM     97  O   UNL     1      -4.978  20.773  -4.176  1.00  0.00    -0.744 OA
ENDBRANCH  93  94
ENDBRANCH  67  88
ENDBRANCH  41  42
ENDBRANCH  33  36
ENDBRANCH  31  32
ENDBRANCH   1  31
TORSDOF 16
