REMARK SMILES O=C(CCc1cn(-c2ccc(Br)cc2)nc1-c1ccccc1)NCCCNC(=O)c1ccc(-c2c3nc(c(-c4ccc(S(=O)(=O)[O-])cc4)c4ccc([nH]4)c(-c4ccc(S(=O)(=O)[O-])cc4)c4nc(c(-c5ccc(S(=O)(=O)[O-])cc5)c5ccc2[nH]5)C=C4)C=C3)cc1
REMARK SMILES IDX 25 1 24 2 23 3 1 4 2 5 3 7 4 8 5 9 6 10 16 11 7 12 15 13
REMARK SMILES IDX 17 14 18 15 22 16 19 17 21 18 20 19 8 20 9 21 14 22 10 23
REMARK SMILES IDX 13 24 11 25 12 26 26 27 27 28 28 29 29 31 30 32 31 33 89 34
REMARK SMILES IDX 32 35 88 36 33 37 34 38 35 39 82 40 36 41 87 42 81 43 83 44
REMARK SMILES IDX 37 45 86 46 80 47 79 48 38 50 68 51 49 52 67 53 50 54 53 55
REMARK SMILES IDX 66 56 84 57 51 58 52 59 65 61 85 62 54 63 39 64 40 65 48 66
REMARK SMILES IDX 41 67 47 68 42 69 43 70 44 71 45 72 46 73 69 74 70 75 78 76
REMARK SMILES IDX 71 77 77 78 72 79 73 80 74 81 75 82 76 83 55 84 56 85 64 86
REMARK SMILES IDX 57 87 63 88 58 89 59 90 60 91 61 92 62 93
REMARK H PARENT 23 6 27 30 83 49 53 60
REMARK Flexibility Score: inf
ROOT
ATOM      1  C   UNL     1       1.655   2.356  -2.548  1.00  0.00     0.042 C 
ENDROOT
BRANCH   1   2
ATOM      2  C   UNL     1       1.549   0.836  -2.387  1.00  0.00     0.117 C 
BRANCH   2   3
ATOM      3  N   UNL     1       2.347   0.321  -1.280  1.00  0.00    -0.356 N 
ATOM      4  O   UNL     1       0.643  -0.224   0.137  1.00  0.00    -0.275 OA
ATOM      5  C   UNL     1       1.848  -0.162  -0.095  1.00  0.00     0.220 C 
ATOM      6  H   UNL     1       3.325   0.319  -1.392  1.00  0.00     0.163 HD
BRANCH   5   7
ATOM      7  C   UNL     1       2.888  -0.526   0.971  1.00  0.00     0.105 C 
BRANCH   7   8
ATOM      8  C   UNL     1       3.857  -1.669   0.646  1.00  0.00     0.049 C 
BRANCH   8   9
ATOM      9  C   UNL     1       4.874  -1.389  -0.418  1.00  0.00    -0.001 A 
ATOM     10  C   UNL     1       5.516  -0.203  -0.761  1.00  0.00     0.119 A 
ATOM     11  C   UNL     1       5.469  -2.327  -1.302  1.00  0.00     0.096 A 
ATOM     12  N   UNL     1       6.093  -0.429  -1.995  1.00  0.00    -0.240 N 
ATOM     13  N   UNL     1       5.963  -1.705  -2.370  1.00  0.00    -0.168 NA
BRANCH  11  14
ATOM     14  C   UNL     1       5.640  -3.761  -1.221  1.00  0.00     0.002 A 
ATOM     15  C   UNL     1       6.933  -4.250  -0.964  1.00  0.00     0.010 A 
ATOM     16  C   UNL     1       4.610  -4.644  -1.531  1.00  0.00     0.010 A 
ATOM     17  C   UNL     1       7.196  -5.615  -1.021  1.00  0.00     0.001 A 
ATOM     18  C   UNL     1       4.877  -6.013  -1.588  1.00  0.00     0.001 A 
ATOM     19  C   UNL     1       6.166  -6.496  -1.337  1.00  0.00     0.000 A 
ENDBRANCH  11  14
BRANCH  12  20
ATOM     20  C   UNL     1       6.799   0.428  -2.855  1.00  0.00     0.065 A 
ATOM     21  C   UNL     1       7.714   1.328  -2.351  1.00  0.00     0.029 A 
ATOM     22  C   UNL     1       6.680   0.253  -4.242  1.00  0.00     0.029 A 
ATOM     23  C   UNL     1       8.576   1.977  -3.251  1.00  0.00     0.018 A 
ATOM     24  C   UNL     1       7.491   0.968  -5.125  1.00  0.00     0.018 A 
ATOM     25  C   UNL     1       8.468   1.803  -4.621  1.00  0.00     0.018 A 
ATOM     26  Br  UNL     1       9.651   2.722  -5.771  1.00  0.00    -0.051 Br
ENDBRANCH  12  20
ENDBRANCH   8   9
ENDBRANCH   7   8
ENDBRANCH   5   7
ENDBRANCH   2   3
ENDBRANCH   1   2
BRANCH   1  27
ATOM     27  C   UNL     1       3.075   2.843  -2.783  1.00  0.00     0.118 C 
BRANCH  27  28
ATOM     28  N   UNL     1       3.583   2.876  -4.139  1.00  0.00    -0.352 N 
ATOM     29  C   UNL     1       4.731   3.498  -4.629  1.00  0.00     0.251 C 
ATOM     30  H   UNL     1       3.045   2.392  -4.806  1.00  0.00     0.163 HD
ATOM     31  O   UNL     1       4.914   3.486  -5.838  1.00  0.00    -0.269 OA
BRANCH  29  32
ATOM     32  C   UNL     1       5.764   4.123  -3.724  1.00  0.00     0.039 A 
ATOM     33  C   UNL     1       6.857   4.824  -4.263  1.00  0.00     0.014 A 
ATOM     34  C   UNL     1       5.756   3.937  -2.344  1.00  0.00     0.014 A 
ATOM     35  C   UNL     1       7.953   5.174  -3.442  1.00  0.00     0.010 A 
ATOM     36  C   UNL     1       6.801   4.308  -1.531  1.00  0.00     0.010 A 
ATOM     37  C   UNL     1       7.961   4.809  -2.086  1.00  0.00    -0.014 A 
BRANCH  37  38
ATOM     38  C   UNL     1       8.984   5.178  -1.097  1.00  0.00     0.031 A 
ATOM     39  C   UNL     1       8.847   6.629  -0.847  1.00  0.00     0.074 A 
ATOM     40  C   UNL     1       9.675   4.343  -0.272  1.00  0.00     0.049 A 
ATOM     41  N   UNL     1       9.566   7.562  -1.381  1.00  0.00    -0.248 NA
ATOM     42  C   UNL     1       7.594   7.121  -0.227  1.00  0.00     0.031 C 
ATOM     43  C   UNL     1       9.751   2.880  -0.264  1.00  0.00     0.029 A 
ATOM     44  N   UNL     1      10.421   4.627   0.844  1.00  0.00    -0.354 N 
ATOM     45  C   UNL     1       9.037   8.722  -0.839  1.00  0.00     0.074 A 
ATOM     46  C   UNL     1       7.668   8.420  -0.525  1.00  0.00     0.031 C 
ATOM     47  C   UNL     1      10.227   2.399   0.900  1.00  0.00     0.029 A 
ATOM     48  C   UNL     1      10.698   3.523   1.664  1.00  0.00     0.049 A 
ATOM     49  H   UNL     1      10.738   5.535   1.053  1.00  0.00     0.167 HD
ATOM     50  C   UNL     1       9.861   9.583  -0.178  1.00  0.00     0.031 A 
ATOM     51  C   UNL     1      11.387   3.450   2.830  1.00  0.00     0.031 A 
ATOM     52  C   UNL     1      11.245   9.293  -0.465  1.00  0.00     0.049 A 
ATOM     53  C   UNL     1      12.246   4.643   2.869  1.00  0.00     0.074 A 
ATOM     54  C   UNL     1      12.059   9.351  -1.575  1.00  0.00     0.029 A 
ATOM     55  N   UNL     1      11.824   8.420   0.423  1.00  0.00    -0.354 N 
ATOM     56  N   UNL     1      13.238   4.816   2.040  1.00  0.00    -0.248 NA
ATOM     57  C   UNL     1      11.752   5.843   3.528  1.00  0.00     0.031 C 
ATOM     58  C   UNL     1      13.075   8.371  -1.379  1.00  0.00     0.029 A 
ATOM     59  C   UNL     1      12.905   7.784  -0.128  1.00  0.00     0.049 A 
ATOM     60  H   UNL     1      11.502   8.270   1.341  1.00  0.00     0.167 HD
ATOM     61  C   UNL     1      13.176   6.160   1.731  1.00  0.00     0.074 A 
ATOM     62  C   UNL     1      12.373   6.766   2.788  1.00  0.00     0.031 C 
ATOM     63  C   UNL     1      13.485   6.603   0.479  1.00  0.00     0.031 A 
BRANCH  50  64
ATOM     64  C   UNL     1       9.459  10.270   1.112  1.00  0.00    -0.014 A 
ATOM     65  C   UNL     1      10.310  11.249   1.650  1.00  0.00     0.010 A 
ATOM     66  C   UNL     1       8.408   9.820   1.945  1.00  0.00     0.010 A 
ATOM     67  C   UNL     1      10.119  11.741   2.951  1.00  0.00     0.020 A 
ATOM     68  C   UNL     1       8.183  10.327   3.221  1.00  0.00     0.020 A 
ATOM     69  C   UNL     1       9.053  11.275   3.724  1.00  0.00     0.054 A 
BRANCH  69  70
ATOM     70  S   UNL     1       8.826  11.883   5.410  1.00  0.00     0.124 S 
ATOM     71  O   UNL     1      10.018  11.370   6.076  1.00  0.00    -0.237 OA
ATOM     72  O   UNL     1       8.776  13.328   5.209  1.00  0.00    -0.237 OA
ATOM     73  O   UNL     1       7.564  11.273   5.825  1.00  0.00    -0.744 OA
ENDBRANCH  69  70
ENDBRANCH  50  64
BRANCH  51  74
ATOM     74  C   UNL     1      11.261   2.498   3.965  1.00  0.00    -0.014 A 
ATOM     75  C   UNL     1      12.249   2.425   4.966  1.00  0.00     0.010 A 
ATOM     76  C   UNL     1      10.019   1.885   4.229  1.00  0.00     0.010 A 
ATOM     77  C   UNL     1      11.967   1.868   6.226  1.00  0.00     0.020 A 
ATOM     78  C   UNL     1       9.732   1.324   5.482  1.00  0.00     0.020 A 
ATOM     79  C   UNL     1      10.695   1.355   6.489  1.00  0.00     0.054 A 
BRANCH  79  80
ATOM     80  S   UNL     1      10.254   0.880   8.191  1.00  0.00     0.124 S 
ATOM     81  O   UNL     1      11.028  -0.342   8.386  1.00  0.00    -0.237 OA
ATOM     82  O   UNL     1      10.692   2.037   8.967  1.00  0.00    -0.237 OA
ATOM     83  O   UNL     1       8.805   0.693   8.130  1.00  0.00    -0.744 OA
ENDBRANCH  79  80
ENDBRANCH  51  74
BRANCH  63  84
ATOM     84  C   UNL     1      14.422   5.771  -0.354  1.00  0.00    -0.014 A 
ATOM     85  C   UNL     1      14.119   4.514  -0.910  1.00  0.00     0.010 A 
ATOM     86  C   UNL     1      15.664   6.359  -0.652  1.00  0.00     0.010 A 
ATOM     87  C   UNL     1      15.051   3.861  -1.737  1.00  0.00     0.020 A 
ATOM     88  C   UNL     1      16.584   5.725  -1.483  1.00  0.00     0.020 A 
ATOM     89  C   UNL     1      16.280   4.474  -2.015  1.00  0.00     0.054 A 
BRANCH  89  90
ATOM     90  S   UNL     1      17.478   3.649  -3.101  1.00  0.00     0.124 S 
ATOM     91  O   UNL     1      17.894   2.501  -2.300  1.00  0.00    -0.237 OA
ATOM     92  O   UNL     1      16.682   3.336  -4.285  1.00  0.00    -0.237 OA
ATOM     93  O   UNL     1      18.512   4.662  -3.312  1.00  0.00    -0.744 OA
ENDBRANCH  89  90
ENDBRANCH  63  84
ENDBRANCH  37  38
ENDBRANCH  29  32
ENDBRANCH  27  28
ENDBRANCH   1  27
TORSDOF 17
