REMARK SMILES O=C(NCCCNC(=O)c1ccc2c(c1)C(=O)O[C@H]2c1ccc(F)cc1)c1ccc(-c2c3nc(c(-c4ccc(S(=O)(=O)[O-])cc4)c4ccc([nH]4)c(-c4ccc(S(=O)(=O)[O-])cc4)c4nc(c(-c5ccc(S(=O)(=O)[O-])cc5)c5ccc2[nH]5)C=C4)C=C3)cc1
REMARK SMILES IDX 4 1 3 2 1 3 2 4 27 6 28 7 86 8 29 9 85 10 30 11 31 12 32 13
REMARK SMILES IDX 79 14 33 15 84 16 78 17 80 18 34 19 83 20 77 21 76 22 35 24
REMARK SMILES IDX 65 25 46 26 64 27 47 28 50 29 63 30 81 31 48 32 49 33 62 35
REMARK SMILES IDX 82 36 51 37 36 38 37 39 45 40 38 41 44 42 39 43 40 44 41 45
REMARK SMILES IDX 42 46 43 47 66 48 67 49 75 50 68 51 74 52 69 53 70 54 71 55
REMARK SMILES IDX 72 56 73 57 52 58 53 59 61 60 54 61 60 62 55 63 56 64 57 65
REMARK SMILES IDX 58 66 59 67 5 68 6 69 7 70 8 71 9 73 10 74 11 75 15 76 12 77
REMARK SMILES IDX 14 78 13 79 16 80 19 81 17 82 18 83 20 84 21 85 26 86 22 87
REMARK SMILES IDX 25 88 23 89 24 90
REMARK H PARENT 3 5 80 23 50 34 7 72
REMARK Flexibility Score: inf
ROOT
ATOM      1  C   UNL     1       4.545   1.092   0.622  1.00  0.00     0.118 C 
ENDROOT
BRANCH   1   2
ATOM      2  N   UNL     1       3.107   0.850   0.598  1.00  0.00    -0.352 N 
ATOM      3  O   UNL     1       1.178  -0.093  -0.083  1.00  0.00    -0.269 OA
ATOM      4  C   UNL     1       2.398  -0.173   0.016  1.00  0.00     0.251 C 
ATOM      5  H   UNL     1       2.562   1.520   1.070  1.00  0.00     0.163 HD
BRANCH   4   6
ATOM      6  C   UNL     1       3.117  -1.356  -0.498  1.00  0.00     0.039 A 
ATOM      7  C   UNL     1       4.183  -1.892   0.225  1.00  0.00     0.014 A 
ATOM      8  C   UNL     1       2.721  -1.941  -1.704  1.00  0.00     0.014 A 
ATOM      9  C   UNL     1       4.961  -2.892  -0.333  1.00  0.00     0.010 A 
ATOM     10  C   UNL     1       3.428  -3.039  -2.201  1.00  0.00     0.010 A 
ATOM     11  C   UNL     1       4.565  -3.511  -1.528  1.00  0.00    -0.014 A 
BRANCH  11  12
ATOM     12  C   UNL     1       5.285  -4.732  -1.960  1.00  0.00     0.031 A 
ATOM     13  C   UNL     1       6.032  -4.789  -3.262  1.00  0.00     0.074 A 
ATOM     14  C   UNL     1       5.272  -5.794  -1.127  1.00  0.00     0.049 A 
ATOM     15  N   UNL     1       6.721  -5.783  -3.761  1.00  0.00    -0.248 NA
ATOM     16  C   UNL     1       6.002  -3.591  -4.116  1.00  0.00     0.031 C 
ATOM     17  C   UNL     1       4.569  -5.846   0.162  1.00  0.00     0.029 A 
ATOM     18  N   UNL     1       5.877  -7.019  -1.218  1.00  0.00    -0.354 N 
ATOM     19  C   UNL     1       7.187  -5.344  -4.994  1.00  0.00     0.074 A 
ATOM     20  C   UNL     1       6.692  -3.996  -5.176  1.00  0.00     0.031 C 
ATOM     21  C   UNL     1       4.827  -7.016   0.759  1.00  0.00     0.029 A 
ATOM     22  C   UNL     1       5.634  -7.832  -0.136  1.00  0.00     0.049 A 
ATOM     23  H   UNL     1       6.432  -7.292  -1.984  1.00  0.00     0.167 HD
ATOM     24  C   UNL     1       7.955  -6.012  -5.888  1.00  0.00     0.031 A 
ATOM     25  C   UNL     1       5.987  -9.108   0.100  1.00  0.00     0.031 A 
ATOM     26  C   UNL     1       8.441  -7.354  -5.689  1.00  0.00     0.049 A 
ATOM     27  C   UNL     1       6.799  -9.830  -0.934  1.00  0.00     0.074 A 
ATOM     28  C   UNL     1       9.266  -8.098  -6.517  1.00  0.00     0.029 A 
ATOM     29  N   UNL     1       8.142  -8.159  -4.600  1.00  0.00    -0.354 N 
ATOM     30  N   UNL     1       7.280  -9.375  -2.066  1.00  0.00    -0.248 NA
ATOM     31  C   UNL     1       7.117 -11.237  -0.660  1.00  0.00     0.031 C 
ATOM     32  C   UNL     1       9.404  -9.374  -5.965  1.00  0.00     0.029 A 
ATOM     33  C   UNL     1       8.730  -9.404  -4.755  1.00  0.00     0.049 A 
ATOM     34  H   UNL     1       7.593  -7.885  -3.830  1.00  0.00     0.167 HD
ATOM     35  C   UNL     1       7.972 -10.437  -2.632  1.00  0.00     0.074 A 
ATOM     36  C   UNL     1       7.876 -11.544  -1.702  1.00  0.00     0.031 C 
ATOM     37  C   UNL     1       8.623 -10.495  -3.820  1.00  0.00     0.031 A 
BRANCH  24  38
ATOM     38  C   UNL     1       8.306  -5.329  -7.185  1.00  0.00    -0.014 A 
ATOM     39  C   UNL     1       9.244  -4.283  -7.232  1.00  0.00     0.010 A 
ATOM     40  C   UNL     1       7.773  -5.824  -8.391  1.00  0.00     0.010 A 
ATOM     41  C   UNL     1       9.637  -3.741  -8.460  1.00  0.00     0.020 A 
ATOM     42  C   UNL     1       8.182  -5.302  -9.621  1.00  0.00     0.020 A 
ATOM     43  C   UNL     1       9.109  -4.259  -9.647  1.00  0.00     0.054 A 
BRANCH  43  44
ATOM     44  S   UNL     1       9.696  -3.585 -11.226  1.00  0.00     0.124 S 
ATOM     45  O   UNL     1       9.115  -2.244 -11.216  1.00  0.00    -0.237 OA
ATOM     46  O   UNL     1      11.148  -3.639 -11.075  1.00  0.00    -0.237 OA
ATOM     47  O   UNL     1       9.141  -4.496 -12.223  1.00  0.00    -0.744 OA
ENDBRANCH  43  44
ENDBRANCH  24  38
BRANCH  25  48
ATOM     48  C   UNL     1       5.522  -9.796   1.335  1.00  0.00    -0.014 A 
ATOM     49  C   UNL     1       6.438 -10.236   2.306  1.00  0.00     0.010 A 
ATOM     50  C   UNL     1       4.148 -10.032   1.535  1.00  0.00     0.010 A 
ATOM     51  C   UNL     1       5.992 -10.937   3.430  1.00  0.00     0.020 A 
ATOM     52  C   UNL     1       3.695 -10.695   2.677  1.00  0.00     0.020 A 
ATOM     53  C   UNL     1       4.624 -11.165   3.606  1.00  0.00     0.054 A 
BRANCH  53  54
ATOM     54  S   UNL     1       4.068 -12.076   5.071  1.00  0.00     0.124 S 
ATOM     55  O   UNL     1       4.490 -13.438   4.756  1.00  0.00    -0.237 OA
ATOM     56  O   UNL     1       4.802 -11.418   6.148  1.00  0.00    -0.237 OA
ATOM     57  O   UNL     1       2.624 -11.855   5.084  1.00  0.00    -0.744 OA
ENDBRANCH  53  54
ENDBRANCH  25  48
BRANCH  37  58
ATOM     58  C   UNL     1       9.306 -11.791  -4.164  1.00  0.00    -0.014 A 
ATOM     59  C   UNL     1       8.566 -12.944  -4.481  1.00  0.00     0.010 A 
ATOM     60  C   UNL     1      10.711 -11.844  -4.207  1.00  0.00     0.010 A 
ATOM     61  C   UNL     1       9.220 -14.137  -4.797  1.00  0.00     0.020 A 
ATOM     62  C   UNL     1      11.368 -13.025  -4.558  1.00  0.00     0.020 A 
ATOM     63  C   UNL     1      10.617 -14.169  -4.835  1.00  0.00     0.054 A 
BRANCH  63  64
ATOM     64  S   UNL     1      11.440 -15.719  -5.290  1.00  0.00     0.124 S 
ATOM     65  O   UNL     1      11.206 -16.545  -4.108  1.00  0.00    -0.237 OA
ATOM     66  O   UNL     1      10.716 -16.123  -6.493  1.00  0.00    -0.237 OA
ATOM     67  O   UNL     1      12.829 -15.324  -5.508  1.00  0.00    -0.744 OA
ENDBRANCH  63  64
ENDBRANCH  37  58
ENDBRANCH  11  12
ENDBRANCH   4   6
ENDBRANCH   1   2
BRANCH   1  68
ATOM     68  C   UNL     1       4.937   2.296  -0.209  1.00  0.00     0.042 C 
BRANCH  68  69
ATOM     69  C   UNL     1       4.348   3.586   0.324  1.00  0.00     0.118 C 
BRANCH  69  70
ATOM     70  N   UNL     1       4.889   3.943   1.633  1.00  0.00    -0.352 N 
ATOM     71  C   UNL     1       5.787   4.928   1.963  1.00  0.00     0.251 C 
ATOM     72  H   UNL     1       4.564   3.400   2.386  1.00  0.00     0.163 HD
ATOM     73  O   UNL     1       6.281   4.986   3.083  1.00  0.00    -0.269 OA
BRANCH  71  74
ATOM     74  C   UNL     1       6.166   5.915   0.938  1.00  0.00     0.040 A 
ATOM     75  C   UNL     1       7.529   6.181   0.708  1.00  0.00     0.014 A 
ATOM     76  C   UNL     1       5.171   6.535   0.180  1.00  0.00     0.030 A 
ATOM     77  C   UNL     1       7.911   7.034  -0.332  1.00  0.00     0.009 A 
ATOM     78  C   UNL     1       5.585   7.291  -0.890  1.00  0.00     0.068 A 
ATOM     79  C   UNL     1       6.914   7.571  -1.133  1.00  0.00     0.012 A 
ATOM     80  C   UNL     1       4.766   7.901  -1.923  1.00  0.00     0.339 C 
ATOM     81  C   UNL     1       6.979   8.542  -2.254  1.00  0.00     0.238 C 
ATOM     82  O   UNL     1       3.558   7.812  -2.028  1.00  0.00    -0.246 OA
ATOM     83  O   UNL     1       5.620   8.561  -2.755  1.00  0.00    -0.449 OA
BRANCH  81  84
ATOM     84  C   UNL     1       7.329   9.947  -1.806  1.00  0.00    -0.003 A 
ATOM     85  C   UNL     1       6.618  10.574  -0.760  1.00  0.00     0.011 A 
ATOM     86  C   UNL     1       8.363  10.652  -2.436  1.00  0.00     0.011 A 
ATOM     87  C   UNL     1       6.944  11.861  -0.343  1.00  0.00     0.039 A 
ATOM     88  C   UNL     1       8.684  11.946  -2.020  1.00  0.00     0.039 A 
ATOM     89  C   UNL     1       7.976  12.536  -0.977  1.00  0.00     0.123 A 
ATOM     90  F   UNL     1       8.291  13.775  -0.581  1.00  0.00    -0.207 F 
ENDBRANCH  81  84
ENDBRANCH  71  74
ENDBRANCH  69  70
ENDBRANCH  68  69
ENDBRANCH   1  68
TORSDOF 14
