REMARK SMILES O=C(NCCCNC(=O)c1cc(F)ccc1N1CCCc2ccccc21)c1ccc(-c2c3nc(c(-c4ccc(S(=O)(=O)[O-])cc4)c4ccc([nH]4)c(-c4ccc(S(=O)(=O)[O-])cc4)c4nc(c(-c5ccc(S(=O)(=O)[O-])cc5)c5ccc2[nH]5)C=C4)C=C3)cc1
REMARK SMILES IDX 4 1 3 2 1 3 2 4 27 6 28 7 86 8 29 9 85 10 30 11 31 12 32 13
REMARK SMILES IDX 79 14 33 15 84 16 78 17 80 18 34 19 83 20 77 21 76 22 35 24
REMARK SMILES IDX 65 25 46 26 64 27 47 28 50 29 63 30 81 31 48 32 49 33 62 35
REMARK SMILES IDX 82 36 51 37 36 38 37 39 45 40 38 41 44 42 39 43 40 44 41 45
REMARK SMILES IDX 42 46 43 47 66 48 67 49 75 50 68 51 74 52 69 53 70 54 71 55
REMARK SMILES IDX 72 56 73 57 52 58 53 59 61 60 54 61 60 62 55 63 56 64 57 65
REMARK SMILES IDX 58 66 59 67 5 68 6 69 7 70 8 71 9 73 10 74 11 75 16 76 12 77
REMARK SMILES IDX 15 78 13 79 14 80 17 81 18 82 26 83 19 84 21 85 25 86 20 87
REMARK SMILES IDX 22 88 24 89 23 90
REMARK H PARENT 3 5 80 23 50 34 7 72
REMARK Flexibility Score: inf
ROOT
ATOM      1  C   UNL     1       4.681  -0.724   1.055  1.00  0.00     0.118 C 
ENDROOT
BRANCH   1   2
ATOM      2  N   UNL     1       3.242  -0.733   0.842  1.00  0.00    -0.352 N 
ATOM      3  O   UNL     1       1.242  -0.066   0.072  1.00  0.00    -0.269 OA
ATOM      4  C   UNL     1       2.465  -0.039  -0.053  1.00  0.00     0.251 C 
ATOM      5  H   UNL     1       2.742  -1.337   1.437  1.00  0.00     0.163 HD
BRANCH   4   6
ATOM      6  C   UNL     1       3.077   0.752  -1.144  1.00  0.00     0.039 A 
ATOM      7  C   UNL     1       4.149   0.258  -1.891  1.00  0.00     0.014 A 
ATOM      8  C   UNL     1       2.523   1.996  -1.463  1.00  0.00     0.014 A 
ATOM      9  C   UNL     1       4.751   1.057  -2.861  1.00  0.00     0.010 A 
ATOM     10  C   UNL     1       3.079   2.765  -2.488  1.00  0.00     0.010 A 
ATOM     11  C   UNL     1       4.216   2.315  -3.177  1.00  0.00    -0.014 A 
BRANCH  11  12
ATOM     12  C   UNL     1       4.812   3.129  -4.265  1.00  0.00     0.031 A 
ATOM     13  C   UNL     1       5.456   4.455  -3.970  1.00  0.00     0.074 A 
ATOM     14  C   UNL     1       4.744   2.680  -5.533  1.00  0.00     0.049 A 
ATOM     15  N   UNL     1       5.970   5.323  -4.804  1.00  0.00    -0.248 NA
ATOM     16  C   UNL     1       5.524   4.862  -2.558  1.00  0.00     0.031 C 
ATOM     17  C   UNL     1       4.135   1.414  -5.947  1.00  0.00     0.029 A 
ATOM     18  N   UNL     1       5.180   3.240  -6.706  1.00  0.00    -0.354 N 
ATOM     19  C   UNL     1       6.394   6.392  -4.024  1.00  0.00     0.074 A 
ATOM     20  C   UNL     1       6.065   6.069  -2.652  1.00  0.00     0.031 C 
ATOM     21  C   UNL     1       4.245   1.289  -7.277  1.00  0.00     0.029 A 
ATOM     22  C   UNL     1       4.880   2.487  -7.816  1.00  0.00     0.049 A 
ATOM     23  H   UNL     1       5.661   4.098  -6.750  1.00  0.00     0.167 HD
ATOM     24  C   UNL     1       7.000   7.539  -4.417  1.00  0.00     0.031 A 
ATOM     25  C   UNL     1       5.063   2.740  -9.126  1.00  0.00     0.031 A 
ATOM     26  C   UNL     1       7.323   7.857  -5.783  1.00  0.00     0.049 A 
ATOM     27  C   UNL     1       5.719   4.022  -9.543  1.00  0.00     0.074 A 
ATOM     28  C   UNL     1       7.975   8.974  -6.276  1.00  0.00     0.029 A 
ATOM     29  N   UNL     1       7.007   7.063  -6.876  1.00  0.00    -0.354 N 
ATOM     30  N   UNL     1       6.155   5.001  -8.787  1.00  0.00    -0.248 NA
ATOM     31  C   UNL     1       5.912   4.234 -10.983  1.00  0.00     0.031 C 
ATOM     32  C   UNL     1       8.014   8.876  -7.671  1.00  0.00     0.029 A 
ATOM     33  C   UNL     1       7.429   7.676  -8.044  1.00  0.00     0.049 A 
ATOM     34  H   UNL     1       6.551   6.192  -6.828  1.00  0.00     0.167 HD
ATOM     35  C   UNL     1       6.688   5.942  -9.659  1.00  0.00     0.074 A 
ATOM     36  C   UNL     1       6.527   5.412 -10.998  1.00  0.00     0.031 C 
ATOM     37  C   UNL     1       7.260   7.136  -9.371  1.00  0.00     0.031 A 
BRANCH  24  38
ATOM     38  C   UNL     1       7.313   8.552  -3.349  1.00  0.00    -0.014 A 
ATOM     39  C   UNL     1       8.349   8.340  -2.421  1.00  0.00     0.010 A 
ATOM     40  C   UNL     1       6.556   9.736  -3.272  1.00  0.00     0.010 A 
ATOM     41  C   UNL     1       8.582   9.265  -1.399  1.00  0.00     0.020 A 
ATOM     42  C   UNL     1       6.802  10.674  -2.265  1.00  0.00     0.020 A 
ATOM     43  C   UNL     1       7.796  10.418  -1.319  1.00  0.00     0.054 A 
BRANCH  43  44
ATOM     44  S   UNL     1       8.094  11.589   0.035  1.00  0.00     0.124 S 
ATOM     45  O   UNL     1       7.447  10.915   1.159  1.00  0.00    -0.237 OA
ATOM     46  O   UNL     1       9.553  11.649   0.097  1.00  0.00    -0.237 OA
ATOM     47  O   UNL     1       7.442  12.815  -0.417  1.00  0.00    -0.744 OA
ENDBRANCH  43  44
ENDBRANCH  24  38
BRANCH  25  48
ATOM     48  C   UNL     1       4.589   1.742 -10.120  1.00  0.00    -0.014 A 
ATOM     49  C   UNL     1       5.498   0.889 -10.766  1.00  0.00     0.010 A 
ATOM     50  C   UNL     1       3.209   1.573 -10.341  1.00  0.00     0.010 A 
ATOM     51  C   UNL     1       5.034  -0.129 -11.604  1.00  0.00     0.020 A 
ATOM     52  C   UNL     1       2.742   0.543 -11.161  1.00  0.00     0.020 A 
ATOM     53  C   UNL     1       3.659  -0.302 -11.788  1.00  0.00     0.054 A 
BRANCH  53  54
ATOM     54  S   UNL     1       3.075  -1.703 -12.783  1.00  0.00     0.124 S 
ATOM     55  O   UNL     1       3.308  -1.228 -14.142  1.00  0.00    -0.237 OA
ATOM     56  O   UNL     1       3.940  -2.793 -12.335  1.00  0.00    -0.237 OA
ATOM     57  O   UNL     1       1.672  -1.835 -12.395  1.00  0.00    -0.744 OA
ENDBRANCH  53  54
ENDBRANCH  25  48
BRANCH  37  58
ATOM     58  C   UNL     1       7.782   7.952 -10.520  1.00  0.00    -0.014 A 
ATOM     59  C   UNL     1       6.910   8.695 -11.335  1.00  0.00     0.010 A 
ATOM     60  C   UNL     1       9.170   8.049 -10.726  1.00  0.00     0.010 A 
ATOM     61  C   UNL     1       7.420   9.519 -12.342  1.00  0.00     0.020 A 
ATOM     62  C   UNL     1       9.683   8.887 -11.720  1.00  0.00     0.020 A 
ATOM     63  C   UNL     1       8.803   9.614 -12.525  1.00  0.00     0.054 A 
BRANCH  63  64
ATOM     64  S   UNL     1       9.445  10.755 -13.781  1.00  0.00     0.124 S 
ATOM     65  O   UNL     1       9.198  10.017 -15.016  1.00  0.00    -0.237 OA
ATOM     66  O   UNL     1       8.623  11.947 -13.585  1.00  0.00    -0.237 OA
ATOM     67  O   UNL     1      10.852  10.911 -13.418  1.00  0.00    -0.744 OA
ENDBRANCH  63  64
ENDBRANCH  37  58
ENDBRANCH  11  12
ENDBRANCH   4   6
ENDBRANCH   1   2
BRANCH   1  68
ATOM     68  C   UNL     1       5.082  -0.068   2.371  1.00  0.00     0.042 C 
BRANCH  68  69
ATOM     69  C   UNL     1       4.541  -0.756   3.617  1.00  0.00     0.118 C 
BRANCH  69  70
ATOM     70  N   UNL     1       4.963  -2.146   3.725  1.00  0.00    -0.352 N 
ATOM     71  C   UNL     1       5.696  -2.787   4.693  1.00  0.00     0.253 C 
ATOM     72  H   UNL     1       4.675  -2.721   2.980  1.00  0.00     0.163 HD
ATOM     73  O   UNL     1       5.968  -3.976   4.540  1.00  0.00    -0.269 OA
BRANCH  71  74
ATOM     74  C   UNL     1       6.109  -2.064   5.917  1.00  0.00     0.066 A 
ATOM     75  C   UNL     1       5.103  -1.427   6.663  1.00  0.00     0.055 A 
ATOM     76  C   UNL     1       7.433  -2.102   6.402  1.00  0.00     0.054 A 
ATOM     77  C   UNL     1       5.427  -0.745   7.827  1.00  0.00     0.124 A 
ATOM     78  C   UNL     1       7.721  -1.398   7.592  1.00  0.00     0.030 A 
ATOM     79  F   UNL     1       4.463  -0.118   8.512  1.00  0.00    -0.207 F 
ATOM     80  C   UNL     1       6.730  -0.710   8.292  1.00  0.00     0.041 A 
BRANCH  76  81
ATOM     81  N   UNL     1       8.485  -2.824   5.808  1.00  0.00    -0.341 N 
ATOM     82  C   UNL     1       8.912  -2.425   4.464  1.00  0.00     0.123 C 
ATOM     83  C   UNL     1       9.178  -3.910   6.390  1.00  0.00     0.044 A 
ATOM     84  C   UNL     1      10.427  -2.257   4.446  1.00  0.00     0.027 C 
ATOM     85  C   UNL     1      10.454  -4.292   5.932  1.00  0.00    -0.024 A 
ATOM     86  C   UNL     1       8.611  -4.641   7.450  1.00  0.00     0.026 A 
ATOM     87  C   UNL     1      11.105  -3.582   4.772  1.00  0.00     0.039 C 
ATOM     88  C   UNL     1      11.125  -5.373   6.531  1.00  0.00     0.006 A 
ATOM     89  C   UNL     1       9.281  -5.714   8.039  1.00  0.00     0.002 A 
ATOM     90  C   UNL     1      10.542  -6.077   7.582  1.00  0.00     0.000 A 
ENDBRANCH  76  81
ENDBRANCH  71  74
ENDBRANCH  69  70
ENDBRANCH  68  69
ENDBRANCH   1  68
TORSDOF 14
