REMARK SMILES COc1cc2ccccc2cc1C(=O)Nc1cc(C(=O)NCCCNC(=O)c2ccc(-c3c4nc(c(-c5ccc(S(=O)(=O)[O-])cc5)c5ccc([nH]5)c(-c5ccc(S(=O)(=O)[O-])cc5)c5nc(c(-c6ccc(S(=O)(=O)[O-])cc6)c6ccc3[nH]6)C=C5)C=C4)cc2)ccc1C
REMARK SMILES IDX 23 1 22 2 21 3 19 4 20 5 18 7 16 8 17 9 90 10 89 11 91 12
REMARK SMILES IDX 88 13 15 14 13 15 14 16 12 18 3 19 4 20 5 21 11 22 6 23
REMARK SMILES IDX 10 24 7 25 9 26 8 27 2 28 1 29 24 30 25 31 26 32 27 34 28 35
REMARK SMILES IDX 29 36 87 37 30 38 86 39 31 40 32 41 33 42 80 43 34 44 85 45
REMARK SMILES IDX 79 46 81 47 35 48 84 49 78 50 77 51 36 53 66 54 47 55 65 56
REMARK SMILES IDX 48 57 51 58 64 59 82 60 49 61 50 62 63 64 83 65 52 66 37 67
REMARK SMILES IDX 38 68 46 69 39 70 45 71 40 72 41 73 42 74 43 75 44 76 67 77
REMARK SMILES IDX 68 78 76 79 69 80 75 81 70 82 71 83 72 84 73 85 74 86 53 87
REMARK SMILES IDX 54 88 62 89 55 90 61 91 56 92 57 93 58 94 59 95 60 96
REMARK H PARENT 21 6 15 17 25 33 81 52 51 63
REMARK Flexibility Score: inf
ROOT
ATOM      1  C   UNL     1       1.218   5.205  -0.969  1.00  0.00     0.042 C 
ENDROOT
BRANCH   1   2
ATOM      2  C   UNL     1       0.309   4.488   0.019  1.00  0.00     0.118 C 
BRANCH   2   3
ATOM      3  N   UNL     1      -0.891   4.024  -0.651  1.00  0.00    -0.352 N 
ATOM      4  C   UNL     1      -1.104   3.015  -1.553  1.00  0.00     0.251 C 
ATOM      5  O   UNL     1      -2.198   2.987  -2.119  1.00  0.00    -0.269 OA
ATOM      6  H   UNL     1      -1.703   4.528  -0.413  1.00  0.00     0.163 HD
BRANCH   4   7
ATOM      7  C   UNL     1      -0.122   1.921  -1.815  1.00  0.00     0.041 A 
ATOM      8  C   UNL     1       1.893   0.700  -1.231  1.00  0.00     0.045 A 
ATOM      9  C   UNL     1       1.176   1.886  -1.313  1.00  0.00     0.040 A 
ATOM     10  C   UNL     1       1.464  -0.421  -1.950  1.00  0.00    -0.027 A 
ATOM     11  C   UNL     1       0.206  -0.362  -2.575  1.00  0.00     0.006 A 
ATOM     12  C   UNL     1       2.184  -1.736  -1.935  1.00  0.00     0.046 C 
ATOM     13  C   UNL     1      -0.595   0.779  -2.470  1.00  0.00     0.014 A 
BRANCH   8  14
ATOM     14  N   UNL     1       2.971   0.626  -0.334  1.00  0.00    -0.322 N 
ATOM     15  C   UNL     1       3.113   1.135   0.954  1.00  0.00     0.259 C 
ATOM     16  O   UNL     1       4.242   1.059   1.451  1.00  0.00    -0.269 OA
ATOM     17  H   UNL     1       3.755   0.134  -0.670  1.00  0.00     0.170 HD
BRANCH  15  18
ATOM     18  C   UNL     1       2.000   1.680   1.817  1.00  0.00     0.082 A 
ATOM     19  C   UNL     1       0.638   1.350   1.747  1.00  0.00     0.132 A 
ATOM     20  C   UNL     1      -0.320   2.060   2.489  1.00  0.00     0.056 A 
ATOM     21  C   UNL     1       0.059   3.000   3.451  1.00  0.00    -0.015 A 
ATOM     22  C   UNL     1       2.379   2.590   2.830  1.00  0.00     0.026 A 
ATOM     23  C   UNL     1      -0.900   3.703   4.202  1.00  0.00     0.009 A 
ATOM     24  C   UNL     1       1.432   3.226   3.671  1.00  0.00    -0.017 A 
ATOM     25  C   UNL     1      -0.508   4.573   5.217  1.00  0.00     0.001 A 
ATOM     26  C   UNL     1       1.807   4.097   4.709  1.00  0.00     0.009 A 
ATOM     27  C   UNL     1       0.845   4.753   5.484  1.00  0.00     0.001 A 
BRANCH  19  28
ATOM     28  O   UNL     1       0.097   0.397   0.931  1.00  0.00    -0.496 OA
ATOM     29  C   UNL     1       0.422  -0.914   1.370  1.00  0.00     0.278 C 
ENDBRANCH  19  28
ENDBRANCH  15  18
ENDBRANCH   8  14
ENDBRANCH   4   7
ENDBRANCH   2   3
ENDBRANCH   1   2
BRANCH   1  30
ATOM     30  C   UNL     1       0.552   6.483  -1.423  1.00  0.00     0.118 C 
BRANCH  30  31
ATOM     31  N   UNL     1       0.422   7.367  -0.291  1.00  0.00    -0.352 N 
ATOM     32  C   UNL     1       1.563   7.937   0.263  1.00  0.00     0.251 C 
ATOM     33  H   UNL     1      -0.466   7.565   0.086  1.00  0.00     0.163 HD
ATOM     34  O   UNL     1       2.029   7.454   1.274  1.00  0.00    -0.269 OA
BRANCH  32  35
ATOM     35  C   UNL     1       2.020   9.239  -0.378  1.00  0.00     0.039 A 
ATOM     36  C   UNL     1       1.741  10.285   0.506  1.00  0.00     0.014 A 
ATOM     37  C   UNL     1       1.559   9.373  -1.684  1.00  0.00     0.014 A 
ATOM     38  C   UNL     1       0.547  10.962   0.356  1.00  0.00     0.010 A 
ATOM     39  C   UNL     1       0.300   9.902  -1.813  1.00  0.00     0.010 A 
ATOM     40  C   UNL     1      -0.232  10.612  -0.732  1.00  0.00    -0.014 A 
BRANCH  40  41
ATOM     41  C   UNL     1      -1.607  11.005  -0.890  1.00  0.00     0.031 A 
ATOM     42  C   UNL     1      -1.798  12.172  -1.752  1.00  0.00     0.074 A 
ATOM     43  C   UNL     1      -2.543  10.168  -0.392  1.00  0.00     0.049 A 
ATOM     44  N   UNL     1      -2.881  12.841  -1.853  1.00  0.00    -0.248 NA
ATOM     45  C   UNL     1      -0.705  12.727  -2.561  1.00  0.00     0.031 C 
ATOM     46  C   UNL     1      -3.981  10.095  -0.628  1.00  0.00     0.029 A 
ATOM     47  N   UNL     1      -2.344   9.307   0.698  1.00  0.00    -0.354 N 
ATOM     48  C   UNL     1      -2.748  13.626  -2.979  1.00  0.00     0.074 A 
ATOM     49  C   UNL     1      -1.348  13.634  -3.294  1.00  0.00     0.031 C 
ATOM     50  C   UNL     1      -4.563   9.525   0.449  1.00  0.00     0.029 A 
ATOM     51  C   UNL     1      -3.520   9.385   1.462  1.00  0.00     0.049 A 
ATOM     52  H   UNL     1      -1.546   8.762   0.887  1.00  0.00     0.167 HD
ATOM     53  C   UNL     1      -3.887  13.999  -3.617  1.00  0.00     0.031 A 
ATOM     54  C   UNL     1      -3.488  10.095   2.632  1.00  0.00     0.031 A 
ATOM     55  C   UNL     1      -5.041  13.638  -2.793  1.00  0.00     0.049 A 
ATOM     56  C   UNL     1      -4.383  11.329   2.539  1.00  0.00     0.074 A 
ATOM     57  C   UNL     1      -5.902  12.554  -2.813  1.00  0.00     0.029 A 
ATOM     58  N   UNL     1      -5.127  14.188  -1.518  1.00  0.00    -0.354 N 
ATOM     59  N   UNL     1      -4.582  12.030   1.450  1.00  0.00    -0.248 NA
ATOM     60  C   UNL     1      -5.215  11.779   3.651  1.00  0.00     0.031 C 
ATOM     61  C   UNL     1      -6.422  12.394  -1.493  1.00  0.00     0.029 A 
ATOM     62  C   UNL     1      -5.887  13.387  -0.687  1.00  0.00     0.049 A 
ATOM     63  H   UNL     1      -4.703  15.033  -1.245  1.00  0.00     0.167 HD
ATOM     64  C   UNL     1      -5.581  12.951   1.671  1.00  0.00     0.074 A 
ATOM     65  C   UNL     1      -5.928  12.759   3.071  1.00  0.00     0.031 C 
ATOM     66  C   UNL     1      -6.089  13.780   0.704  1.00  0.00     0.031 A 
BRANCH  53  67
ATOM     67  C   UNL     1      -3.962  14.396  -5.070  1.00  0.00    -0.014 A 
ATOM     68  C   UNL     1      -5.215  14.353  -5.710  1.00  0.00     0.010 A 
ATOM     69  C   UNL     1      -2.863  14.745  -5.882  1.00  0.00     0.010 A 
ATOM     70  C   UNL     1      -5.363  14.610  -7.079  1.00  0.00     0.020 A 
ATOM     71  C   UNL     1      -2.992  14.997  -7.257  1.00  0.00     0.020 A 
ATOM     72  C   UNL     1      -4.247  14.926  -7.848  1.00  0.00     0.054 A 
BRANCH  72  73
ATOM     73  S   UNL     1      -4.464  15.263  -9.613  1.00  0.00     0.124 S 
ATOM     74  O   UNL     1      -5.013  14.002 -10.107  1.00  0.00    -0.237 OA
ATOM     75  O   UNL     1      -5.389  16.393  -9.603  1.00  0.00    -0.237 OA
ATOM     76  O   UNL     1      -3.113  15.572 -10.078  1.00  0.00    -0.744 OA
ENDBRANCH  72  73
ENDBRANCH  53  67
BRANCH  54  77
ATOM     77  C   UNL     1      -2.168  10.002   3.363  1.00  0.00    -0.014 A 
ATOM     78  C   UNL     1      -1.655   8.719   3.694  1.00  0.00     0.010 A 
ATOM     79  C   UNL     1      -1.290  11.091   3.479  1.00  0.00     0.010 A 
ATOM     80  C   UNL     1      -0.299   8.517   4.016  1.00  0.00     0.020 A 
ATOM     81  C   UNL     1       0.066  10.895   3.832  1.00  0.00     0.020 A 
ATOM     82  C   UNL     1       0.566   9.607   4.062  1.00  0.00     0.054 A 
BRANCH  82  83
ATOM     83  S   UNL     1       2.320   9.377   4.546  1.00  0.00     0.124 S 
ATOM     84  O   UNL     1       2.308   8.105   5.268  1.00  0.00    -0.237 OA
ATOM     85  O   UNL     1       3.045   9.378   3.283  1.00  0.00    -0.237 OA
ATOM     86  O   UNL     1       2.570  10.549   5.383  1.00  0.00    -0.744 OA
ENDBRANCH  82  83
ENDBRANCH  54  77
BRANCH  66  87
ATOM     87  C   UNL     1      -6.881  15.056   0.947  1.00  0.00    -0.014 A 
ATOM     88  C   UNL     1      -7.060  15.656   2.200  1.00  0.00     0.010 A 
ATOM     89  C   UNL     1      -7.355  15.793  -0.172  1.00  0.00     0.010 A 
ATOM     90  C   UNL     1      -7.718  16.887   2.336  1.00  0.00     0.020 A 
ATOM     91  C   UNL     1      -7.943  17.054  -0.058  1.00  0.00     0.020 A 
ATOM     92  C   UNL     1      -8.148  17.581   1.206  1.00  0.00     0.054 A 
BRANCH  92  93
ATOM     93  S   UNL     1      -8.936  19.193   1.408  1.00  0.00     0.124 S 
ATOM     94  O   UNL     1     -10.268  18.816   1.873  1.00  0.00    -0.237 OA
ATOM     95  O   UNL     1      -8.084  19.842   2.402  1.00  0.00    -0.237 OA
ATOM     96  O   UNL     1      -8.882  19.778   0.071  1.00  0.00    -0.744 OA
ENDBRANCH  92  93
ENDBRANCH  66  87
ENDBRANCH  40  41
ENDBRANCH  32  35
ENDBRANCH  30  31
ENDBRANCH   1  30
TORSDOF 16
