REMARK SMILES C[C@H](NC(=O)N(CC(=O)NCCCNC(=O)c1ccc(-c2c3nc(c(-c4ccc(S(=O)(=O)[O-])cc4)c4ccc([nH]4)c(-c4ccc(S(=O)(=O)[O-])cc4)c4nc(c(-c5ccc(S(=O)(=O)[O-])cc5)c5ccc2[nH]5)C=C4)C=C3)cc1)CC(F)(F)F)[C@@H]1CCCO1
REMARK SMILES IDX 11 1 10 2 8 3 9 4 7 6 6 7 4 8 3 9 5 11 2 12 1 13 82 14 83 15
REMARK SMILES IDX 86 16 84 17 85 18 77 19 78 20 79 21 80 22 81 23 12 24 13 25
REMARK SMILES IDX 14 26 15 27 16 29 17 30 18 31 76 32 19 33 75 34 20 35 21 36
REMARK SMILES IDX 22 37 69 38 23 39 74 40 68 41 70 42 24 43 73 44 67 45 66 46
REMARK SMILES IDX 25 48 55 49 36 50 54 51 37 52 40 53 53 54 71 55 38 56 39 57
REMARK SMILES IDX 52 59 72 60 41 61 26 62 27 63 35 64 28 65 34 66 29 67 30 68
REMARK SMILES IDX 31 69 32 70 33 71 56 72 57 73 65 74 58 75 64 76 59 77 60 78
REMARK SMILES IDX 61 79 62 80 63 81 42 82 43 83 51 84 44 85 50 86 45 87 46 88
REMARK SMILES IDX 47 89 48 90 49 91
REMARK H PARENT 10 5 3 10 14 28 70 47 40 58
REMARK Flexibility Score: inf
ROOT
ATOM      1  C   UNL     1       3.393   2.260  -1.076  1.00  0.00     0.117 C 
ENDROOT
BRANCH   1   2
ATOM      2  N   UNL     1       4.238   1.863  -2.189  1.00  0.00    -0.354 N 
ATOM      3  C   UNL     1       4.309   0.655  -2.821  1.00  0.00     0.239 C 
ATOM      4  O   UNL     1       5.181   0.461  -3.667  1.00  0.00    -0.273 OA
ATOM      5  H   UNL     1       4.842   2.559  -2.535  1.00  0.00     0.163 HD
BRANCH   3   6
ATOM      6  C   UNL     1       3.210  -0.367  -2.564  1.00  0.00     0.221 C 
BRANCH   6   7
ATOM      7  N   UNL     1       3.140  -1.081  -1.299  1.00  0.00    -0.306 N 
BRANCH   7   8
ATOM      8  C   UNL     1       2.092  -1.125  -0.431  1.00  0.00     0.318 C 
ATOM      9  N   UNL     1       0.861  -0.654  -0.687  1.00  0.00    -0.333 N 
ATOM     10  H   UNL     1       0.254  -0.906   0.047  1.00  0.00     0.165 HD
ATOM     11  O   UNL     1       2.212  -1.670   0.671  1.00  0.00    -0.249 OA
BRANCH   9  12
ATOM     12  C   UNL     1       0.110   0.118  -1.707  1.00  0.00     0.109 C 
ATOM     13  C   UNL     1       0.149  -0.482  -3.126  1.00  0.00     0.034 C 
BRANCH  12  14
ATOM     14  C   UNL     1      -1.356   0.360  -1.226  1.00  0.00     0.140 C 
ATOM     15  C   UNL     1      -2.334  -0.778  -1.516  1.00  0.00     0.036 C 
ATOM     16  O   UNL     1      -1.872   1.548  -1.855  1.00  0.00    -0.376 OA
ATOM     17  C   UNL     1      -3.442  -0.146  -2.328  1.00  0.00     0.031 C 
ATOM     18  C   UNL     1      -2.882   1.178  -2.789  1.00  0.00     0.160 C 
ENDBRANCH  12  14
ENDBRANCH   9  12
ENDBRANCH   7   8
BRANCH   7  19
ATOM     19  C   UNL     1       4.300  -1.956  -0.980  1.00  0.00     0.237 C 
BRANCH  19  20
ATOM     20  C   UNL     1       5.431  -1.369  -0.131  1.00  0.00     0.406 C 
ATOM     21  F   UNL     1       5.029  -0.989   1.097  1.00  0.00    -0.169 F 
ATOM     22  F   UNL     1       6.414  -2.288   0.027  1.00  0.00    -0.169 F 
ATOM     23  F   UNL     1       5.991  -0.295  -0.732  1.00  0.00    -0.169 F 
ENDBRANCH  19  20
ENDBRANCH   7  19
ENDBRANCH   6   7
ENDBRANCH   3   6
ENDBRANCH   1   2
BRANCH   1  24
ATOM     24  C   UNL     1       4.160   2.266   0.234  1.00  0.00     0.042 C 
BRANCH  24  25
ATOM     25  C   UNL     1       5.352   3.206   0.211  1.00  0.00     0.118 C 
BRANCH  25  26
ATOM     26  N   UNL     1       4.941   4.601   0.116  1.00  0.00    -0.352 N 
ATOM     27  C   UNL     1       5.315   5.652   0.918  1.00  0.00     0.251 C 
ATOM     28  H   UNL     1       4.317   4.817  -0.615  1.00  0.00     0.163 HD
ATOM     29  O   UNL     1       4.724   6.719   0.859  1.00  0.00    -0.269 OA
BRANCH  27  30
ATOM     30  C   UNL     1       6.433   5.452   1.862  1.00  0.00     0.039 A 
ATOM     31  C   UNL     1       6.281   5.844   3.192  1.00  0.00     0.014 A 
ATOM     32  C   UNL     1       7.607   4.826   1.431  1.00  0.00     0.014 A 
ATOM     33  C   UNL     1       7.294   5.556   4.108  1.00  0.00     0.010 A 
ATOM     34  C   UNL     1       8.570   4.462   2.361  1.00  0.00     0.010 A 
ATOM     35  C   UNL     1       8.430   4.833   3.706  1.00  0.00    -0.014 A 
BRANCH  35  36
ATOM     36  C   UNL     1       9.499   4.467   4.667  1.00  0.00     0.031 A 
ATOM     37  C   UNL     1      10.892   5.001   4.467  1.00  0.00     0.074 A 
ATOM     38  C   UNL     1       9.236   3.603   5.667  1.00  0.00     0.049 A 
ATOM     39  N   UNL     1      11.982   4.731   5.137  1.00  0.00    -0.248 NA
ATOM     40  C   UNL     1      11.091   5.941   3.350  1.00  0.00     0.031 C 
ATOM     41  C   UNL     1       7.933   2.991   5.940  1.00  0.00     0.029 A 
ATOM     42  N   UNL     1      10.056   3.080   6.635  1.00  0.00    -0.354 N 
ATOM     43  C   UNL     1      12.995   5.449   4.512  1.00  0.00     0.074 A 
ATOM     44  C   UNL     1      12.402   6.121   3.378  1.00  0.00     0.031 C 
ATOM     45  C   UNL     1       8.036   2.199   7.019  1.00  0.00     0.029 A 
ATOM     46  C   UNL     1       9.419   2.205   7.484  1.00  0.00     0.049 A 
ATOM     47  H   UNL     1      11.010   3.309   6.714  1.00  0.00     0.167 HD
ATOM     48  C   UNL     1      14.298   5.556   4.864  1.00  0.00     0.031 A 
ATOM     49  C   UNL     1       9.899   1.480   8.514  1.00  0.00     0.031 A 
ATOM     50  C   UNL     1      14.877   4.890   5.999  1.00  0.00     0.049 A 
ATOM     51  C   UNL     1      11.357   1.593   8.869  1.00  0.00     0.074 A 
ATOM     52  C   UNL     1      16.174   4.971   6.472  1.00  0.00     0.029 A 
ATOM     53  N   UNL     1      14.196   4.019   6.837  1.00  0.00    -0.354 N 
ATOM     54  N   UNL     1      12.287   2.327   8.305  1.00  0.00    -0.248 NA
ATOM     55  C   UNL     1      11.830   0.789  10.004  1.00  0.00     0.031 C 
ATOM     56  C   UNL     1      16.294   4.104   7.561  1.00  0.00     0.029 A 
ATOM     57  C   UNL     1      15.053   3.537   7.811  1.00  0.00     0.049 A 
ATOM     58  H   UNL     1      13.245   3.781   6.753  1.00  0.00     0.167 HD
ATOM     59  C   UNL     1      13.446   2.099   9.039  1.00  0.00     0.074 A 
ATOM     60  C   UNL     1      13.098   1.167  10.091  1.00  0.00     0.031 C 
ATOM     61  C   UNL     1      14.686   2.618   8.859  1.00  0.00     0.031 A 
BRANCH  48  62
ATOM     62  C   UNL     1      15.184   6.421   4.006  1.00  0.00    -0.014 A 
ATOM     63  C   UNL     1      15.023   7.818   3.970  1.00  0.00     0.010 A 
ATOM     64  C   UNL     1      16.219   5.833   3.255  1.00  0.00     0.010 A 
ATOM     65  C   UNL     1      15.852   8.607   3.167  1.00  0.00     0.020 A 
ATOM     66  C   UNL     1      17.072   6.622   2.477  1.00  0.00     0.020 A 
ATOM     67  C   UNL     1      16.871   8.003   2.425  1.00  0.00     0.054 A 
BRANCH  67  68
ATOM     68  S   UNL     1      17.947   9.056   1.414  1.00  0.00     0.124 S 
ATOM     69  O   UNL     1      17.048   9.459   0.336  1.00  0.00    -0.237 OA
ATOM     70  O   UNL     1      18.324  10.115   2.346  1.00  0.00    -0.237 OA
ATOM     71  O   UNL     1      19.034   8.163   1.017  1.00  0.00    -0.744 OA
ENDBRANCH  67  68
ENDBRANCH  48  62
BRANCH  49  72
ATOM     72  C   UNL     1       8.988   0.591   9.289  1.00  0.00    -0.014 A 
ATOM     73  C   UNL     1       8.654   0.897  10.620  1.00  0.00     0.010 A 
ATOM     74  C   UNL     1       8.440  -0.562   8.697  1.00  0.00     0.010 A 
ATOM     75  C   UNL     1       7.810   0.057  11.351  1.00  0.00     0.020 A 
ATOM     76  C   UNL     1       7.570  -1.388   9.415  1.00  0.00     0.020 A 
ATOM     77  C   UNL     1       7.271  -1.080  10.743  1.00  0.00     0.054 A 
BRANCH  77  78
ATOM     78  S   UNL     1       6.145  -2.132  11.701  1.00  0.00     0.124 S 
ATOM     79  O   UNL     1       7.055  -2.767  12.649  1.00  0.00    -0.237 OA
ATOM     80  O   UNL     1       5.214  -1.161  12.270  1.00  0.00    -0.237 OA
ATOM     81  O   UNL     1       5.568  -3.022  10.695  1.00  0.00    -0.744 OA
ENDBRANCH  77  78
ENDBRANCH  49  72
BRANCH  61  82
ATOM     82  C   UNL     1      15.755   2.235   9.848  1.00  0.00    -0.014 A 
ATOM     83  C   UNL     1      16.327   0.951   9.849  1.00  0.00     0.010 A 
ATOM     84  C   UNL     1      16.256   3.211  10.730  1.00  0.00     0.010 A 
ATOM     85  C   UNL     1      17.370   0.645  10.728  1.00  0.00     0.020 A 
ATOM     86  C   UNL     1      17.318   2.918  11.588  1.00  0.00     0.020 A 
ATOM     87  C   UNL     1      17.863   1.633  11.587  1.00  0.00     0.054 A 
BRANCH  87  88
ATOM     88  S   UNL     1      19.266   1.231  12.664  1.00  0.00     0.124 S 
ATOM     89  O   UNL     1      18.651   0.343  13.647  1.00  0.00    -0.237 OA
ATOM     90  O   UNL     1      20.204   0.594  11.742  1.00  0.00    -0.237 OA
ATOM     91  O   UNL     1      19.693   2.530  13.179  1.00  0.00    -0.744 OA
ENDBRANCH  87  88
ENDBRANCH  61  82
ENDBRANCH  35  36
ENDBRANCH  27  30
ENDBRANCH  25  26
ENDBRANCH  24  25
ENDBRANCH   1  24
TORSDOF 19
