REMARK SMILES C[C@@H]1[C@@H](C(=O)NCCCNC(=O)c2ccc(-c3c4nc(c(-c5ccc(S(=O)(=O)[O-])cc5)c5ccc([nH]5)c(-c5ccc(S(=O)(=O)[O-])cc5)c5nc(c(-c6ccc(S(=O)(=O)[O-])cc6)c6ccc3[nH]6)C=C5)C=C4)cc2)CCN1C(=O)c1cc(Cl)ccc1O
REMARK SMILES IDX 8 1 7 2 6 3 4 4 5 5 3 7 1 8 2 9 75 10 73 11 74 12 76 13
REMARK SMILES IDX 77 14 78 15 79 16 84 17 80 18 83 19 81 20 82 21 85 22 9 24
REMARK SMILES IDX 10 25 11 26 12 28 13 29 14 30 72 31 15 32 71 33 16 34 17 35
REMARK SMILES IDX 18 36 65 37 19 38 70 39 64 40 66 41 20 42 69 43 63 44 62 45
REMARK SMILES IDX 21 47 51 48 32 49 50 50 33 51 36 52 49 53 67 54 34 55 35 56
REMARK SMILES IDX 48 58 68 59 37 60 22 61 23 62 31 63 24 64 30 65 25 66 26 67
REMARK SMILES IDX 27 68 28 69 29 70 52 71 53 72 61 73 54 74 60 75 55 76 56 77
REMARK SMILES IDX 57 78 58 79 59 80 38 81 39 82 47 83 40 84 46 85 41 86 42 87
REMARK SMILES IDX 43 88 44 89 45 90
REMARK H PARENT 6 6 85 23 10 27 66 46 36 57
REMARK Flexibility Score: inf
ROOT
ATOM      1  C   UNL     1      -2.960   4.181  -1.204  1.00  0.00     0.042 C 
ENDROOT
BRANCH   1   2
ATOM      2  C   UNL     1      -2.637   2.751  -0.816  1.00  0.00     0.117 C 
BRANCH   2   3
ATOM      3  N   UNL     1      -1.907   2.021  -1.835  1.00  0.00    -0.356 N 
ATOM      4  C   UNL     1      -0.874   1.144  -1.702  1.00  0.00     0.225 C 
ATOM      5  O   UNL     1      -0.451   0.607  -2.726  1.00  0.00    -0.275 OA
ATOM      6  H   UNL     1      -2.203   2.183  -2.760  1.00  0.00     0.163 HD
BRANCH   4   7
ATOM      7  C   UNL     1      -0.232   0.936  -0.336  1.00  0.00     0.102 C 
ATOM      8  C   UNL     1       1.981   0.179   0.573  1.00  0.00     0.032 C 
ATOM      9  C   UNL     1       0.849  -0.175  -0.395  1.00  0.00     0.094 C 
ATOM     10  N   UNL     1       0.107  -1.402  -0.014  1.00  0.00    -0.335 N 
ATOM     11  C   UNL     1      -1.180   0.409   0.746  1.00  0.00     0.037 C 
ATOM     12  C   UNL     1      -1.213  -1.077   0.485  1.00  0.00     0.121 C 
BRANCH  10  13
ATOM     13  C   UNL     1       0.314  -2.711  -0.415  1.00  0.00     0.257 C 
ATOM     14  O   UNL     1      -0.543  -3.587  -0.308  1.00  0.00    -0.269 OA
BRANCH  13  15
ATOM     15  C   UNL     1       1.621  -3.119  -0.936  1.00  0.00     0.083 A 
ATOM     16  C   UNL     1       1.673  -3.651  -2.229  1.00  0.00     0.038 A 
ATOM     17  C   UNL     1       2.749  -3.155  -0.112  1.00  0.00     0.128 A 
ATOM     18  C   UNL     1       2.877  -4.164  -2.705  1.00  0.00     0.042 A 
ATOM     19  C   UNL     1       3.958  -3.633  -0.609  1.00  0.00     0.048 A 
ATOM     20  Cl  UNL     1       2.947  -4.869  -4.273  1.00  0.00    -0.084 Cl
ATOM     21  C   UNL     1       4.023  -4.140  -1.909  1.00  0.00     0.024 A 
BRANCH  17  22
ATOM     22  O   UNL     1       2.736  -2.789   1.205  1.00  0.00    -0.507 OA
ATOM     23  H   UNL     1       1.949  -2.461   1.593  1.00  0.00     0.293 HD
ENDBRANCH  17  22
ENDBRANCH  13  15
ENDBRANCH  10  13
ENDBRANCH   4   7
ENDBRANCH   2   3
ENDBRANCH   1   2
BRANCH   1  24
ATOM     24  C   UNL     1      -3.722   4.330  -2.509  1.00  0.00     0.118 C 
BRANCH  24  25
ATOM     25  N   UNL     1      -5.043   3.718  -2.486  1.00  0.00    -0.352 N 
ATOM     26  C   UNL     1      -6.296   4.293  -2.511  1.00  0.00     0.251 C 
ATOM     27  H   UNL     1      -5.041   2.734  -2.446  1.00  0.00     0.163 HD
ATOM     28  O   UNL     1      -7.285   3.595  -2.340  1.00  0.00    -0.269 OA
BRANCH  26  29
ATOM     29  C   UNL     1      -6.439   5.755  -2.701  1.00  0.00     0.039 A 
ATOM     30  C   UNL     1      -7.360   6.454  -1.915  1.00  0.00     0.014 A 
ATOM     31  C   UNL     1      -5.658   6.442  -3.631  1.00  0.00     0.014 A 
ATOM     32  C   UNL     1      -7.423   7.848  -1.997  1.00  0.00     0.010 A 
ATOM     33  C   UNL     1      -5.636   7.832  -3.623  1.00  0.00     0.010 A 
ATOM     34  C   UNL     1      -6.522   8.553  -2.812  1.00  0.00    -0.014 A 
BRANCH  34  35
ATOM     35  C   UNL     1      -6.492  10.039  -2.843  1.00  0.00     0.031 A 
ATOM     36  C   UNL     1      -6.730  10.771  -4.139  1.00  0.00     0.074 A 
ATOM     37  C   UNL     1      -6.178  10.729  -1.727  1.00  0.00     0.049 A 
ATOM     38  N   UNL     1      -6.662  12.055  -4.386  1.00  0.00    -0.248 NA
ATOM     39  C   UNL     1      -7.053   9.952  -5.320  1.00  0.00     0.031 C 
ATOM     40  C   UNL     1      -5.879  10.140  -0.419  1.00  0.00     0.029 A 
ATOM     41  N   UNL     1      -6.052  12.080  -1.515  1.00  0.00    -0.354 N 
ATOM     42  C   UNL     1      -6.912  12.192  -5.747  1.00  0.00     0.074 A 
ATOM     43  C   UNL     1      -7.070  10.859  -6.285  1.00  0.00     0.031 C 
ATOM     44  C   UNL     1      -5.643  11.123   0.464  1.00  0.00     0.029 A 
ATOM     45  C   UNL     1      -5.724  12.409  -0.220  1.00  0.00     0.049 A 
ATOM     46  H   UNL     1      -6.185  12.750  -2.224  1.00  0.00     0.167 HD
ATOM     47  C   UNL     1      -7.026  13.324  -6.481  1.00  0.00     0.031 A 
ATOM     48  C   UNL     1      -5.507  13.609   0.352  1.00  0.00     0.031 A 
ATOM     49  C   UNL     1      -6.889  14.649  -5.941  1.00  0.00     0.049 A 
ATOM     50  C   UNL     1      -5.632  14.853  -0.485  1.00  0.00     0.074 A 
ATOM     51  C   UNL     1      -7.044  15.862  -6.589  1.00  0.00     0.029 A 
ATOM     52  N   UNL     1      -6.569  14.937  -4.623  1.00  0.00    -0.354 N 
ATOM     53  N   UNL     1      -5.929  14.963  -1.758  1.00  0.00    -0.248 NA
ATOM     54  C   UNL     1      -5.404  16.136   0.195  1.00  0.00     0.031 C 
ATOM     55  C   UNL     1      -6.765  16.883  -5.676  1.00  0.00     0.029 A 
ATOM     56  C   UNL     1      -6.500  16.308  -4.443  1.00  0.00     0.049 A 
ATOM     57  H   UNL     1      -6.415  14.266  -3.919  1.00  0.00     0.167 HD
ATOM     58  C   UNL     1      -5.953  16.328  -2.024  1.00  0.00     0.074 A 
ATOM     59  C   UNL     1      -5.655  17.002  -0.777  1.00  0.00     0.031 C 
ATOM     60  C   UNL     1      -6.203  16.965  -3.195  1.00  0.00     0.031 A 
BRANCH  47  61
ATOM     61  C   UNL     1      -7.315  13.173  -7.952  1.00  0.00    -0.014 A 
ATOM     62  C   UNL     1      -8.559  12.694  -8.403  1.00  0.00     0.010 A 
ATOM     63  C   UNL     1      -6.345  13.549  -8.899  1.00  0.00     0.010 A 
ATOM     64  C   UNL     1      -8.810  12.550  -9.770  1.00  0.00     0.020 A 
ATOM     65  C   UNL     1      -6.604  13.437 -10.268  1.00  0.00     0.020 A 
ATOM     66  C   UNL     1      -7.830  12.921 -10.694  1.00  0.00     0.054 A 
BRANCH  66  67
ATOM     67  S   UNL     1      -8.193  12.745 -12.462  1.00  0.00     0.124 S 
ATOM     68  O   UNL     1      -8.146  11.295 -12.636  1.00  0.00    -0.237 OA
ATOM     69  O   UNL     1      -9.519  13.347 -12.577  1.00  0.00    -0.237 OA
ATOM     70  O   UNL     1      -7.116  13.486 -13.114  1.00  0.00    -0.744 OA
ENDBRANCH  66  67
ENDBRANCH  47  61
BRANCH  48  71
ATOM     71  C   UNL     1      -5.168  13.694   1.800  1.00  0.00    -0.014 A 
ATOM     72  C   UNL     1      -6.092  14.224   2.719  1.00  0.00     0.010 A 
ATOM     73  C   UNL     1      -3.924  13.237   2.271  1.00  0.00     0.010 A 
ATOM     74  C   UNL     1      -5.771  14.312   4.077  1.00  0.00     0.020 A 
ATOM     75  C   UNL     1      -3.611  13.296   3.632  1.00  0.00     0.020 A 
ATOM     76  C   UNL     1      -4.533  13.845   4.526  1.00  0.00     0.054 A 
BRANCH  76  77
ATOM     77  S   UNL     1      -4.159  13.922   6.299  1.00  0.00     0.124 S 
ATOM     78  O   UNL     1      -3.935  15.350   6.501  1.00  0.00    -0.237 OA
ATOM     79  O   UNL     1      -5.373  13.379   6.901  1.00  0.00    -0.237 OA
ATOM     80  O   UNL     1      -2.974  13.076   6.435  1.00  0.00    -0.744 OA
ENDBRANCH  76  77
ENDBRANCH  48  71
BRANCH  60  81
ATOM     81  C   UNL     1      -6.203  18.470  -3.180  1.00  0.00    -0.014 A 
ATOM     82  C   UNL     1      -5.010  19.201  -3.049  1.00  0.00     0.010 A 
ATOM     83  C   UNL     1      -7.415  19.162  -3.360  1.00  0.00     0.010 A 
ATOM     84  C   UNL     1      -5.032  20.598  -3.067  1.00  0.00     0.020 A 
ATOM     85  C   UNL     1      -7.438  20.558  -3.409  1.00  0.00     0.020 A 
ATOM     86  C   UNL     1      -6.247  21.267  -3.248  1.00  0.00     0.054 A 
BRANCH  86  87
ATOM     87  S   UNL     1      -6.242  23.080  -3.313  1.00  0.00     0.124 S 
ATOM     88  O   UNL     1      -6.009  23.434  -1.916  1.00  0.00    -0.237 OA
ATOM     89  O   UNL     1      -5.139  23.364  -4.227  1.00  0.00    -0.237 OA
ATOM     90  O   UNL     1      -7.570  23.412  -3.827  1.00  0.00    -0.744 OA
ENDBRANCH  86  87
ENDBRANCH  60  81
ENDBRANCH  34  35
ENDBRANCH  26  29
ENDBRANCH  24  25
ENDBRANCH   1  24
TORSDOF 16
