REMARK SMILES CN(C)c1ccc(CNc2cc(C(=O)NCCCNC(=O)c3ccc(-c4c5nc(c(-c6ccc(S(=O)(=O)[O-])cc6)c6ccc([nH]6)c(-c6ccc(S(=O)(=O)[O-])cc6)c6nc(c(-c7ccc(S(=O)(=O)[O-])cc7)c7ccc4[nH]7)C=C6)C=C5)cc3)[nH]n2)cc1
REMARK SMILES IDX 16 1 15 2 13 3 14 4 12 6 10 7 11 8 83 9 82 10 9 12 8 14 7 15
REMARK SMILES IDX 4 16 5 17 85 18 6 19 84 20 2 21 1 22 3 23 17 24 18 25 19 26
REMARK SMILES IDX 20 27 21 29 22 30 23 31 81 32 24 33 80 34 25 35 26 36 27 37
REMARK SMILES IDX 74 38 28 39 79 40 73 41 75 42 29 43 78 44 72 45 71 46 30 48
REMARK SMILES IDX 60 49 41 50 59 51 42 52 45 53 58 54 76 55 43 56 44 57 57 59
REMARK SMILES IDX 77 60 46 61 31 62 32 63 40 64 33 65 39 66 34 67 35 68 36 69
REMARK SMILES IDX 37 70 38 71 61 72 62 73 70 74 63 75 69 76 64 77 65 78 66 79
REMARK SMILES IDX 67 80 68 81 47 82 48 83 56 84 49 85 55 86 50 87 51 88 52 89
REMARK SMILES IDX 53 90 54 91
REMARK H PARENT 15 5 82 11 9 13 19 28 75 47 45 58
REMARK Flexibility Score: inf
ROOT
ATOM      1  C   UNL     1       0.738   2.275  10.986  1.00  0.00     0.118 C 
ENDROOT
BRANCH   1   2
ATOM      2  N   UNL     1      -0.057   3.461  11.240  1.00  0.00    -0.351 N 
ATOM      3  C   UNL     1      -0.343   4.544  10.453  1.00  0.00     0.269 C 
ATOM      4  O   UNL     1      -1.132   5.371  10.909  1.00  0.00    -0.268 OA
ATOM      5  H   UNL     1      -0.462   3.493  12.137  1.00  0.00     0.163 HD
BRANCH   3   6
ATOM      6  C   UNL     1       0.205   4.691   9.134  1.00  0.00     0.125 A 
ATOM      7  C   UNL     1       1.116   4.631   7.103  1.00  0.00     0.148 A 
ATOM      8  C   UNL     1       1.208   4.089   8.401  1.00  0.00     0.082 A 
ATOM      9  N   UNL     1       0.232   5.620   7.049  1.00  0.00    -0.157 NA
ATOM     10  N   UNL     1      -0.290   5.648   8.284  1.00  0.00    -0.271 N 
ATOM     11  H   UNL     1      -0.974   6.301   8.559  1.00  0.00     0.190 HD
BRANCH   7  12
ATOM     12  N   UNL     1       1.809   4.207   6.036  1.00  0.00    -0.365 N 
ATOM     13  H   UNL     1       2.063   4.867   5.350  1.00  0.00     0.162 HD
BRANCH  12  14
ATOM     14  C   UNL     1       2.200   2.825   5.843  1.00  0.00     0.150 C 
BRANCH  14  15
ATOM     15  C   UNL     1       1.753   2.348   4.480  1.00  0.00    -0.029 A 
ATOM     16  C   UNL     1       0.912   1.493   1.892  1.00  0.00     0.036 A 
ATOM     17  C   UNL     1       0.029   2.124   2.780  1.00  0.00     0.026 A 
ATOM     18  C   UNL     1       2.215   1.261   2.356  1.00  0.00     0.026 A 
ATOM     19  C   UNL     1       0.432   2.531   4.055  1.00  0.00     0.008 A 
ATOM     20  C   UNL     1       2.637   1.688   3.624  1.00  0.00     0.008 A 
BRANCH  16  21
ATOM     21  N   UNL     1       0.503   1.132   0.614  1.00  0.00    -0.378 N 
ATOM     22  C   UNL     1       1.122   0.014  -0.077  1.00  0.00     0.143 C 
ATOM     23  C   UNL     1      -0.301   2.075  -0.148  1.00  0.00     0.143 C 
ENDBRANCH  16  21
ENDBRANCH  14  15
ENDBRANCH  12  14
ENDBRANCH   7  12
ENDBRANCH   3   6
ENDBRANCH   1   2
BRANCH   1  24
ATOM     24  C   UNL     1       2.128   2.385  11.604  1.00  0.00     0.042 C 
BRANCH  24  25
ATOM     25  C   UNL     1       2.123   2.172  13.117  1.00  0.00     0.118 C 
BRANCH  25  26
ATOM     26  N   UNL     1       1.711   0.818  13.473  1.00  0.00    -0.352 N 
ATOM     27  C   UNL     1       2.380  -0.166  14.155  1.00  0.00     0.251 C 
ATOM     28  H   UNL     1       0.806   0.571  13.175  1.00  0.00     0.163 HD
ATOM     29  O   UNL     1       1.946  -1.315  14.126  1.00  0.00    -0.269 OA
BRANCH  27  30
ATOM     30  C   UNL     1       3.608   0.145  14.915  1.00  0.00     0.039 A 
ATOM     31  C   UNL     1       4.654  -0.781  14.917  1.00  0.00     0.014 A 
ATOM     32  C   UNL     1       3.713   1.320  15.664  1.00  0.00     0.014 A 
ATOM     33  C   UNL     1       5.824  -0.503  15.626  1.00  0.00     0.010 A 
ATOM     34  C   UNL     1       4.909   1.633  16.302  1.00  0.00     0.010 A 
ATOM     35  C   UNL     1       5.974   0.721  16.299  1.00  0.00    -0.014 A 
BRANCH  35  36
ATOM     36  C   UNL     1       7.234   1.062  17.005  1.00  0.00     0.031 A 
ATOM     37  C   UNL     1       7.232   1.287  18.494  1.00  0.00     0.074 A 
ATOM     38  C   UNL     1       8.368   1.228  16.296  1.00  0.00     0.049 A 
ATOM     39  N   UNL     1       8.220   1.643  19.274  1.00  0.00    -0.248 NA
ATOM     40  C   UNL     1       5.949   1.113  19.194  1.00  0.00     0.031 C 
ATOM     41  C   UNL     1       8.489   1.076  14.843  1.00  0.00     0.029 A 
ATOM     42  N   UNL     1       9.636   1.565  16.699  1.00  0.00    -0.354 N 
ATOM     43  C   UNL     1       7.676   1.752  20.549  1.00  0.00     0.074 A 
ATOM     44  C   UNL     1       6.261   1.478  20.429  1.00  0.00     0.031 C 
ATOM     45  C   UNL     1       9.764   1.288  14.483  1.00  0.00     0.029 A 
ATOM     46  C   UNL     1      10.542   1.638  15.666  1.00  0.00     0.049 A 
ATOM     47  H   UNL     1       9.874   1.739  17.638  1.00  0.00     0.167 HD
ATOM     48  C   UNL     1       8.300   2.035  21.717  1.00  0.00     0.031 A 
ATOM     49  C   UNL     1      11.850   1.959  15.669  1.00  0.00     0.031 A 
ATOM     50  C   UNL     1       9.710   2.302  21.830  1.00  0.00     0.049 A 
ATOM     51  C   UNL     1      12.518   2.289  16.977  1.00  0.00     0.074 A 
ATOM     52  C   UNL     1      10.450   2.548  22.974  1.00  0.00     0.029 A 
ATOM     53  N   UNL     1      10.593   2.363  20.762  1.00  0.00    -0.354 N 
ATOM     54  N   UNL     1      11.999   2.321  18.182  1.00  0.00    -0.248 NA
ATOM     55  C   UNL     1      13.950   2.612  16.927  1.00  0.00     0.031 C 
ATOM     56  C   UNL     1      11.768   2.819  22.591  1.00  0.00     0.029 A 
ATOM     57  C   UNL     1      11.865   2.670  21.217  1.00  0.00     0.049 A 
ATOM     58  H   UNL     1      10.352   2.211  19.820  1.00  0.00     0.167 HD
ATOM     59  C   UNL     1      13.049   2.637  19.037  1.00  0.00     0.074 A 
ATOM     60  C   UNL     1      14.233   2.769  18.212  1.00  0.00     0.031 C 
ATOM     61  C   UNL     1      13.034   2.800  20.383  1.00  0.00     0.031 A 
BRANCH  48  62
ATOM     62  C   UNL     1       7.459   2.080  22.968  1.00  0.00    -0.014 A 
ATOM     63  C   UNL     1       6.877   0.914  23.498  1.00  0.00     0.010 A 
ATOM     64  C   UNL     1       7.282   3.299  23.648  1.00  0.00     0.010 A 
ATOM     65  C   UNL     1       6.100   0.973  24.658  1.00  0.00     0.020 A 
ATOM     66  C   UNL     1       6.532   3.357  24.827  1.00  0.00     0.020 A 
ATOM     67  C   UNL     1       5.931   2.195  25.314  1.00  0.00     0.054 A 
BRANCH  67  68
ATOM     68  S   UNL     1       4.937   2.236  26.831  1.00  0.00     0.124 S 
ATOM     69  O   UNL     1       3.587   2.028  26.311  1.00  0.00    -0.237 OA
ATOM     70  O   UNL     1       5.489   1.127  27.604  1.00  0.00    -0.237 OA
ATOM     71  O   UNL     1       5.194   3.564  27.380  1.00  0.00    -0.744 OA
ENDBRANCH  67  68
ENDBRANCH  48  62
BRANCH  49  72
ATOM     72  C   UNL     1      12.616   1.971  14.392  1.00  0.00    -0.014 A 
ATOM     73  C   UNL     1      13.609   1.007  14.144  1.00  0.00     0.010 A 
ATOM     74  C   UNL     1      12.347   2.942  13.410  1.00  0.00     0.010 A 
ATOM     75  C   UNL     1      14.333   1.026  12.947  1.00  0.00     0.020 A 
ATOM     76  C   UNL     1      13.046   2.945  12.199  1.00  0.00     0.020 A 
ATOM     77  C   UNL     1      14.043   1.994  11.981  1.00  0.00     0.054 A 
BRANCH  77  78
ATOM     78  S   UNL     1      14.962   1.968  10.417  1.00  0.00     0.124 S 
ATOM     79  O   UNL     1      16.284   2.425  10.833  1.00  0.00    -0.237 OA
ATOM     80  O   UNL     1      14.872   0.564  10.023  1.00  0.00    -0.237 OA
ATOM     81  O   UNL     1      14.216   2.894   9.567  1.00  0.00    -0.744 OA
ENDBRANCH  77  78
ENDBRANCH  49  72
BRANCH  61  82
ATOM     82  C   UNL     1      14.347   3.099  21.060  1.00  0.00    -0.014 A 
ATOM     83  C   UNL     1      14.988   4.341  20.904  1.00  0.00     0.010 A 
ATOM     84  C   UNL     1      14.920   2.134  21.910  1.00  0.00     0.010 A 
ATOM     85  C   UNL     1      16.196   4.598  21.557  1.00  0.00     0.020 A 
ATOM     86  C   UNL     1      16.110   2.401  22.590  1.00  0.00     0.020 A 
ATOM     87  C   UNL     1      16.749   3.627  22.397  1.00  0.00     0.054 A 
BRANCH  87  88
ATOM     88  S   UNL     1      18.297   4.002  23.265  1.00  0.00     0.124 S 
ATOM     89  O   UNL     1      19.272   3.962  22.179  1.00  0.00    -0.237 OA
ATOM     90  O   UNL     1      18.035   5.325  23.826  1.00  0.00    -0.237 OA
ATOM     91  O   UNL     1      18.414   2.927  24.247  1.00  0.00    -0.744 OA
ENDBRANCH  87  88
ENDBRANCH  61  82
ENDBRANCH  35  36
ENDBRANCH  27  30
ENDBRANCH  25  26
ENDBRANCH  24  25
ENDBRANCH   1  24
TORSDOF 17
