REMARK SMILES O=C(NCCCNC(=O)[C@H]1CC2(CCN(C(=O)C3CC3)CC2)CN1C(=O)CCn1cccn1)c1ccc(-c2c3nc(c(-c4ccc(S(=O)(=O)[O-])cc4)c4ccc([nH]4)c(-c4ccc(S(=O)(=O)[O-])cc4)c4nc(c(-c5ccc(S(=O)(=O)[O-])cc5)c5ccc2[nH]5)C=C4)C=C3)cc1
REMARK SMILES IDX 5 1 4 2 3 3 1 4 2 5 34 7 35 8 93 9 36 10 92 11 37 12 38 13
REMARK SMILES IDX 39 14 86 15 40 16 91 17 85 18 87 19 41 20 90 21 84 22 83 23
REMARK SMILES IDX 42 25 72 26 53 27 71 28 54 29 57 30 70 31 88 32 55 33 56 34
REMARK SMILES IDX 69 36 89 37 58 38 43 39 44 40 52 41 45 42 51 43 46 44 47 45
REMARK SMILES IDX 48 46 49 47 50 48 73 49 74 50 82 51 75 52 81 53 76 54 77 55
REMARK SMILES IDX 78 56 79 57 80 58 59 59 60 60 68 61 61 62 67 63 62 64 63 65
REMARK SMILES IDX 64 66 65 67 66 68 6 69 7 70 8 71 9 73 10 74 11 75 24 76
REMARK SMILES IDX 12 77 23 78 13 79 22 80 14 81 21 82 15 83 16 84 17 85 25 86
REMARK SMILES IDX 26 87 27 88 28 89 29 90 30 91 33 92 31 93 32 94 18 95 19 96
REMARK SMILES IDX 20 97
REMARK H PARENT 3 6 87 24 57 35 7 72
REMARK Flexibility Score: inf
ROOT
ATOM      1  C   UNL     1       3.524  -3.532  -0.054  1.00  0.00     0.042 C 
ENDROOT
BRANCH   1   2
ATOM      2  C   UNL     1       4.363  -3.532   1.227  1.00  0.00     0.118 C 
BRANCH   2   3
ATOM      3  N   UNL     1       4.673  -2.253   1.826  1.00  0.00    -0.352 N 
ATOM      4  O   UNL     1       4.601  -0.528   3.217  1.00  0.00    -0.269 OA
ATOM      5  C   UNL     1       3.961  -1.397   2.624  1.00  0.00     0.251 C 
ATOM      6  H   UNL     1       5.579  -1.931   1.617  1.00  0.00     0.163 HD
BRANCH   5   7
ATOM      7  C   UNL     1       2.481  -1.388   2.701  1.00  0.00     0.039 A 
ATOM      8  C   UNL     1       1.651  -2.483   2.455  1.00  0.00     0.014 A 
ATOM      9  C   UNL     1       1.901  -0.140   2.982  1.00  0.00     0.014 A 
ATOM     10  C   UNL     1       0.282  -2.296   2.308  1.00  0.00     0.010 A 
ATOM     11  C   UNL     1       0.531   0.043   2.878  1.00  0.00     0.010 A 
ATOM     12  C   UNL     1      -0.268  -1.023   2.477  1.00  0.00    -0.014 A 
BRANCH  12  13
ATOM     13  C   UNL     1      -1.718  -0.876   2.423  1.00  0.00     0.031 A 
ATOM     14  C   UNL     1      -2.424  -1.613   3.509  1.00  0.00     0.074 A 
ATOM     15  C   UNL     1      -2.353  -0.029   1.586  1.00  0.00     0.049 A 
ATOM     16  N   UNL     1      -3.226  -2.620   3.398  1.00  0.00    -0.248 NA
ATOM     17  C   UNL     1      -2.058  -1.295   4.901  1.00  0.00     0.031 C 
ATOM     18  C   UNL     1      -1.756   0.949   0.672  1.00  0.00     0.029 A 
ATOM     19  N   UNL     1      -3.686   0.225   1.464  1.00  0.00    -0.354 N 
ATOM     20  C   UNL     1      -3.651  -2.911   4.693  1.00  0.00     0.074 A 
ATOM     21  C   UNL     1      -2.761  -2.203   5.577  1.00  0.00     0.031 C 
ATOM     22  C   UNL     1      -2.699   1.844   0.295  1.00  0.00     0.029 A 
ATOM     23  C   UNL     1      -3.987   1.427   0.825  1.00  0.00     0.049 A 
ATOM     24  H   UNL     1      -4.379  -0.389   1.798  1.00  0.00     0.167 HD
ATOM     25  C   UNL     1      -4.861  -3.492   4.934  1.00  0.00     0.031 A 
ATOM     26  C   UNL     1      -5.190   2.062   0.793  1.00  0.00     0.031 A 
ATOM     27  C   UNL     1      -5.411  -4.081   3.741  1.00  0.00     0.049 A 
ATOM     28  C   UNL     1      -6.225   1.052   1.125  1.00  0.00     0.074 A 
ATOM     29  C   UNL     1      -5.014  -5.068   2.862  1.00  0.00     0.029 A 
ATOM     30  N   UNL     1      -6.388  -3.365   3.091  1.00  0.00    -0.354 N 
ATOM     31  N   UNL     1      -6.501   0.035   0.358  1.00  0.00    -0.248 NA
ATOM     32  C   UNL     1      -6.611   0.908   2.519  1.00  0.00     0.031 C 
ATOM     33  C   UNL     1      -5.416  -4.597   1.578  1.00  0.00     0.029 A 
ATOM     34  C   UNL     1      -6.102  -3.393   1.754  1.00  0.00     0.049 A 
ATOM     35  H   UNL     1      -7.155  -2.913   3.513  1.00  0.00     0.167 HD
ATOM     36  C   UNL     1      -6.674  -1.028   1.233  1.00  0.00     0.074 A 
ATOM     37  C   UNL     1      -6.815  -0.412   2.554  1.00  0.00     0.031 C 
ATOM     38  C   UNL     1      -6.407  -2.310   0.846  1.00  0.00     0.031 A 
BRANCH  25  39
ATOM     39  C   UNL     1      -5.744  -3.119   6.107  1.00  0.00    -0.014 A 
ATOM     40  C   UNL     1      -7.016  -3.724   6.204  1.00  0.00     0.010 A 
ATOM     41  C   UNL     1      -5.514  -1.990   6.919  1.00  0.00     0.010 A 
ATOM     42  C   UNL     1      -8.037  -3.154   6.974  1.00  0.00     0.020 A 
ATOM     43  C   UNL     1      -6.512  -1.439   7.726  1.00  0.00     0.020 A 
ATOM     44  C   UNL     1      -7.781  -1.999   7.712  1.00  0.00     0.054 A 
BRANCH  44  45
ATOM     45  S   UNL     1      -9.140  -1.194   8.593  1.00  0.00     0.124 S 
ATOM     46  O   UNL     1      -9.987  -0.750   7.490  1.00  0.00    -0.237 OA
ATOM     47  O   UNL     1      -9.671  -2.287   9.403  1.00  0.00    -0.237 OA
ATOM     48  O   UNL     1      -8.476  -0.131   9.344  1.00  0.00    -0.744 OA
ENDBRANCH  44  45
ENDBRANCH  25  39
BRANCH  26  49
ATOM     49  C   UNL     1      -5.467   3.525   0.845  1.00  0.00    -0.014 A 
ATOM     50  C   UNL     1      -6.752   4.043   0.582  1.00  0.00     0.010 A 
ATOM     51  C   UNL     1      -4.531   4.392   1.445  1.00  0.00     0.010 A 
ATOM     52  C   UNL     1      -7.101   5.355   0.959  1.00  0.00     0.020 A 
ATOM     53  C   UNL     1      -4.870   5.699   1.819  1.00  0.00     0.020 A 
ATOM     54  C   UNL     1      -6.161   6.170   1.595  1.00  0.00     0.054 A 
BRANCH  54  55
ATOM     55  S   UNL     1      -6.661   7.797   2.240  1.00  0.00     0.124 S 
ATOM     56  O   UNL     1      -6.856   8.571   1.018  1.00  0.00    -0.237 OA
ATOM     57  O   UNL     1      -7.874   7.485   2.990  1.00  0.00    -0.237 OA
ATOM     58  O   UNL     1      -5.520   8.208   3.057  1.00  0.00    -0.744 OA
ENDBRANCH  54  55
ENDBRANCH  26  49
BRANCH  38  59
ATOM     59  C   UNL     1      -6.201  -2.596  -0.622  1.00  0.00    -0.014 A 
ATOM     60  C   UNL     1      -5.159  -2.048  -1.396  1.00  0.00     0.010 A 
ATOM     61  C   UNL     1      -7.011  -3.592  -1.194  1.00  0.00     0.010 A 
ATOM     62  C   UNL     1      -4.953  -2.474  -2.718  1.00  0.00     0.020 A 
ATOM     63  C   UNL     1      -6.799  -4.033  -2.500  1.00  0.00     0.020 A 
ATOM     64  C   UNL     1      -5.777  -3.466  -3.260  1.00  0.00     0.054 A 
BRANCH  64  65
ATOM     65  S   UNL     1      -5.482  -4.050  -4.953  1.00  0.00     0.124 S 
ATOM     66  O   UNL     1      -5.850  -2.888  -5.758  1.00  0.00    -0.237 OA
ATOM     67  O   UNL     1      -4.059  -4.381  -4.939  1.00  0.00    -0.237 OA
ATOM     68  O   UNL     1      -6.375  -5.201  -5.085  1.00  0.00    -0.744 OA
ENDBRANCH  64  65
ENDBRANCH  38  59
ENDBRANCH  12  13
ENDBRANCH   5   7
ENDBRANCH   2   3
ENDBRANCH   1   2
BRANCH   1  69
ATOM     69  C   UNL     1       4.159  -2.955  -1.320  1.00  0.00     0.117 C 
BRANCH  69  70
ATOM     70  N   UNL     1       5.575  -3.209  -1.502  1.00  0.00    -0.354 N 
ATOM     71  C   UNL     1       6.208  -3.850  -2.529  1.00  0.00     0.242 C 
ATOM     72  H   UNL     1       6.162  -2.873  -0.787  1.00  0.00     0.163 HD
ATOM     73  O   UNL     1       7.285  -3.358  -2.882  1.00  0.00    -0.273 OA
BRANCH  71  74
ATOM     74  C   UNL     1       5.541  -4.967  -3.360  1.00  0.00     0.175 C 
ATOM     75  C   UNL     1       6.495  -5.696  -4.319  1.00  0.00     0.044 C 
ATOM     76  N   UNL     1       4.709  -6.099  -2.951  1.00  0.00    -0.330 N 
ATOM     77  C   UNL     1       5.550  -6.636  -5.130  1.00  0.00    -0.006 C 
ATOM     78  C   UNL     1       4.279  -6.714  -4.218  1.00  0.00     0.127 C 
ATOM     79  C   UNL     1       6.112  -8.056  -5.347  1.00  0.00     0.030 C 
ATOM     80  C   UNL     1       5.284  -6.014  -6.514  1.00  0.00     0.030 C 
ATOM     81  C   UNL     1       7.304  -8.124  -6.302  1.00  0.00     0.120 C 
ATOM     82  C   UNL     1       6.535  -6.068  -7.403  1.00  0.00     0.120 C 
ATOM     83  N   UNL     1       7.035  -7.436  -7.561  1.00  0.00    -0.342 N 
ATOM     84  C   UNL     1       7.284  -7.870  -8.869  1.00  0.00     0.225 C 
ATOM     85  O   UNL     1       6.954  -7.182  -9.828  1.00  0.00    -0.275 OA
BRANCH  76  86
ATOM     86  C   UNL     1       5.053  -6.988  -1.921  1.00  0.00     0.225 C 
ATOM     87  O   UNL     1       4.900  -8.208  -2.011  1.00  0.00    -0.275 OA
BRANCH  86  88
ATOM     88  C   UNL     1       5.477  -6.407  -0.594  1.00  0.00     0.124 C 
BRANCH  88  89
ATOM     89  C   UNL     1       6.866  -6.761  -0.090  1.00  0.00     0.154 C 
BRANCH  89  90
ATOM     90  N   UNL     1       7.969  -6.192  -0.837  1.00  0.00    -0.272 N 
ATOM     91  C   UNL     1       8.565  -4.978  -0.637  1.00  0.00     0.108 A 
ATOM     92  N   UNL     1       8.589  -6.931  -1.775  1.00  0.00    -0.182 NA
ATOM     93  C   UNL     1       9.567  -4.885  -1.577  1.00  0.00     0.042 A 
ATOM     94  C   UNL     1       9.538  -6.118  -2.247  1.00  0.00     0.135 A 
ENDBRANCH  89  90
ENDBRANCH  88  89
ENDBRANCH  86  88
ENDBRANCH  76  86
BRANCH  84  95
ATOM     95  C   UNL     1       7.964  -9.151  -9.236  1.00  0.00     0.079 C 
ATOM     96  C   UNL     1       8.836 -10.070  -8.435  1.00  0.00     0.014 C 
ATOM     97  C   UNL     1       7.434 -10.490  -8.793  1.00  0.00     0.014 C 
ENDBRANCH  84  95
ENDBRANCH  71  74
ENDBRANCH  69  70
ENDBRANCH   1  69
TORSDOF 18
