REMARK SMILES O=C(NCCCNC(=O)c1ccc(-c2c3nc(c(-c4ccc(S(=O)(=O)[O-])cc4)c4ccc([nH]4)c(-c4ccc(S(=O)(=O)[O-])cc4)c4nc(c(-c5ccc(S(=O)(=O)[O-])cc5)c5ccc2[nH]5)C=C4)C=C3)cc1)C1=Cc2cc(Cl)cc(-c3ccc(CO)cc3)c2O[C@@H]1C(F)(F)F
REMARK SMILES IDX 5 1 4 2 3 3 1 4 2 5 70 7 71 8 88 9 72 10 87 11 73 12 86 13
REMARK SMILES IDX 74 14 77 15 75 16 76 17 89 18 90 19 91 20 92 21 78 22 79 23
REMARK SMILES IDX 85 24 80 25 84 26 81 27 82 28 83 29 6 31 7 32 8 33 9 35
REMARK SMILES IDX 10 36 11 37 69 38 12 39 68 40 13 41 14 42 15 43 62 44 16 45
REMARK SMILES IDX 67 46 61 47 63 48 17 49 66 50 60 51 59 52 18 54 48 55 29 56
REMARK SMILES IDX 47 57 30 58 33 59 46 60 64 61 31 62 32 63 45 65 65 66 34 67
REMARK SMILES IDX 19 68 20 69 28 70 21 71 27 72 22 73 23 74 24 75 25 76 26 77
REMARK SMILES IDX 49 78 50 79 58 80 51 81 57 82 52 83 53 84 54 85 55 86 56 87
REMARK SMILES IDX 35 88 36 89 44 90 37 91 43 92 38 93 39 94 40 95 41 96 42 97
REMARK H PARENT 3 6 83 30 7 34 63 53 33 64
REMARK Flexibility Score: inf
ROOT
ATOM      1  C   UNL     1       3.973   1.672   2.337  1.00  0.00     0.042 C 
ENDROOT
BRANCH   1   2
ATOM      2  C   UNL     1       2.926   0.685   1.813  1.00  0.00     0.118 C 
BRANCH   2   3
ATOM      3  N   UNL     1       2.093   1.256   0.749  1.00  0.00    -0.352 N 
ATOM      4  O   UNL     1       1.217   1.421  -1.341  1.00  0.00    -0.270 OA
ATOM      5  C   UNL     1       2.108   1.024  -0.603  1.00  0.00     0.251 C 
ATOM      6  H   UNL     1       1.419   1.906   1.052  1.00  0.00     0.163 HD
BRANCH   5   7
ATOM      7  C   UNL     1       3.214   0.206  -1.115  1.00  0.00     0.067 C 
ATOM      8  C   UNL     1       4.454   0.698  -1.012  1.00  0.00     0.025 C 
ATOM      9  C   UNL     1       2.937  -1.235  -1.393  1.00  0.00     0.314 C 
ATOM     10  C   UNL     1       5.472  -0.299  -0.672  1.00  0.00     0.019 A 
ATOM     11  O   UNL     1       3.806  -2.091  -0.613  1.00  0.00    -0.475 OA
ATOM     12  C   UNL     1       6.746   0.162  -0.327  1.00  0.00     0.032 A 
ATOM     13  C   UNL     1       5.054  -1.597  -0.302  1.00  0.00     0.135 A 
ATOM     14  C   UNL     1       7.562  -0.629   0.471  1.00  0.00     0.042 A 
ATOM     15  C   UNL     1       5.848  -2.366   0.563  1.00  0.00     0.026 A 
ATOM     16  Cl  UNL     1       9.066  -0.005   1.023  1.00  0.00    -0.084 Cl
ATOM     17  C   UNL     1       7.111  -1.865   0.935  1.00  0.00     0.033 A 
BRANCH   9  18
ATOM     18  C   UNL     1       2.998  -1.551  -2.897  1.00  0.00     0.429 C 
ATOM     19  F   UNL     1       2.648  -2.838  -3.143  1.00  0.00    -0.167 F 
ATOM     20  F   UNL     1       2.141  -0.778  -3.608  1.00  0.00    -0.167 F 
ATOM     21  F   UNL     1       4.231  -1.366  -3.423  1.00  0.00    -0.167 F 
ENDBRANCH   9  18
BRANCH  15  22
ATOM     22  C   UNL     1       5.334  -3.549   1.273  1.00  0.00    -0.015 A 
ATOM     23  C   UNL     1       4.811  -3.395   2.567  1.00  0.00     0.009 A 
ATOM     24  C   UNL     1       5.444  -4.841   0.758  1.00  0.00     0.009 A 
ATOM     25  C   UNL     1       4.511  -4.491   3.371  1.00  0.00     0.007 A 
ATOM     26  C   UNL     1       5.128  -5.950   1.556  1.00  0.00     0.007 A 
ATOM     27  C   UNL     1       4.692  -5.783   2.879  1.00  0.00    -0.023 A 
BRANCH  27  28
ATOM     28  C   UNL     1       4.529  -6.957   3.802  1.00  0.00     0.191 C 
BRANCH  28  29
ATOM     29  O   UNL     1       5.740  -7.189   4.513  1.00  0.00    -0.392 OA
ATOM     30  H   UNL     1       6.453  -7.379   3.883  1.00  0.00     0.211 HD
ENDBRANCH  28  29
ENDBRANCH  27  28
ENDBRANCH  15  22
ENDBRANCH   5   7
ENDBRANCH   2   3
ENDBRANCH   1   2
BRANCH   1  31
ATOM     31  C   UNL     1       4.503   1.285   3.716  1.00  0.00     0.118 C 
BRANCH  31  32
ATOM     32  N   UNL     1       5.277   0.057   3.753  1.00  0.00    -0.352 N 
ATOM     33  C   UNL     1       5.973  -0.520   4.798  1.00  0.00     0.251 C 
ATOM     34  H   UNL     1       5.310  -0.441   2.904  1.00  0.00     0.163 HD
ATOM     35  O   UNL     1       6.558  -1.584   4.603  1.00  0.00    -0.269 OA
BRANCH  33  36
ATOM     36  C   UNL     1       6.122   0.163   6.110  1.00  0.00     0.039 A 
ATOM     37  C   UNL     1       7.337   0.010   6.791  1.00  0.00     0.014 A 
ATOM     38  C   UNL     1       5.149   1.002   6.646  1.00  0.00     0.014 A 
ATOM     39  C   UNL     1       7.619   0.797   7.910  1.00  0.00     0.010 A 
ATOM     40  C   UNL     1       5.469   1.867   7.685  1.00  0.00     0.010 A 
ATOM     41  C   UNL     1       6.716   1.790   8.314  1.00  0.00    -0.014 A 
BRANCH  41  42
ATOM     42  C   UNL     1       7.075   2.795   9.344  1.00  0.00     0.031 A 
ATOM     43  C   UNL     1       6.249   2.935  10.593  1.00  0.00     0.074 A 
ATOM     44  C   UNL     1       8.086   3.652   9.091  1.00  0.00     0.049 A 
ATOM     45  N   UNL     1       6.360   3.806  11.562  1.00  0.00    -0.248 NA
ATOM     46  C   UNL     1       5.117   2.006  10.749  1.00  0.00     0.031 C 
ATOM     47  C   UNL     1       8.894   3.675   7.865  1.00  0.00     0.029 A 
ATOM     48  N   UNL     1       8.609   4.671   9.845  1.00  0.00    -0.354 N 
ATOM     49  C   UNL     1       5.295   3.555  12.419  1.00  0.00     0.074 A 
ATOM     50  C   UNL     1       4.518   2.488  11.828  1.00  0.00     0.031 C 
ATOM     51  C   UNL     1       9.840   4.620   7.976  1.00  0.00     0.029 A 
ATOM     52  C   UNL     1       9.687   5.293   9.259  1.00  0.00     0.049 A 
ATOM     53  H   UNL     1       8.247   4.932  10.722  1.00  0.00     0.167 HD
ATOM     54  C   UNL     1       5.003   4.144  13.604  1.00  0.00     0.031 A 
ATOM     55  C   UNL     1      10.476   6.284   9.716  1.00  0.00     0.031 A 
ATOM     56  C   UNL     1       5.810   5.175  14.199  1.00  0.00     0.049 A 
ATOM     57  C   UNL     1      10.202   6.842  11.083  1.00  0.00     0.074 A 
ATOM     58  C   UNL     1       5.652   5.802  15.422  1.00  0.00     0.029 A 
ATOM     59  N   UNL     1       6.946   5.717  13.614  1.00  0.00    -0.354 N 
ATOM     60  N   UNL     1       9.224   6.551  11.908  1.00  0.00    -0.248 NA
ATOM     61  C   UNL     1      11.151   7.840  11.592  1.00  0.00     0.031 C 
ATOM     62  C   UNL     1       6.686   6.736  15.568  1.00  0.00     0.029 A 
ATOM     63  C   UNL     1       7.506   6.663  14.453  1.00  0.00     0.049 A 
ATOM     64  H   UNL     1       7.301   5.465  12.730  1.00  0.00     0.167 HD
ATOM     65  C   UNL     1       9.451   7.314  13.046  1.00  0.00     0.074 A 
ATOM     66  C   UNL     1      10.670   8.063  12.807  1.00  0.00     0.031 C 
ATOM     67  C   UNL     1       8.719   7.392  14.185  1.00  0.00     0.031 A 
BRANCH  54  68
ATOM     68  C   UNL     1       3.767   3.668  14.322  1.00  0.00    -0.014 A 
ATOM     69  C   UNL     1       3.701   2.376  14.876  1.00  0.00     0.010 A 
ATOM     70  C   UNL     1       2.647   4.513  14.430  1.00  0.00     0.010 A 
ATOM     71  C   UNL     1       2.520   1.912  15.460  1.00  0.00     0.020 A 
ATOM     72  C   UNL     1       1.472   4.063  15.042  1.00  0.00     0.020 A 
ATOM     73  C   UNL     1       1.408   2.755  15.528  1.00  0.00     0.054 A 
BRANCH  73  74
ATOM     74  S   UNL     1      -0.122   2.124  16.272  1.00  0.00     0.124 S 
ATOM     75  O   UNL     1      -0.654   1.289  15.198  1.00  0.00    -0.237 OA
ATOM     76  O   UNL     1       0.363   1.401  17.445  1.00  0.00    -0.237 OA
ATOM     77  O   UNL     1      -0.889   3.333  16.562  1.00  0.00    -0.744 OA
ENDBRANCH  73  74
ENDBRANCH  54  68
BRANCH  55  78
ATOM     78  C   UNL     1      11.631   6.751   8.902  1.00  0.00    -0.014 A 
ATOM     79  C   UNL     1      12.942   6.390   9.261  1.00  0.00     0.010 A 
ATOM     80  C   UNL     1      11.429   7.523   7.744  1.00  0.00     0.010 A 
ATOM     81  C   UNL     1      14.031   6.805   8.489  1.00  0.00     0.020 A 
ATOM     82  C   UNL     1      12.514   7.921   6.955  1.00  0.00     0.020 A 
ATOM     83  C   UNL     1      13.810   7.568   7.339  1.00  0.00     0.054 A 
BRANCH  83  84
ATOM     84  S   UNL     1      15.232   8.045   6.316  1.00  0.00     0.124 S 
ATOM     85  O   UNL     1      15.811   9.136   7.092  1.00  0.00    -0.237 OA
ATOM     86  O   UNL     1      16.017   6.814   6.270  1.00  0.00    -0.237 OA
ATOM     87  O   UNL     1      14.622   8.432   5.046  1.00  0.00    -0.744 OA
ENDBRANCH  83  84
ENDBRANCH  55  78
BRANCH  67  88
ATOM     88  C   UNL     1       9.245   8.297  15.263  1.00  0.00    -0.014 A 
ATOM     89  C   UNL     1       9.156   9.694  15.145  1.00  0.00     0.010 A 
ATOM     90  C   UNL     1       9.818   7.735  16.417  1.00  0.00     0.010 A 
ATOM     91  C   UNL     1       9.676  10.518  16.145  1.00  0.00     0.020 A 
ATOM     92  C   UNL     1      10.316   8.555  17.430  1.00  0.00     0.020 A 
ATOM     93  C   UNL     1      10.261   9.942  17.278  1.00  0.00     0.054 A 
BRANCH  93  94
ATOM     94  S   UNL     1      10.918  11.028  18.573  1.00  0.00     0.124 S 
ATOM     95  O   UNL     1      12.201  11.431  18.006  1.00  0.00    -0.237 OA
ATOM     96  O   UNL     1       9.908  12.081  18.656  1.00  0.00    -0.237 OA
ATOM     97  O   UNL     1      10.998  10.157  19.743  1.00  0.00    -0.744 OA
ENDBRANCH  93  94
ENDBRANCH  67  88
ENDBRANCH  41  42
ENDBRANCH  33  36
ENDBRANCH  31  32
ENDBRANCH   1  31
TORSDOF 17
