REMARK SMILES O=C(NCCCNC(=O)[C@@H]1CCCCC[C@H]1NC(=O)c1ccc(Cl)o1)c1ccc(-c2c3nc(c(-c4ccc(S(=O)(=O)[O-])cc4)c4ccc([nH]4)c(-c4ccc(S(=O)(=O)[O-])cc4)c4nc(c(-c5ccc(S(=O)(=O)[O-])cc5)c5ccc2[nH]5)C=C4)C=C3)cc1
REMARK SMILES IDX 5 1 4 2 3 3 1 4 2 5 26 7 27 8 85 9 28 10 84 11 29 12 30 13
REMARK SMILES IDX 31 14 78 15 32 16 83 17 77 18 79 19 33 20 82 21 76 22 75 23
REMARK SMILES IDX 34 25 64 26 45 27 63 28 46 29 49 30 62 31 80 32 47 33 48 34
REMARK SMILES IDX 61 36 81 37 50 38 35 39 36 40 44 41 37 42 43 43 38 44 39 45
REMARK SMILES IDX 40 46 41 47 42 48 65 49 66 50 74 51 67 52 73 53 68 54 69 55
REMARK SMILES IDX 70 56 71 57 72 58 51 59 52 60 60 61 53 62 59 63 54 64 55 65
REMARK SMILES IDX 56 66 57 67 58 68 6 69 7 70 8 71 9 73 10 74 11 75 12 76
REMARK SMILES IDX 13 77 16 79 15 80 14 81 17 83 18 84 19 86 20 87 21 88 25 89
REMARK SMILES IDX 22 90 23 91 24 92
REMARK H PARENT 3 6 79 24 49 35 7 72 17 85
REMARK Flexibility Score: 100.00
ROOT
ATOM      1  C   UNL     1       4.254  -0.202  -2.705  1.00  0.00     0.042 C 
ENDROOT
BRANCH   1   2
ATOM      2  C   UNL     1       4.164   0.588  -1.404  1.00  0.00     0.118 C 
BRANCH   2   3
ATOM      3  N   UNL     1       2.796   0.683  -0.918  1.00  0.00    -0.352 N 
ATOM      4  O   UNL     1       0.978   0.098   0.262  1.00  0.00    -0.269 OA
ATOM      5  C   UNL     1       2.203   0.092   0.172  1.00  0.00     0.251 C 
ATOM      6  H   UNL     1       2.204   1.260  -1.452  1.00  0.00     0.163 HD
BRANCH   5   7
ATOM      7  C   UNL     1       3.020  -0.550   1.228  1.00  0.00     0.039 A 
ATOM      8  C   UNL     1       4.212   0.029   1.665  1.00  0.00     0.014 A 
ATOM      9  C   UNL     1       2.551  -1.717   1.843  1.00  0.00     0.014 A 
ATOM     10  C   UNL     1       4.996  -0.622   2.612  1.00  0.00     0.010 A 
ATOM     11  C   UNL     1       3.295  -2.322   2.863  1.00  0.00     0.010 A 
ATOM     12  C   UNL     1       4.535  -1.790   3.243  1.00  0.00    -0.014 A 
BRANCH  12  13
ATOM     13  C   UNL     1       5.341  -2.366   4.351  1.00  0.00     0.031 A 
ATOM     14  C   UNL     1       5.984  -3.720   4.236  1.00  0.00     0.074 A 
ATOM     15  C   UNL     1       5.540  -1.614   5.453  1.00  0.00     0.049 A 
ATOM     16  N   UNL     1       6.790  -4.317   5.077  1.00  0.00    -0.248 NA
ATOM     17  C   UNL     1       5.683  -4.510   3.032  1.00  0.00     0.031 C 
ATOM     18  C   UNL     1       4.945  -0.294   5.690  1.00  0.00     0.029 A 
ATOM     19  N   UNL     1       6.322  -1.826   6.559  1.00  0.00    -0.354 N 
ATOM     20  C   UNL     1       7.088  -5.552   4.512  1.00  0.00     0.074 A 
ATOM     21  C   UNL     1       6.353  -5.631   3.268  1.00  0.00     0.031 C 
ATOM     22  C   UNL     1       5.435   0.212   6.830  1.00  0.00     0.029 A 
ATOM     23  C   UNL     1       6.333  -0.765   7.434  1.00  0.00     0.049 A 
ATOM     24  H   UNL     1       6.828  -2.657   6.711  1.00  0.00     0.167 HD
ATOM     25  C   UNL     1       7.906  -6.525   4.983  1.00  0.00     0.031 A 
ATOM     26  C   UNL     1       6.988  -0.593   8.597  1.00  0.00     0.031 A 
ATOM     27  C   UNL     1       8.629  -6.446   6.226  1.00  0.00     0.049 A 
ATOM     28  C   UNL     1       7.894  -1.683   9.089  1.00  0.00     0.074 A 
ATOM     29  C   UNL     1       9.477  -7.383   6.792  1.00  0.00     0.029 A 
ATOM     30  N   UNL     1       8.596  -5.365   7.095  1.00  0.00    -0.354 N 
ATOM     31  N   UNL     1       8.170  -2.836   8.528  1.00  0.00    -0.248 NA
ATOM     32  C   UNL     1       8.577  -1.448  10.367  1.00  0.00     0.031 C 
ATOM     33  C   UNL     1       9.930  -6.882   8.018  1.00  0.00     0.029 A 
ATOM     34  C   UNL     1       9.401  -5.614   8.194  1.00  0.00     0.049 A 
ATOM     35  H   UNL     1       8.076  -4.541   6.951  1.00  0.00     0.167 HD
ATOM     36  C   UNL     1       9.060  -3.467   9.388  1.00  0.00     0.074 A 
ATOM     37  C   UNL     1       9.303  -2.551  10.486  1.00  0.00     0.031 C 
ATOM     38  C   UNL     1       9.617  -4.698   9.284  1.00  0.00     0.031 A 
BRANCH  25  39
ATOM     39  C   UNL     1       8.054  -7.772   4.152  1.00  0.00    -0.014 A 
ATOM     40  C   UNL     1       8.812  -7.763   2.967  1.00  0.00     0.010 A 
ATOM     41  C   UNL     1       7.474  -8.979   4.584  1.00  0.00     0.010 A 
ATOM     42  C   UNL     1       8.960  -8.930   2.213  1.00  0.00     0.020 A 
ATOM     43  C   UNL     1       7.637 -10.153   3.843  1.00  0.00     0.020 A 
ATOM     44  C   UNL     1       8.368 -10.118   2.653  1.00  0.00     0.054 A 
BRANCH  44  45
ATOM     45  S   UNL     1       8.595 -11.623   1.665  1.00  0.00     0.124 S 
ATOM     46  O   UNL     1       7.697 -11.380   0.539  1.00  0.00    -0.237 OA
ATOM     47  O   UNL     1      10.021 -11.589   1.349  1.00  0.00    -0.237 OA
ATOM     48  O   UNL     1       8.186 -12.695   2.569  1.00  0.00    -0.744 OA
ENDBRANCH  44  45
ENDBRANCH  25  39
BRANCH  26  49
ATOM     49  C   UNL     1       6.793   0.660   9.375  1.00  0.00    -0.014 A 
ATOM     50  C   UNL     1       7.821   1.613   9.479  1.00  0.00     0.010 A 
ATOM     51  C   UNL     1       5.556   0.914   9.997  1.00  0.00     0.010 A 
ATOM     52  C   UNL     1       7.620   2.791  10.205  1.00  0.00     0.020 A 
ATOM     53  C   UNL     1       5.343   2.102  10.699  1.00  0.00     0.020 A 
ATOM     54  C   UNL     1       6.382   3.027  10.810  1.00  0.00     0.054 A 
BRANCH  54  55
ATOM     55  S   UNL     1       6.117   4.585  11.701  1.00  0.00     0.124 S 
ATOM     56  O   UNL     1       6.762   4.315  12.981  1.00  0.00    -0.237 OA
ATOM     57  O   UNL     1       6.789   5.561  10.846  1.00  0.00    -0.237 OA
ATOM     58  O   UNL     1       4.661   4.707  11.743  1.00  0.00    -0.744 OA
ENDBRANCH  54  55
ENDBRANCH  26  49
BRANCH  38  59
ATOM     59  C   UNL     1      10.548  -5.114  10.389  1.00  0.00    -0.014 A 
ATOM     60  C   UNL     1      10.051  -5.469  11.655  1.00  0.00     0.010 A 
ATOM     61  C   UNL     1      11.933  -5.161  10.153  1.00  0.00     0.010 A 
ATOM     62  C   UNL     1      10.929  -5.823  12.683  1.00  0.00     0.020 A 
ATOM     63  C   UNL     1      12.812  -5.537  11.172  1.00  0.00     0.020 A 
ATOM     64  C   UNL     1      12.305  -5.846  12.436  1.00  0.00     0.054 A 
BRANCH  64  65
ATOM     65  S   UNL     1      13.428  -6.321  13.779  1.00  0.00     0.124 S 
ATOM     66  O   UNL     1      13.478  -5.099  14.577  1.00  0.00    -0.237 OA
ATOM     67  O   UNL     1      12.734  -7.448  14.398  1.00  0.00    -0.237 OA
ATOM     68  O   UNL     1      14.667  -6.666  13.086  1.00  0.00    -0.744 OA
ENDBRANCH  64  65
ENDBRANCH  38  59
ENDBRANCH  12  13
ENDBRANCH   5   7
ENDBRANCH   2   3
ENDBRANCH   1   2
BRANCH   1  69
ATOM     69  C   UNL     1       3.731   0.570  -3.916  1.00  0.00     0.117 C 
BRANCH  69  70
ATOM     70  N   UNL     1       4.622   1.658  -4.273  1.00  0.00    -0.356 N 
ATOM     71  C   UNL     1       5.712   1.777  -5.067  1.00  0.00     0.225 C 
ATOM     72  H   UNL     1       4.377   2.506  -3.837  1.00  0.00     0.163 HD
ATOM     73  O   UNL     1       6.289   2.867  -4.949  1.00  0.00    -0.275 OA
BRANCH  71  74
ATOM     74  C   UNL     1       6.166   0.754  -6.144  1.00  0.00     0.101 C 
BRANCH  74  75
ATOM     75  C   UNL     1       5.824  -0.714  -5.860  1.00  0.00     0.015 C 
BRANCH  75  76
ATOM     76  C   UNL     1       6.588  -1.813  -6.592  1.00  0.00     0.001 C 
BRANCH  76  77
ATOM     77  C   UNL     1       7.901  -2.178  -5.913  1.00  0.00     0.000 CG0
ATOM     78  G   UNL     1       9.015  -1.157  -6.078  1.00  0.00     0.000 G0
ENDBRANCH  76  77
ENDBRANCH  75  76
ENDBRANCH  74  75
BRANCH  74  79
ATOM     79  C   UNL     1       7.665   1.035  -6.481  1.00  0.00     0.094 C 
BRANCH  79  80
ATOM     80  C   UNL     1       8.676   0.259  -5.618  1.00  0.00     0.026 C 
BRANCH  80  81
ATOM     81  C   UNL     1       9.015  -1.157  -6.078  1.00  0.00     0.002 CG0
ATOM     82  G   UNL     1       7.901  -2.178  -5.913  1.00  0.00     0.000 G0
ENDBRANCH  80  81
ENDBRANCH  79  80
BRANCH  79  83
ATOM     83  N   UNL     1       7.940   0.891  -7.916  1.00  0.00    -0.346 N 
ATOM     84  C   UNL     1       8.273   1.840  -8.858  1.00  0.00     0.287 C 
ATOM     85  H   UNL     1       7.877  -0.029  -8.260  1.00  0.00     0.164 HD
ATOM     86  O   UNL     1       8.201   1.490 -10.037  1.00  0.00    -0.266 OA
BRANCH  84  87
ATOM     87  C   UNL     1       8.683   3.167  -8.452  1.00  0.00     0.193 A 
ATOM     88  C   UNL     1       9.474   3.649  -7.424  1.00  0.00     0.058 A 
ATOM     89  O   UNL     1       8.286   4.220  -9.236  1.00  0.00    -0.440 OA
ATOM     90  C   UNL     1       9.519   5.057  -7.563  1.00  0.00     0.064 A 
ATOM     91  C   UNL     1       8.779   5.360  -8.682  1.00  0.00     0.194 A 
ATOM     92  Cl  UNL     1       8.496   6.925  -9.333  1.00  0.00    -0.043 Cl
ENDBRANCH  84  87
ENDBRANCH  79  83
ENDBRANCH  74  79
ENDBRANCH  71  74
ENDBRANCH  69  70
ENDBRANCH   1  69
TORSDOF 15
