REMARK SMILES CC[NH+](CC)[C@@H](C(=O)NCCCNC(=O)c1ccc(-c2c3nc(c(-c4ccc(S(=O)(=O)[O-])cc4)c4ccc([nH]4)c(-c4ccc(S(=O)(=O)[O-])cc4)c4nc(c(-c5ccc(S(=O)(=O)[O-])cc5)c5ccc2[nH]5)C=C4)C=C3)cc1)c1ccc(C2CC2)cc1
REMARK SMILES IDX 11 1 10 2 9 3 7 4 8 5 6 7 3 8 2 10 1 11 4 12 5 13 76 14
REMARK SMILES IDX 77 15 84 16 78 17 83 18 79 19 80 20 81 21 82 22 12 23 13 24
REMARK SMILES IDX 14 25 15 27 16 28 17 29 75 30 18 31 74 32 19 33 20 34 21 35
REMARK SMILES IDX 68 36 22 37 73 38 67 39 69 40 23 41 72 42 66 43 65 44 24 46
REMARK SMILES IDX 54 47 35 48 53 49 36 50 39 51 52 52 70 53 37 54 38 55 51 57
REMARK SMILES IDX 71 58 40 59 25 60 26 61 34 62 27 63 33 64 28 65 29 66 30 67
REMARK SMILES IDX 31 68 32 69 55 70 56 71 64 72 57 73 63 74 58 75 59 76 60 77
REMARK SMILES IDX 61 78 62 79 41 80 42 81 50 82 43 83 49 84 44 85 45 86 46 87
REMARK SMILES IDX 47 88 48 89
REMARK H PARENT 9 6 3 9 13 26 69 45 39 56
REMARK Flexibility Score: inf
ROOT
ATOM      1  C   UNL     1       1.395   5.388   2.983  1.00  0.00     0.042 C 
ENDROOT
BRANCH   1   2
ATOM      2  C   UNL     1       2.604   4.784   2.247  1.00  0.00     0.118 C 
BRANCH   2   3
ATOM      3  N   UNL     1       2.930   3.415   2.626  1.00  0.00    -0.351 N 
ATOM      4  C   UNL     1       2.800   2.195   2.014  1.00  0.00     0.283 C 
ATOM      5  O   UNL     1       3.135   1.230   2.712  1.00  0.00    -0.268 OA
ATOM      6  H   UNL     1       3.334   3.353   3.521  1.00  0.00     0.163 HD
BRANCH   4   7
ATOM      7  C   UNL     1       2.259   2.042   0.558  1.00  0.00     0.305 C 
BRANCH   7   8
ATOM      8  N   UNL     1       0.794   1.705   0.491  1.00  0.00    -0.321 N 
ATOM      9  H   UNL     1       0.654   1.843  -0.510  1.00  0.00     0.349 HD
BRANCH   8  10
ATOM     10  C   UNL     1       0.396   0.308   0.692  1.00  0.00     0.259 C 
ATOM     11  C   UNL     1       0.344  -0.489  -0.612  1.00  0.00     0.071 C 
ENDBRANCH   8  10
BRANCH   8  12
ATOM     12  C   UNL     1      -0.098   2.638   1.179  1.00  0.00     0.259 C 
ATOM     13  C   UNL     1      -0.363   2.374   2.665  1.00  0.00     0.071 C 
ENDBRANCH   8  12
ENDBRANCH   7   8
BRANCH   7  14
ATOM     14  C   UNL     1       3.113   1.097  -0.319  1.00  0.00     0.019 A 
ATOM     15  C   UNL     1       3.495  -0.183   0.113  1.00  0.00     0.011 A 
ATOM     16  C   UNL     1       3.380   1.426  -1.658  1.00  0.00     0.011 A 
ATOM     17  C   UNL     1       3.982  -1.140  -0.786  1.00  0.00     0.004 A 
ATOM     18  C   UNL     1       3.885   0.465  -2.551  1.00  0.00     0.004 A 
ATOM     19  C   UNL     1       4.135  -0.855  -2.148  1.00  0.00    -0.045 A 
BRANCH  19  20
ATOM     20  C   UNL     1       4.406  -1.973  -3.128  1.00  0.00     0.019 C 
ATOM     21  C   UNL     1       5.348  -1.818  -4.293  1.00  0.00     0.009 C 
ATOM     22  C   UNL     1       5.742  -2.675  -3.127  1.00  0.00     0.009 C 
ENDBRANCH  19  20
ENDBRANCH   7  14
ENDBRANCH   4   7
ENDBRANCH   2   3
ENDBRANCH   1   2
BRANCH   1  23
ATOM     23  C   UNL     1       1.259   5.078   4.477  1.00  0.00     0.118 C 
BRANCH  23  24
ATOM     24  N   UNL     1       1.893   6.083   5.308  1.00  0.00    -0.352 N 
ATOM     25  C   UNL     1       1.357   6.821   6.339  1.00  0.00     0.251 C 
ATOM     26  H   UNL     1       2.840   6.263   5.107  1.00  0.00     0.163 HD
ATOM     27  O   UNL     1       1.988   7.781   6.774  1.00  0.00    -0.269 OA
BRANCH  25  28
ATOM     28  C   UNL     1       0.032   6.487   6.927  1.00  0.00     0.039 A 
ATOM     29  C   UNL     1      -0.844   7.534   7.235  1.00  0.00     0.014 A 
ATOM     30  C   UNL     1      -0.320   5.176   7.264  1.00  0.00     0.014 A 
ATOM     31  C   UNL     1      -2.071   7.270   7.857  1.00  0.00     0.010 A 
ATOM     32  C   UNL     1      -1.563   4.909   7.853  1.00  0.00     0.010 A 
ATOM     33  C   UNL     1      -2.446   5.954   8.169  1.00  0.00    -0.014 A 
BRANCH  33  34
ATOM     34  C   UNL     1      -3.745   5.674   8.845  1.00  0.00     0.031 A 
ATOM     35  C   UNL     1      -3.780   5.194  10.274  1.00  0.00     0.074 A 
ATOM     36  C   UNL     1      -4.903   5.835   8.176  1.00  0.00     0.049 A 
ATOM     37  N   UNL     1      -4.815   4.907  11.024  1.00  0.00    -0.248 NA
ATOM     38  C   UNL     1      -2.484   5.002  10.942  1.00  0.00     0.031 C 
ATOM     39  C   UNL     1      -5.021   6.276   6.785  1.00  0.00     0.029 A 
ATOM     40  N   UNL     1      -6.204   5.645   8.576  1.00  0.00    -0.354 N 
ATOM     41  C   UNL     1      -4.298   4.492  12.246  1.00  0.00     0.074 A 
ATOM     42  C   UNL     1      -2.855   4.529  12.123  1.00  0.00     0.031 C 
ATOM     43  C   UNL     1      -6.322   6.343   6.456  1.00  0.00     0.029 A 
ATOM     44  C   UNL     1      -7.130   5.923   7.599  1.00  0.00     0.049 A 
ATOM     45  H   UNL     1      -6.450   5.338   9.479  1.00  0.00     0.167 HD
ATOM     46  C   UNL     1      -4.957   4.126  13.374  1.00  0.00     0.031 A 
ATOM     47  C   UNL     1      -8.476   5.850   7.614  1.00  0.00     0.031 A 
ATOM     48  C   UNL     1      -6.390   4.088  13.506  1.00  0.00     0.049 A 
ATOM     49  C   UNL     1      -9.187   5.425   8.868  1.00  0.00     0.074 A 
ATOM     50  C   UNL     1      -7.144   3.772  14.625  1.00  0.00     0.029 A 
ATOM     51  N   UNL     1      -7.289   4.367  12.488  1.00  0.00    -0.354 N 
ATOM     52  N   UNL     1      -8.678   5.089  10.029  1.00  0.00    -0.248 NA
ATOM     53  C   UNL     1     -10.656   5.381   8.817  1.00  0.00     0.031 C 
ATOM     54  C   UNL     1      -8.497   3.818  14.271  1.00  0.00     0.029 A 
ATOM     55  C   UNL     1      -8.588   4.210  12.945  1.00  0.00     0.049 A 
ATOM     56  H   UNL     1      -7.041   4.637  11.575  1.00  0.00     0.167 HD
ATOM     57  C   UNL     1      -9.765   4.816  10.854  1.00  0.00     0.074 A 
ATOM     58  C   UNL     1     -10.958   5.037  10.062  1.00  0.00     0.031 C 
ATOM     59  C   UNL     1      -9.771   4.424  12.151  1.00  0.00     0.031 A 
BRANCH  46  60
ATOM     60  C   UNL     1      -4.122   3.721  14.561  1.00  0.00    -0.014 A 
ATOM     61  C   UNL     1      -3.391   4.674  15.293  1.00  0.00     0.010 A 
ATOM     62  C   UNL     1      -4.085   2.374  14.964  1.00  0.00     0.010 A 
ATOM     63  C   UNL     1      -2.598   4.280  16.374  1.00  0.00     0.020 A 
ATOM     64  C   UNL     1      -3.313   1.979  16.061  1.00  0.00     0.020 A 
ATOM     65  C   UNL     1      -2.556   2.933  16.745  1.00  0.00     0.054 A 
BRANCH  65  66
ATOM     66  S   UNL     1      -1.515   2.446  18.148  1.00  0.00     0.124 S 
ATOM     67  O   UNL     1      -0.179   2.487  17.558  1.00  0.00    -0.237 OA
ATOM     68  O   UNL     1      -1.796   3.483  19.136  1.00  0.00    -0.237 OA
ATOM     69  O   UNL     1      -2.002   1.112  18.494  1.00  0.00    -0.744 OA
ENDBRANCH  65  66
ENDBRANCH  46  60
BRANCH  47  70
ATOM     70  C   UNL     1      -9.244   6.215   6.393  1.00  0.00    -0.014 A 
ATOM     71  C   UNL     1      -9.956   7.425   6.336  1.00  0.00     0.010 A 
ATOM     72  C   UNL     1      -9.243   5.366   5.271  1.00  0.00     0.010 A 
ATOM     73  C   UNL     1     -10.657   7.780   5.180  1.00  0.00     0.020 A 
ATOM     74  C   UNL     1      -9.924   5.728   4.106  1.00  0.00     0.020 A 
ATOM     75  C   UNL     1     -10.633   6.931   4.070  1.00  0.00     0.054 A 
BRANCH  75  76
ATOM     76  S   UNL     1     -11.484   7.447   2.553  1.00  0.00     0.124 S 
ATOM     77  O   UNL     1     -12.882   7.198   2.889  1.00  0.00    -0.237 OA
ATOM     78  O   UNL     1     -11.101   8.851   2.436  1.00  0.00    -0.237 OA
ATOM     79  O   UNL     1     -10.918   6.569   1.531  1.00  0.00    -0.744 OA
ENDBRANCH  75  76
ENDBRANCH  47  70
BRANCH  59  80
ATOM     80  C   UNL     1     -11.110   4.229  12.812  1.00  0.00    -0.014 A 
ATOM     81  C   UNL     1     -11.912   3.112  12.518  1.00  0.00     0.010 A 
ATOM     82  C   UNL     1     -11.551   5.153  13.777  1.00  0.00     0.010 A 
ATOM     83  C   UNL     1     -13.144   2.938  13.156  1.00  0.00     0.020 A 
ATOM     84  C   UNL     1     -12.771   4.970  14.434  1.00  0.00     0.020 A 
ATOM     85  C   UNL     1     -13.567   3.870  14.108  1.00  0.00     0.054 A 
BRANCH  85  86
ATOM     86  S   UNL     1     -15.150   3.602  14.954  1.00  0.00     0.124 S 
ATOM     87  O   UNL     1     -16.112   4.000  13.931  1.00  0.00    -0.237 OA
ATOM     88  O   UNL     1     -15.114   2.175  15.262  1.00  0.00    -0.237 OA
ATOM     89  O   UNL     1     -15.074   4.485  16.116  1.00  0.00    -0.744 OA
ENDBRANCH  85  86
ENDBRANCH  59  80
ENDBRANCH  33  34
ENDBRANCH  25  28
ENDBRANCH  23  24
ENDBRANCH   1  23
TORSDOF 18
