REMARK SMILES C[NH+]1CCC(NC(=O)N[C@H]2C=C[C@H](C(=O)NCCCNC(=O)c3ccc(-c4c5nc(c(-c6ccc(S(=O)(=O)[O-])cc6)c6ccc([nH]6)c(-c6ccc(S(=O)(=O)[O-])cc6)c6nc(c(-c7ccc(S(=O)(=O)[O-])cc7)c7ccc4[nH]7)C=C6)C=C5)cc3)C2)CC1
REMARK SMILES IDX 18 1 17 2 16 3 14 4 15 5 13 7 10 8 11 9 83 10 12 11 9 12
REMARK SMILES IDX 6 13 7 14 8 16 5 18 1 19 2 20 3 21 85 22 4 24 84 25 19 26
REMARK SMILES IDX 20 27 21 28 22 30 23 31 24 32 82 33 25 34 81 35 26 36 27 37
REMARK SMILES IDX 28 38 75 39 29 40 80 41 74 42 76 43 30 44 79 45 73 46 72 47
REMARK SMILES IDX 31 49 61 50 42 51 60 52 43 53 46 54 59 55 77 56 44 57 45 58
REMARK SMILES IDX 58 60 78 61 47 62 32 63 33 64 41 65 34 66 40 67 35 68 36 69
REMARK SMILES IDX 37 70 38 71 39 72 62 73 63 74 71 75 64 76 70 77 65 78 66 79
REMARK SMILES IDX 67 80 68 81 69 82 48 83 49 84 57 85 50 86 56 87 51 88 52 89
REMARK SMILES IDX 53 90 54 91 55 92
REMARK H PARENT 16 6 6 15 9 17 2 23 20 29 76 48 46 59
REMARK Flexibility Score: inf
ROOT
ATOM      1  C   UNL     1      -2.659   2.283  -1.017  1.00  0.00     0.042 C 
ENDROOT
BRANCH   1   2
ATOM      2  C   UNL     1      -2.528   1.133  -2.018  1.00  0.00     0.117 C 
BRANCH   2   3
ATOM      3  N   UNL     1      -1.892   1.526  -3.267  1.00  0.00    -0.356 N 
ATOM      4  C   UNL     1      -0.597   1.321  -3.677  1.00  0.00     0.227 C 
ATOM      5  O   UNL     1      -0.288   1.596  -4.835  1.00  0.00    -0.274 OA
ATOM      6  H   UNL     1      -2.469   2.004  -3.905  1.00  0.00     0.163 HD
BRANCH   4   7
ATOM      7  C   UNL     1       0.396   0.736  -2.675  1.00  0.00     0.103 C 
ATOM      8  C   UNL     1       2.766   0.154  -2.972  1.00  0.00     0.107 C 
ATOM      9  C   UNL     1       1.905  -1.057  -2.985  1.00  0.00    -0.006 C 
ATOM     10  C   UNL     1       1.815   1.335  -2.763  1.00  0.00     0.047 C 
ATOM     11  C   UNL     1       0.609  -0.740  -2.887  1.00  0.00    -0.016 C 
BRANCH   8  12
ATOM     12  N   UNL     1       3.915   0.034  -2.087  1.00  0.00    -0.332 N 
ATOM     13  N   UNL     1       3.424  -0.075   0.241  1.00  0.00    -0.335 N 
ATOM     14  C   UNL     1       4.253  -0.035  -0.801  1.00  0.00     0.315 C 
ATOM     15  H   UNL     1       3.892  -0.033   1.106  1.00  0.00     0.165 HD
ATOM     16  O   UNL     1       5.463  -0.063  -0.552  1.00  0.00    -0.249 OA
ATOM     17  H   UNL     1       4.733  -0.014  -2.633  1.00  0.00     0.165 HD
BRANCH  13  18
ATOM     18  C   UNL     1       1.989  -0.167   0.381  1.00  0.00     0.095 C 
ATOM     19  C   UNL     1      -2.035  -0.607   1.653  1.00  0.00     0.332 C 
ATOM     20  N   UNL     1      -0.571  -0.555   1.712  1.00  0.00    -0.337 N 
ATOM     21  C   UNL     1      -0.088   0.793   1.385  1.00  0.00     0.264 C 
ATOM     22  C   UNL     1       0.007  -1.601   0.858  1.00  0.00     0.264 C 
ATOM     23  H   UNL     1      -0.259  -0.746   2.664  1.00  0.00     0.347 HD
ATOM     24  C   UNL     1       1.437   0.886   1.339  1.00  0.00     0.086 C 
ATOM     25  C   UNL     1       1.535  -1.550   0.834  1.00  0.00     0.086 C 
ENDBRANCH  13  18
ENDBRANCH   8  12
ENDBRANCH   4   7
ENDBRANCH   2   3
ENDBRANCH   1   2
BRANCH   1  26
ATOM     26  C   UNL     1      -4.030   2.952  -1.023  1.00  0.00     0.118 C 
BRANCH  26  27
ATOM     27  N   UNL     1      -5.090   2.064  -0.558  1.00  0.00    -0.352 N 
ATOM     28  C   UNL     1      -6.223   2.327   0.173  1.00  0.00     0.251 C 
ATOM     29  H   UNL     1      -4.974   1.119  -0.811  1.00  0.00     0.163 HD
ATOM     30  O   UNL     1      -6.925   1.380   0.525  1.00  0.00    -0.269 OA
BRANCH  28  31
ATOM     31  C   UNL     1      -6.587   3.708   0.575  1.00  0.00     0.039 A 
ATOM     32  C   UNL     1      -7.204   3.901   1.818  1.00  0.00     0.014 A 
ATOM     33  C   UNL     1      -6.353   4.807  -0.252  1.00  0.00     0.014 A 
ATOM     34  C   UNL     1      -7.517   5.192   2.254  1.00  0.00     0.010 A 
ATOM     35  C   UNL     1      -6.588   6.098   0.217  1.00  0.00     0.010 A 
ATOM     36  C   UNL     1      -7.174   6.306   1.474  1.00  0.00    -0.014 A 
BRANCH  36  37
ATOM     37  C   UNL     1      -7.411   7.696   1.945  1.00  0.00     0.031 A 
ATOM     38  C   UNL     1      -8.328   8.610   1.177  1.00  0.00     0.074 A 
ATOM     39  C   UNL     1      -6.735   8.163   3.013  1.00  0.00     0.049 A 
ATOM     40  N   UNL     1      -8.577   9.881   1.367  1.00  0.00    -0.248 NA
ATOM     41  C   UNL     1      -9.031   8.027   0.023  1.00  0.00     0.031 C 
ATOM     42  C   UNL     1      -5.787   7.392   3.821  1.00  0.00     0.029 A 
ATOM     43  N   UNL     1      -6.734   9.405   3.597  1.00  0.00    -0.354 N 
ATOM     44  C   UNL     1      -9.439  10.255   0.343  1.00  0.00     0.074 A 
ATOM     45  C   UNL     1      -9.632   9.089  -0.492  1.00  0.00     0.031 C 
ATOM     46  C   UNL     1      -5.322   8.168   4.813  1.00  0.00     0.029 A 
ATOM     47  C   UNL     1      -5.900   9.502   4.686  1.00  0.00     0.049 A 
ATOM     48  H   UNL     1      -7.278  10.156   3.267  1.00  0.00     0.167 HD
ATOM     49  C   UNL     1     -10.033  11.454   0.125  1.00  0.00     0.031 A 
ATOM     50  C   UNL     1      -5.628  10.546   5.492  1.00  0.00     0.031 A 
ATOM     51  C   UNL     1      -9.855  12.606   0.968  1.00  0.00     0.049 A 
ATOM     52  C   UNL     1      -6.302  11.865   5.238  1.00  0.00     0.074 A 
ATOM     53  C   UNL     1     -10.454  13.850   0.866  1.00  0.00     0.029 A 
ATOM     54  N   UNL     1      -9.017  12.655   2.072  1.00  0.00    -0.354 N 
ATOM     55  N   UNL     1      -7.152  12.186   4.292  1.00  0.00    -0.248 NA
ATOM     56  C   UNL     1      -5.987  12.960   6.166  1.00  0.00     0.031 C 
ATOM     57  C   UNL     1      -9.947  14.663   1.886  1.00  0.00     0.029 A 
ATOM     58  C   UNL     1      -9.071  13.911   2.652  1.00  0.00     0.049 A 
ATOM     59  H   UNL     1      -8.465  11.907   2.395  1.00  0.00     0.167 HD
ATOM     60  C   UNL     1      -7.494  13.513   4.526  1.00  0.00     0.074 A 
ATOM     61  C   UNL     1      -6.766  13.931   5.707  1.00  0.00     0.031 C 
ATOM     62  C   UNL     1      -8.337  14.312   3.826  1.00  0.00     0.031 A 
BRANCH  49  63
ATOM     63  C   UNL     1     -10.922  11.571  -1.086  1.00  0.00    -0.014 A 
ATOM     64  C   UNL     1     -12.153  10.891  -1.152  1.00  0.00     0.010 A 
ATOM     65  C   UNL     1     -10.523  12.367  -2.175  1.00  0.00     0.010 A 
ATOM     66  C   UNL     1     -12.935  10.951  -2.309  1.00  0.00     0.020 A 
ATOM     67  C   UNL     1     -11.317  12.454  -3.323  1.00  0.00     0.020 A 
ATOM     68  C   UNL     1     -12.505  11.723  -3.392  1.00  0.00     0.054 A 
BRANCH  68  69
ATOM     69  S   UNL     1     -13.527  11.768  -4.890  1.00  0.00     0.124 S 
ATOM     70  O   UNL     1     -13.233  10.468  -5.490  1.00  0.00    -0.237 OA
ATOM     71  O   UNL     1     -14.877  11.921  -4.356  1.00  0.00    -0.237 OA
ATOM     72  O   UNL     1     -13.015  12.923  -5.623  1.00  0.00    -0.744 OA
ENDBRANCH  68  69
ENDBRANCH  49  63
BRANCH  50  73
ATOM     73  C   UNL     1      -4.697  10.368   6.639  1.00  0.00    -0.014 A 
ATOM     74  C   UNL     1      -5.199  10.306   7.951  1.00  0.00     0.010 A 
ATOM     75  C   UNL     1      -3.315  10.215   6.426  1.00  0.00     0.010 A 
ATOM     76  C   UNL     1      -4.336  10.100   9.030  1.00  0.00     0.020 A 
ATOM     77  C   UNL     1      -2.452   9.985   7.502  1.00  0.00     0.020 A 
ATOM     78  C   UNL     1      -2.968   9.935   8.798  1.00  0.00     0.054 A 
BRANCH  78  79
ATOM     79  S   UNL     1      -1.879   9.590  10.208  1.00  0.00     0.124 S 
ATOM     80  O   UNL     1      -1.794  10.896  10.853  1.00  0.00    -0.237 OA
ATOM     81  O   UNL     1      -2.623   8.568  10.940  1.00  0.00    -0.237 OA
ATOM     82  O   UNL     1      -0.646   9.119   9.579  1.00  0.00    -0.744 OA
ENDBRANCH  78  79
ENDBRANCH  50  73
BRANCH  62  83
ATOM     83  C   UNL     1      -8.545  15.711   4.337  1.00  0.00    -0.014 A 
ATOM     84  C   UNL     1      -7.554  16.697   4.185  1.00  0.00     0.010 A 
ATOM     85  C   UNL     1      -9.773  16.057   4.930  1.00  0.00     0.010 A 
ATOM     86  C   UNL     1      -7.779  17.999   4.641  1.00  0.00     0.020 A 
ATOM     87  C   UNL     1     -10.010  17.363   5.365  1.00  0.00     0.020 A 
ATOM     88  C   UNL     1      -9.005  18.323   5.229  1.00  0.00     0.054 A 
BRANCH  88  89
ATOM     89  S   UNL     1      -9.292  20.031   5.770  1.00  0.00     0.124 S 
ATOM     90  O   UNL     1      -8.503  20.097   6.997  1.00  0.00    -0.237 OA
ATOM     91  O   UNL     1      -8.778  20.814   4.649  1.00  0.00    -0.237 OA
ATOM     92  O   UNL     1     -10.740  20.097   5.954  1.00  0.00    -0.744 OA
ENDBRANCH  88  89
ENDBRANCH  62  83
ENDBRANCH  36  37
ENDBRANCH  28  31
ENDBRANCH  26  27
ENDBRANCH   1  26
TORSDOF 15
