REMARK SMILES NS(=O)(=O)c1ccc(N2N=C(C(=O)NCCCNC(=O)c3ccc(-c4c5nc(c(-c6ccc(S(=O)(=O)[O-])cc6)c6ccc([nH]6)c(-c6ccc(S(=O)(=O)[O-])cc6)c6nc(c(-c7ccc(S(=O)(=O)[O-])cc7)c7ccc4[nH]7)C=C6)C=C5)cc3)C[C@H]2c2cccs2)cc1
REMARK SMILES IDX 16 1 15 2 14 3 12 4 13 5 11 7 9 8 10 9 82 10 81 11 8 12 5 13
REMARK SMILES IDX 6 14 89 15 7 16 88 17 2 18 3 19 4 20 1 21 83 24 84 25 87 26
REMARK SMILES IDX 85 27 86 28 17 29 18 30 19 31 20 33 21 34 22 35 80 36 23 37
REMARK SMILES IDX 79 38 24 39 25 40 26 41 73 42 27 43 78 44 72 45 74 46 28 47
REMARK SMILES IDX 77 48 71 49 70 50 29 52 59 53 40 54 58 55 41 56 44 57 57 58
REMARK SMILES IDX 75 59 42 60 43 61 56 63 76 64 45 65 30 66 31 67 39 68 32 69
REMARK SMILES IDX 38 70 33 71 34 72 35 73 36 74 37 75 60 76 61 77 69 78 62 79
REMARK SMILES IDX 68 80 63 81 64 82 65 83 66 84 67 85 46 86 47 87 55 88 48 89
REMARK SMILES IDX 54 90 49 91 50 92 51 93 52 94 53 95
REMARK H PARENT 14 6 1 22 1 23 18 32 74 51 44 62
REMARK Flexibility Score: inf
ROOT
ATOM      1  C   UNL     1       1.714   6.089  10.594  1.00  0.00     0.042 C 
ENDROOT
BRANCH   1   2
ATOM      2  C   UNL     1       2.565   6.626   9.447  1.00  0.00     0.118 C 
BRANCH   2   3
ATOM      3  N   UNL     1       3.461   5.607   8.940  1.00  0.00    -0.351 N 
ATOM      4  C   UNL     1       3.470   4.795   7.838  1.00  0.00     0.267 C 
ATOM      5  O   UNL     1       4.364   3.953   7.771  1.00  0.00    -0.268 OA
ATOM      6  H   UNL     1       4.242   5.465   9.521  1.00  0.00     0.163 HD
BRANCH   4   7
ATOM      7  C   UNL     1       2.491   4.893   6.678  1.00  0.00     0.128 C 
ATOM      8  N   UNL     1       1.782   4.647   4.677  1.00  0.00    -0.256 N 
ATOM      9  N   UNL     1       2.792   4.351   5.533  1.00  0.00    -0.171 NA
ATOM     10  C   UNL     1       0.712   5.439   5.282  1.00  0.00     0.154 C 
ATOM     11  C   UNL     1       1.111   5.465   6.765  1.00  0.00     0.097 C 
BRANCH   8  12
ATOM     12  C   UNL     1       1.534   3.867   3.551  1.00  0.00     0.060 A 
ATOM     13  C   UNL     1       0.878   2.333   1.293  1.00  0.00     0.082 A 
ATOM     14  C   UNL     1       1.180   1.696   2.499  1.00  0.00     0.024 A 
ATOM     15  C   UNL     1       0.936   3.722   1.192  1.00  0.00     0.024 A 
ATOM     16  C   UNL     1       1.522   2.467   3.616  1.00  0.00     0.029 A 
ATOM     17  C   UNL     1       1.256   4.477   2.320  1.00  0.00     0.029 A 
BRANCH  13  18
ATOM     18  S   UNL     1       0.444   1.405  -0.144  1.00  0.00     0.238 S 
ATOM     19  O   UNL     1       1.058   2.023  -1.301  1.00  0.00    -0.207 OA
ATOM     20  O   UNL     1      -0.963   1.099  -0.085  1.00  0.00    -0.207 OA
BRANCH  18  21
ATOM     21  N   UNL     1       1.250  -0.056   0.044  1.00  0.00    -0.225 NA
ATOM     22  H   UNL     1       1.051  -0.659  -0.754  1.00  0.00     0.137 HD
ATOM     23  H   UNL     1       0.935  -0.510   0.900  1.00  0.00     0.137 HD
ENDBRANCH  18  21
ENDBRANCH  13  18
ENDBRANCH   8  12
BRANCH  10  24
ATOM     24  C   UNL     1       0.513   6.815   4.671  1.00  0.00     0.030 A 
ATOM     25  C   UNL     1      -0.488   7.199   3.794  1.00  0.00     0.017 A 
ATOM     26  S   UNL     1       1.616   8.106   4.941  1.00  0.00    -0.147 S 
ATOM     27  C   UNL     1      -0.360   8.552   3.370  1.00  0.00     0.012 A 
ATOM     28  C   UNL     1       0.725   9.171   3.947  1.00  0.00     0.065 A 
ENDBRANCH  10  24
ENDBRANCH   4   7
ENDBRANCH   2   3
ENDBRANCH   1   2
BRANCH   1  29
ATOM     29  C   UNL     1       2.495   5.963  11.901  1.00  0.00     0.118 C 
BRANCH  29  30
ATOM     30  N   UNL     1       2.916   7.264  12.406  1.00  0.00    -0.352 N 
ATOM     31  C   UNL     1       2.601   7.912  13.573  1.00  0.00     0.251 C 
ATOM     32  H   UNL     1       3.526   7.758  11.812  1.00  0.00     0.163 HD
ATOM     33  O   UNL     1       2.857   9.109  13.674  1.00  0.00    -0.269 OA
BRANCH  31  34
ATOM     34  C   UNL     1       1.970   7.190  14.699  1.00  0.00     0.039 A 
ATOM     35  C   UNL     1       1.050   7.871  15.503  1.00  0.00     0.014 A 
ATOM     36  C   UNL     1       2.332   5.878  15.014  1.00  0.00     0.014 A 
ATOM     37  C   UNL     1       0.479   7.227  16.603  1.00  0.00     0.010 A 
ATOM     38  C   UNL     1       1.696   5.209  16.055  1.00  0.00     0.010 A 
ATOM     39  C   UNL     1       0.787   5.886  16.880  1.00  0.00    -0.014 A 
BRANCH  39  40
ATOM     40  C   UNL     1       0.215   5.195  18.062  1.00  0.00     0.031 A 
ATOM     41  C   UNL     1       1.124   4.721  19.167  1.00  0.00     0.074 A 
ATOM     42  C   UNL     1      -1.109   4.955  18.123  1.00  0.00     0.049 A 
ATOM     43  N   UNL     1       0.824   4.066  20.259  1.00  0.00    -0.248 NA
ATOM     44  C   UNL     1       2.564   4.989  19.008  1.00  0.00     0.031 C 
ATOM     45  C   UNL     1      -2.086   5.321  17.094  1.00  0.00     0.029 A 
ATOM     46  N   UNL     1      -1.862   4.346  19.094  1.00  0.00    -0.354 N 
ATOM     47  C   UNL     1       2.034   3.823  20.900  1.00  0.00     0.074 A 
ATOM     48  C   UNL     1       3.077   4.352  20.049  1.00  0.00     0.031 C 
ATOM     49  C   UNL     1      -3.312   4.959  17.505  1.00  0.00     0.029 A 
ATOM     50  C   UNL     1      -3.206   4.311  18.808  1.00  0.00     0.049 A 
ATOM     51  H   UNL     1      -1.476   3.970  19.918  1.00  0.00     0.167 HD
ATOM     52  C   UNL     1       2.260   3.236  22.100  1.00  0.00     0.031 A 
ATOM     53  C   UNL     1      -4.237   3.819  19.520  1.00  0.00     0.031 A 
ATOM     54  C   UNL     1       1.218   2.741  22.958  1.00  0.00     0.049 A 
ATOM     55  C   UNL     1      -3.969   3.212  20.870  1.00  0.00     0.074 A 
ATOM     56  C   UNL     1       1.331   2.178  24.217  1.00  0.00     0.029 A 
ATOM     57  N   UNL     1      -0.134   2.760  22.649  1.00  0.00    -0.354 N 
ATOM     58  N   UNL     1      -2.821   3.039  21.482  1.00  0.00    -0.248 NA
ATOM     59  C   UNL     1      -5.138   2.757  21.634  1.00  0.00     0.031 C 
ATOM     60  C   UNL     1       0.049   1.828  24.656  1.00  0.00     0.029 A 
ATOM     61  C   UNL     1      -0.866   2.217  23.690  1.00  0.00     0.049 A 
ATOM     62  H   UNL     1      -0.517   3.110  21.811  1.00  0.00     0.167 HD
ATOM     63  C   UNL     1      -3.133   2.483  22.717  1.00  0.00     0.074 A 
ATOM     64  C   UNL     1      -4.577   2.362  22.768  1.00  0.00     0.031 C 
ATOM     65  C   UNL     1      -2.301   2.108  23.721  1.00  0.00     0.031 A 
BRANCH  52  66
ATOM     66  C   UNL     1       3.691   3.106  22.549  1.00  0.00    -0.014 A 
ATOM     67  C   UNL     1       4.442   4.237  22.919  1.00  0.00     0.010 A 
ATOM     68  C   UNL     1       4.292   1.836  22.619  1.00  0.00     0.010 A 
ATOM     69  C   UNL     1       5.780   4.107  23.300  1.00  0.00     0.020 A 
ATOM     70  C   UNL     1       5.622   1.698  23.028  1.00  0.00     0.020 A 
ATOM     71  C   UNL     1       6.364   2.838  23.346  1.00  0.00     0.054 A 
BRANCH  71  72
ATOM     72  S   UNL     1       8.099   2.695  23.854  1.00  0.00     0.124 S 
ATOM     73  O   UNL     1       8.800   3.163  22.661  1.00  0.00    -0.237 OA
ATOM     74  O   UNL     1       8.170   3.583  25.012  1.00  0.00    -0.237 OA
ATOM     75  O   UNL     1       8.257   1.274  24.152  1.00  0.00    -0.744 OA
ENDBRANCH  71  72
ENDBRANCH  52  66
BRANCH  53  76
ATOM     76  C   UNL     1      -5.622   3.923  18.989  1.00  0.00    -0.014 A 
ATOM     77  C   UNL     1      -6.532   4.837  19.550  1.00  0.00     0.010 A 
ATOM     78  C   UNL     1      -6.034   3.125  17.907  1.00  0.00     0.010 A 
ATOM     79  C   UNL     1      -7.835   4.936  19.053  1.00  0.00     0.020 A 
ATOM     80  C   UNL     1      -7.328   3.239  17.390  1.00  0.00     0.020 A 
ATOM     81  C   UNL     1      -8.224   4.136  17.975  1.00  0.00     0.054 A 
BRANCH  81  82
ATOM     82  S   UNL     1      -9.902   4.319  17.309  1.00  0.00     0.124 S 
ATOM     83  O   UNL     1     -10.703   3.625  18.311  1.00  0.00    -0.237 OA
ATOM     84  O   UNL     1     -10.067   5.770  17.260  1.00  0.00    -0.237 OA
ATOM     85  O   UNL     1      -9.823   3.666  16.004  1.00  0.00    -0.744 OA
ENDBRANCH  81  82
ENDBRANCH  53  76
BRANCH  65  86
ATOM     86  C   UNL     1      -2.938   1.575  24.975  1.00  0.00    -0.014 A 
ATOM     87  C   UNL     1      -3.530   0.300  25.009  1.00  0.00     0.010 A 
ATOM     88  C   UNL     1      -2.918   2.356  26.145  1.00  0.00     0.010 A 
ATOM     89  C   UNL     1      -4.134  -0.164  26.180  1.00  0.00     0.020 A 
ATOM     90  C   UNL     1      -3.497   1.884  27.325  1.00  0.00     0.020 A 
ATOM     91  C   UNL     1      -4.120   0.634  27.329  1.00  0.00     0.054 A 
BRANCH  91  92
ATOM     92  S   UNL     1      -4.896   0.006  28.843  1.00  0.00     0.124 S 
ATOM     93  O   UNL     1      -6.315   0.206  28.560  1.00  0.00    -0.237 OA
ATOM     94  O   UNL     1      -4.453  -1.386  28.880  1.00  0.00    -0.237 OA
ATOM     95  O   UNL     1      -4.342   0.857  29.893  1.00  0.00    -0.744 OA
ENDBRANCH  91  92
ENDBRANCH  65  86
ENDBRANCH  39  40
ENDBRANCH  31  34
ENDBRANCH  29  30
ENDBRANCH   1  29
TORSDOF 17
