REMARK SMILES Cc1ccc(-c2nn(-c3ccccc3)cc2[C@@H]2[NH2+][C@H](C(=O)NCCCNC(=O)c3ccc(-c4c5nc(c(-c6ccc(S(=O)(=O)[O-])cc6)c6ccc([nH]6)c(-c6ccc(S(=O)(=O)[O-])cc6)c6nc(c(-c7ccc(S(=O)(=O)[O-])cc7)c7ccc4[nH]7)C=C6)C=C5)cc3)CS2)cc1
REMARK SMILES IDX 24 1 23 2 22 3 20 4 21 5 19 7 17 8 18 9 90 10 89 13 16 14
REMARK SMILES IDX 6 15 7 16 8 17 15 18 5 19 1 20 2 21 3 22 92 23 4 24 91 25
REMARK SMILES IDX 9 26 10 27 14 28 11 29 13 30 12 31 25 32 26 33 27 34 28 36
REMARK SMILES IDX 29 37 30 38 88 39 31 40 87 41 32 42 33 43 34 44 81 45 35 46
REMARK SMILES IDX 86 47 80 48 82 49 36 50 85 51 79 52 78 53 37 55 67 56 48 57
REMARK SMILES IDX 66 58 49 59 52 60 65 61 83 62 50 63 51 64 64 66 84 67 53 68
REMARK SMILES IDX 38 69 39 70 47 71 40 72 46 73 41 74 42 75 43 76 44 77 45 78
REMARK SMILES IDX 68 79 69 80 77 81 70 82 76 83 71 84 72 85 73 86 74 87 75 88
REMARK SMILES IDX 54 89 55 90 63 91 56 92 62 93 57 94 58 95 59 96 60 97 61 98
REMARK H PARENT 22 6 18 11 18 12 26 35 82 54 52 65
REMARK Flexibility Score: inf
ROOT
ATOM      1  C   UNL     1      -4.349  -1.996  -1.294  1.00  0.00     0.042 C 
ENDROOT
BRANCH   1   2
ATOM      2  C   UNL     1      -5.736  -1.843  -0.664  1.00  0.00     0.118 C 
BRANCH   2   3
ATOM      3  N   UNL     1      -6.260  -3.012   0.018  1.00  0.00    -0.351 N 
ATOM      4  C   UNL     1      -6.337  -3.279   1.355  1.00  0.00     0.279 C 
ATOM      5  O   UNL     1      -7.199  -4.099   1.702  1.00  0.00    -0.268 OA
ATOM      6  H   UNL     1      -6.614  -3.718  -0.570  1.00  0.00     0.163 HD
BRANCH   4   7
ATOM      7  C   UNL     1      -5.454  -2.634   2.449  1.00  0.00     0.283 C 
ATOM      8  C   UNL     1      -3.988  -0.687   2.560  1.00  0.00     0.278 C 
ATOM      9  N   UNL     1      -4.181  -2.035   1.976  1.00  0.00    -0.320 N 
ATOM     10  S   UNL     1      -4.993  -0.603   4.045  1.00  0.00    -0.087 SA
ATOM     11  H   UNL     1      -3.404  -2.635   2.255  1.00  0.00     0.348 HD
ATOM     12  H   UNL     1      -4.215  -1.951   0.960  1.00  0.00     0.348 HD
ATOM     13  C   UNL     1      -6.251  -1.676   3.326  1.00  0.00     0.151 C 
BRANCH   8  14
ATOM     14  C   UNL     1      -4.343   0.312   1.492  1.00  0.00     0.067 A 
ATOM     15  C   UNL     1      -3.468   0.707   0.432  1.00  0.00     0.103 A 
ATOM     16  N   UNL     1      -4.209   1.174  -0.594  1.00  0.00    -0.167 NA
ATOM     17  N   UNL     1      -5.511   1.319  -0.155  1.00  0.00    -0.240 N 
ATOM     18  C   UNL     1      -5.557   0.952   1.190  1.00  0.00     0.126 A 
BRANCH  15  19
ATOM     19  C   UNL     1      -1.985   0.493   0.300  1.00  0.00     0.003 A 
ATOM     20  C   UNL     1       2.355  -0.004  -0.059  1.00  0.00     0.044 C 
ATOM     21  C   UNL     1       0.866   0.176   0.061  1.00  0.00    -0.051 A 
ATOM     22  C   UNL     1       0.033  -0.931   0.221  1.00  0.00     0.004 A 
ATOM     23  C   UNL     1       0.265   1.438  -0.002  1.00  0.00     0.004 A 
ATOM     24  C   UNL     1      -1.361  -0.769   0.363  1.00  0.00     0.011 A 
ATOM     25  C   UNL     1      -1.137   1.591   0.102  1.00  0.00     0.011 A 
ENDBRANCH  15  19
BRANCH  17  26
ATOM     26  C   UNL     1      -6.660   1.686  -1.062  1.00  0.00     0.065 A 
ATOM     27  C   UNL     1      -6.283   1.870  -2.797  1.00  0.00     0.028 A 
ATOM     28  C   UNL     1      -8.049   2.584  -0.401  1.00  0.00     0.028 A 
ATOM     29  C   UNL     1      -7.153   3.053  -3.846  1.00  0.00     0.002 A 
ATOM     30  C   UNL     1      -9.098   3.657  -1.471  1.00  0.00     0.002 A 
ATOM     31  C   UNL     1      -8.658   3.899  -3.204  1.00  0.00     0.000 A 
ENDBRANCH  17  26
ENDBRANCH   8  14
ENDBRANCH   4   7
ENDBRANCH   2   3
ENDBRANCH   1   2
BRANCH   1  32
ATOM     32  C   UNL     1      -4.162  -1.262  -2.632  1.00  0.00     0.118 C 
BRANCH  32  33
ATOM     33  N   UNL     1      -3.429   0.013  -2.829  1.00  0.00    -0.352 N 
ATOM     34  C   UNL     1      -3.275   0.786  -4.005  1.00  0.00     0.251 C 
ATOM     35  H   UNL     1      -2.986   0.373  -2.027  1.00  0.00     0.163 HD
ATOM     36  O   UNL     1      -2.693   1.863  -4.040  1.00  0.00    -0.269 OA
BRANCH  34  37
ATOM     37  C   UNL     1      -3.983   0.330  -5.230  1.00  0.00     0.039 A 
ATOM     38  C   UNL     1      -5.015   1.115  -5.783  1.00  0.00     0.014 A 
ATOM     39  C   UNL     1      -3.990  -1.034  -5.375  1.00  0.00     0.014 A 
ATOM     40  C   UNL     1      -6.206   0.494  -6.145  1.00  0.00     0.010 A 
ATOM     41  C   UNL     1      -5.231  -1.605  -5.408  1.00  0.00     0.010 A 
ATOM     42  C   UNL     1      -6.347  -0.839  -5.784  1.00  0.00    -0.014 A 
BRANCH  42  43
ATOM     43  C   UNL     1      -7.386  -1.738  -6.233  1.00  0.00     0.031 A 
ATOM     44  C   UNL     1      -6.979  -2.310  -7.552  1.00  0.00     0.074 A 
ATOM     45  C   UNL     1      -8.223  -2.236  -5.283  1.00  0.00     0.049 A 
ATOM     46  N   UNL     1      -7.695  -3.074  -8.274  1.00  0.00    -0.248 NA
ATOM     47  C   UNL     1      -5.668  -2.053  -8.205  1.00  0.00     0.031 C 
ATOM     48  C   UNL     1      -8.919  -3.514  -5.189  1.00  0.00     0.029 A 
ATOM     49  N   UNL     1      -8.777  -1.535  -4.218  1.00  0.00    -0.354 N 
ATOM     50  C   UNL     1      -6.817  -3.762  -9.095  1.00  0.00     0.074 A 
ATOM     51  C   UNL     1      -5.621  -2.984  -9.156  1.00  0.00     0.031 C 
ATOM     52  C   UNL     1      -9.997  -3.395  -4.381  1.00  0.00     0.029 A 
ATOM     53  C   UNL     1     -10.089  -2.006  -3.970  1.00  0.00     0.049 A 
ATOM     54  H   UNL     1      -8.326  -0.820  -3.714  1.00  0.00     0.167 HD
ATOM     55  C   UNL     1      -7.156  -5.032  -9.436  1.00  0.00     0.031 A 
ATOM     56  C   UNL     1     -11.144  -1.169  -4.250  1.00  0.00     0.031 A 
ATOM     57  C   UNL     1      -8.480  -5.326  -8.876  1.00  0.00     0.049 A 
ATOM     58  C   UNL     1     -11.706  -1.506  -5.676  1.00  0.00     0.074 A 
ATOM     59  C   UNL     1      -8.915  -6.011  -7.756  1.00  0.00     0.029 A 
ATOM     60  N   UNL     1      -9.511  -4.468  -9.218  1.00  0.00    -0.354 N 
ATOM     61  N   UNL     1     -11.187  -2.426  -6.455  1.00  0.00    -0.248 NA
ATOM     62  C   UNL     1     -12.855  -0.870  -6.332  1.00  0.00     0.031 C 
ATOM     63  C   UNL     1     -10.210  -5.497  -7.409  1.00  0.00     0.029 A 
ATOM     64  C   UNL     1     -10.546  -4.497  -8.305  1.00  0.00     0.049 A 
ATOM     65  H   UNL     1      -9.506  -3.901 -10.022  1.00  0.00     0.167 HD
ATOM     66  C   UNL     1     -11.902  -2.579  -7.610  1.00  0.00     0.074 A 
ATOM     67  C   UNL     1     -12.895  -1.515  -7.518  1.00  0.00     0.031 C 
ATOM     68  C   UNL     1     -11.658  -3.575  -8.526  1.00  0.00     0.031 A 
BRANCH  55  69
ATOM     69  C   UNL     1      -6.261  -6.074 -10.052  1.00  0.00    -0.014 A 
ATOM     70  C   UNL     1      -6.763  -7.388 -10.105  1.00  0.00     0.010 A 
ATOM     71  C   UNL     1      -4.964  -5.880 -10.576  1.00  0.00     0.010 A 
ATOM     72  C   UNL     1      -6.027  -8.452 -10.630  1.00  0.00     0.020 A 
ATOM     73  C   UNL     1      -4.209  -6.945 -11.110  1.00  0.00     0.020 A 
ATOM     74  C   UNL     1      -4.752  -8.227 -11.133  1.00  0.00     0.054 A 
BRANCH  74  75
ATOM     75  S   UNL     1      -3.853  -9.636 -11.831  1.00  0.00     0.124 S 
ATOM     76  O   UNL     1      -3.748 -10.535 -10.684  1.00  0.00    -0.237 OA
ATOM     77  O   UNL     1      -4.747 -10.079 -12.897  1.00  0.00    -0.237 OA
ATOM     78  O   UNL     1      -2.590  -9.056 -12.281  1.00  0.00    -0.744 OA
ENDBRANCH  74  75
ENDBRANCH  55  69
BRANCH  56  79
ATOM     79  C   UNL     1     -10.783   0.206  -3.690  1.00  0.00    -0.014 A 
ATOM     80  C   UNL     1     -10.536   0.386  -2.299  1.00  0.00     0.010 A 
ATOM     81  C   UNL     1     -10.002   0.968  -4.511  1.00  0.00     0.010 A 
ATOM     82  C   UNL     1      -9.434   1.200  -1.718  1.00  0.00     0.020 A 
ATOM     83  C   UNL     1      -8.838   1.590  -3.956  1.00  0.00     0.020 A 
ATOM     84  C   UNL     1      -8.353   1.998  -2.470  1.00  0.00     0.054 A 
BRANCH  84  85
ATOM     85  S   UNL     1      -6.847   3.959  -1.821  1.00  0.00     0.124 S 
ATOM     86  O   UNL     1      -7.278   4.668  -0.569  1.00  0.00    -0.237 OA
ATOM     87  O   UNL     1      -5.429   3.571  -1.591  1.00  0.00    -0.237 OA
ATOM     88  O   UNL     1      -6.785   5.045  -2.863  1.00  0.00    -0.744 OA
ENDBRANCH  84  85
ENDBRANCH  56  79
BRANCH  68  89
ATOM     89  C   UNL     1     -12.465  -3.789  -9.790  1.00  0.00    -0.014 A 
ATOM     90  C   UNL     1     -13.825  -3.488  -9.871  1.00  0.00     0.010 A 
ATOM     91  C   UNL     1     -11.889  -4.416 -10.927  1.00  0.00     0.010 A 
ATOM     92  C   UNL     1     -14.527  -3.649 -11.070  1.00  0.00     0.020 A 
ATOM     93  C   UNL     1     -12.579  -4.613 -12.116  1.00  0.00     0.020 A 
ATOM     94  C   UNL     1     -13.891  -4.188 -12.191  1.00  0.00     0.054 A 
BRANCH  94  95
ATOM     95  S   UNL     1     -14.814  -4.374 -13.724  1.00  0.00     0.124 S 
ATOM     96  O   UNL     1     -16.038  -5.030 -13.271  1.00  0.00    -0.237 OA
ATOM     97  O   UNL     1     -14.964  -2.985 -14.151  1.00  0.00    -0.237 OA
ATOM     98  O   UNL     1     -13.943  -5.194 -14.561  1.00  0.00    -0.744 OA
ENDBRANCH  94  95
ENDBRANCH  68  89
ENDBRANCH  42  43
ENDBRANCH  34  37
ENDBRANCH  32  33
ENDBRANCH   1  32
TORSDOF 16
