REMARK SMILES O=C(NCCCNC(=O)[C@H]1Cc2[nH]cnc2CN1C(=O)N1CCC[C@H](O)C1)c1ccc(-c2c3nc(c(-c4ccc(S(=O)(=O)[O-])cc4)c4ccc([nH]4)c(-c4ccc(S(=O)(=O)[O-])cc4)c4nc(c(-c5ccc(S(=O)(=O)[O-])cc5)c5ccc2[nH]5)C=C4)C=C3)cc1
REMARK SMILES IDX 5 1 4 2 3 3 1 4 2 5 28 7 29 8 87 9 30 10 86 11 31 12 32 13
REMARK SMILES IDX 33 14 80 15 34 16 85 17 79 18 81 19 35 20 84 21 78 22 77 23
REMARK SMILES IDX 36 25 66 26 47 27 65 28 48 29 51 30 64 31 82 32 49 33 50 34
REMARK SMILES IDX 63 36 83 37 52 38 37 39 38 40 46 41 39 42 45 43 40 44 41 45
REMARK SMILES IDX 42 46 43 47 44 48 67 49 68 50 76 51 69 52 75 53 70 54 71 55
REMARK SMILES IDX 72 56 73 57 74 58 53 59 54 60 62 61 55 62 61 63 56 64 57 65
REMARK SMILES IDX 58 66 59 67 60 68 6 69 7 70 8 71 9 73 10 74 11 75 18 76
REMARK SMILES IDX 12 77 17 78 13 79 16 80 14 81 15 83 19 84 20 85 21 86 22 87
REMARK SMILES IDX 27 88 23 89 25 90 24 91 26 92
REMARK H PARENT 3 6 81 24 51 35 7 72 13 82 26 93
REMARK Flexibility Score: inf
ROOT
ATOM      1  C   UNL     1       5.875   2.144   0.456  1.00  0.00     0.042 C 
ENDROOT
BRANCH   1   2
ATOM      2  C   UNL     1       5.503   0.717   0.042  1.00  0.00     0.118 C 
BRANCH   2   3
ATOM      3  N   UNL     1       4.152   0.293   0.362  1.00  0.00    -0.352 N 
ATOM      4  O   UNL     1       2.019  -0.328   0.285  1.00  0.00    -0.269 OA
ATOM      5  C   UNL     1       2.927   0.315  -0.252  1.00  0.00     0.251 C 
ATOM      6  H   UNL     1       4.102  -0.118   1.255  1.00  0.00     0.163 HD
BRANCH   5   7
ATOM      7  C   UNL     1       2.620   1.101  -1.474  1.00  0.00     0.039 A 
ATOM      8  C   UNL     1       3.594   1.647  -2.297  1.00  0.00     0.014 A 
ATOM      9  C   UNL     1       1.263   1.322  -1.799  1.00  0.00     0.014 A 
ATOM     10  C   UNL     1       3.240   2.455  -3.359  1.00  0.00     0.010 A 
ATOM     11  C   UNL     1       0.898   2.111  -2.896  1.00  0.00     0.010 A 
ATOM     12  C   UNL     1       1.896   2.693  -3.667  1.00  0.00    -0.014 A 
BRANCH  12  13
ATOM     13  C   UNL     1       1.689   3.442  -4.901  1.00  0.00     0.031 A 
ATOM     14  C   UNL     1       2.349   2.847  -6.096  1.00  0.00     0.074 A 
ATOM     15  C   UNL     1       1.010   4.590  -5.051  1.00  0.00     0.049 A 
ATOM     16  N   UNL     1       3.408   3.268  -6.710  1.00  0.00    -0.248 NA
ATOM     17  C   UNL     1       1.845   1.551  -6.567  1.00  0.00     0.031 C 
ATOM     18  C   UNL     1       0.048   5.219  -4.152  1.00  0.00     0.029 A 
ATOM     19  N   UNL     1       1.020   5.413  -6.140  1.00  0.00    -0.354 N 
ATOM     20  C   UNL     1       3.617   2.380  -7.759  1.00  0.00     0.074 A 
ATOM     21  C   UNL     1       2.708   1.279  -7.545  1.00  0.00     0.031 C 
ATOM     22  C   UNL     1      -0.590   6.208  -4.822  1.00  0.00     0.029 A 
ATOM     23  C   UNL     1       0.019   6.366  -6.136  1.00  0.00     0.049 A 
ATOM     24  H   UNL     1       1.681   5.335  -6.865  1.00  0.00     0.167 HD
ATOM     25  C   UNL     1       4.397   2.684  -8.833  1.00  0.00     0.031 A 
ATOM     26  C   UNL     1      -0.326   7.166  -7.172  1.00  0.00     0.031 A 
ATOM     27  C   UNL     1       5.250   3.818  -8.594  1.00  0.00     0.049 A 
ATOM     28  C   UNL     1       0.823   7.246  -8.108  1.00  0.00     0.074 A 
ATOM     29  C   UNL     1       6.255   4.116  -7.695  1.00  0.00     0.029 A 
ATOM     30  N   UNL     1       4.901   5.013  -9.177  1.00  0.00    -0.354 N 
ATOM     31  N   UNL     1       1.936   7.873  -7.850  1.00  0.00    -0.248 NA
ATOM     32  C   UNL     1       0.878   6.326  -9.235  1.00  0.00     0.031 C 
ATOM     33  C   UNL     1       6.146   5.517  -7.458  1.00  0.00     0.029 A 
ATOM     34  C   UNL     1       5.090   5.993  -8.237  1.00  0.00     0.049 A 
ATOM     35  H   UNL     1       4.576   5.141 -10.097  1.00  0.00     0.167 HD
ATOM     36  C   UNL     1       2.921   7.154  -8.512  1.00  0.00     0.074 A 
ATOM     37  C   UNL     1       2.197   6.289  -9.435  1.00  0.00     0.031 C 
ATOM     38  C   UNL     1       4.213   7.135  -8.067  1.00  0.00     0.031 A 
BRANCH  25  39
ATOM     39  C   UNL     1       4.117   2.173 -10.225  1.00  0.00    -0.014 A 
ATOM     40  C   UNL     1       5.009   2.495 -11.269  1.00  0.00     0.010 A 
ATOM     41  C   UNL     1       2.865   1.639 -10.596  1.00  0.00     0.010 A 
ATOM     42  C   UNL     1       4.627   2.378 -12.612  1.00  0.00     0.020 A 
ATOM     43  C   UNL     1       2.494   1.471 -11.930  1.00  0.00     0.020 A 
ATOM     44  C   UNL     1       3.359   1.889 -12.930  1.00  0.00     0.054 A 
BRANCH  44  45
ATOM     45  S   UNL     1       2.807   1.893 -14.652  1.00  0.00     0.124 S 
ATOM     46  O   UNL     1       2.635   3.320 -14.904  1.00  0.00    -0.237 OA
ATOM     47  O   UNL     1       3.926   1.256 -15.341  1.00  0.00    -0.237 OA
ATOM     48  O   UNL     1       1.575   1.107 -14.616  1.00  0.00    -0.744 OA
ENDBRANCH  44  45
ENDBRANCH  25  39
BRANCH  26  49
ATOM     49  C   UNL     1      -1.689   7.616  -7.538  1.00  0.00    -0.014 A 
ATOM     50  C   UNL     1      -1.885   8.613  -8.510  1.00  0.00     0.010 A 
ATOM     51  C   UNL     1      -2.813   6.869  -7.126  1.00  0.00     0.010 A 
ATOM     52  C   UNL     1      -3.147   8.815  -9.090  1.00  0.00     0.020 A 
ATOM     53  C   UNL     1      -4.075   7.075  -7.687  1.00  0.00     0.020 A 
ATOM     54  C   UNL     1      -4.231   8.030  -8.686  1.00  0.00     0.054 A 
BRANCH  54  55
ATOM     55  S   UNL     1      -5.815   8.171  -9.563  1.00  0.00     0.124 S 
ATOM     56  O   UNL     1      -6.310   9.465  -9.103  1.00  0.00    -0.237 OA
ATOM     57  O   UNL     1      -5.410   8.109 -10.964  1.00  0.00    -0.237 OA
ATOM     58  O   UNL     1      -6.573   7.013  -9.090  1.00  0.00    -0.744 OA
ENDBRANCH  54  55
ENDBRANCH  26  49
BRANCH  38  59
ATOM     59  C   UNL     1       4.671   8.203  -7.101  1.00  0.00    -0.014 A 
ATOM     60  C   UNL     1       4.052   8.450  -5.862  1.00  0.00     0.010 A 
ATOM     61  C   UNL     1       5.856   8.898  -7.407  1.00  0.00     0.010 A 
ATOM     62  C   UNL     1       4.583   9.393  -4.970  1.00  0.00     0.020 A 
ATOM     63  C   UNL     1       6.403   9.824  -6.514  1.00  0.00     0.020 A 
ATOM     64  C   UNL     1       5.756  10.076  -5.303  1.00  0.00     0.054 A 
BRANCH  64  65
ATOM     65  S   UNL     1       6.465  11.255  -4.120  1.00  0.00     0.124 S 
ATOM     66  O   UNL     1       5.517  12.364  -4.171  1.00  0.00    -0.237 OA
ATOM     67  O   UNL     1       6.479  10.493  -2.872  1.00  0.00    -0.237 OA
ATOM     68  O   UNL     1       7.789  11.546  -4.669  1.00  0.00    -0.744 OA
ENDBRANCH  64  65
ENDBRANCH  38  59
ENDBRANCH  12  13
ENDBRANCH   5   7
ENDBRANCH   2   3
ENDBRANCH   1   2
BRANCH   1  69
ATOM     69  C   UNL     1       5.820   2.456   1.957  1.00  0.00     0.117 C 
BRANCH  69  70
ATOM     70  N   UNL     1       6.427   1.433   2.793  1.00  0.00    -0.354 N 
ATOM     71  C   UNL     1       6.646   1.408   4.135  1.00  0.00     0.243 C 
ATOM     72  H   UNL     1       6.727   0.629   2.310  1.00  0.00     0.163 HD
ATOM     73  O   UNL     1       7.231   0.417   4.594  1.00  0.00    -0.273 OA
BRANCH  71  74
ATOM     74  C   UNL     1       6.420   2.639   5.029  1.00  0.00     0.182 C 
ATOM     75  C   UNL     1       7.776   3.413   4.915  1.00  0.00     0.091 C 
ATOM     76  N   UNL     1       5.139   3.382   4.801  1.00  0.00    -0.306 N 
ATOM     77  C   UNL     1       7.581   4.861   4.806  1.00  0.00     0.042 A 
ATOM     78  C   UNL     1       5.065   4.849   4.976  1.00  0.00     0.180 C 
ATOM     79  N   UNL     1       8.527   5.822   4.599  1.00  0.00    -0.348 N 
ATOM     80  C   UNL     1       6.379   5.510   4.826  1.00  0.00     0.081 A 
ATOM     81  C   UNL     1       7.864   7.018   4.537  1.00  0.00     0.197 A 
ATOM     82  H   UNL     1       9.498   5.683   4.510  1.00  0.00     0.167 HD
ATOM     83  N   UNL     1       6.567   6.862   4.700  1.00  0.00    -0.240 NA
BRANCH  76  84
ATOM     84  C   UNL     1       3.886   2.763   4.834  1.00  0.00     0.321 C 
ATOM     85  O   UNL     1       2.829   3.392   4.832  1.00  0.00    -0.248 OA
BRANCH  84  86
ATOM     86  N   UNL     1       3.880   1.378   4.801  1.00  0.00    -0.322 N 
ATOM     87  C   UNL     1       3.802   0.682   6.073  1.00  0.00     0.121 C 
ATOM     88  C   UNL     1       3.051   0.767   3.756  1.00  0.00     0.153 C 
ATOM     89  C   UNL     1       4.216  -0.779   5.934  1.00  0.00     0.024 C 
ATOM     90  C   UNL     1       3.385  -0.717   3.526  1.00  0.00     0.134 C 
ATOM     91  C   UNL     1       3.432  -1.503   4.836  1.00  0.00     0.035 C 
BRANCH  90  92
ATOM     92  O   UNL     1       4.633  -0.857   2.834  1.00  0.00    -0.391 OA
ATOM     93  H   UNL     1       5.348  -0.490   3.377  1.00  0.00     0.211 HD
ENDBRANCH  90  92
ENDBRANCH  84  86
ENDBRANCH  76  84
ENDBRANCH  71  74
ENDBRANCH  69  70
ENDBRANCH   1  69
TORSDOF 16
