REMARK SMILES COCc1nc2ccccc2n1CC(=O)NCCCNC(=O)c1ccc(-c2c3nc(c(-c4ccc(S(=O)(=O)[O-])cc4)c4ccc([nH]4)c(-c4ccc(S(=O)(=O)[O-])cc4)c4nc(c(-c5ccc(S(=O)(=O)[O-])cc5)c5ccc2[nH]5)C=C4)C=C3)cc1
REMARK SMILES IDX 18 1 17 2 16 3 14 4 15 5 13 7 12 8 4 9 5 10 6 11 11 12 7 13
REMARK SMILES IDX 10 14 8 15 9 16 3 17 2 18 1 19 19 20 20 21 21 22 22 24 23 25
REMARK SMILES IDX 24 26 82 27 25 28 81 29 26 30 27 31 28 32 75 33 29 34 80 35
REMARK SMILES IDX 74 36 76 37 30 38 79 39 73 40 72 41 31 43 61 44 42 45 60 46
REMARK SMILES IDX 43 47 46 48 59 49 77 50 44 51 45 52 58 54 78 55 47 56 32 57
REMARK SMILES IDX 33 58 41 59 34 60 40 61 35 62 36 63 37 64 38 65 39 66 62 67
REMARK SMILES IDX 63 68 71 69 64 70 70 71 65 72 66 73 67 74 68 75 69 76 48 77
REMARK SMILES IDX 49 78 57 79 50 80 56 81 51 82 52 83 53 84 54 85 55 86
REMARK H PARENT 16 6 20 23 76 42 46 53
REMARK Flexibility Score: inf
ROOT
ATOM      1  C   UNL     1      -2.086  -2.870   4.931  1.00  0.00     0.042 C 
ENDROOT
BRANCH   1   2
ATOM      2  C   UNL     1      -3.032  -2.345   3.852  1.00  0.00     0.117 C 
BRANCH   2   3
ATOM      3  N   UNL     1      -2.771  -0.956   3.515  1.00  0.00    -0.354 N 
ATOM      4  C   UNL     1      -2.191  -0.415   2.407  1.00  0.00     0.240 C 
ATOM      5  O   UNL     1      -2.103   0.815   2.360  1.00  0.00    -0.273 OA
ATOM      6  H   UNL     1      -3.058  -0.303   4.194  1.00  0.00     0.163 HD
BRANCH   4   7
ATOM      7  C   UNL     1      -1.747  -1.291   1.255  1.00  0.00     0.223 C 
BRANCH   7   8
ATOM      8  N   UNL     1      -0.632  -2.167   1.573  1.00  0.00    -0.316 N 
ATOM      9  C   UNL     1       0.628  -1.789   1.995  1.00  0.00     0.136 A 
ATOM     10  N   UNL     1       1.355  -2.853   2.288  1.00  0.00    -0.231 NA
ATOM     11  C   UNL     1       0.583  -3.942   1.974  1.00  0.00     0.089 A 
ATOM     12  C   UNL     1      -0.652  -3.544   1.472  1.00  0.00     0.069 A 
ATOM     13  C   UNL     1       0.874  -5.310   2.089  1.00  0.00     0.030 A 
ATOM     14  C   UNL     1      -1.614  -4.465   1.030  1.00  0.00     0.028 A 
ATOM     15  C   UNL     1      -0.084  -6.244   1.679  1.00  0.00     0.002 A 
ATOM     16  C   UNL     1      -1.305  -5.824   1.151  1.00  0.00     0.002 A 
BRANCH   9  17
ATOM     17  C   UNL     1       1.114  -0.381   2.121  1.00  0.00     0.235 C 
BRANCH  17  18
ATOM     18  O   UNL     1       0.726   0.388   0.980  1.00  0.00    -0.377 OA
ATOM     19  C   UNL     1       1.463   0.069  -0.192  1.00  0.00     0.195 C 
ENDBRANCH  17  18
ENDBRANCH   9  17
ENDBRANCH   7   8
ENDBRANCH   4   7
ENDBRANCH   2   3
ENDBRANCH   1   2
BRANCH   1  20
ATOM     20  C   UNL     1      -2.169  -2.095   6.247  1.00  0.00     0.118 C 
BRANCH  20  21
ATOM     21  N   UNL     1      -3.509  -1.995   6.792  1.00  0.00    -0.352 N 
ATOM     22  C   UNL     1      -4.301  -2.787   7.574  1.00  0.00     0.251 C 
ATOM     23  H   UNL     1      -3.955  -1.155   6.538  1.00  0.00     0.163 HD
ATOM     24  O   UNL     1      -5.391  -2.301   7.891  1.00  0.00    -0.269 OA
BRANCH  22  25
ATOM     25  C   UNL     1      -3.980  -4.175   8.005  1.00  0.00     0.039 A 
ATOM     26  C   UNL     1      -2.777  -4.844   7.777  1.00  0.00     0.014 A 
ATOM     27  C   UNL     1      -5.023  -4.870   8.647  1.00  0.00     0.014 A 
ATOM     28  C   UNL     1      -2.659  -6.200   8.071  1.00  0.00     0.010 A 
ATOM     29  C   UNL     1      -4.902  -6.218   8.963  1.00  0.00     0.010 A 
ATOM     30  C   UNL     1      -3.739  -6.896   8.616  1.00  0.00    -0.014 A 
BRANCH  30  31
ATOM     31  C   UNL     1      -3.599  -8.336   8.820  1.00  0.00     0.031 A 
ATOM     32  C   UNL     1      -2.565  -8.771   9.804  1.00  0.00     0.074 A 
ATOM     33  C   UNL     1      -4.417  -9.232   8.232  1.00  0.00     0.049 A 
ATOM     34  N   UNL     1      -1.550  -9.550   9.615  1.00  0.00    -0.248 NA
ATOM     35  C   UNL     1      -2.640  -8.204  11.159  1.00  0.00     0.031 C 
ATOM     36  C   UNL     1      -5.649  -8.979   7.478  1.00  0.00     0.029 A 
ATOM     37  N   UNL     1      -4.368 -10.591   8.290  1.00  0.00    -0.354 N 
ATOM     38  C   UNL     1      -0.925  -9.691  10.854  1.00  0.00     0.074 A 
ATOM     39  C   UNL     1      -1.581  -8.765  11.745  1.00  0.00     0.031 C 
ATOM     40  C   UNL     1      -6.348 -10.131   7.368  1.00  0.00     0.029 A 
ATOM     41  C   UNL     1      -5.541 -11.217   7.893  1.00  0.00     0.049 A 
ATOM     42  H   UNL     1      -3.570 -11.086   8.587  1.00  0.00     0.167 HD
ATOM     43  C   UNL     1       0.008 -10.652  11.111  1.00  0.00     0.031 A 
ATOM     44  C   UNL     1      -5.851 -12.527   8.056  1.00  0.00     0.031 A 
ATOM     45  C   UNL     1       0.537 -11.228   9.907  1.00  0.00     0.049 A 
ATOM     46  C   UNL     1      -4.580 -13.263   8.247  1.00  0.00     0.074 A 
ATOM     47  C   UNL     1       1.306 -10.755   8.865  1.00  0.00     0.029 A 
ATOM     48  N   UNL     1      -0.002 -12.414   9.473  1.00  0.00    -0.354 N 
ATOM     49  N   UNL     1      -3.668 -13.386   7.323  1.00  0.00    -0.248 NA
ATOM     50  C   UNL     1      -4.133 -13.525   9.605  1.00  0.00     0.031 C 
ATOM     51  C   UNL     1       0.810 -11.422   7.710  1.00  0.00     0.029 A 
ATOM     52  C   UNL     1      -0.198 -12.300   8.120  1.00  0.00     0.049 A 
ATOM     53  H   UNL     1      -0.209 -13.200  10.029  1.00  0.00     0.167 HD
ATOM     54  C   UNL     1      -2.462 -13.327   8.004  1.00  0.00     0.074 A 
ATOM     55  C   UNL     1      -2.812 -13.519   9.409  1.00  0.00     0.031 C 
ATOM     56  C   UNL     1      -1.326 -12.863   7.402  1.00  0.00     0.031 A 
BRANCH  43  57
ATOM     57  C   UNL     1       0.268 -11.252  12.470  1.00  0.00    -0.014 A 
ATOM     58  C   UNL     1      -0.646 -11.143  13.537  1.00  0.00     0.010 A 
ATOM     59  C   UNL     1       1.340 -12.155  12.639  1.00  0.00     0.010 A 
ATOM     60  C   UNL     1      -0.499 -11.877  14.717  1.00  0.00     0.020 A 
ATOM     61  C   UNL     1       1.473 -12.929  13.803  1.00  0.00     0.020 A 
ATOM     62  C   UNL     1       0.550 -12.780  14.837  1.00  0.00     0.054 A 
BRANCH  62  63
ATOM     63  S   UNL     1       0.623 -13.812  16.323  1.00  0.00     0.124 S 
ATOM     64  O   UNL     1       0.963 -12.834  17.353  1.00  0.00    -0.237 OA
ATOM     65  O   UNL     1      -0.731 -14.355  16.393  1.00  0.00    -0.237 OA
ATOM     66  O   UNL     1       1.667 -14.785  16.016  1.00  0.00    -0.744 OA
ENDBRANCH  62  63
ENDBRANCH  43  57
BRANCH  44  67
ATOM     67  C   UNL     1      -7.154 -13.071   8.514  1.00  0.00    -0.014 A 
ATOM     68  C   UNL     1      -7.985 -12.286   9.342  1.00  0.00     0.010 A 
ATOM     69  C   UNL     1      -7.434 -14.446   8.413  1.00  0.00     0.010 A 
ATOM     70  C   UNL     1      -9.004 -12.864  10.104  1.00  0.00     0.020 A 
ATOM     71  C   UNL     1      -8.457 -15.033   9.177  1.00  0.00     0.020 A 
ATOM     72  C   UNL     1      -9.209 -14.240  10.047  1.00  0.00     0.054 A 
BRANCH  72  73
ATOM     73  S   UNL     1     -10.404 -14.981  11.196  1.00  0.00     0.124 S 
ATOM     74  O   UNL     1      -9.755 -14.760  12.489  1.00  0.00    -0.237 OA
ATOM     75  O   UNL     1     -11.606 -14.179  10.959  1.00  0.00    -0.237 OA
ATOM     76  O   UNL     1     -10.490 -16.367  10.767  1.00  0.00    -0.744 OA
ENDBRANCH  72  73
ENDBRANCH  44  67
BRANCH  56  77
ATOM     77  C   UNL     1      -1.330 -12.639   5.902  1.00  0.00    -0.014 A 
ATOM     78  C   UNL     1      -0.276 -13.192   5.152  1.00  0.00     0.010 A 
ATOM     79  C   UNL     1      -2.202 -11.735   5.261  1.00  0.00     0.010 A 
ATOM     80  C   UNL     1      -0.065 -12.821   3.821  1.00  0.00     0.020 A 
ATOM     81  C   UNL     1      -2.012 -11.378   3.916  1.00  0.00     0.020 A 
ATOM     82  C   UNL     1      -0.924 -11.901   3.215  1.00  0.00     0.054 A 
BRANCH  82  83
ATOM     83  S   UNL     1      -0.567 -11.376   1.515  1.00  0.00     0.124 S 
ATOM     84  O   UNL     1       0.614 -10.533   1.692  1.00  0.00    -0.237 OA
ATOM     85  O   UNL     1      -0.332 -12.644   0.826  1.00  0.00    -0.237 OA
ATOM     86  O   UNL     1      -1.773 -10.662   1.101  1.00  0.00    -0.744 OA
ENDBRANCH  82  83
ENDBRANCH  56  77
ENDBRANCH  30  31
ENDBRANCH  22  25
ENDBRANCH  20  21
ENDBRANCH   1  20
TORSDOF 16
