REMARK SMILES O=C(NCCCNC(=O)c1cc2n[nH]cc2cc1[N+](=O)[O-])c1ccc(-c2c3nc(c(-c4ccc(S(=O)(=O)[O-])cc4)c4ccc([nH]4)c(-c4ccc(S(=O)(=O)[O-])cc4)c4nc(c(-c5ccc(S(=O)(=O)[O-])cc5)c5ccc2[nH]5)C=C4)C=C3)cc1
REMARK SMILES IDX 4 1 3 2 1 3 2 4 22 6 23 7 81 8 24 9 80 10 25 11 26 12 27 13
REMARK SMILES IDX 74 14 28 15 79 16 73 17 75 18 29 19 78 20 72 21 71 22 30 24
REMARK SMILES IDX 60 25 41 26 59 27 42 28 45 29 58 30 76 31 43 32 44 33 57 35
REMARK SMILES IDX 77 36 46 37 31 38 32 39 40 40 33 41 39 42 34 43 35 44 36 45
REMARK SMILES IDX 37 46 38 47 61 48 62 49 70 50 63 51 69 52 64 53 65 54 66 55
REMARK SMILES IDX 67 56 68 57 47 58 48 59 56 60 49 61 55 62 50 63 51 64 52 65
REMARK SMILES IDX 53 66 54 67 5 68 6 69 7 70 8 71 9 73 10 74 11 75 18 76 12 77
REMARK SMILES IDX 17 78 13 79 16 80 14 81 15 82 19 84 20 85 21 86
REMARK H PARENT 3 5 75 23 45 34 7 72 14 83
REMARK Flexibility Score: inf
ROOT
ATOM      1  C   UNL     1       4.660  -1.280  -0.113  1.00  0.00     0.118 C 
ENDROOT
BRANCH   1   2
ATOM      2  N   UNL     1       3.217  -1.080  -0.164  1.00  0.00    -0.352 N 
ATOM      3  O   UNL     1       1.240  -0.035   0.080  1.00  0.00    -0.269 OA
ATOM      4  C   UNL     1       2.464   0.054   0.026  1.00  0.00     0.251 C 
ATOM      5  H   UNL     1       2.697  -1.891  -0.367  1.00  0.00     0.163 HD
BRANCH   4   6
ATOM      6  C   UNL     1       3.115   1.372   0.197  1.00  0.00     0.039 A 
ATOM      7  C   UNL     1       4.198   1.748  -0.597  1.00  0.00     0.014 A 
ATOM      8  C   UNL     1       2.620   2.258   1.160  1.00  0.00     0.014 A 
ATOM      9  C   UNL     1       4.895   2.916  -0.310  1.00  0.00     0.010 A 
ATOM     10  C   UNL     1       3.259   3.483   1.376  1.00  0.00     0.010 A 
ATOM     11  C   UNL     1       4.427   3.805   0.671  1.00  0.00    -0.014 A 
BRANCH  11  12
ATOM     12  C   UNL     1       5.152   5.083   0.894  1.00  0.00     0.031 A 
ATOM     13  C   UNL     1       5.813   5.389   2.210  1.00  0.00     0.074 A 
ATOM     14  C   UNL     1       5.247   5.958  -0.128  1.00  0.00     0.049 A 
ATOM     15  N   UNL     1       6.523   6.436   2.549  1.00  0.00    -0.248 NA
ATOM     16  C   UNL     1       5.656   4.399   3.288  1.00  0.00     0.031 C 
ATOM     17  C   UNL     1       4.644   5.776  -1.452  1.00  0.00     0.029 A 
ATOM     18  N   UNL     1       5.909   7.155  -0.228  1.00  0.00    -0.354 N 
ATOM     19  C   UNL     1       6.873   6.247   3.881  1.00  0.00     0.074 A 
ATOM     20  C   UNL     1       6.282   4.992   4.296  1.00  0.00     0.031 C 
ATOM     21  C   UNL     1       5.019   6.786  -2.248  1.00  0.00     0.029 A 
ATOM     22  C   UNL     1       5.828   7.722  -1.477  1.00  0.00     0.049 A 
ATOM     23  H   UNL     1       6.394   7.568   0.522  1.00  0.00     0.167 HD
ATOM     24  C   UNL     1       7.620   7.044   4.684  1.00  0.00     0.031 A 
ATOM     25  C   UNL     1       6.336   8.873  -1.954  1.00  0.00     0.031 A 
ATOM     26  C   UNL     1       8.209   8.290   4.266  1.00  0.00     0.049 A 
ATOM     27  C   UNL     1       7.144   9.746  -1.041  1.00  0.00     0.074 A 
ATOM     28  C   UNL     1       9.005   9.155   4.997  1.00  0.00     0.029 A 
ATOM     29  N   UNL     1       8.063   8.853   3.007  1.00  0.00    -0.354 N 
ATOM     30  N   UNL     1       7.479   9.537   0.209  1.00  0.00    -0.248 NA
ATOM     31  C   UNL     1       7.636  11.011  -1.601  1.00  0.00     0.031 C 
ATOM     32  C   UNL     1       9.302  10.262   4.194  1.00  0.00     0.029 A 
ATOM     33  C   UNL     1       8.733  10.064   2.946  1.00  0.00     0.049 A 
ATOM     34  H   UNL     1       7.556   8.450   2.264  1.00  0.00     0.167 HD
ATOM     35  C   UNL     1       8.230  10.643   0.586  1.00  0.00     0.074 A 
ATOM     36  C   UNL     1       8.316  11.507  -0.576  1.00  0.00     0.031 C 
ATOM     37  C   UNL     1       8.795  10.919   1.788  1.00  0.00     0.031 A 
BRANCH  24  38
ATOM     38  C   UNL     1       7.812   6.604   6.113  1.00  0.00    -0.014 A 
ATOM     39  C   UNL     1       8.646   5.519   6.439  1.00  0.00     0.010 A 
ATOM     40  C   UNL     1       7.161   7.301   7.148  1.00  0.00     0.010 A 
ATOM     41  C   UNL     1       8.785   5.108   7.768  1.00  0.00     0.020 A 
ATOM     42  C   UNL     1       7.316   6.907   8.481  1.00  0.00     0.020 A 
ATOM     43  C   UNL     1       8.110   5.798   8.780  1.00  0.00     0.054 A 
BRANCH  43  44
ATOM     44  S   UNL     1       8.298   5.239  10.496  1.00  0.00     0.124 S 
ATOM     45  O   UNL     1       7.452   4.048  10.517  1.00  0.00    -0.237 OA
ATOM     46  O   UNL     1       9.733   4.988  10.599  1.00  0.00    -0.237 OA
ATOM     47  O   UNL     1       7.808   6.366  11.284  1.00  0.00    -0.744 OA
ENDBRANCH  43  44
ENDBRANCH  24  38
BRANCH  25  48
ATOM     48  C   UNL     1       6.083   9.250  -3.369  1.00  0.00    -0.014 A 
ATOM     49  C   UNL     1       7.114   9.179  -4.322  1.00  0.00     0.010 A 
ATOM     50  C   UNL     1       4.790   9.619  -3.783  1.00  0.00     0.010 A 
ATOM     51  C   UNL     1       6.854   9.466  -5.665  1.00  0.00     0.020 A 
ATOM     52  C   UNL     1       4.521   9.881  -5.128  1.00  0.00     0.020 A 
ATOM     53  C   UNL     1       5.557   9.808  -6.061  1.00  0.00     0.054 A 
BRANCH  53  54
ATOM     54  S   UNL     1       5.221  10.089  -7.822  1.00  0.00     0.124 S 
ATOM     55  O   UNL     1       5.778  11.422  -8.027  1.00  0.00    -0.237 OA
ATOM     56  O   UNL     1       5.947   8.994  -8.461  1.00  0.00    -0.237 OA
ATOM     57  O   UNL     1       3.766   9.995  -7.910  1.00  0.00    -0.744 OA
ENDBRANCH  53  54
ENDBRANCH  25  48
BRANCH  37  58
ATOM     58  C   UNL     1       9.568  12.204   1.899  1.00  0.00    -0.014 A 
ATOM     59  C   UNL     1       8.907  13.443   1.969  1.00  0.00     0.010 A 
ATOM     60  C   UNL     1      10.972  12.167   1.968  1.00  0.00     0.010 A 
ATOM     61  C   UNL     1       9.640  14.627   2.075  1.00  0.00     0.020 A 
ATOM     62  C   UNL     1      11.707  13.348   2.097  1.00  0.00     0.020 A 
ATOM     63  C   UNL     1      11.036  14.572   2.135  1.00  0.00     0.054 A 
BRANCH  63  64
ATOM     64  S   UNL     1      11.966  16.119   2.309  1.00  0.00     0.124 S 
ATOM     65  O   UNL     1      11.906  16.664   0.956  1.00  0.00    -0.237 OA
ATOM     66  O   UNL     1      11.196  16.848   3.315  1.00  0.00    -0.237 OA
ATOM     67  O   UNL     1      13.289  15.679   2.747  1.00  0.00    -0.744 OA
ENDBRANCH  63  64
ENDBRANCH  37  58
ENDBRANCH  11  12
ENDBRANCH   4   6
ENDBRANCH   1   2
BRANCH   1  68
ATOM     68  C   UNL     1       5.110  -2.138   1.062  1.00  0.00     0.042 C 
BRANCH  68  69
ATOM     69  C   UNL     1       4.579  -3.562   1.048  1.00  0.00     0.118 C 
BRANCH  69  70
ATOM     70  N   UNL     1       4.943  -4.293  -0.159  1.00  0.00    -0.352 N 
ATOM     71  C   UNL     1       5.607  -5.478  -0.319  1.00  0.00     0.258 C 
ATOM     72  H   UNL     1       4.665  -3.862  -0.999  1.00  0.00     0.163 HD
ATOM     73  O   UNL     1       5.911  -5.876  -1.439  1.00  0.00    -0.269 OA
BRANCH  71  74
ATOM     74  C   UNL     1       6.012  -6.274   0.852  1.00  0.00     0.119 A 
ATOM     75  C   UNL     1       7.404  -6.527   0.956  1.00  0.00     0.052 A 
ATOM     76  C   UNL     1       5.058  -6.781   1.796  1.00  0.00     0.282 A 
ATOM     77  C   UNL     1       7.757  -7.271   2.091  1.00  0.00     0.093 A 
ATOM     78  C   UNL     1       5.385  -7.506   2.967  1.00  0.00     0.098 A 
ATOM     79  N   UNL     1       8.961  -7.694   2.506  1.00  0.00    -0.176 NA
ATOM     80  C   UNL     1       6.756  -7.709   3.033  1.00  0.00     0.026 A 
ATOM     81  N   UNL     1       8.723  -8.347   3.660  1.00  0.00    -0.285 N 
ATOM     82  C   UNL     1       7.407  -8.386   4.024  1.00  0.00     0.114 A 
ATOM     83  H   UNL     1       9.438  -8.762   4.196  1.00  0.00     0.189 HD
BRANCH  76  84
ATOM     84  N   UNL     1       3.639  -6.586   1.546  1.00  0.00     0.063 N 
ATOM     85  O   UNL     1       2.982  -6.061   2.455  1.00  0.00    -0.258 OA
ATOM     86  O   UNL     1       3.185  -6.992   0.471  1.00  0.00    -0.258 OA
ENDBRANCH  76  84
ENDBRANCH  71  74
ENDBRANCH  69  70
ENDBRANCH  68  69
ENDBRANCH   1  68
TORSDOF 14
