REMARK SMILES CC[C@]1(C(=O)NCCCNC(=O)c2ccc(-c3c4nc(c(-c5ccc(S(=O)(=O)[O-])cc5)c5ccc([nH]5)c(-c5ccc(S(=O)(=O)[O-])cc5)c5nc(c(-c6ccc(S(=O)(=O)[O-])cc6)c6ccc3[nH]6)C=C5)C=C4)cc2)CCN(C(=O)[C@]2(C)CCCO2)C1
REMARK SMILES IDX 8 1 7 2 6 3 4 4 5 5 3 7 73 8 84 9 74 10 75 11 2 12 1 13
REMARK SMILES IDX 76 14 77 15 78 16 80 17 83 18 79 19 81 20 82 21 9 22 10 23
REMARK SMILES IDX 11 24 12 26 13 27 14 28 72 29 15 30 71 31 16 32 17 33 18 34
REMARK SMILES IDX 65 35 19 36 70 37 64 38 66 39 20 40 69 41 63 42 62 43 21 45
REMARK SMILES IDX 51 46 32 47 50 48 33 49 36 50 49 51 67 52 34 53 35 54 48 56
REMARK SMILES IDX 68 57 37 58 22 59 23 60 31 61 24 62 30 63 25 64 26 65 27 66
REMARK SMILES IDX 28 67 29 68 52 69 53 70 61 71 54 72 60 73 55 74 56 75 57 76
REMARK SMILES IDX 58 77 59 78 38 79 39 80 47 81 40 82 46 83 41 84 42 85 43 86
REMARK SMILES IDX 44 87 45 88
REMARK H PARENT 6 6 10 25 66 44 36 55
REMARK Flexibility Score: inf
ROOT
ATOM      1  C   UNL     1      -2.317 -11.914  -0.120  1.00  0.00     0.042 C 
ENDROOT
BRANCH   1   2
ATOM      2  C   UNL     1      -1.180 -11.535   0.825  1.00  0.00     0.117 C 
BRANCH   2   3
ATOM      3  N   UNL     1      -0.309 -12.669   1.071  1.00  0.00    -0.355 N 
ATOM      4  C   UNL     1       0.884 -13.039   0.555  1.00  0.00     0.228 C 
ATOM      5  O   UNL     1       1.147 -14.242   0.665  1.00  0.00    -0.274 OA
ATOM      6  H   UNL     1      -0.656 -13.293   1.748  1.00  0.00     0.163 HD
BRANCH   4   7
ATOM      7  C   UNL     1       1.857 -12.068  -0.133  1.00  0.00     0.068 C 
ATOM      8  C   UNL     1       1.358 -11.674  -1.538  1.00  0.00     0.040 C 
ATOM      9  C   UNL     1       1.999 -10.720   0.603  1.00  0.00     0.136 C 
ATOM     10  C   UNL     1       1.881 -10.261  -1.727  1.00  0.00     0.121 C 
ATOM     11  N   UNL     1       1.771  -9.686  -0.405  1.00  0.00    -0.339 N 
BRANCH   7  12
ATOM     12  C   UNL     1       3.236 -12.775  -0.278  1.00  0.00     0.015 C 
ATOM     13  C   UNL     1       3.906 -13.136   1.048  1.00  0.00     0.005 C 
ENDBRANCH   7  12
BRANCH  11  14
ATOM     14  C   UNL     1       1.600  -8.367  -0.035  1.00  0.00     0.254 C 
ATOM     15  O   UNL     1       1.589  -8.071   1.168  1.00  0.00    -0.272 OA
BRANCH  14  16
ATOM     16  C   UNL     1       1.324  -7.262  -1.112  1.00  0.00     0.144 C 
ATOM     17  C   UNL     1      -0.173  -7.194  -1.455  1.00  0.00     0.048 C 
ATOM     18  O   UNL     1       2.030  -7.437  -2.350  1.00  0.00    -0.365 OA
ATOM     19  C   UNL     1       1.773  -5.909  -0.530  1.00  0.00     0.053 C 
ATOM     20  C   UNL     1      -0.259  -7.643  -2.892  1.00  0.00     0.032 C 
ATOM     21  C   UNL     1       1.103  -7.282  -3.435  1.00  0.00     0.162 C 
ENDBRANCH  14  16
ENDBRANCH  11  14
ENDBRANCH   4   7
ENDBRANCH   2   3
ENDBRANCH   1   2
BRANCH   1  22
ATOM     22  C   UNL     1      -3.051 -13.198   0.259  1.00  0.00     0.118 C 
BRANCH  22  23
ATOM     23  N   UNL     1      -3.617 -13.153   1.599  1.00  0.00    -0.352 N 
ATOM     24  C   UNL     1      -4.922 -13.278   2.000  1.00  0.00     0.251 C 
ATOM     25  H   UNL     1      -2.967 -13.012   2.325  1.00  0.00     0.163 HD
ATOM     26  O   UNL     1      -5.228 -13.037   3.167  1.00  0.00    -0.269 OA
BRANCH  24  27
ATOM     27  C   UNL     1      -5.959 -13.672   1.026  1.00  0.00     0.039 A 
ATOM     28  C   UNL     1      -7.159 -12.958   0.994  1.00  0.00     0.014 A 
ATOM     29  C   UNL     1      -5.748 -14.735   0.144  1.00  0.00     0.014 A 
ATOM     30  C   UNL     1      -8.120 -13.268   0.030  1.00  0.00     0.010 A 
ATOM     31  C   UNL     1      -6.672 -14.990  -0.865  1.00  0.00     0.010 A 
ATOM     32  C   UNL     1      -7.868 -14.260  -0.932  1.00  0.00    -0.014 A 
BRANCH  32  33
ATOM     33  C   UNL     1      -8.841 -14.543  -2.017  1.00  0.00     0.031 A 
ATOM     34  C   UNL     1      -9.500 -15.893  -2.111  1.00  0.00     0.074 A 
ATOM     35  C   UNL     1      -9.089 -13.603  -2.951  1.00  0.00     0.049 A 
ATOM     36  N   UNL     1     -10.332 -16.343  -3.015  1.00  0.00    -0.248 NA
ATOM     37  C   UNL     1      -9.163 -16.873  -1.065  1.00  0.00     0.031 C 
ATOM     38  C   UNL     1      -8.489 -12.267  -2.989  1.00  0.00     0.029 A 
ATOM     39  N   UNL     1      -9.909 -13.628  -4.052  1.00  0.00    -0.354 N 
ATOM     40  C   UNL     1     -10.608 -17.657  -2.656  1.00  0.00     0.074 A 
ATOM     41  C   UNL     1      -9.813 -17.950  -1.483  1.00  0.00     0.031 C 
ATOM     42  C   UNL     1      -8.984 -11.591  -4.038  1.00  0.00     0.029 A 
ATOM     43  C   UNL     1      -9.898 -12.458  -4.775  1.00  0.00     0.049 A 
ATOM     44  H   UNL     1     -10.453 -14.410  -4.301  1.00  0.00     0.167 HD
ATOM     45  C   UNL     1     -11.462 -18.534  -3.236  1.00  0.00     0.031 A 
ATOM     46  C   UNL     1     -10.544 -12.121  -5.909  1.00  0.00     0.031 A 
ATOM     47  C   UNL     1     -12.251 -18.237  -4.402  1.00  0.00     0.049 A 
ATOM     48  C   UNL     1     -11.463 -13.124  -6.553  1.00  0.00     0.074 A 
ATOM     49  C   UNL     1     -13.178 -19.043  -5.040  1.00  0.00     0.029 A 
ATOM     50  N   UNL     1     -12.207 -17.044  -5.107  1.00  0.00    -0.354 N 
ATOM     51  N   UNL     1     -11.754 -14.342  -6.165  1.00  0.00    -0.248 NA
ATOM     52  C   UNL     1     -12.147 -12.702  -7.783  1.00  0.00     0.031 C 
ATOM     53  C   UNL     1     -13.649 -18.359  -6.165  1.00  0.00     0.029 A 
ATOM     54  C   UNL     1     -13.069 -17.101  -6.189  1.00  0.00     0.049 A 
ATOM     55  H   UNL     1     -11.645 -16.270  -4.873  1.00  0.00     0.167 HD
ATOM     56  C   UNL     1     -12.679 -14.822  -7.085  1.00  0.00     0.074 A 
ATOM     57  C   UNL     1     -12.908 -13.757  -8.040  1.00  0.00     0.031 C 
ATOM     58  C   UNL     1     -13.286 -16.033  -7.134  1.00  0.00     0.031 A 
BRANCH  45  59
ATOM     59  C   UNL     1     -11.580 -19.904  -2.619  1.00  0.00    -0.014 A 
ATOM     60  C   UNL     1     -12.173 -20.084  -1.355  1.00  0.00     0.010 A 
ATOM     61  C   UNL     1     -11.129 -21.033  -3.327  1.00  0.00     0.010 A 
ATOM     62  C   UNL     1     -12.274 -21.360  -0.795  1.00  0.00     0.020 A 
ATOM     63  C   UNL     1     -11.257 -22.315  -2.784  1.00  0.00     0.020 A 
ATOM     64  C   UNL     1     -11.814 -22.467  -1.512  1.00  0.00     0.054 A 
BRANCH  64  65
ATOM     65  S   UNL     1     -11.980 -24.113  -0.768  1.00  0.00     0.124 S 
ATOM     66  O   UNL     1     -10.981 -24.064   0.296  1.00  0.00    -0.237 OA
ATOM     67  O   UNL     1     -13.372 -24.123  -0.324  1.00  0.00    -0.237 OA
ATOM     68  O   UNL     1     -11.674 -25.024  -1.868  1.00  0.00    -0.744 OA
ENDBRANCH  64  65
ENDBRANCH  45  59
BRANCH  46  69
ATOM     69  C   UNL     1     -10.353 -10.768  -6.500  1.00  0.00    -0.014 A 
ATOM     70  C   UNL     1     -11.399  -9.828  -6.487  1.00  0.00     0.010 A 
ATOM     71  C   UNL     1      -9.117 -10.405  -7.066  1.00  0.00     0.010 A 
ATOM     72  C   UNL     1     -11.219  -8.558  -7.044  1.00  0.00     0.020 A 
ATOM     73  C   UNL     1      -8.923  -9.127  -7.597  1.00  0.00     0.020 A 
ATOM     74  C   UNL     1      -9.980  -8.214  -7.591  1.00  0.00     0.054 A 
BRANCH  74  75
ATOM     75  S   UNL     1      -9.752  -6.543  -8.258  1.00  0.00     0.124 S 
ATOM     76  O   UNL     1     -10.542  -6.593  -9.484  1.00  0.00    -0.237 OA
ATOM     77  O   UNL     1     -10.289  -5.703  -7.191  1.00  0.00    -0.237 OA
ATOM     78  O   UNL     1      -8.306  -6.445  -8.448  1.00  0.00    -0.744 OA
ENDBRANCH  74  75
ENDBRANCH  46  69
BRANCH  58  79
ATOM     79  C   UNL     1     -14.287 -16.266  -8.235  1.00  0.00    -0.014 A 
ATOM     80  C   UNL     1     -13.883 -16.416  -9.573  1.00  0.00     0.010 A 
ATOM     81  C   UNL     1     -15.651 -16.396  -7.913  1.00  0.00     0.010 A 
ATOM     82  C   UNL     1     -14.828 -16.661 -10.573  1.00  0.00     0.020 A 
ATOM     83  C   UNL     1     -16.595 -16.672  -8.905  1.00  0.00     0.020 A 
ATOM     84  C   UNL     1     -16.178 -16.790 -10.232  1.00  0.00     0.054 A 
BRANCH  84  85
ATOM     85  S   UNL     1     -17.377 -17.156 -11.542  1.00  0.00     0.124 S 
ATOM     86  O   UNL     1     -17.438 -15.888 -12.263  1.00  0.00    -0.237 OA
ATOM     87  O   UNL     1     -16.740 -18.257 -12.260  1.00  0.00    -0.237 OA
ATOM     88  O   UNL     1     -18.591 -17.516 -10.812  1.00  0.00    -0.744 OA
ENDBRANCH  84  85
ENDBRANCH  58  79
ENDBRANCH  32  33
ENDBRANCH  24  27
ENDBRANCH  22  23
ENDBRANCH   1  22
TORSDOF 16
