REMARK SMILES O=C(NCCCNC(=O)c1nccnc1C(=O)Nc1ccc2c(c1)OCO2)c1ccc(-c2c3nc(c(-c4ccc(S(=O)(=O)[O-])cc4)c4ccc([nH]4)c(-c4ccc(S(=O)(=O)[O-])cc4)c4nc(c(-c5ccc(S(=O)(=O)[O-])cc5)c5ccc2[nH]5)C=C4)C=C3)cc1
REMARK SMILES IDX 4 1 3 2 1 3 2 4 28 6 29 7 87 8 30 9 86 10 31 11 32 12 33 13
REMARK SMILES IDX 80 14 34 15 85 16 79 17 81 18 35 19 84 20 78 21 77 22 36 24
REMARK SMILES IDX 66 25 47 26 65 27 48 28 51 29 64 30 82 31 49 32 50 33 63 35
REMARK SMILES IDX 83 36 52 37 37 38 38 39 46 40 39 41 45 42 40 43 41 44 42 45
REMARK SMILES IDX 43 46 44 47 67 48 68 49 76 50 69 51 75 52 70 53 71 54 72 55
REMARK SMILES IDX 73 56 74 57 53 58 54 59 62 60 55 61 61 62 56 63 57 64 58 65
REMARK SMILES IDX 59 66 60 67 5 68 6 69 7 70 8 71 9 73 10 74 11 75 15 76 12 77
REMARK SMILES IDX 14 78 13 79 16 80 17 81 18 82 19 84 20 85 24 86 21 87 23 88
REMARK SMILES IDX 22 89 25 90 27 91 26 92
REMARK H PARENT 3 5 81 23 51 34 7 72 18 83
REMARK Flexibility Score: inf
ROOT
ATOM      1  C   UNL     1       4.653  -0.430   1.312  1.00  0.00     0.118 C 
ENDROOT
BRANCH   1   2
ATOM      2  N   UNL     1       3.236  -0.598   1.038  1.00  0.00    -0.352 N 
ATOM      3  O   UNL     1       1.243  -0.251   0.056  1.00  0.00    -0.269 OA
ATOM      4  C   UNL     1       2.452  -0.038   0.060  1.00  0.00     0.251 C 
ATOM      5  H   UNL     1       2.765  -1.209   1.649  1.00  0.00     0.163 HD
BRANCH   4   6
ATOM      6  C   UNL     1       3.049   0.849  -0.959  1.00  0.00     0.039 A 
ATOM      7  C   UNL     1       4.160   0.453  -1.710  1.00  0.00     0.014 A 
ATOM      8  C   UNL     1       2.462   2.098  -1.175  1.00  0.00     0.014 A 
ATOM      9  C   UNL     1       4.752   1.352  -2.598  1.00  0.00     0.010 A 
ATOM     10  C   UNL     1       3.027   2.978  -2.098  1.00  0.00     0.010 A 
ATOM     11  C   UNL     1       4.195   2.625  -2.795  1.00  0.00    -0.014 A 
BRANCH  11  12
ATOM     12  C   UNL     1       4.809   3.591  -3.740  1.00  0.00     0.031 A 
ATOM     13  C   UNL     1       5.429   4.863  -3.233  1.00  0.00     0.074 A 
ATOM     14  C   UNL     1       4.759   3.348  -5.063  1.00  0.00     0.049 A 
ATOM     15  N   UNL     1       5.921   5.869  -3.910  1.00  0.00    -0.248 NA
ATOM     16  C   UNL     1       5.496   5.030  -1.773  1.00  0.00     0.031 C 
ATOM     17  C   UNL     1       4.185   2.151  -5.679  1.00  0.00     0.029 A 
ATOM     18  N   UNL     1       5.178   4.106  -6.128  1.00  0.00    -0.354 N 
ATOM     19  C   UNL     1       6.332   6.800  -2.964  1.00  0.00     0.074 A 
ATOM     20  C   UNL     1       6.013   6.245  -1.664  1.00  0.00     0.031 C 
ATOM     21  C   UNL     1       4.282   2.257  -7.013  1.00  0.00     0.029 A 
ATOM     22  C   UNL     1       4.875   3.549  -7.346  1.00  0.00     0.049 A 
ATOM     23  H   UNL     1       5.649   4.964  -6.027  1.00  0.00     0.167 HD
ATOM     24  C   UNL     1       6.917   8.007  -3.159  1.00  0.00     0.031 A 
ATOM     25  C   UNL     1       5.020   4.034  -8.595  1.00  0.00     0.031 A 
ATOM     26  C   UNL     1       7.217   8.558  -4.455  1.00  0.00     0.049 A 
ATOM     27  C   UNL     1       5.635   5.389  -8.794  1.00  0.00     0.074 A 
ATOM     28  C   UNL     1       7.842   9.756  -4.756  1.00  0.00     0.029 A 
ATOM     29  N   UNL     1       6.901   7.957  -5.664  1.00  0.00    -0.354 N 
ATOM     30  N   UNL     1       6.058   6.238  -7.888  1.00  0.00    -0.248 NA
ATOM     31  C   UNL     1       5.800   5.850 -10.179  1.00  0.00     0.031 C 
ATOM     32  C   UNL     1       7.855   9.904  -6.147  1.00  0.00     0.029 A 
ATOM     33  C   UNL     1       7.293   8.771  -6.714  1.00  0.00     0.049 A 
ATOM     34  H   UNL     1       6.462   7.081  -5.762  1.00  0.00     0.167 HD
ATOM     35  C   UNL     1       6.563   7.324  -8.594  1.00  0.00     0.074 A 
ATOM     36  C   UNL     1       6.394   7.024 -10.001  1.00  0.00     0.031 C 
ATOM     37  C   UNL     1       7.123   8.461  -8.113  1.00  0.00     0.031 A 
BRANCH  24  38
ATOM     38  C   UNL     1       7.225   8.831  -1.936  1.00  0.00    -0.014 A 
ATOM     39  C   UNL     1       8.241   8.460  -1.038  1.00  0.00     0.010 A 
ATOM     40  C   UNL     1       6.484  10.000  -1.683  1.00  0.00     0.010 A 
ATOM     41  C   UNL     1       8.465   9.203   0.125  1.00  0.00     0.020 A 
ATOM     42  C   UNL     1       6.723  10.763  -0.536  1.00  0.00     0.020 A 
ATOM     43  C   UNL     1       7.693  10.342   0.375  1.00  0.00     0.054 A 
BRANCH  43  44
ATOM     44  S   UNL     1       7.975  11.268   1.909  1.00  0.00     0.124 S 
ATOM     45  O   UNL     1       7.346  10.399   2.902  1.00  0.00    -0.237 OA
ATOM     46  O   UNL     1       9.432  11.344   1.978  1.00  0.00    -0.237 OA
ATOM     47  O   UNL     1       7.298  12.541   1.677  1.00  0.00    -0.744 OA
ENDBRANCH  43  44
ENDBRANCH  24  38
BRANCH  25  48
ATOM     48  C   UNL     1       4.552   3.212  -9.742  1.00  0.00    -0.014 A 
ATOM     49  C   UNL     1       5.472   2.541 -10.564  1.00  0.00     0.010 A 
ATOM     50  C   UNL     1       3.173   3.024  -9.957  1.00  0.00     0.010 A 
ATOM     51  C   UNL     1       5.022   1.683 -11.572  1.00  0.00     0.020 A 
ATOM     52  C   UNL     1       2.720   2.149 -10.947  1.00  0.00     0.020 A 
ATOM     53  C   UNL     1       3.649   1.484 -11.749  1.00  0.00     0.054 A 
BRANCH  53  54
ATOM     54  S   UNL     1       3.093   0.280 -12.989  1.00  0.00     0.124 S 
ATOM     55  O   UNL     1       3.334   0.997 -14.237  1.00  0.00    -0.237 OA
ATOM     56  O   UNL     1       3.969  -0.861 -12.735  1.00  0.00    -0.237 OA
ATOM     57  O   UNL     1       1.688   0.064 -12.650  1.00  0.00    -0.744 OA
ENDBRANCH  53  54
ENDBRANCH  25  48
BRANCH  37  58
ATOM     58  C   UNL     1       7.641   9.464  -9.109  1.00  0.00    -0.014 A 
ATOM     59  C   UNL     1       6.769  10.305  -9.820  1.00  0.00     0.010 A 
ATOM     60  C   UNL     1       9.031   9.635  -9.252  1.00  0.00     0.010 A 
ATOM     61  C   UNL     1       7.279  11.300 -10.660  1.00  0.00     0.020 A 
ATOM     62  C   UNL     1       9.544  10.642 -10.073  1.00  0.00     0.020 A 
ATOM     63  C   UNL     1       8.663  11.467 -10.775  1.00  0.00     0.054 A 
BRANCH  63  64
ATOM     64  S   UNL     1       9.299  12.825 -11.797  1.00  0.00     0.124 S 
ATOM     65  O   UNL     1       9.062  12.325 -13.149  1.00  0.00    -0.237 OA
ATOM     66  O   UNL     1       8.465  13.953 -11.389  1.00  0.00    -0.237 OA
ATOM     67  O   UNL     1      10.704  12.924 -11.407  1.00  0.00    -0.744 OA
ENDBRANCH  63  64
ENDBRANCH  37  58
ENDBRANCH  11  12
ENDBRANCH   4   6
ENDBRANCH   1   2
BRANCH   1  68
ATOM     68  C   UNL     1       4.968   0.048   2.724  1.00  0.00     0.042 C 
BRANCH  68  69
ATOM     69  C   UNL     1       4.289  -0.692   3.872  1.00  0.00     0.118 C 
BRANCH  69  70
ATOM     70  N   UNL     1       4.363  -2.143   3.812  1.00  0.00    -0.351 N 
ATOM     71  C   UNL     1       4.974  -3.010   4.694  1.00  0.00     0.272 C 
ATOM     72  H   UNL     1       3.918  -2.562   3.040  1.00  0.00     0.163 HD
ATOM     73  O   UNL     1       4.590  -4.173   4.785  1.00  0.00    -0.267 OA
BRANCH  71  74
ATOM     74  C   UNL     1       6.012  -2.526   5.612  1.00  0.00     0.159 A 
ATOM     75  N   UNL     1       5.471  -1.806   6.654  1.00  0.00    -0.247 NA
ATOM     76  C   UNL     1       7.374  -2.785   5.497  1.00  0.00     0.159 A 
ATOM     77  C   UNL     1       6.334  -1.351   7.579  1.00  0.00     0.132 A 
ATOM     78  N   UNL     1       8.224  -2.295   6.464  1.00  0.00    -0.247 NA
ATOM     79  C   UNL     1       7.686  -1.590   7.486  1.00  0.00     0.132 A 
BRANCH  76  80
ATOM     80  C   UNL     1       8.142  -3.560   4.441  1.00  0.00     0.276 C 
ATOM     81  O   UNL     1       9.320  -3.265   4.222  1.00  0.00    -0.267 OA
ATOM     82  N   UNL     1       7.688  -4.777   3.988  1.00  0.00    -0.320 N 
ATOM     83  H   UNL     1       8.118  -5.571   4.380  1.00  0.00     0.170 HD
BRANCH  82  84
ATOM     84  C   UNL     1       6.688  -5.028   3.038  1.00  0.00     0.045 A 
ATOM     85  C   UNL     1       6.285  -4.071   2.087  1.00  0.00     0.030 A 
ATOM     86  C   UNL     1       6.050  -6.271   3.114  1.00  0.00     0.076 A 
ATOM     87  C   UNL     1       5.161  -4.309   1.285  1.00  0.00     0.053 A 
ATOM     88  C   UNL     1       4.905  -6.440   2.369  1.00  0.00     0.167 A 
ATOM     89  C   UNL     1       4.462  -5.476   1.494  1.00  0.00     0.165 A 
ATOM     90  O   UNL     1       4.051  -7.496   2.452  1.00  0.00    -0.454 OA
ATOM     91  O   UNL     1       3.269  -5.804   0.928  1.00  0.00    -0.454 OA
ATOM     92  C   UNL     1       2.937  -6.984   1.690  1.00  0.00     0.468 C 
ENDBRANCH  82  84
ENDBRANCH  76  80
ENDBRANCH  71  74
ENDBRANCH  69  70
ENDBRANCH  68  69
ENDBRANCH   1  68
TORSDOF 15
