REMARK SMILES C[C@H](C(=O)NCCCNC(=O)c1ccc(-c2c3nc(c(-c4ccc(S(=O)(=O)[O-])cc4)c4ccc([nH]4)c(-c4ccc(S(=O)(=O)[O-])cc4)c4nc(c(-c5ccc(S(=O)(=O)[O-])cc5)c5ccc2[nH]5)C=C4)C=C3)cc1)n1ccc2c(cnc3nc(C4CCCCC4)nn32)c1=O
REMARK SMILES IDX 7 1 6 2 5 3 3 4 4 5 2 7 1 8 72 9 73 10 90 11 74 12 76 13
REMARK SMILES IDX 91 14 75 15 77 16 89 17 78 18 79 19 88 20 80 21 81 22 82 23
REMARK SMILES IDX 83 24 87 25 84 26 86 27 85 28 8 29 9 30 10 31 11 33 12 34
REMARK SMILES IDX 13 35 71 36 14 37 70 38 15 39 16 40 17 41 64 42 18 43 69 44
REMARK SMILES IDX 63 45 65 46 19 47 68 48 62 49 61 50 20 52 50 53 31 54 49 55
REMARK SMILES IDX 32 56 35 57 48 58 66 59 33 60 34 61 47 63 67 64 36 65 21 66
REMARK SMILES IDX 22 67 30 68 23 69 29 70 24 71 25 72 26 73 27 74 28 75 51 76
REMARK SMILES IDX 52 77 60 78 53 79 59 80 54 81 55 82 56 83 57 84 58 85 37 86
REMARK SMILES IDX 38 87 46 88 39 89 45 90 40 91 41 92 42 93 43 94 44 95
REMARK H PARENT 5 6 9 32 65 51 35 62
REMARK Flexibility Score: inf
ROOT
ATOM      1  C   UNL     1      -0.323   3.115  -0.424  1.00  0.00     0.042 C 
ENDROOT
BRANCH   1   2
ATOM      2  C   UNL     1       0.930   2.305  -0.746  1.00  0.00     0.117 C 
BRANCH   2   3
ATOM      3  N   UNL     1       1.099   1.191   0.175  1.00  0.00    -0.354 N 
ATOM      4  C   UNL     1       0.833  -0.139   0.018  1.00  0.00     0.242 C 
ATOM      5  O   UNL     1       0.938  -0.856   1.019  1.00  0.00    -0.273 OA
ATOM      6  H   UNL     1       1.466   1.436   1.055  1.00  0.00     0.163 HD
BRANCH   4   7
ATOM      7  C   UNL     1       0.347  -0.708  -1.332  1.00  0.00     0.176 C 
ATOM      8  C   UNL     1       1.113  -2.002  -1.631  1.00  0.00     0.042 C 
BRANCH   7   9
ATOM      9  N   UNL     1      -1.124  -0.851  -1.290  1.00  0.00    -0.303 N 
ATOM     10  C   UNL     1      -1.727  -1.992  -0.778  1.00  0.00     0.092 A 
ATOM     11  C   UNL     1      -1.890   0.224  -1.751  1.00  0.00     0.262 A 
ATOM     12  C   UNL     1      -3.058  -2.105  -0.705  1.00  0.00     0.047 A 
ATOM     13  C   UNL     1      -3.345   0.156  -1.495  1.00  0.00     0.084 A 
ATOM     14  O   UNL     1      -1.431   1.190  -2.358  1.00  0.00    -0.269 OA
ATOM     15  C   UNL     1      -3.905  -0.985  -1.059  1.00  0.00     0.084 A 
ATOM     16  C   UNL     1      -4.274   1.294  -1.727  1.00  0.00     0.131 A 
ATOM     17  N   UNL     1      -5.298  -1.062  -1.015  1.00  0.00    -0.196 N 
ATOM     18  N   UNL     1      -5.570   1.250  -1.654  1.00  0.00    -0.219 NA
ATOM     19  C   UNL     1      -6.105   0.025  -1.377  1.00  0.00     0.252 A 
ATOM     20  N   UNL     1      -6.074  -2.144  -0.776  1.00  0.00    -0.149 NA
ATOM     21  N   UNL     1      -7.347  -0.389  -1.486  1.00  0.00    -0.194 NA
ATOM     22  C   UNL     1      -7.275  -1.717  -1.182  1.00  0.00     0.156 A 
BRANCH  22  23
ATOM     23  C   UNL     1      -8.422  -2.649  -1.419  1.00  0.00     0.060 C 
ATOM     24  C   UNL     1      -7.929  -4.011  -1.952  1.00  0.00     0.012 C 
ATOM     25  C   UNL     1      -9.290  -2.810  -0.165  1.00  0.00     0.012 C 
ATOM     26  C   UNL     1      -9.061  -5.013  -2.136  1.00  0.00     0.001 C 
ATOM     27  C   UNL     1     -10.410  -3.827  -0.378  1.00  0.00     0.001 C 
ATOM     28  C   UNL     1      -9.866  -5.171  -0.853  1.00  0.00     0.000 C 
ENDBRANCH  22  23
ENDBRANCH   7   9
ENDBRANCH   4   7
ENDBRANCH   2   3
ENDBRANCH   1   2
BRANCH   1  29
ATOM     29  C   UNL     1      -0.223   3.936   0.853  1.00  0.00     0.118 C 
BRANCH  29  30
ATOM     30  N   UNL     1       0.699   5.052   0.728  1.00  0.00    -0.352 N 
ATOM     31  C   UNL     1       0.469   6.405   0.800  1.00  0.00     0.251 C 
ATOM     32  H   UNL     1       1.637   4.798   0.566  1.00  0.00     0.163 HD
ATOM     33  O   UNL     1       1.361   7.177   0.465  1.00  0.00    -0.269 OA
BRANCH  31  34
ATOM     34  C   UNL     1      -0.838   6.934   1.256  1.00  0.00     0.039 A 
ATOM     35  C   UNL     1      -1.355   8.071   0.628  1.00  0.00     0.014 A 
ATOM     36  C   UNL     1      -1.538   6.353   2.317  1.00  0.00     0.014 A 
ATOM     37  C   UNL     1      -2.592   8.588   1.027  1.00  0.00     0.010 A 
ATOM     38  C   UNL     1      -2.811   6.813   2.651  1.00  0.00     0.010 A 
ATOM     39  C   UNL     1      -3.347   7.944   2.020  1.00  0.00    -0.014 A 
BRANCH  39  40
ATOM     40  C   UNL     1      -4.688   8.450   2.417  1.00  0.00     0.031 A 
ATOM     41  C   UNL     1      -4.936   8.927   3.826  1.00  0.00     0.074 A 
ATOM     42  C   UNL     1      -5.698   8.441   1.524  1.00  0.00     0.049 A 
ATOM     43  N   UNL     1      -6.045   9.366   4.365  1.00  0.00    -0.248 NA
ATOM     44  C   UNL     1      -3.796   8.882   4.757  1.00  0.00     0.031 C 
ATOM     45  C   UNL     1      -5.601   7.967   0.141  1.00  0.00     0.029 A 
ATOM     46  N   UNL     1      -7.006   8.839   1.645  1.00  0.00    -0.354 N 
ATOM     47  C   UNL     1      -5.740   9.638   5.695  1.00  0.00     0.074 A 
ATOM     48  C   UNL     1      -4.359   9.259   5.895  1.00  0.00     0.031 C 
ATOM     49  C   UNL     1      -6.788   8.130  -0.465  1.00  0.00     0.029 A 
ATOM     50  C   UNL     1      -7.742   8.676   0.494  1.00  0.00     0.049 A 
ATOM     51  H   UNL     1      -7.383   9.206   2.477  1.00  0.00     0.167 HD
ATOM     52  C   UNL     1      -6.528  10.176   6.657  1.00  0.00     0.031 A 
ATOM     53  C   UNL     1      -9.041   8.930   0.238  1.00  0.00     0.031 A 
ATOM     54  C   UNL     1      -7.901  10.556   6.454  1.00  0.00     0.049 A 
ATOM     55  C   UNL     1      -9.902   9.510   1.328  1.00  0.00     0.074 A 
ATOM     56  C   UNL     1      -8.771  11.150   7.352  1.00  0.00     0.029 A 
ATOM     57  N   UNL     1      -8.606  10.380   5.272  1.00  0.00    -0.354 N 
ATOM     58  N   UNL     1      -9.575   9.820   2.560  1.00  0.00    -0.248 NA
ATOM     59  C   UNL     1     -11.304   9.788   0.988  1.00  0.00     0.031 C 
ATOM     60  C   UNL     1     -10.018  11.282   6.731  1.00  0.00     0.029 A 
ATOM     61  C   UNL     1      -9.906  10.832   5.425  1.00  0.00     0.049 A 
ATOM     62  H   UNL     1      -8.237   9.991   4.447  1.00  0.00     0.167 HD
ATOM     63  C   UNL     1     -10.724  10.356   3.133  1.00  0.00     0.074 A 
ATOM     64  C   UNL     1     -11.746  10.345   2.107  1.00  0.00     0.031 C 
ATOM     65  C   UNL     1     -10.915  10.816   4.395  1.00  0.00     0.031 A 
BRANCH  52  66
ATOM     66  C   UNL     1      -5.920  10.384   8.021  1.00  0.00    -0.014 A 
ATOM     67  C   UNL     1      -4.918  11.350   8.229  1.00  0.00     0.010 A 
ATOM     68  C   UNL     1      -6.383   9.635   9.118  1.00  0.00     0.010 A 
ATOM     69  C   UNL     1      -4.360  11.531   9.497  1.00  0.00     0.020 A 
ATOM     70  C   UNL     1      -5.849   9.836  10.395  1.00  0.00     0.020 A 
ATOM     71  C   UNL     1      -4.828  10.771  10.573  1.00  0.00     0.054 A 
BRANCH  71  72
ATOM     72  S   UNL     1      -4.099  11.044  12.211  1.00  0.00     0.124 S 
ATOM     73  O   UNL     1      -2.770  10.458  12.050  1.00  0.00    -0.237 OA
ATOM     74  O   UNL     1      -4.132  12.498  12.338  1.00  0.00    -0.237 OA
ATOM     75  O   UNL     1      -4.991  10.321  13.114  1.00  0.00    -0.744 OA
ENDBRANCH  71  72
ENDBRANCH  52  66
BRANCH  53  76
ATOM     76  C   UNL     1      -9.604   8.648  -1.112  1.00  0.00    -0.014 A 
ATOM     77  C   UNL     1      -9.997   9.701  -1.959  1.00  0.00     0.010 A 
ATOM     78  C   UNL     1      -9.749   7.323  -1.562  1.00  0.00     0.010 A 
ATOM     79  C   UNL     1     -10.546   9.432  -3.216  1.00  0.00     0.020 A 
ATOM     80  C   UNL     1     -10.267   7.051  -2.832  1.00  0.00     0.020 A 
ATOM     81  C   UNL     1     -10.676   8.109  -3.646  1.00  0.00     0.054 A 
BRANCH  81  82
ATOM     82  S   UNL     1     -11.355   7.790  -5.298  1.00  0.00     0.124 S 
ATOM     83  O   UNL     1     -12.767   8.110  -5.114  1.00  0.00    -0.237 OA
ATOM     84  O   UNL     1     -10.599   8.719  -6.134  1.00  0.00    -0.237 OA
ATOM     85  O   UNL     1     -11.057   6.377  -5.525  1.00  0.00    -0.744 OA
ENDBRANCH  81  82
ENDBRANCH  53  76
BRANCH  65  86
ATOM     86  C   UNL     1     -12.270  11.384   4.729  1.00  0.00    -0.014 A 
ATOM     87  C   UNL     1     -13.401  10.558   4.850  1.00  0.00     0.010 A 
ATOM     88  C   UNL     1     -12.401  12.764   4.973  1.00  0.00     0.010 A 
ATOM     89  C   UNL     1     -14.646  11.107   5.172  1.00  0.00     0.020 A 
ATOM     90  C   UNL     1     -13.636  13.312   5.326  1.00  0.00     0.020 A 
ATOM     91  C   UNL     1     -14.755  12.481   5.409  1.00  0.00     0.054 A 
BRANCH  91  92
ATOM     92  S   UNL     1     -16.373  13.162   5.863  1.00  0.00     0.124 S 
ATOM     93  O   UNL     1     -17.098  13.096   4.597  1.00  0.00    -0.237 OA
ATOM     94  O   UNL     1     -16.830  12.239   6.898  1.00  0.00    -0.237 OA
ATOM     95  O   UNL     1     -16.062  14.511   6.333  1.00  0.00    -0.744 OA
ENDBRANCH  91  92
ENDBRANCH  65  86
ENDBRANCH  39  40
ENDBRANCH  31  34
ENDBRANCH  29  30
ENDBRANCH   1  29
TORSDOF 15
