REMARK SMILES CC1=C(CCC(=O)NCCCNC(=O)c2ccc(-c3c4nc(c(-c5ccc(S(=O)(=O)[O-])cc5)c5ccc([nH]5)c(-c5ccc(S(=O)(=O)[O-])cc5)c5nc(c(-c6ccc(S(=O)(=O)[O-])cc6)c6ccc3[nH]6)C=C5)C=C4)cc2)N=N[C@H]1C
REMARK SMILES IDX 10 1 9 2 8 3 6 4 7 5 5 7 4 8 3 9 1 10 2 11 77 12 75 13 76 14
REMARK SMILES IDX 78 15 11 16 12 17 13 18 14 20 15 21 16 22 74 23 17 24 73 25
REMARK SMILES IDX 18 26 19 27 20 28 67 29 21 30 72 31 66 32 68 33 22 34 71 35
REMARK SMILES IDX 65 36 64 37 23 39 53 40 34 41 52 42 35 43 38 44 51 45 69 46
REMARK SMILES IDX 36 47 37 48 50 50 70 51 39 52 24 53 25 54 33 55 26 56 32 57
REMARK SMILES IDX 27 58 28 59 29 60 30 61 31 62 54 63 55 64 63 65 56 66 62 67
REMARK SMILES IDX 57 68 58 69 59 70 60 71 61 72 40 73 41 74 49 75 42 76 48 77
REMARK SMILES IDX 43 78 44 79 45 80 46 81 47 82
REMARK H PARENT 8 6 12 19 68 38 38 49
REMARK Flexibility Score: inf
ROOT
ATOM      1  C   UNL     1       0.060   4.170   1.690  1.00  0.00     0.042 C 
ENDROOT
BRANCH   1   2
ATOM      2  C   UNL     1       0.234   3.426   3.006  1.00  0.00     0.117 C 
BRANCH   2   3
ATOM      3  N   UNL     1      -1.060   3.159   3.612  1.00  0.00    -0.356 N 
ATOM      4  C   UNL     1      -1.823   2.031   3.557  1.00  0.00     0.220 C 
ATOM      5  O   UNL     1      -2.986   2.090   3.960  1.00  0.00    -0.275 OA
ATOM      6  H   UNL     1      -1.441   3.900   4.137  1.00  0.00     0.163 HD
BRANCH   4   7
ATOM      7  C   UNL     1      -1.231   0.715   3.087  1.00  0.00     0.106 C 
BRANCH   7   8
ATOM      8  C   UNL     1      -1.602   0.309   1.655  1.00  0.00     0.068 C 
BRANCH   8   9
ATOM      9  C   UNL     1      -0.671   0.840   0.606  1.00  0.00     0.064 C 
ATOM     10  C   UNL     1       1.162  -0.955   0.372  1.00  0.00     0.044 C 
ATOM     11  C   UNL     1       0.473   0.331   0.136  1.00  0.00    -0.024 C 
ATOM     12  C   UNL     1       1.025   1.367  -0.785  1.00  0.00     0.153 C 
ATOM     13  N   UNL     1      -1.014   1.987  -0.062  1.00  0.00    -0.160 NA
ATOM     14  N   UNL     1      -0.096   2.336  -0.854  1.00  0.00    -0.181 NA
ATOM     15  C   UNL     1       2.263   2.051  -0.204  1.00  0.00     0.040 C 
ENDBRANCH   8   9
ENDBRANCH   7   8
ENDBRANCH   4   7
ENDBRANCH   2   3
ENDBRANCH   1   2
BRANCH   1  16
ATOM     16  C   UNL     1      -0.054   5.660   1.832  1.00  0.00     0.118 C 
BRANCH  16  17
ATOM     17  N   UNL     1       1.221   6.366   1.771  1.00  0.00    -0.352 N 
ATOM     18  C   UNL     1       1.444   7.654   1.297  1.00  0.00     0.251 C 
ATOM     19  H   UNL     1       2.009   5.877   2.101  1.00  0.00     0.163 HD
ATOM     20  O   UNL     1       2.577   8.033   1.055  1.00  0.00    -0.269 OA
BRANCH  18  21
ATOM     21  C   UNL     1       0.272   8.541   1.079  1.00  0.00     0.039 A 
ATOM     22  C   UNL     1       0.244   9.487   0.053  1.00  0.00     0.014 A 
ATOM     23  C   UNL     1      -0.849   8.364   1.885  1.00  0.00     0.014 A 
ATOM     24  C   UNL     1      -0.944  10.183  -0.182  1.00  0.00     0.010 A 
ATOM     25  C   UNL     1      -2.063   8.856   1.501  1.00  0.00     0.010 A 
ATOM     26  C   UNL     1      -2.107   9.839   0.533  1.00  0.00    -0.014 A 
BRANCH  26  27
ATOM     27  C   UNL     1      -3.423  10.372   0.198  1.00  0.00     0.031 A 
ATOM     28  C   UNL     1      -3.743  10.214  -1.239  1.00  0.00     0.074 A 
ATOM     29  C   UNL     1      -4.339  10.770   1.113  1.00  0.00     0.049 A 
ATOM     30  N   UNL     1      -3.613  11.116  -2.153  1.00  0.00    -0.248 NA
ATOM     31  C   UNL     1      -3.995   8.863  -1.772  1.00  0.00     0.031 C 
ATOM     32  C   UNL     1      -4.254  10.691   2.580  1.00  0.00     0.029 A 
ATOM     33  N   UNL     1      -5.601  11.251   0.928  1.00  0.00    -0.354 N 
ATOM     34  C   UNL     1      -4.085  10.528  -3.317  1.00  0.00     0.074 A 
ATOM     35  C   UNL     1      -4.039   9.107  -3.085  1.00  0.00     0.031 C 
ATOM     36  C   UNL     1      -5.477  10.884   3.127  1.00  0.00     0.029 A 
ATOM     37  C   UNL     1      -6.395  11.283   2.078  1.00  0.00     0.049 A 
ATOM     38  H   UNL     1      -5.928  11.552   0.050  1.00  0.00     0.167 HD
ATOM     39  C   UNL     1      -4.801  11.265  -4.211  1.00  0.00     0.031 A 
ATOM     40  C   UNL     1      -7.708  11.628   2.161  1.00  0.00     0.031 A 
ATOM     41  C   UNL     1      -4.722  12.673  -3.891  1.00  0.00     0.049 A 
ATOM     42  C   UNL     1      -7.997  12.452   0.967  1.00  0.00     0.074 A 
ATOM     43  C   UNL     1      -3.713  13.607  -3.777  1.00  0.00     0.029 A 
ATOM     44  N   UNL     1      -5.800  13.167  -3.194  1.00  0.00    -0.354 N 
ATOM     45  N   UNL     1      -7.477  13.630   0.771  1.00  0.00    -0.248 NA
ATOM     46  C   UNL     1      -8.521  11.793  -0.217  1.00  0.00     0.031 C 
ATOM     47  C   UNL     1      -4.104  14.452  -2.696  1.00  0.00     0.029 A 
ATOM     48  C   UNL     1      -5.371  14.064  -2.256  1.00  0.00     0.049 A 
ATOM     49  H   UNL     1      -6.739  12.913  -3.348  1.00  0.00     0.167 HD
ATOM     50  C   UNL     1      -7.181  13.654  -0.582  1.00  0.00     0.074 A 
ATOM     51  C   UNL     1      -7.968  12.565  -1.157  1.00  0.00     0.031 C 
ATOM     52  C   UNL     1      -6.105  14.360  -1.041  1.00  0.00     0.031 A 
BRANCH  39  53
ATOM     53  C   UNL     1      -5.965  10.719  -5.013  1.00  0.00    -0.014 A 
ATOM     54  C   UNL     1      -6.666  11.610  -5.854  1.00  0.00     0.010 A 
ATOM     55  C   UNL     1      -6.574   9.473  -4.763  1.00  0.00     0.010 A 
ATOM     56  C   UNL     1      -7.938  11.300  -6.349  1.00  0.00     0.020 A 
ATOM     57  C   UNL     1      -7.825   9.137  -5.285  1.00  0.00     0.020 A 
ATOM     58  C   UNL     1      -8.512  10.065  -6.053  1.00  0.00     0.054 A 
BRANCH  58  59
ATOM     59  S   UNL     1     -10.178   9.699  -6.650  1.00  0.00     0.124 S 
ATOM     60  O   UNL     1     -10.982  10.667  -5.911  1.00  0.00    -0.237 OA
ATOM     61  O   UNL     1     -10.048   9.941  -8.084  1.00  0.00    -0.237 OA
ATOM     62  O   UNL     1     -10.375   8.300  -6.274  1.00  0.00    -0.744 OA
ENDBRANCH  58  59
ENDBRANCH  39  53
BRANCH  40  63
ATOM     63  C   UNL     1      -8.799  11.136   3.045  1.00  0.00    -0.014 A 
ATOM     64  C   UNL     1     -10.036  11.812   3.113  1.00  0.00     0.010 A 
ATOM     65  C   UNL     1      -8.747   9.826   3.560  1.00  0.00     0.010 A 
ATOM     66  C   UNL     1     -11.195  11.173   3.592  1.00  0.00     0.020 A 
ATOM     67  C   UNL     1      -9.899   9.184   4.044  1.00  0.00     0.020 A 
ATOM     68  C   UNL     1     -11.124   9.850   4.030  1.00  0.00     0.054 A 
BRANCH  68  69
ATOM     69  S   UNL     1     -12.658   8.960   4.449  1.00  0.00     0.124 S 
ATOM     70  O   UNL     1     -13.057   9.597   5.701  1.00  0.00    -0.237 OA
ATOM     71  O   UNL     1     -13.515   9.239   3.300  1.00  0.00    -0.237 OA
ATOM     72  O   UNL     1     -12.226   7.569   4.572  1.00  0.00    -0.744 OA
ENDBRANCH  68  69
ENDBRANCH  40  63
BRANCH  52  73
ATOM     73  C   UNL     1      -5.537  15.447  -0.157  1.00  0.00    -0.014 A 
ATOM     74  C   UNL     1      -4.986  15.250   1.124  1.00  0.00     0.010 A 
ATOM     75  C   UNL     1      -5.481  16.734  -0.719  1.00  0.00     0.010 A 
ATOM     76  C   UNL     1      -4.430  16.328   1.835  1.00  0.00     0.020 A 
ATOM     77  C   UNL     1      -4.910  17.803  -0.030  1.00  0.00     0.020 A 
ATOM     78  C   UNL     1      -4.402  17.600   1.252  1.00  0.00     0.054 A 
BRANCH  78  79
ATOM     79  S   UNL     1      -3.688  18.997   2.163  1.00  0.00     0.124 S 
ATOM     80  O   UNL     1      -4.633  19.175   3.263  1.00  0.00    -0.237 OA
ATOM     81  O   UNL     1      -2.368  18.498   2.542  1.00  0.00    -0.237 OA
ATOM     82  O   UNL     1      -3.672  20.082   1.182  1.00  0.00    -0.744 OA
ENDBRANCH  78  79
ENDBRANCH  52  73
ENDBRANCH  26  27
ENDBRANCH  18  21
ENDBRANCH  16  17
ENDBRANCH   1  16
TORSDOF 15
