REMARK SMILES C[C@H]1CC[C@@](NC(=O)C(F)(F)F)(C(=O)NCCCNC(=O)c2ccc(-c3c4nc(c(-c5ccc(S(=O)(=O)[O-])cc5)c5ccc([nH]5)c(-c5ccc(S(=O)(=O)[O-])cc5)c5nc(c(-c6ccc(S(=O)(=O)[O-])cc6)c6ccc3[nH]6)C=C5)C=C4)cc2)CC1
REMARK SMILES IDX 17 1 16 2 15 3 13 4 14 5 5 7 1 8 2 9 83 10 3 11 82 12 4 13
REMARK SMILES IDX 6 14 7 15 8 17 9 18 10 19 11 20 12 21 18 22 19 23 20 24
REMARK SMILES IDX 21 26 22 27 23 28 81 29 24 30 80 31 25 32 26 33 27 34 74 35
REMARK SMILES IDX 28 36 79 37 73 38 75 39 29 40 78 41 72 42 71 43 30 45 60 46
REMARK SMILES IDX 41 47 59 48 42 49 45 50 58 51 76 52 43 53 44 54 57 56 77 57
REMARK SMILES IDX 46 58 31 59 32 60 40 61 33 62 39 63 34 64 35 65 36 66 37 67
REMARK SMILES IDX 38 68 61 69 62 70 70 71 63 72 69 73 64 74 65 75 66 76 67 77
REMARK SMILES IDX 68 78 47 79 48 80 56 81 49 82 55 83 50 84 51 85 52 86 53 87
REMARK SMILES IDX 54 88
REMARK H PARENT 15 6 6 16 19 25 75 44 45 55
REMARK Flexibility Score: inf
ROOT
ATOM      1  C   UNL     1      -2.649   3.797  -2.110  1.00  0.00     0.042 C 
ENDROOT
BRANCH   1   2
ATOM      2  C   UNL     1      -3.205   2.414  -1.817  1.00  0.00     0.117 C 
BRANCH   2   3
ATOM      3  N   UNL     1      -2.372   1.383  -2.410  1.00  0.00    -0.354 N 
ATOM      4  C   UNL     1      -1.750   0.303  -1.870  1.00  0.00     0.245 C 
ATOM      5  O   UNL     1      -1.065  -0.374  -2.639  1.00  0.00    -0.272 OA
ATOM      6  H   UNL     1      -2.233   1.485  -3.379  1.00  0.00     0.163 HD
BRANCH   4   7
ATOM      7  C   UNL     1      -1.845  -0.006  -0.348  1.00  0.00     0.119 C 
ATOM      8  C   UNL     1       2.532  -0.247   0.023  1.00  0.00     0.007 C 
ATOM      9  C   UNL     1       1.066  -0.249   0.461  1.00  0.00    -0.014 C 
ATOM     10  C   UNL     1       0.313  -1.430  -0.167  1.00  0.00     0.006 C 
ATOM     11  C   UNL     1       0.423   1.093   0.115  1.00  0.00     0.006 C 
ATOM     12  C   UNL     1      -1.212  -1.369   0.013  1.00  0.00     0.039 C 
ATOM     13  C   UNL     1      -1.067   1.090   0.431  1.00  0.00     0.039 C 
BRANCH   7  14
ATOM     14  N   UNL     1      -3.260   0.034   0.116  1.00  0.00    -0.334 N 
ATOM     15  C   UNL     1      -4.406  -0.557  -0.365  1.00  0.00     0.326 C 
ATOM     16  H   UNL     1      -3.403   0.588   0.918  1.00  0.00     0.164 HD
ATOM     17  O   UNL     1      -5.390  -0.484   0.385  1.00  0.00    -0.265 OA
BRANCH  15  18
ATOM     18  C   UNL     1      -4.509  -1.171  -1.786  1.00  0.00     0.471 C 
ATOM     19  F   UNL     1      -4.585  -0.218  -2.757  1.00  0.00    -0.162 F 
ATOM     20  F   UNL     1      -3.458  -1.972  -2.099  1.00  0.00    -0.162 F 
ATOM     21  F   UNL     1      -5.625  -1.940  -1.939  1.00  0.00    -0.162 F 
ENDBRANCH  15  18
ENDBRANCH   7  14
ENDBRANCH   4   7
ENDBRANCH   2   3
ENDBRANCH   1   2
BRANCH   1  22
ATOM     22  C   UNL     1      -2.624   4.129  -3.594  1.00  0.00     0.118 C 
BRANCH  22  23
ATOM     23  N   UNL     1      -3.953   4.119  -4.192  1.00  0.00    -0.352 N 
ATOM     24  C   UNL     1      -4.589   5.116  -4.894  1.00  0.00     0.251 C 
ATOM     25  H   UNL     1      -4.464   3.285  -4.079  1.00  0.00     0.163 HD
ATOM     26  O   UNL     1      -5.774   5.026  -5.168  1.00  0.00    -0.269 OA
BRANCH  24  27
ATOM     27  C   UNL     1      -3.808   6.307  -5.286  1.00  0.00     0.039 A 
ATOM     28  C   UNL     1      -4.321   7.576  -5.019  1.00  0.00     0.014 A 
ATOM     29  C   UNL     1      -2.545   6.152  -5.862  1.00  0.00     0.014 A 
ATOM     30  C   UNL     1      -3.529   8.697  -5.270  1.00  0.00     0.010 A 
ATOM     31  C   UNL     1      -1.726   7.260  -6.021  1.00  0.00     0.010 A 
ATOM     32  C   UNL     1      -2.212   8.544  -5.736  1.00  0.00    -0.014 A 
BRANCH  32  33
ATOM     33  C   UNL     1      -1.324   9.712  -5.954  1.00  0.00     0.031 A 
ATOM     34  C   UNL     1      -0.800   9.998  -7.335  1.00  0.00     0.074 A 
ATOM     35  C   UNL     1      -0.928  10.460  -4.905  1.00  0.00     0.049 A 
ATOM     36  N   UNL     1       0.063  10.902  -7.719  1.00  0.00    -0.248 NA
ATOM     37  C   UNL     1      -1.283   9.129  -8.423  1.00  0.00     0.031 C 
ATOM     38  C   UNL     1      -1.328  10.251  -3.511  1.00  0.00     0.029 A 
ATOM     39  N   UNL     1      -0.090  11.545  -4.849  1.00  0.00    -0.354 N 
ATOM     40  C   UNL     1       0.243  10.694  -9.081  1.00  0.00     0.074 A 
ATOM     41  C   UNL     1      -0.554   9.546  -9.447  1.00  0.00     0.031 C 
ATOM     42  C   UNL     1      -0.754  11.191  -2.743  1.00  0.00     0.029 A 
ATOM     43  C   UNL     1       0.083  12.044  -3.580  1.00  0.00     0.049 A 
ATOM     44  H   UNL     1       0.347  11.929  -5.643  1.00  0.00     0.167 HD
ATOM     45  C   UNL     1       0.986  11.412  -9.956  1.00  0.00     0.031 A 
ATOM     46  C   UNL     1       0.837  13.070  -3.139  1.00  0.00     0.031 A 
ATOM     47  C   UNL     1       1.756  12.570  -9.593  1.00  0.00     0.049 A 
ATOM     48  C   UNL     1       1.642  13.863  -4.132  1.00  0.00     0.074 A 
ATOM     49  C   UNL     1       2.499  13.401 -10.411  1.00  0.00     0.029 A 
ATOM     50  N   UNL     1       1.874  13.065  -8.303  1.00  0.00    -0.354 N 
ATOM     51  N   UNL     1       1.754  13.687  -5.428  1.00  0.00    -0.248 NA
ATOM     52  C   UNL     1       2.409  15.000  -3.608  1.00  0.00     0.031 C 
ATOM     53  C   UNL     1       3.100  14.377  -9.610  1.00  0.00     0.029 A 
ATOM     54  C   UNL     1       2.688  14.184  -8.300  1.00  0.00     0.049 A 
ATOM     55  H   UNL     1       1.443  12.678  -7.507  1.00  0.00     0.167 HD
ATOM     56  C   UNL     1       2.583  14.709  -5.877  1.00  0.00     0.074 A 
ATOM     57  C   UNL     1       2.931  15.505  -4.718  1.00  0.00     0.031 C 
ATOM     58  C   UNL     1       3.016  14.966  -7.136  1.00  0.00     0.031 A 
BRANCH  45  59
ATOM     59  C   UNL     1       0.991  10.963 -11.393  1.00  0.00    -0.014 A 
ATOM     60  C   UNL     1      -0.157  11.095 -12.197  1.00  0.00     0.010 A 
ATOM     61  C   UNL     1       2.163  10.427 -11.957  1.00  0.00     0.010 A 
ATOM     62  C   UNL     1      -0.146  10.660 -13.524  1.00  0.00     0.020 A 
ATOM     63  C   UNL     1       2.186  10.018 -13.293  1.00  0.00     0.020 A 
ATOM     64  C   UNL     1       1.025  10.120 -14.063  1.00  0.00     0.054 A 
BRANCH  64  65
ATOM     65  S   UNL     1       1.017   9.585 -15.795  1.00  0.00     0.124 S 
ATOM     66  O   UNL     1       0.241   8.348 -15.723  1.00  0.00    -0.237 OA
ATOM     67  O   UNL     1       0.359  10.699 -16.473  1.00  0.00    -0.237 OA
ATOM     68  O   UNL     1       2.432   9.414 -16.112  1.00  0.00    -0.744 OA
ENDBRANCH  64  65
ENDBRANCH  45  59
BRANCH  46  69
ATOM     69  C   UNL     1       0.853  13.415  -1.691  1.00  0.00    -0.014 A 
ATOM     70  C   UNL     1       0.227  14.586  -1.229  1.00  0.00     0.010 A 
ATOM     71  C   UNL     1       1.486  12.567  -0.764  1.00  0.00     0.010 A 
ATOM     72  C   UNL     1       0.253  14.915   0.129  1.00  0.00     0.020 A 
ATOM     73  C   UNL     1       1.490  12.879   0.599  1.00  0.00     0.020 A 
ATOM     74  C   UNL     1       0.885  14.058   1.035  1.00  0.00     0.054 A 
BRANCH  74  75
ATOM     75  S   UNL     1       0.867  14.480   2.800  1.00  0.00     0.124 S 
ATOM     76  O   UNL     1       1.853  15.555   2.865  1.00  0.00    -0.237 OA
ATOM     77  O   UNL     1      -0.521  14.880   3.015  1.00  0.00    -0.237 OA
ATOM     78  O   UNL     1       1.255  13.232   3.452  1.00  0.00    -0.744 OA
ENDBRANCH  74  75
ENDBRANCH  46  69
BRANCH  58  79
ATOM     79  C   UNL     1       3.881  16.180  -7.336  1.00  0.00    -0.014 A 
ATOM     80  C   UNL     1       5.221  16.199  -6.912  1.00  0.00     0.010 A 
ATOM     81  C   UNL     1       3.359  17.295  -8.018  1.00  0.00     0.010 A 
ATOM     82  C   UNL     1       6.017  17.323  -7.143  1.00  0.00     0.020 A 
ATOM     83  C   UNL     1       4.160  18.410  -8.274  1.00  0.00     0.020 A 
ATOM     84  C   UNL     1       5.481  18.422  -7.823  1.00  0.00     0.054 A 
BRANCH  84  85
ATOM     85  S   UNL     1       6.549  19.849  -8.156  1.00  0.00     0.124 S 
ATOM     86  O   UNL     1       6.634  20.478  -6.841  1.00  0.00    -0.237 OA
ATOM     87  O   UNL     1       7.780  19.224  -8.634  1.00  0.00    -0.237 OA
ATOM     88  O   UNL     1       5.811  20.607  -9.163  1.00  0.00    -0.744 OA
ENDBRANCH  84  85
ENDBRANCH  58  79
ENDBRANCH  32  33
ENDBRANCH  24  27
ENDBRANCH  22  23
ENDBRANCH   1  22
TORSDOF 15
