REMARK SMILES C[C@H](C(=O)NCCCNC(=O)c1ccc(-c2c3nc(c(-c4ccc(S(=O)(=O)[O-])cc4)c4ccc([nH]4)c(-c4ccc(S(=O)(=O)[O-])cc4)c4nc(c(-c5ccc(S(=O)(=O)[O-])cc5)c5ccc2[nH]5)C=C4)C=C3)cc1)[C@@H](C)Nc1ccccc1Oc1ccccc1
REMARK SMILES IDX 6 1 5 2 3 3 4 4 2 6 1 7 72 8 73 9 74 10 75 12 76 13 80 14
REMARK SMILES IDX 77 15 79 16 78 17 81 18 82 19 83 20 87 21 84 22 86 23 85 24
REMARK SMILES IDX 7 25 8 26 9 27 10 28 11 30 12 31 13 32 71 33 14 34 70 35
REMARK SMILES IDX 15 36 16 37 17 38 64 39 18 40 69 41 63 42 65 43 19 44 68 45
REMARK SMILES IDX 62 46 61 47 20 49 50 50 31 51 49 52 32 53 35 54 48 55 66 56
REMARK SMILES IDX 33 57 34 58 47 60 67 61 36 62 21 63 22 64 30 65 23 66 29 67
REMARK SMILES IDX 24 68 25 69 26 70 27 71 28 72 51 73 52 74 60 75 53 76 59 77
REMARK SMILES IDX 54 78 55 79 56 80 57 81 58 82 37 83 38 84 46 85 39 86 45 87
REMARK SMILES IDX 40 88 41 89 42 90 43 91 44 92
REMARK H PARENT 5 5 74 11 9 29 65 48 35 59
REMARK Flexibility Score: inf
ROOT
ATOM      1  C   UNL     1       1.483   2.469   0.318  1.00  0.00     0.117 C 
ENDROOT
BRANCH   1   2
ATOM      2  N   UNL     1       1.494   1.065   0.697  1.00  0.00    -0.356 N 
ATOM      3  C   UNL     1       1.330  -0.081  -0.017  1.00  0.00     0.224 C 
ATOM      4  O   UNL     1       1.392  -1.132   0.629  1.00  0.00    -0.275 OA
ATOM      5  H   UNL     1       1.651   0.915   1.657  1.00  0.00     0.163 HD
BRANCH   3   6
ATOM      6  C   UNL     1       1.091  -0.083  -1.532  1.00  0.00     0.097 C 
ATOM      7  C   UNL     1       1.707  -1.378  -2.092  1.00  0.00     0.020 C 
BRANCH   6   8
ATOM      8  C   UNL     1      -0.431   0.031  -1.832  1.00  0.00     0.088 C 
ATOM      9  C   UNL     1      -0.832   1.496  -2.040  1.00  0.00     0.031 C 
BRANCH   8  10
ATOM     10  N   UNL     1      -0.814  -0.677  -3.054  1.00  0.00    -0.379 N 
ATOM     11  H   UNL     1      -0.129  -0.726  -3.760  1.00  0.00     0.160 HD
BRANCH  10  12
ATOM     12  C   UNL     1      -2.030  -1.291  -3.338  1.00  0.00     0.078 A 
ATOM     13  C   UNL     1      -2.174  -1.770  -4.659  1.00  0.00     0.029 A 
ATOM     14  C   UNL     1      -3.100  -1.569  -2.459  1.00  0.00     0.150 A 
ATOM     15  C   UNL     1      -3.301  -2.478  -5.091  1.00  0.00     0.002 A 
ATOM     16  C   UNL     1      -4.228  -2.294  -2.890  1.00  0.00     0.049 A 
ATOM     17  C   UNL     1      -4.332  -2.741  -4.203  1.00  0.00     0.004 A 
BRANCH  14  18
ATOM     18  O   UNL     1      -3.075  -1.314  -1.106  1.00  0.00    -0.455 OA
BRANCH  18  19
ATOM     19  C   UNL     1      -3.474  -0.078  -0.642  1.00  0.00     0.127 A 
ATOM     20  C   UNL     1      -3.118   0.178   0.689  1.00  0.00     0.047 A 
ATOM     21  C   UNL     1      -4.101   0.918  -1.391  1.00  0.00     0.047 A 
ATOM     22  C   UNL     1      -3.314   1.441   1.245  1.00  0.00     0.004 A 
ATOM     23  C   UNL     1      -4.290   2.188  -0.834  1.00  0.00     0.004 A 
ATOM     24  C   UNL     1      -3.882   2.453   0.475  1.00  0.00     0.000 A 
ENDBRANCH  18  19
ENDBRANCH  14  18
ENDBRANCH  10  12
ENDBRANCH   8  10
ENDBRANCH   6   8
ENDBRANCH   3   6
ENDBRANCH   1   2
BRANCH   1  25
ATOM     25  C   UNL     1       0.334   3.228   0.987  1.00  0.00     0.042 C 
BRANCH  25  26
ATOM     26  C   UNL     1       0.486   3.448   2.491  1.00  0.00     0.118 C 
BRANCH  26  27
ATOM     27  N   UNL     1       1.371   4.557   2.803  1.00  0.00    -0.352 N 
ATOM     28  C   UNL     1       1.135   5.766   3.411  1.00  0.00     0.251 C 
ATOM     29  H   UNL     1       2.306   4.417   2.530  1.00  0.00     0.163 HD
ATOM     30  O   UNL     1       2.031   6.610   3.365  1.00  0.00    -0.269 OA
BRANCH  28  31
ATOM     31  C   UNL     1      -0.140   6.099   4.105  1.00  0.00     0.039 A 
ATOM     32  C   UNL     1      -0.547   7.440   4.110  1.00  0.00     0.014 A 
ATOM     33  C   UNL     1      -0.885   5.171   4.838  1.00  0.00     0.014 A 
ATOM     34  C   UNL     1      -1.688   7.839   4.818  1.00  0.00     0.010 A 
ATOM     35  C   UNL     1      -2.069   5.557   5.485  1.00  0.00     0.010 A 
ATOM     36  C   UNL     1      -2.475   6.900   5.503  1.00  0.00    -0.014 A 
BRANCH  36  37
ATOM     37  C   UNL     1      -3.692   7.337   6.249  1.00  0.00     0.031 A 
ATOM     38  C   UNL     1      -3.775   7.208   7.752  1.00  0.00     0.074 A 
ATOM     39  C   UNL     1      -4.737   7.865   5.578  1.00  0.00     0.049 A 
ATOM     40  N   UNL     1      -4.733   7.590   8.562  1.00  0.00    -0.248 NA
ATOM     41  C   UNL     1      -2.648   6.552   8.431  1.00  0.00     0.031 C 
ATOM     42  C   UNL     1      -4.821   8.014   4.124  1.00  0.00     0.029 A 
ATOM     43  N   UNL     1      -5.926   8.385   6.032  1.00  0.00    -0.354 N 
ATOM     44  C   UNL     1      -4.330   7.212   9.838  1.00  0.00     0.074 A 
ATOM     45  C   UNL     1      -3.063   6.528   9.690  1.00  0.00     0.031 C 
ATOM     46  C   UNL     1      -5.975   8.623   3.809  1.00  0.00     0.029 A 
ATOM     47  C   UNL     1      -6.729   8.883   5.033  1.00  0.00     0.049 A 
ATOM     48  H   UNL     1      -6.179   8.400   6.984  1.00  0.00     0.167 HD
ATOM     49  C   UNL     1      -4.941   7.429  11.030  1.00  0.00     0.031 A 
ATOM     50  C   UNL     1      -7.932   9.489   5.086  1.00  0.00     0.031 A 
ATOM     51  C   UNL     1      -6.195   8.120  11.191  1.00  0.00     0.049 A 
ATOM     52  C   UNL     1      -8.584   9.734   6.419  1.00  0.00     0.074 A 
ATOM     53  C   UNL     1      -6.861   8.432  12.365  1.00  0.00     0.029 A 
ATOM     54  N   UNL     1      -6.973   8.606  10.153  1.00  0.00    -0.354 N 
ATOM     55  N   UNL     1      -8.151   9.425   7.617  1.00  0.00    -0.248 NA
ATOM     56  C   UNL     1      -9.881  10.426   6.405  1.00  0.00     0.031 C 
ATOM     57  C   UNL     1      -8.063   9.069  12.034  1.00  0.00     0.029 A 
ATOM     58  C   UNL     1      -8.120   9.198  10.656  1.00  0.00     0.049 A 
ATOM     59  H   UNL     1      -6.744   8.540   9.197  1.00  0.00     0.167 HD
ATOM     60  C   UNL     1      -9.114   9.901   8.501  1.00  0.00     0.074 A 
ATOM     61  C   UNL     1     -10.139  10.538   7.700  1.00  0.00     0.031 C 
ATOM     62  C   UNL     1      -9.145   9.817   9.854  1.00  0.00     0.031 A 
BRANCH  49  63
ATOM     63  C   UNL     1      -4.255   6.908  12.268  1.00  0.00    -0.014 A 
ATOM     64  C   UNL     1      -3.077   7.506  12.750  1.00  0.00     0.010 A 
ATOM     65  C   UNL     1      -4.818   5.834  12.982  1.00  0.00     0.010 A 
ATOM     66  C   UNL     1      -2.449   7.011  13.896  1.00  0.00     0.020 A 
ATOM     67  C   UNL     1      -4.208   5.354  14.145  1.00  0.00     0.020 A 
ATOM     68  C   UNL     1      -3.015   5.934  14.584  1.00  0.00     0.054 A 
BRANCH  68  69
ATOM     69  S   UNL     1      -2.186   5.320  16.076  1.00  0.00     0.124 S 
ATOM     70  O   UNL     1      -1.047   4.600  15.512  1.00  0.00    -0.237 OA
ATOM     71  O   UNL     1      -1.859   6.550  16.792  1.00  0.00    -0.237 OA
ATOM     72  O   UNL     1      -3.198   4.481  16.715  1.00  0.00    -0.744 OA
ENDBRANCH  68  69
ENDBRANCH  49  63
BRANCH  50  73
ATOM     73  C   UNL     1      -8.591   9.936   3.828  1.00  0.00    -0.014 A 
ATOM     74  C   UNL     1      -8.671  11.303   3.511  1.00  0.00     0.010 A 
ATOM     75  C   UNL     1      -9.127   8.992   2.934  1.00  0.00     0.010 A 
ATOM     76  C   UNL     1      -9.288  11.720   2.328  1.00  0.00     0.020 A 
ATOM     77  C   UNL     1      -9.722   9.404   1.738  1.00  0.00     0.020 A 
ATOM     78  C   UNL     1      -9.807  10.767   1.447  1.00  0.00     0.054 A 
BRANCH  78  79
ATOM     79  S   UNL     1     -10.545  11.324  -0.115  1.00  0.00     0.124 S 
ATOM     80  O   UNL     1     -11.842  11.826   0.325  1.00  0.00    -0.237 OA
ATOM     81  O   UNL     1      -9.595  12.336  -0.571  1.00  0.00    -0.237 OA
ATOM     82  O   UNL     1     -10.583  10.109  -0.925  1.00  0.00    -0.744 OA
ENDBRANCH  78  79
ENDBRANCH  50  73
BRANCH  62  83
ATOM     83  C   UNL     1     -10.320  10.446  10.556  1.00  0.00    -0.014 A 
ATOM     84  C   UNL     1     -11.600   9.868  10.492  1.00  0.00     0.010 A 
ATOM     85  C   UNL     1     -10.137  11.622  11.306  1.00  0.00     0.010 A 
ATOM     86  C   UNL     1     -12.686  10.480  11.126  1.00  0.00     0.020 A 
ATOM     87  C   UNL     1     -11.215  12.223  11.962  1.00  0.00     0.020 A 
ATOM     88  C   UNL     1     -12.487  11.659  11.850  1.00  0.00     0.054 A 
BRANCH  88  89
ATOM     89  S   UNL     1     -13.907  12.431  12.674  1.00  0.00     0.124 S 
ATOM     90  O   UNL     1     -14.596  13.069  11.555  1.00  0.00    -0.237 OA
ATOM     91  O   UNL     1     -14.597  11.289  13.268  1.00  0.00    -0.237 OA
ATOM     92  O   UNL     1     -13.294  13.348  13.633  1.00  0.00    -0.744 OA
ENDBRANCH  88  89
ENDBRANCH  62  83
ENDBRANCH  36  37
ENDBRANCH  28  31
ENDBRANCH  26  27
ENDBRANCH  25  26
ENDBRANCH   1  25
TORSDOF 18
