REMARK SMILES Nc1oc(-c2ccccc2)cc1C(=O)NCCCNC(=O)c1ccc(-c2c3nc(c(-c4ccc(S(=O)(=O)[O-])cc4)c4ccc([nH]4)c(-c4ccc(S(=O)(=O)[O-])cc4)c4nc(c(-c5ccc(S(=O)(=O)[O-])cc5)c5ccc2[nH]5)C=C4)C=C3)cc1
REMARK SMILES IDX 18 1 17 2 16 3 15 4 13 5 14 6 12 8 2 9 3 10 4 11 11 12 1 13
REMARK SMILES IDX 5 16 6 17 10 18 7 19 9 20 8 21 19 22 20 23 21 25 22 26 23 27
REMARK SMILES IDX 81 28 24 29 80 30 25 31 26 32 27 33 74 34 28 35 79 36 73 37
REMARK SMILES IDX 75 38 29 39 78 40 72 41 71 42 30 44 60 45 41 46 59 47 42 48
REMARK SMILES IDX 45 49 58 50 76 51 43 52 44 53 57 55 77 56 46 57 31 58 32 59
REMARK SMILES IDX 40 60 33 61 39 62 34 63 35 64 36 65 37 66 38 67 61 68 62 69
REMARK SMILES IDX 70 70 63 71 69 72 64 73 65 74 66 75 67 76 68 77 47 78 48 79
REMARK SMILES IDX 56 80 49 81 55 82 50 83 51 84 52 85 53 86 54 87
REMARK H PARENT 15 7 1 14 1 15 19 24 75 43 45 54
REMARK Flexibility Score: inf
ROOT
ATOM      1  C   UNL     1      -5.074   3.940   0.926  1.00  0.00     0.118 C 
ENDROOT
BRANCH   1   2
ATOM      2  C   UNL     1      -3.950   3.817  -0.094  1.00  0.00     0.042 C 
BRANCH   2   3
ATOM      3  C   UNL     1      -2.569   4.006   0.544  1.00  0.00     0.118 C 
BRANCH   3   4
ATOM      4  N   UNL     1      -2.095   2.801   1.204  1.00  0.00    -0.352 N 
ATOM      5  C   UNL     1      -1.252   1.799   0.781  1.00  0.00     0.256 C 
ATOM      6  O   UNL     1      -0.918   0.960   1.621  1.00  0.00    -0.269 OA
ATOM      7  H   UNL     1      -2.440   2.679   2.118  1.00  0.00     0.163 HD
BRANCH   5   8
ATOM      8  C   UNL     1      -0.751   1.765  -0.583  1.00  0.00     0.103 A 
ATOM      9  C   UNL     1       0.341   1.014  -0.996  1.00  0.00     0.203 A 
ATOM     10  O   UNL     1       0.630   1.236  -2.307  1.00  0.00    -0.440 OA
ATOM     11  C   UNL     1      -0.297   2.118  -2.760  1.00  0.00     0.137 A 
ATOM     12  C   UNL     1      -1.202   2.406  -1.767  1.00  0.00     0.067 A 
BRANCH   9  13
ATOM     13  N   UNL     1       1.142   0.156  -0.358  1.00  0.00    -0.369 N 
ATOM     14  H   UNL     1       1.877  -0.284  -0.842  1.00  0.00     0.159 HD
ATOM     15  H   UNL     1       0.996  -0.037   0.596  1.00  0.00     0.159 HD
ENDBRANCH   9  13
BRANCH  11  16
ATOM     16  C   UNL     1      -0.170   2.617  -4.111  1.00  0.00     0.017 A 
ATOM     17  C   UNL     1      -0.420   1.796  -5.212  1.00  0.00     0.012 A 
ATOM     18  C   UNL     1       0.077   3.984  -4.309  1.00  0.00     0.012 A 
ATOM     19  C   UNL     1      -0.456   2.345  -6.496  1.00  0.00     0.001 A 
ATOM     20  C   UNL     1       0.050   4.528  -5.592  1.00  0.00     0.001 A 
ATOM     21  C   UNL     1      -0.228   3.709  -6.684  1.00  0.00     0.000 A 
ENDBRANCH  11  16
ENDBRANCH   5   8
ENDBRANCH   3   4
ENDBRANCH   2   3
ENDBRANCH   1   2
BRANCH   1  22
ATOM     22  N   UNL     1      -5.216   5.312   1.417  1.00  0.00    -0.352 N 
ATOM     23  C   UNL     1      -6.042   5.795   2.406  1.00  0.00     0.251 C 
ATOM     24  H   UNL     1      -4.642   5.981   0.979  1.00  0.00     0.163 HD
ATOM     25  O   UNL     1      -6.296   6.999   2.458  1.00  0.00    -0.269 OA
BRANCH  23  26
ATOM     26  C   UNL     1      -6.626   4.867   3.389  1.00  0.00     0.039 A 
ATOM     27  C   UNL     1      -7.952   5.017   3.807  1.00  0.00     0.014 A 
ATOM     28  C   UNL     1      -5.842   3.825   3.880  1.00  0.00     0.014 A 
ATOM     29  C   UNL     1      -8.507   4.056   4.647  1.00  0.00     0.010 A 
ATOM     30  C   UNL     1      -6.425   2.812   4.607  1.00  0.00     0.010 A 
ATOM     31  C   UNL     1      -7.748   2.933   5.019  1.00  0.00    -0.014 A 
BRANCH  31  32
ATOM     32  C   UNL     1      -8.393   1.790   5.670  1.00  0.00     0.031 A 
ATOM     33  C   UNL     1      -9.575   1.272   4.922  1.00  0.00     0.074 A 
ATOM     34  C   UNL     1      -7.848   1.103   6.700  1.00  0.00     0.049 A 
ATOM     35  N   UNL     1     -10.817   1.317   5.274  1.00  0.00    -0.248 NA
ATOM     36  C   UNL     1      -9.368   0.804   3.538  1.00  0.00     0.031 C 
ATOM     37  C   UNL     1      -6.535   1.313   7.322  1.00  0.00     0.029 A 
ATOM     38  N   UNL     1      -8.293  -0.021   7.329  1.00  0.00    -0.354 N 
ATOM     39  C   UNL     1     -11.516   0.648   4.273  1.00  0.00     0.074 A 
ATOM     40  C   UNL     1     -10.620   0.562   3.148  1.00  0.00     0.031 C 
ATOM     41  C   UNL     1      -6.191   0.220   8.039  1.00  0.00     0.029 A 
ATOM     42  C   UNL     1      -7.320  -0.692   8.071  1.00  0.00     0.049 A 
ATOM     43  H   UNL     1      -9.225  -0.334   7.266  1.00  0.00     0.167 HD
ATOM     44  C   UNL     1     -12.656  -0.047   4.549  1.00  0.00     0.031 A 
ATOM     45  C   UNL     1      -7.420  -1.920   8.643  1.00  0.00     0.031 A 
ATOM     46  C   UNL     1     -13.187   0.307   5.841  1.00  0.00     0.049 A 
ATOM     47  C   UNL     1      -8.864  -2.231   8.749  1.00  0.00     0.074 A 
ATOM     48  C   UNL     1     -13.601   1.480   6.442  1.00  0.00     0.029 A 
ATOM     49  N   UNL     1     -12.963  -0.587   6.861  1.00  0.00    -0.354 N 
ATOM     50  N   UNL     1      -9.681  -1.590   9.534  1.00  0.00    -0.248 NA
ATOM     51  C   UNL     1      -9.487  -2.970   7.665  1.00  0.00     0.031 C 
ATOM     52  C   UNL     1     -13.159   1.377   7.793  1.00  0.00     0.029 A 
ATOM     53  C   UNL     1     -12.581   0.118   7.970  1.00  0.00     0.049 A 
ATOM     54  H   UNL     1     -13.061  -1.565   6.804  1.00  0.00     0.167 HD
ATOM     55  C   UNL     1     -10.847  -1.465   8.796  1.00  0.00     0.074 A 
ATOM     56  C   UNL     1     -10.707  -2.429   7.705  1.00  0.00     0.031 C 
ATOM     57  C   UNL     1     -11.679  -0.397   8.979  1.00  0.00     0.031 A 
BRANCH  44  58
ATOM     58  C   UNL     1     -13.014  -1.359   3.879  1.00  0.00    -0.014 A 
ATOM     59  C   UNL     1     -14.203  -2.014   4.265  1.00  0.00     0.010 A 
ATOM     60  C   UNL     1     -12.097  -2.111   3.114  1.00  0.00     0.010 A 
ATOM     61  C   UNL     1     -14.419  -3.368   3.973  1.00  0.00     0.020 A 
ATOM     62  C   UNL     1     -12.323  -3.446   2.777  1.00  0.00     0.020 A 
ATOM     63  C   UNL     1     -13.469  -4.077   3.239  1.00  0.00     0.054 A 
BRANCH  63  64
ATOM     64  S   UNL     1     -13.713  -5.844   2.937  1.00  0.00     0.124 S 
ATOM     65  O   UNL     1     -13.605  -6.396   4.283  1.00  0.00    -0.237 OA
ATOM     66  O   UNL     1     -15.047  -5.871   2.343  1.00  0.00    -0.237 OA
ATOM     67  O   UNL     1     -12.624  -6.187   2.026  1.00  0.00    -0.744 OA
ENDBRANCH  63  64
ENDBRANCH  44  58
BRANCH  45  68
ATOM     68  C   UNL     1      -6.383  -2.959   8.876  1.00  0.00    -0.014 A 
ATOM     69  C   UNL     1      -6.656  -4.073   9.697  1.00  0.00     0.010 A 
ATOM     70  C   UNL     1      -5.243  -3.022   8.051  1.00  0.00     0.010 A 
ATOM     71  C   UNL     1      -5.872  -5.238   9.627  1.00  0.00     0.020 A 
ATOM     72  C   UNL     1      -4.451  -4.178   7.983  1.00  0.00     0.020 A 
ATOM     73  C   UNL     1      -4.789  -5.293   8.748  1.00  0.00     0.054 A 
BRANCH  73  74
ATOM     74  S   UNL     1      -3.915  -6.871   8.506  1.00  0.00     0.124 S 
ATOM     75  O   UNL     1      -3.197  -7.028   9.767  1.00  0.00    -0.237 OA
ATOM     76  O   UNL     1      -5.010  -7.811   8.281  1.00  0.00    -0.237 OA
ATOM     77  O   UNL     1      -3.070  -6.620   7.339  1.00  0.00    -0.744 OA
ENDBRANCH  73  74
ENDBRANCH  45  68
BRANCH  57  78
ATOM     78  C   UNL     1     -11.529   0.427  10.237  1.00  0.00    -0.014 A 
ATOM     79  C   UNL     1     -10.351   1.091  10.630  1.00  0.00     0.010 A 
ATOM     80  C   UNL     1     -12.692   0.618  11.005  1.00  0.00     0.010 A 
ATOM     81  C   UNL     1     -10.330   1.885  11.789  1.00  0.00     0.020 A 
ATOM     82  C   UNL     1     -12.684   1.423  12.143  1.00  0.00     0.020 A 
ATOM     83  C   UNL     1     -11.499   2.039  12.542  1.00  0.00     0.054 A 
BRANCH  83  84
ATOM     84  S   UNL     1     -11.476   3.061  14.041  1.00  0.00     0.124 S 
ATOM     85  O   UNL     1     -10.619   2.291  14.937  1.00  0.00    -0.237 OA
ATOM     86  O   UNL     1     -10.917   4.324  13.564  1.00  0.00    -0.237 OA
ATOM     87  O   UNL     1     -12.882   3.128  14.438  1.00  0.00    -0.744 OA
ENDBRANCH  83  84
ENDBRANCH  57  78
ENDBRANCH  31  32
ENDBRANCH  23  26
ENDBRANCH   1  22
TORSDOF 15
