REMARK SMILES C/C(=C\C(=O)c1c(O)n(C)c2ccccc2c1=O)Nc1ccc(C(=O)NCCCNC(=O)c2ccc(-c3c4nc(c(-c5ccc(S(=O)(=O)[O-])cc5)c5ccc([nH]5)c(-c5ccc(S(=O)(=O)[O-])cc5)c5nc(c(-c6ccc(S(=O)(=O)[O-])cc6)c6ccc3[nH]6)C=C5)C=C4)cc2)cc1
REMARK SMILES IDX 27 1 26 2 24 3 25 4 23 6 20 7 21 8 94 9 22 10 93 11 19 12
REMARK SMILES IDX 2 14 1 15 3 16 4 17 5 18 6 19 7 20 17 21 9 22 16 23 18 24
REMARK SMILES IDX 10 25 11 26 15 27 12 28 14 29 13 30 8 31 28 33 29 34 30 35
REMARK SMILES IDX 31 36 32 38 33 39 34 40 92 41 35 42 91 43 36 44 37 45 38 46
REMARK SMILES IDX 85 47 39 48 90 49 84 50 86 51 40 52 89 53 83 54 82 55 41 57
REMARK SMILES IDX 71 58 52 59 70 60 53 61 56 62 69 63 87 64 54 65 55 66 68 68
REMARK SMILES IDX 88 69 57 70 42 71 43 72 51 73 44 74 50 75 45 76 46 77 47 78
REMARK SMILES IDX 48 79 49 80 72 81 73 82 81 83 74 84 80 85 75 86 76 87 77 88
REMARK SMILES IDX 78 89 79 90 58 91 59 92 67 93 60 94 66 95 61 96 62 97 63 98
REMARK SMILES IDX 64 99 65 100
REMARK H PARENT 26 5 19 13 8 32 30 37 86 56 56 67
REMARK Flexibility Score: inf
ROOT
ATOM      1  C   UNL     1       2.803   6.962   3.127  1.00  0.00     0.118 C 
ENDROOT
BRANCH   1   2
ATOM      2  N   UNL     1       3.837   5.953   3.259  1.00  0.00    -0.352 N 
ATOM      3  C   UNL     1       4.218   4.826   2.590  1.00  0.00     0.251 C 
ATOM      4  O   UNL     1       5.212   4.258   3.055  1.00  0.00    -0.269 OA
ATOM      5  H   UNL     1       4.417   6.128   4.035  1.00  0.00     0.163 HD
BRANCH   3   6
ATOM      6  C   UNL     1       3.545   4.220   1.403  1.00  0.00     0.039 A 
ATOM      7  C   UNL     1       2.314   2.709  -0.689  1.00  0.00     0.038 A 
ATOM      8  C   UNL     1       3.475   2.265  -0.063  1.00  0.00     0.027 A 
ATOM      9  C   UNL     1       1.850   3.978  -0.332  1.00  0.00     0.027 A 
ATOM     10  C   UNL     1       4.063   2.988   0.980  1.00  0.00     0.016 A 
ATOM     11  C   UNL     1       2.470   4.732   0.680  1.00  0.00     0.016 A 
BRANCH   7  12
ATOM     12  N   UNL     1       1.529   1.919  -1.554  1.00  0.00    -0.359 N 
ATOM     13  H   UNL     1       1.263   2.344  -2.401  1.00  0.00     0.166 HD
BRANCH  12  14
ATOM     14  C   UNL     1       1.077   0.602  -1.362  1.00  0.00     0.016 C 
ATOM     15  C   UNL     1       1.847  -0.263  -0.393  1.00  0.00     0.064 C 
ATOM     16  C   UNL     1      -0.035   0.185  -2.014  1.00  0.00     0.074 C 
BRANCH  16  17
ATOM     17  C   UNL     1      -0.873  -1.062  -1.937  1.00  0.00     0.196 C 
ATOM     18  O   UNL     1      -1.834  -1.187  -2.693  1.00  0.00    -0.289 OA
BRANCH  17  19
ATOM     19  C   UNL     1      -0.625  -2.042  -0.866  1.00  0.00     0.130 A 
ATOM     20  C   UNL     1      -0.878  -1.718   0.418  1.00  0.00     0.206 A 
ATOM     21  C   UNL     1       0.092  -3.300  -1.165  1.00  0.00     0.204 A 
ATOM     22  N   UNL     1      -0.383  -2.444   1.500  1.00  0.00    -0.315 N 
ATOM     23  C   UNL     1       0.518  -4.134  -0.019  1.00  0.00     0.047 A 
ATOM     24  O   UNL     1       0.382  -3.620  -2.314  1.00  0.00    -0.288 OA
ATOM     25  C   UNL     1      -0.345  -1.878   2.854  1.00  0.00     0.153 C 
ATOM     26  C   UNL     1       0.294  -3.671   1.291  1.00  0.00     0.055 A 
ATOM     27  C   UNL     1       1.196  -5.337  -0.273  1.00  0.00     0.014 A 
ATOM     28  C   UNL     1       0.776  -4.475   2.339  1.00  0.00     0.027 A 
ATOM     29  C   UNL     1       1.666  -6.106   0.785  1.00  0.00     0.001 A 
ATOM     30  C   UNL     1       1.456  -5.674   2.090  1.00  0.00     0.002 A 
BRANCH  20  31
ATOM     31  O   UNL     1      -1.583  -0.574   0.750  1.00  0.00    -0.494 OA
ATOM     32  H   UNL     1      -1.945  -0.035   0.075  1.00  0.00     0.295 HD
ENDBRANCH  20  31
ENDBRANCH  17  19
ENDBRANCH  16  17
ENDBRANCH  12  14
ENDBRANCH   7  12
ENDBRANCH   3   6
ENDBRANCH   1   2
BRANCH   1  33
ATOM     33  C   UNL     1       1.924   7.055   4.366  1.00  0.00     0.042 C 
BRANCH  33  34
ATOM     34  C   UNL     1       2.677   7.511   5.608  1.00  0.00     0.118 C 
BRANCH  34  35
ATOM     35  N   UNL     1       3.204   8.866   5.482  1.00  0.00    -0.352 N 
ATOM     36  C   UNL     1       2.693  10.079   5.889  1.00  0.00     0.251 C 
ATOM     37  H   UNL     1       4.076   8.924   5.029  1.00  0.00     0.163 HD
ATOM     38  O   UNL     1       3.197  11.115   5.477  1.00  0.00    -0.269 OA
BRANCH  36  39
ATOM     39  C   UNL     1       1.518  10.131   6.788  1.00  0.00     0.039 A 
ATOM     40  C   UNL     1       1.394   9.233   7.844  1.00  0.00     0.014 A 
ATOM     41  C   UNL     1       0.526  11.093   6.577  1.00  0.00     0.014 A 
ATOM     42  C   UNL     1       0.191   9.137   8.529  1.00  0.00     0.010 A 
ATOM     43  C   UNL     1      -0.634  11.081   7.361  1.00  0.00     0.010 A 
ATOM     44  C   UNL     1      -0.839  10.063   8.304  1.00  0.00    -0.014 A 
BRANCH  44  45
ATOM     45  C   UNL     1      -2.107   9.936   9.072  1.00  0.00     0.031 A 
ATOM     46  C   UNL     1      -3.418   9.700   8.367  1.00  0.00     0.074 A 
ATOM     47  C   UNL     1      -2.060   9.949  10.421  1.00  0.00     0.049 A 
ATOM     48  N   UNL     1      -4.608   9.531   8.887  1.00  0.00    -0.248 NA
ATOM     49  C   UNL     1      -3.400   9.647   6.896  1.00  0.00     0.031 C 
ATOM     50  C   UNL     1      -0.844  10.141  11.216  1.00  0.00     0.029 A 
ATOM     51  N   UNL     1      -3.040   9.751  11.362  1.00  0.00    -0.354 N 
ATOM     52  C   UNL     1      -5.477   9.376   7.812  1.00  0.00     0.074 A 
ATOM     53  C   UNL     1      -4.687   9.500   6.609  1.00  0.00     0.031 C 
ATOM     54  C   UNL     1      -1.133   9.963  12.512  1.00  0.00     0.029 A 
ATOM     55  C   UNL     1      -2.567   9.739  12.654  1.00  0.00     0.049 A 
ATOM     56  H   UNL     1      -3.990   9.629  11.134  1.00  0.00     0.167 HD
ATOM     57  C   UNL     1      -6.810   9.139   7.831  1.00  0.00     0.031 A 
ATOM     58  C   UNL     1      -3.208   9.580  13.829  1.00  0.00     0.031 A 
ATOM     59  C   UNL     1      -7.584   8.992   9.036  1.00  0.00     0.049 A 
ATOM     60  C   UNL     1      -4.692   9.364  13.824  1.00  0.00     0.074 A 
ATOM     61  C   UNL     1      -8.941   8.741   9.154  1.00  0.00     0.029 A 
ATOM     62  N   UNL     1      -7.078   9.068  10.324  1.00  0.00    -0.354 N 
ATOM     63  N   UNL     1      -5.496   9.239  12.795  1.00  0.00    -0.248 NA
ATOM     64  C   UNL     1      -5.360   9.278  15.129  1.00  0.00     0.031 C 
ATOM     65  C   UNL     1      -9.265   8.727  10.511  1.00  0.00     0.029 A 
ATOM     66  C   UNL     1      -8.100   8.896  11.243  1.00  0.00     0.049 A 
ATOM     67  H   UNL     1      -6.133   9.222  10.552  1.00  0.00     0.167 HD
ATOM     68  C   UNL     1      -6.765   9.056  13.328  1.00  0.00     0.074 A 
ATOM     69  C   UNL     1      -6.619   9.061  14.770  1.00  0.00     0.031 C 
ATOM     70  C   UNL     1      -7.944   8.907  12.677  1.00  0.00     0.031 A 
BRANCH  57  71
ATOM     71  C   UNL     1      -7.538   9.021   6.516  1.00  0.00    -0.014 A 
ATOM     72  C   UNL     1      -8.483   9.999   6.152  1.00  0.00     0.010 A 
ATOM     73  C   UNL     1      -7.383   7.886   5.700  1.00  0.00     0.010 A 
ATOM     74  C   UNL     1      -9.282   9.831   5.018  1.00  0.00     0.020 A 
ATOM     75  C   UNL     1      -8.161   7.728   4.548  1.00  0.00     0.020 A 
ATOM     76  C   UNL     1      -9.122   8.690   4.228  1.00  0.00     0.054 A 
BRANCH  76  77
ATOM     77  S   UNL     1     -10.184   8.475   2.773  1.00  0.00     0.124 S 
ATOM     78  O   UNL     1     -11.453   8.076   3.374  1.00  0.00    -0.237 OA
ATOM     79  O   UNL     1     -10.162   9.802   2.162  1.00  0.00    -0.237 OA
ATOM     80  O   UNL     1      -9.502   7.436   2.005  1.00  0.00    -0.744 OA
ENDBRANCH  76  77
ENDBRANCH  57  71
BRANCH  58  81
ATOM     81  C   UNL     1      -2.420   9.617  15.093  1.00  0.00    -0.014 A 
ATOM     82  C   UNL     1      -1.772  10.802  15.492  1.00  0.00     0.010 A 
ATOM     83  C   UNL     1      -2.223   8.446  15.846  1.00  0.00     0.010 A 
ATOM     84  C   UNL     1      -0.886  10.800  16.571  1.00  0.00     0.020 A 
ATOM     85  C   UNL     1      -1.363   8.449  16.949  1.00  0.00     0.020 A 
ATOM     86  C   UNL     1      -0.673   9.617  17.282  1.00  0.00     0.054 A 
BRANCH  86  87
ATOM     87  S   UNL     1       0.534   9.620  18.636  1.00  0.00     0.124 S 
ATOM     88  O   UNL     1       1.799   9.585  17.907  1.00  0.00    -0.237 OA
ATOM     89  O   UNL     1       0.239  10.874  19.325  1.00  0.00    -0.237 OA
ATOM     90  O   UNL     1       0.209   8.410  19.385  1.00  0.00    -0.744 OA
ENDBRANCH  86  87
ENDBRANCH  58  81
BRANCH  70  91
ATOM     91  C   UNL     1      -9.193   8.739  13.501  1.00  0.00    -0.014 A 
ATOM     92  C   UNL     1      -9.883   7.513  13.479  1.00  0.00     0.010 A 
ATOM     93  C   UNL     1      -9.757   9.834  14.178  1.00  0.00     0.010 A 
ATOM     94  C   UNL     1     -11.135   7.395  14.085  1.00  0.00     0.020 A 
ATOM     95  C   UNL     1     -10.997   9.711  14.811  1.00  0.00     0.020 A 
ATOM     96  C   UNL     1     -11.690   8.500  14.736  1.00  0.00     0.054 A 
BRANCH  96  97
ATOM     97  S   UNL     1     -13.338   8.341  15.477  1.00  0.00     0.124 S 
ATOM     98  O   UNL     1     -14.208   8.400  14.306  1.00  0.00    -0.237 OA
ATOM     99  O   UNL     1     -13.266   7.043  16.144  1.00  0.00    -0.237 OA
ATOM    100  O   UNL     1     -13.421   9.490  16.376  1.00  0.00    -0.744 OA
ENDBRANCH  96  97
ENDBRANCH  70  91
ENDBRANCH  44  45
ENDBRANCH  36  39
ENDBRANCH  34  35
ENDBRANCH  33  34
ENDBRANCH   1  33
TORSDOF 18
