REMARK SMILES O=C(CCCCCN1C(=O)/C(=C2\C(=O)Nc3ccccc32)SC1=S)NCCCNC(=O)c1ccc(-c2c3nc(c(-c4ccc(S(=O)(=O)[O-])cc4)c4ccc([nH]4)c(-c4ccc(S(=O)(=O)[O-])cc4)c4nc(c(-c5ccc(S(=O)(=O)[O-])cc5)c5ccc2[nH]5)C=C4)C=C3)cc1
REMARK SMILES IDX 26 1 25 2 1 3 2 4 3 6 4 7 5 8 6 9 7 10 8 11 9 12 23 13 10 14
REMARK SMILES IDX 11 15 22 16 24 17 12 18 13 19 21 20 14 21 15 22 16 23 20 24
REMARK SMILES IDX 17 26 19 27 18 28 27 29 28 30 29 31 30 32 31 34 32 35 33 36
REMARK SMILES IDX 91 37 34 38 90 39 35 40 36 41 37 42 84 43 38 44 89 45 83 46
REMARK SMILES IDX 85 47 39 48 88 49 82 50 81 51 40 53 70 54 51 55 69 56 52 57
REMARK SMILES IDX 55 58 68 59 86 60 53 61 54 62 67 64 87 65 56 66 41 67 42 68
REMARK SMILES IDX 50 69 43 70 49 71 44 72 45 73 46 74 47 75 48 76 71 77 72 78
REMARK SMILES IDX 80 79 73 80 79 81 74 82 75 83 76 84 77 85 78 86 57 87 58 88
REMARK SMILES IDX 66 89 59 90 65 91 60 92 61 93 62 94 63 95 64 96
REMARK H PARENT 25 5 15 25 29 33 85 52 55 63
REMARK Flexibility Score: inf
ROOT
ATOM      1  C   UNL     1       1.952   1.336  -2.103  1.00  0.00     0.117 C 
ENDROOT
BRANCH   1   2
ATOM      2  N   UNL     1       2.538   0.832  -0.878  1.00  0.00    -0.356 N 
ATOM      3  O   UNL     1       0.746  -0.431  -0.192  1.00  0.00    -0.275 OA
ATOM      4  C   UNL     1       1.904  -0.058  -0.047  1.00  0.00     0.219 C 
ATOM      5  H   UNL     1       3.438   1.143  -0.629  1.00  0.00     0.163 HD
BRANCH   4   6
ATOM      6  C   UNL     1       2.790  -0.577   1.069  1.00  0.00     0.100 C 
BRANCH   6   7
ATOM      7  C   UNL     1       3.757  -1.660   0.588  1.00  0.00     0.010 C 
BRANCH   7   8
ATOM      8  C   UNL     1       4.885  -1.198  -0.342  1.00  0.00     0.002 C 
BRANCH   8   9
ATOM      9  C   UNL     1       5.835  -0.129   0.227  1.00  0.00     0.022 C 
BRANCH   9  10
ATOM     10  C   UNL     1       6.806  -0.624   1.314  1.00  0.00     0.127 C 
BRANCH  10  11
ATOM     11  N   UNL     1       7.508  -1.837   0.905  1.00  0.00    -0.293 N 
ATOM     12  C   UNL     1       8.265  -1.808  -0.259  1.00  0.00     0.267 C 
ATOM     13  C   UNL     1       7.507  -3.031   1.585  1.00  0.00     0.148 C 
ATOM     14  O   UNL     1       8.786  -0.816  -0.736  1.00  0.00    -0.268 OA
ATOM     15  C   UNL     1       8.377  -3.200  -0.775  1.00  0.00     0.093 C 
ATOM     16  S   UNL     1       8.314  -4.245   0.606  1.00  0.00    -0.053 SA
ATOM     17  S   UNL     1       6.846  -3.395   3.070  1.00  0.00    -0.052 S 
ATOM     18  C   UNL     1       8.300  -3.573  -2.062  1.00  0.00     0.069 C 
ATOM     19  C   UNL     1       8.260  -2.621  -3.237  1.00  0.00     0.257 C 
ATOM     20  C   UNL     1       8.137  -4.929  -2.634  1.00  0.00     0.012 A 
ATOM     21  O   UNL     1       8.219  -1.407  -3.244  1.00  0.00    -0.269 OA
ATOM     22  N   UNL     1       8.199  -3.424  -4.361  1.00  0.00    -0.321 N 
ATOM     23  C   UNL     1       8.097  -4.766  -4.023  1.00  0.00     0.049 A 
ATOM     24  C   UNL     1       7.922  -6.189  -2.098  1.00  0.00     0.011 A 
ATOM     25  H   UNL     1       8.224  -3.086  -5.285  1.00  0.00     0.170 HD
ATOM     26  C   UNL     1       7.896  -5.813  -4.902  1.00  0.00     0.027 A 
ATOM     27  C   UNL     1       7.695  -7.264  -2.965  1.00  0.00     0.001 A 
ATOM     28  C   UNL     1       7.691  -7.079  -4.356  1.00  0.00     0.002 A 
ENDBRANCH  10  11
ENDBRANCH   9  10
ENDBRANCH   8   9
ENDBRANCH   7   8
ENDBRANCH   6   7
ENDBRANCH   4   6
ENDBRANCH   1   2
BRANCH   1  29
ATOM     29  C   UNL     1       2.319   2.791  -2.347  1.00  0.00     0.042 C 
BRANCH  29  30
ATOM     30  C   UNL     1       3.812   3.055  -2.515  1.00  0.00     0.118 C 
BRANCH  30  31
ATOM     31  N   UNL     1       4.371   2.545  -3.760  1.00  0.00    -0.352 N 
ATOM     32  C   UNL     1       5.074   3.215  -4.740  1.00  0.00     0.251 C 
ATOM     33  H   UNL     1       4.226   1.585  -3.926  1.00  0.00     0.163 HD
ATOM     34  O   UNL     1       5.364   2.645  -5.788  1.00  0.00    -0.269 OA
BRANCH  32  35
ATOM     35  C   UNL     1       5.421   4.642  -4.547  1.00  0.00     0.039 A 
ATOM     36  C   UNL     1       5.929   5.094  -3.329  1.00  0.00     0.014 A 
ATOM     37  C   UNL     1       5.165   5.552  -5.576  1.00  0.00     0.014 A 
ATOM     38  C   UNL     1       5.957   6.459  -3.062  1.00  0.00     0.010 A 
ATOM     39  C   UNL     1       5.303   6.924  -5.340  1.00  0.00     0.010 A 
ATOM     40  C   UNL     1       5.629   7.394  -4.059  1.00  0.00    -0.014 A 
BRANCH  40  41
ATOM     41  C   UNL     1       5.609   8.847  -3.728  1.00  0.00     0.031 A 
ATOM     42  C   UNL     1       4.332   9.646  -3.832  1.00  0.00     0.074 A 
ATOM     43  C   UNL     1       6.731   9.438  -3.268  1.00  0.00     0.049 A 
ATOM     44  N   UNL     1       4.128  10.908  -3.546  1.00  0.00    -0.248 NA
ATOM     45  C   UNL     1       3.130   8.947  -4.317  1.00  0.00     0.031 C 
ATOM     46  C   UNL     1       8.021   8.767  -3.099  1.00  0.00     0.029 A 
ATOM     47  N   UNL     1       6.964  10.718  -2.829  1.00  0.00    -0.354 N 
ATOM     48  C   UNL     1       2.788  11.155  -3.828  1.00  0.00     0.074 A 
ATOM     49  C   UNL     1       2.234   9.926  -4.348  1.00  0.00     0.031 C 
ATOM     50  C   UNL     1       8.888   9.618  -2.534  1.00  0.00     0.029 A 
ATOM     51  C   UNL     1       8.246  10.920  -2.375  1.00  0.00     0.049 A 
ATOM     52  H   UNL     1       6.278  11.424  -2.839  1.00  0.00     0.167 HD
ATOM     53  C   UNL     1       2.080  12.296  -3.650  1.00  0.00     0.031 A 
ATOM     54  C   UNL     1       8.853  12.024  -1.894  1.00  0.00     0.031 A 
ATOM     55  C   UNL     1       2.635  13.513  -3.112  1.00  0.00     0.049 A 
ATOM     56  C   UNL     1       8.062  13.295  -1.763  1.00  0.00     0.074 A 
ATOM     57  C   UNL     1       1.986  14.711  -2.869  1.00  0.00     0.029 A 
ATOM     58  N   UNL     1       3.957  13.692  -2.730  1.00  0.00    -0.354 N 
ATOM     59  N   UNL     1       6.790  13.498  -2.009  1.00  0.00    -0.248 NA
ATOM     60  C   UNL     1       8.781  14.484  -1.286  1.00  0.00     0.031 C 
ATOM     61  C   UNL     1       2.930  15.637  -2.422  1.00  0.00     0.029 A 
ATOM     62  C   UNL     1       4.150  14.992  -2.293  1.00  0.00     0.049 A 
ATOM     63  H   UNL     1       4.654  12.997  -2.764  1.00  0.00     0.167 HD
ATOM     64  C   UNL     1       6.552  14.833  -1.704  1.00  0.00     0.074 A 
ATOM     65  C   UNL     1       7.805  15.383  -1.228  1.00  0.00     0.031 C 
ATOM     66  C   UNL     1       5.400  15.538  -1.818  1.00  0.00     0.031 A 
BRANCH  53  67
ATOM     67  C   UNL     1       0.617  12.309  -4.025  1.00  0.00    -0.014 A 
ATOM     68  C   UNL     1       0.165  13.162  -5.051  1.00  0.00     0.010 A 
ATOM     69  C   UNL     1      -0.331  11.592  -3.272  1.00  0.00     0.010 A 
ATOM     70  C   UNL     1      -1.202  13.335  -5.285  1.00  0.00     0.020 A 
ATOM     71  C   UNL     1      -1.700  11.735  -3.527  1.00  0.00     0.020 A 
ATOM     72  C   UNL     1      -2.127  12.628  -4.513  1.00  0.00     0.054 A 
BRANCH  72  73
ATOM     73  S   UNL     1      -3.897  12.905  -4.797  1.00  0.00     0.124 S 
ATOM     74  O   UNL     1      -4.092  14.245  -4.250  1.00  0.00    -0.237 OA
ATOM     75  O   UNL     1      -4.008  12.793  -6.249  1.00  0.00    -0.237 OA
ATOM     76  O   UNL     1      -4.538  11.826  -4.048  1.00  0.00    -0.744 OA
ENDBRANCH  72  73
ENDBRANCH  53  67
BRANCH  54  77
ATOM     77  C   UNL     1      10.285  11.944  -1.485  1.00  0.00    -0.014 A 
ATOM     78  C   UNL     1      11.283  11.654  -2.436  1.00  0.00     0.010 A 
ATOM     79  C   UNL     1      10.649  12.058  -0.132  1.00  0.00     0.010 A 
ATOM     80  C   UNL     1      12.597  11.401  -2.035  1.00  0.00     0.020 A 
ATOM     81  C   UNL     1      11.973  11.847   0.269  1.00  0.00     0.020 A 
ATOM     82  C   UNL     1      12.930  11.484  -0.682  1.00  0.00     0.054 A 
BRANCH  82  83
ATOM     83  S   UNL     1      14.624  11.077  -0.179  1.00  0.00     0.124 S 
ATOM     84  O   UNL     1      14.646   9.626  -0.347  1.00  0.00    -0.237 OA
ATOM     85  O   UNL     1      15.429  11.833  -1.135  1.00  0.00    -0.237 OA
ATOM     86  O   UNL     1      14.695  11.547   1.202  1.00  0.00    -0.744 OA
ENDBRANCH  82  83
ENDBRANCH  54  77
BRANCH  66  87
ATOM     87  C   UNL     1       5.410  16.997  -1.432  1.00  0.00    -0.014 A 
ATOM     88  C   UNL     1       4.616  17.442  -0.358  1.00  0.00     0.010 A 
ATOM     89  C   UNL     1       6.083  17.946  -2.221  1.00  0.00     0.010 A 
ATOM     90  C   UNL     1       4.453  18.808  -0.112  1.00  0.00     0.020 A 
ATOM     91  C   UNL     1       5.953  19.313  -1.955  1.00  0.00     0.020 A 
ATOM     92  C   UNL     1       5.114  19.735  -0.921  1.00  0.00     0.054 A 
BRANCH  92  93
ATOM     93  S   UNL     1       4.842  21.503  -0.622  1.00  0.00     0.124 S 
ATOM     94  O   UNL     1       3.479  21.692  -1.110  1.00  0.00    -0.237 OA
ATOM     95  O   UNL     1       5.014  21.613   0.824  1.00  0.00    -0.237 OA
ATOM     96  O   UNL     1       5.884  22.151  -1.417  1.00  0.00    -0.744 OA
ENDBRANCH  92  93
ENDBRANCH  66  87
ENDBRANCH  40  41
ENDBRANCH  32  35
ENDBRANCH  30  31
ENDBRANCH  29  30
ENDBRANCH   1  29
TORSDOF 18
