REMARK SMILES O=C(NCCCNC(=O)c1ccccc1/N=C/c1coc2ccccc2c1=O)c1ccc(-c2c3nc(c(-c4ccc(S(=O)(=O)[O-])cc4)c4ccc([nH]4)c(-c4ccc(S(=O)(=O)[O-])cc4)c4nc(c(-c5ccc(S(=O)(=O)[O-])cc5)c5ccc2[nH]5)C=C4)C=C3)cc1
REMARK SMILES IDX 4 1 3 2 1 3 2 4 29 6 30 7 88 8 31 9 87 10 32 11 33 12 34 13
REMARK SMILES IDX 81 14 35 15 86 16 80 17 82 18 36 19 85 20 79 21 78 22 37 24
REMARK SMILES IDX 67 25 48 26 66 27 49 28 52 29 65 30 83 31 50 32 51 33 64 35
REMARK SMILES IDX 84 36 53 37 38 38 39 39 47 40 40 41 46 42 41 43 42 44 43 45
REMARK SMILES IDX 44 46 45 47 68 48 69 49 77 50 70 51 76 52 71 53 72 54 73 55
REMARK SMILES IDX 74 56 75 57 54 58 55 59 63 60 56 61 62 62 57 63 58 64 59 65
REMARK SMILES IDX 60 66 61 67 5 68 6 69 7 70 8 71 9 73 10 74 11 75 15 76 12 77
REMARK SMILES IDX 14 78 13 79 16 80 17 81 18 82 19 83 27 84 20 85 26 86 28 87
REMARK SMILES IDX 21 88 25 89 22 90 24 91 23 92
REMARK H PARENT 3 5 82 23 52 34 7 72
REMARK Flexibility Score: inf
ROOT
ATOM      1  C   UNL     1       5.324  -1.185  -0.438  1.00  0.00     0.118 C 
ENDROOT
BRANCH   1   2
ATOM      2  N   UNL     1       3.872  -1.224  -0.464  1.00  0.00    -0.352 N 
ATOM      3  O   UNL     1       1.768  -0.477  -0.075  1.00  0.00    -0.269 OA
ATOM      4  C   UNL     1       2.976  -0.334   0.100  1.00  0.00     0.251 C 
ATOM      5  H   UNL     1       3.473  -1.984  -0.946  1.00  0.00     0.163 HD
BRANCH   4   6
ATOM      6  C   UNL     1       3.448   0.751   1.004  1.00  0.00     0.039 A 
ATOM      7  C   UNL     1       4.571   1.531   0.727  1.00  0.00     0.014 A 
ATOM      8  C   UNL     1       2.759   0.946   2.209  1.00  0.00     0.014 A 
ATOM      9  C   UNL     1       5.118   2.340   1.724  1.00  0.00     0.010 A 
ATOM     10  C   UNL     1       3.269   1.811   3.184  1.00  0.00     0.010 A 
ATOM     11  C   UNL     1       4.497   2.453   2.978  1.00  0.00    -0.014 A 
BRANCH  11  12
ATOM     12  C   UNL     1       5.205   3.159   4.079  1.00  0.00     0.031 A 
ATOM     13  C   UNL     1       5.783   2.378   5.233  1.00  0.00     0.074 A 
ATOM     14  C   UNL     1       5.424   4.484   4.003  1.00  0.00     0.049 A 
ATOM     15  N   UNL     1       6.535   2.802   6.219  1.00  0.00    -0.248 NA
ATOM     16  C   UNL     1       5.475   0.940   5.291  1.00  0.00     0.031 C 
ATOM     17  C   UNL     1       4.919   5.366   2.950  1.00  0.00     0.029 A 
ATOM     18  N   UNL     1       6.176   5.309   4.802  1.00  0.00    -0.354 N 
ATOM     19  C   UNL     1       6.748   1.698   7.036  1.00  0.00     0.074 A 
ATOM     20  C   UNL     1       6.059   0.582   6.426  1.00  0.00     0.031 C 
ATOM     21  C   UNL     1       5.444   6.591   3.120  1.00  0.00     0.029 A 
ATOM     22  C   UNL     1       6.310   6.579   4.297  1.00  0.00     0.049 A 
ATOM     23  H   UNL     1       6.579   5.019   5.652  1.00  0.00     0.167 HD
ATOM     24  C   UNL     1       7.450   1.613   8.192  1.00  0.00     0.031 A 
ATOM     25  C   UNL     1       7.077   7.608   4.704  1.00  0.00     0.031 A 
ATOM     26  C   UNL     1       8.185   2.693   8.786  1.00  0.00     0.049 A 
ATOM     27  C   UNL     1       7.960   7.458   5.907  1.00  0.00     0.074 A 
ATOM     28  C   UNL     1       8.904   2.706   9.969  1.00  0.00     0.029 A 
ATOM     29  N   UNL     1       8.323   3.950   8.221  1.00  0.00    -0.354 N 
ATOM     30  N   UNL     1       8.117   6.415   6.685  1.00  0.00    -0.248 NA
ATOM     31  C   UNL     1       8.775   8.623   6.280  1.00  0.00     0.031 C 
ATOM     32  C   UNL     1       9.491   3.972  10.111  1.00  0.00     0.029 A 
ATOM     33  C   UNL     1       9.136   4.740   9.015  1.00  0.00     0.049 A 
ATOM     34  H   UNL     1       7.904   4.239   7.378  1.00  0.00     0.167 HD
ATOM     35  C   UNL     1       9.041   6.801   7.648  1.00  0.00     0.074 A 
ATOM     36  C   UNL     1       9.425   8.165   7.343  1.00  0.00     0.031 C 
ATOM     37  C   UNL     1       9.518   6.090   8.698  1.00  0.00     0.031 A 
BRANCH  24  38
ATOM     38  C   UNL     1       7.426   0.285   8.892  1.00  0.00    -0.014 A 
ATOM     39  C   UNL     1       8.342  -0.724   8.550  1.00  0.00     0.010 A 
ATOM     40  C   UNL     1       6.454   0.035   9.876  1.00  0.00     0.010 A 
ATOM     41  C   UNL     1       8.258  -1.982   9.152  1.00  0.00     0.020 A 
ATOM     42  C   UNL     1       6.372  -1.220  10.484  1.00  0.00     0.020 A 
ATOM     43  C   UNL     1       7.261  -2.228  10.100  1.00  0.00     0.054 A 
BRANCH  43  44
ATOM     44  S   UNL     1       7.123  -3.870  10.860  1.00  0.00     0.124 S 
ATOM     45  O   UNL     1       6.140  -4.518   9.995  1.00  0.00    -0.237 OA
ATOM     46  O   UNL     1       8.482  -4.400  10.767  1.00  0.00    -0.237 OA
ATOM     47  O   UNL     1       6.667  -3.574  12.215  1.00  0.00    -0.744 OA
ENDBRANCH  43  44
ENDBRANCH  24  38
BRANCH  25  48
ATOM     48  C   UNL     1       7.097   8.851   3.897  1.00  0.00    -0.014 A 
ATOM     49  C   UNL     1       8.053   9.003   2.878  1.00  0.00     0.010 A 
ATOM     50  C   UNL     1       6.128   9.848   4.094  1.00  0.00     0.010 A 
ATOM     51  C   UNL     1       8.033  10.131   2.054  1.00  0.00     0.020 A 
ATOM     52  C   UNL     1       6.103  10.975   3.269  1.00  0.00     0.020 A 
ATOM     53  C   UNL     1       7.056  11.109   2.254  1.00  0.00     0.054 A 
BRANCH  53  54
ATOM     54  S   UNL     1       6.959  12.531   1.130  1.00  0.00     0.124 S 
ATOM     55  O   UNL     1       7.654  13.565   1.889  1.00  0.00    -0.237 OA
ATOM     56  O   UNL     1       7.646  12.059  -0.070  1.00  0.00    -0.237 OA
ATOM     57  O   UNL     1       5.518  12.722   0.975  1.00  0.00    -0.744 OA
ENDBRANCH  53  54
ENDBRANCH  25  48
BRANCH  37  58
ATOM     58  C   UNL     1      10.501   6.778   9.597  1.00  0.00    -0.014 A 
ATOM     59  C   UNL     1      10.047   7.572  10.664  1.00  0.00     0.010 A 
ATOM     60  C   UNL     1      11.881   6.616   9.393  1.00  0.00     0.010 A 
ATOM     61  C   UNL     1      10.961   8.213  11.505  1.00  0.00     0.020 A 
ATOM     62  C   UNL     1      12.798   7.253  10.233  1.00  0.00     0.020 A 
ATOM     63  C   UNL     1      12.331   8.059  11.276  1.00  0.00     0.054 A 
BRANCH  63  64
ATOM     64  S   UNL     1      13.521   8.870  12.381  1.00  0.00     0.124 S 
ATOM     65  O   UNL     1      13.756  10.137  11.694  1.00  0.00    -0.237 OA
ATOM     66  O   UNL     1      12.794   8.968  13.645  1.00  0.00    -0.237 OA
ATOM     67  O   UNL     1      14.651   7.944  12.393  1.00  0.00    -0.744 OA
ENDBRANCH  63  64
ENDBRANCH  37  58
ENDBRANCH  11  12
ENDBRANCH   4   6
ENDBRANCH   1   2
BRANCH   1  68
ATOM     68  C   UNL     1       6.048  -2.524  -0.526  1.00  0.00     0.042 C 
BRANCH  68  69
ATOM     69  C   UNL     1       5.760  -3.400  -1.739  1.00  0.00     0.118 C 
BRANCH  69  70
ATOM     70  N   UNL     1       5.774  -2.701  -3.011  1.00  0.00    -0.352 N 
ATOM     71  C   UNL     1       6.029  -3.209  -4.259  1.00  0.00     0.253 C 
ATOM     72  H   UNL     1       5.575  -1.738  -2.974  1.00  0.00     0.163 HD
ATOM     73  O   UNL     1       5.928  -2.493  -5.253  1.00  0.00    -0.269 OA
BRANCH  71  74
ATOM     74  C   UNL     1       6.483  -4.600  -4.438  1.00  0.00     0.065 A 
ATOM     75  C   UNL     1       7.762  -4.766  -4.997  1.00  0.00     0.016 A 
ATOM     76  C   UNL     1       5.703  -5.720  -4.120  1.00  0.00     0.076 A 
ATOM     77  C   UNL     1       8.292  -6.042  -5.191  1.00  0.00     0.001 A 
ATOM     78  C   UNL     1       6.264  -6.993  -4.310  1.00  0.00     0.029 A 
ATOM     79  C   UNL     1       7.544  -7.159  -4.838  1.00  0.00     0.002 A 
BRANCH  76  80
ATOM     80  N   UNL     1       4.451  -5.721  -3.501  1.00  0.00    -0.255 NA
ATOM     81  C   UNL     1       3.433  -5.079  -3.975  1.00  0.00     0.127 C 
BRANCH  81  82
ATOM     82  C   UNL     1       2.167  -5.250  -3.241  1.00  0.00     0.076 A 
ATOM     83  C   UNL     1       1.409  -6.285  -3.633  1.00  0.00     0.209 A 
ATOM     84  C   UNL     1       2.087  -4.867  -1.815  1.00  0.00     0.201 A 
ATOM     85  O   UNL     1       0.574  -6.999  -2.789  1.00  0.00    -0.463 OA
ATOM     86  C   UNL     1       1.738  -5.988  -0.928  1.00  0.00     0.065 A 
ATOM     87  O   UNL     1       2.399  -3.758  -1.410  1.00  0.00    -0.288 OA
ATOM     88  C   UNL     1       1.004  -7.042  -1.478  1.00  0.00     0.137 A 
ATOM     89  C   UNL     1       2.267  -6.073   0.358  1.00  0.00     0.016 A 
ATOM     90  C   UNL     1       0.774  -8.194  -0.733  1.00  0.00     0.048 A 
ATOM     91  C   UNL     1       2.081  -7.249   1.085  1.00  0.00     0.001 A 
ATOM     92  C   UNL     1       1.336  -8.303   0.543  1.00  0.00     0.004 A 
ENDBRANCH  81  82
ENDBRANCH  76  80
ENDBRANCH  71  74
ENDBRANCH  69  70
ENDBRANCH  68  69
ENDBRANCH   1  68
TORSDOF 15
