REMARK SMILES CC[C@@H](C)N(C)c1ccc(/C=C/C(=O)NCCCNC(=O)c2ccc(-c3c4nc(c(-c5ccc(S(=O)(=O)[O-])cc5)c5ccc([nH]5)c(-c5ccc(S(=O)(=O)[O-])cc5)c5nc(c(-c6ccc(S(=O)(=O)[O-])cc6)c6ccc3[nH]6)C=C5)C=C4)cc2)cc1F
REMARK SMILES IDX 16 1 15 2 13 3 14 4 12 6 11 7 10 8 7 9 8 10 83 11 9 12 82 13
REMARK SMILES IDX 84 14 5 15 6 16 3 17 4 18 2 19 1 20 17 21 18 22 19 23 20 24
REMARK SMILES IDX 21 26 22 27 23 28 81 29 24 30 80 31 25 32 26 33 27 34 74 35
REMARK SMILES IDX 28 36 79 37 73 38 75 39 29 40 78 41 72 42 71 43 30 45 60 46
REMARK SMILES IDX 41 47 59 48 42 49 45 50 58 51 76 52 43 53 44 54 57 56 77 57
REMARK SMILES IDX 46 58 31 59 32 60 40 61 33 62 39 63 34 64 35 65 36 66 37 67
REMARK SMILES IDX 38 68 61 69 62 70 70 71 63 72 69 73 64 74 65 75 66 76 67 77
REMARK SMILES IDX 68 78 47 79 48 80 56 81 49 82 55 83 50 84 51 85 52 86 53 87
REMARK SMILES IDX 54 88
REMARK H PARENT 15 5 19 25 75 44 45 55
REMARK Flexibility Score: inf
ROOT
ATOM      1  C   UNL     1      -7.825   3.716   0.240  1.00  0.00     0.118 C 
ENDROOT
BRANCH   1   2
ATOM      2  N   UNL     1      -8.028   5.105  -0.143  1.00  0.00    -0.352 N 
ATOM      3  C   UNL     1      -7.153   6.006  -0.669  1.00  0.00     0.244 C 
ATOM      4  O   UNL     1      -7.555   7.093  -1.077  1.00  0.00    -0.270 OA
ATOM      5  H   UNL     1      -8.940   5.446   0.000  1.00  0.00     0.163 HD
BRANCH   3   6
ATOM      6  C   UNL     1      -5.729   5.645  -0.840  1.00  0.00     0.072 C 
ATOM      7  C   UNL     1      -4.977   5.181   0.168  1.00  0.00     0.014 C 
BRANCH   7   8
ATOM      8  C   UNL     1      -3.571   4.779   0.041  1.00  0.00    -0.022 A 
ATOM      9  C   UNL     1      -0.840   3.950  -0.071  1.00  0.00     0.073 A 
ATOM     10  C   UNL     1      -1.318   5.020  -0.845  1.00  0.00     0.029 A 
ATOM     11  C   UNL     1      -1.773   3.328   0.774  1.00  0.00     0.147 A 
ATOM     12  C   UNL     1      -2.659   5.433  -0.791  1.00  0.00     0.010 A 
ATOM     13  C   UNL     1      -3.110   3.726   0.832  1.00  0.00     0.049 A 
ATOM     14  F   UNL     1      -1.392   2.356   1.616  1.00  0.00    -0.205 F 
BRANCH   9  15
ATOM     15  N   UNL     1       0.498   3.570  -0.123  1.00  0.00    -0.370 N 
ATOM     16  C   UNL     1       1.495   4.621   0.036  1.00  0.00     0.144 C 
BRANCH  15  17
ATOM     17  C   UNL     1       0.929   2.285  -0.719  1.00  0.00     0.078 C 
ATOM     18  C   UNL     1       0.411   2.137  -2.151  1.00  0.00     0.031 C 
BRANCH  17  19
ATOM     19  C   UNL     1       0.576   1.083   0.170  1.00  0.00     0.021 C 
ATOM     20  C   UNL     1       1.346  -0.182  -0.183  1.00  0.00     0.006 C 
ENDBRANCH  17  19
ENDBRANCH  15  17
ENDBRANCH   9  15
ENDBRANCH   7   8
ENDBRANCH   3   6
ENDBRANCH   1   2
BRANCH   1  21
ATOM     21  C   UNL     1      -7.911   3.519   1.752  1.00  0.00     0.042 C 
BRANCH  21  22
ATOM     22  C   UNL     1      -9.326   3.641   2.313  1.00  0.00     0.118 C 
BRANCH  22  23
ATOM     23  N   UNL     1     -10.190   2.558   1.870  1.00  0.00    -0.352 N 
ATOM     24  C   UNL     1     -10.941   1.666   2.595  1.00  0.00     0.251 C 
ATOM     25  H   UNL     1     -10.245   2.446   0.893  1.00  0.00     0.163 HD
ATOM     26  O   UNL     1     -11.436   0.701   2.019  1.00  0.00    -0.269 OA
BRANCH  24  27
ATOM     27  C   UNL     1     -11.154   1.847   4.050  1.00  0.00     0.039 A 
ATOM     28  C   UNL     1     -11.169   0.713   4.868  1.00  0.00     0.014 A 
ATOM     29  C   UNL     1     -11.403   3.105   4.605  1.00  0.00     0.014 A 
ATOM     30  C   UNL     1     -11.391   0.844   6.242  1.00  0.00     0.010 A 
ATOM     31  C   UNL     1     -11.559   3.243   5.984  1.00  0.00     0.010 A 
ATOM     32  C   UNL     1     -11.566   2.113   6.816  1.00  0.00    -0.014 A 
BRANCH  32  33
ATOM     33  C   UNL     1     -11.766   2.270   8.280  1.00  0.00     0.031 A 
ATOM     34  C   UNL     1     -13.069   2.799   8.818  1.00  0.00     0.074 A 
ATOM     35  C   UNL     1     -10.756   1.981   9.124  1.00  0.00     0.049 A 
ATOM     36  N   UNL     1     -13.413   3.038  10.058  1.00  0.00    -0.248 NA
ATOM     37  C   UNL     1     -14.115   3.121   7.834  1.00  0.00     0.031 C 
ATOM     38  C   UNL     1      -9.431   1.499   8.726  1.00  0.00     0.029 A 
ATOM     39  N   UNL     1     -10.684   2.055  10.493  1.00  0.00    -0.354 N 
ATOM     40  C   UNL     1     -14.703   3.555  10.002  1.00  0.00     0.074 A 
ATOM     41  C   UNL     1     -15.064   3.635   8.604  1.00  0.00     0.031 C 
ATOM     42  C   UNL     1      -8.688   1.296   9.826  1.00  0.00     0.029 A 
ATOM     43  C   UNL     1      -9.468   1.665  11.003  1.00  0.00     0.049 A 
ATOM     44  H   UNL     1     -11.432   2.359  11.056  1.00  0.00     0.167 HD
ATOM     45  C   UNL     1     -15.520   3.914  11.022  1.00  0.00     0.031 A 
ATOM     46  C   UNL     1      -9.028   1.611  12.275  1.00  0.00     0.031 A 
ATOM     47  C   UNL     1     -15.164   3.820  12.413  1.00  0.00     0.049 A 
ATOM     48  C   UNL     1      -9.956   2.007  13.390  1.00  0.00     0.074 A 
ATOM     49  C   UNL     1     -15.941   4.108  13.522  1.00  0.00     0.029 A 
ATOM     50  N   UNL     1     -13.929   3.404  12.888  1.00  0.00    -0.354 N 
ATOM     51  N   UNL     1     -11.193   2.437  13.319  1.00  0.00    -0.248 NA
ATOM     52  C   UNL     1      -9.432   1.895  14.759  1.00  0.00     0.031 C 
ATOM     53  C   UNL     1     -15.161   3.907  14.667  1.00  0.00     0.029 A 
ATOM     54  C   UNL     1     -13.916   3.444  14.272  1.00  0.00     0.049 A 
ATOM     55  H   UNL     1     -13.173   3.122  12.324  1.00  0.00     0.167 HD
ATOM     56  C   UNL     1     -11.604   2.624  14.634  1.00  0.00     0.074 A 
ATOM     57  C   UNL     1     -10.489   2.246  15.479  1.00  0.00     0.031 C 
ATOM     58  C   UNL     1     -12.798   3.067  15.099  1.00  0.00     0.031 A 
BRANCH  45  59
ATOM     59  C   UNL     1     -16.883   4.448  10.666  1.00  0.00    -0.014 A 
ATOM     60  C   UNL     1     -17.878   3.603  10.140  1.00  0.00     0.010 A 
ATOM     61  C   UNL     1     -17.186   5.803  10.890  1.00  0.00     0.010 A 
ATOM     62  C   UNL     1     -19.135   4.114   9.803  1.00  0.00     0.020 A 
ATOM     63  C   UNL     1     -18.450   6.312  10.579  1.00  0.00     0.020 A 
ATOM     64  C   UNL     1     -19.411   5.467  10.019  1.00  0.00     0.054 A 
BRANCH  64  65
ATOM     65  S   UNL     1     -21.055   6.100   9.585  1.00  0.00     0.124 S 
ATOM     66  O   UNL     1     -20.979   6.156   8.127  1.00  0.00    -0.237 OA
ATOM     67  O   UNL     1     -21.947   5.080  10.129  1.00  0.00    -0.237 OA
ATOM     68  O   UNL     1     -21.115   7.397  10.255  1.00  0.00    -0.744 OA
ENDBRANCH  64  65
ENDBRANCH  45  59
BRANCH  46  69
ATOM     69  C   UNL     1      -7.646   1.141  12.561  1.00  0.00    -0.014 A 
ATOM     70  C   UNL     1      -7.429  -0.119  13.147  1.00  0.00     0.010 A 
ATOM     71  C   UNL     1      -6.537   1.942  12.231  1.00  0.00     0.010 A 
ATOM     72  C   UNL     1      -6.131  -0.563  13.413  1.00  0.00     0.020 A 
ATOM     73  C   UNL     1      -5.237   1.490  12.472  1.00  0.00     0.020 A 
ATOM     74  C   UNL     1      -5.042   0.245  13.072  1.00  0.00     0.054 A 
BRANCH  74  75
ATOM     75  S   UNL     1      -3.364  -0.375  13.375  1.00  0.00     0.124 S 
ATOM     76  O   UNL     1      -3.237  -0.213  14.820  1.00  0.00    -0.237 OA
ATOM     77  O   UNL     1      -3.443  -1.753  12.896  1.00  0.00    -0.237 OA
ATOM     78  O   UNL     1      -2.524   0.509  12.569  1.00  0.00    -0.744 OA
ENDBRANCH  74  75
ENDBRANCH  46  69
BRANCH  58  79
ATOM     79  C   UNL     1     -12.972   3.139  16.592  1.00  0.00    -0.014 A 
ATOM     80  C   UNL     1     -12.338   4.137  17.352  1.00  0.00     0.010 A 
ATOM     81  C   UNL     1     -13.821   2.220  17.236  1.00  0.00     0.010 A 
ATOM     82  C   UNL     1     -12.522   4.193  18.736  1.00  0.00     0.020 A 
ATOM     83  C   UNL     1     -14.028   2.288  18.616  1.00  0.00     0.020 A 
ATOM     84  C   UNL     1     -13.364   3.266  19.360  1.00  0.00     0.054 A 
BRANCH  84  85
ATOM     85  S   UNL     1     -13.618   3.381  21.152  1.00  0.00     0.124 S 
ATOM     86  O   UNL     1     -12.369   2.831  21.671  1.00  0.00    -0.237 OA
ATOM     87  O   UNL     1     -13.807   4.815  21.359  1.00  0.00    -0.237 OA
ATOM     88  O   UNL     1     -14.805   2.563  21.387  1.00  0.00    -0.744 OA
ENDBRANCH  84  85
ENDBRANCH  58  79
ENDBRANCH  32  33
ENDBRANCH  24  27
ENDBRANCH  22  23
ENDBRANCH  21  22
ENDBRANCH   1  21
TORSDOF 17
