REMARK SMILES Cc1cc(C(=O)N2[C@@H](C(=O)NCCCNC(=O)c3ccc(-c4c5nc(c(-c6ccc(S(=O)(=O)[O-])cc6)c6ccc([nH]6)c(-c6ccc(S(=O)(=O)[O-])cc6)c6nc(c(-c7ccc(S(=O)(=O)[O-])cc7)c7ccc4[nH]7)C=C6)C=C5)cc3)C[C@H]3CCCC[C@H]32)c(C)s1
REMARK SMILES IDX 13 1 12 2 11 3 9 4 10 5 8 7 7 8 84 9 78 10 79 11 83 12 80 13
REMARK SMILES IDX 82 14 81 15 5 16 6 17 4 18 1 19 2 20 3 21 87 22 85 23 86 24
REMARK SMILES IDX 14 25 15 26 16 27 17 29 18 30 19 31 77 32 20 33 76 34 21 35
REMARK SMILES IDX 22 36 23 37 70 38 24 39 75 40 69 41 71 42 25 43 74 44 68 45
REMARK SMILES IDX 67 46 26 48 56 49 37 50 55 51 38 52 41 53 54 54 72 55 39 56
REMARK SMILES IDX 40 57 53 59 73 60 42 61 27 62 28 63 36 64 29 65 35 66 30 67
REMARK SMILES IDX 31 68 32 69 33 70 34 71 57 72 58 73 66 74 59 75 65 76 60 77
REMARK SMILES IDX 61 78 62 79 63 80 64 81 43 82 44 83 52 84 45 85 51 86 46 87
REMARK SMILES IDX 47 88 48 89 49 90 50 91
REMARK H PARENT 11 6 15 28 71 47 41 58
REMARK Flexibility Score: inf
ROOT
ATOM      1  C   UNL     1       3.997  -4.649  -1.666  1.00  0.00     0.042 C 
ENDROOT
BRANCH   1   2
ATOM      2  C   UNL     1       2.893  -3.598  -1.590  1.00  0.00     0.117 C 
BRANCH   2   3
ATOM      3  N   UNL     1       1.744  -3.903  -2.427  1.00  0.00    -0.354 N 
ATOM      4  C   UNL     1       0.422  -4.082  -2.179  1.00  0.00     0.242 C 
ATOM      5  O   UNL     1      -0.293  -4.209  -3.185  1.00  0.00    -0.273 OA
ATOM      6  H   UNL     1       1.975  -4.000  -3.379  1.00  0.00     0.163 HD
BRANCH   4   7
ATOM      7  C   UNL     1      -0.235  -4.244  -0.786  1.00  0.00     0.175 C 
ATOM      8  N   UNL     1       0.497  -4.009   0.465  1.00  0.00    -0.323 N 
ATOM      9  C   UNL     1       0.596  -5.233   1.258  1.00  0.00     0.089 C 
ATOM     10  C   UNL     1      -0.739  -5.702  -0.660  1.00  0.00     0.041 C 
ATOM     11  C   UNL     1      -0.673  -5.983   0.845  1.00  0.00     0.014 C 
ATOM     12  C   UNL     1       1.873  -6.019   0.949  1.00  0.00     0.025 C 
ATOM     13  C   UNL     1      -0.693  -7.457   1.234  1.00  0.00     0.006 C 
ATOM     14  C   UNL     1       1.817  -7.442   1.490  1.00  0.00     0.002 C 
ATOM     15  C   UNL     1       0.610  -8.191   0.933  1.00  0.00     0.000 C 
BRANCH   8  16
ATOM     16  C   UNL     1       0.830  -2.789   1.039  1.00  0.00     0.255 C 
ATOM     17  O   UNL     1       1.578  -2.718   2.013  1.00  0.00    -0.269 OA
BRANCH  16  18
ATOM     18  C   UNL     1       0.238  -1.579   0.468  1.00  0.00     0.053 A 
ATOM     19  C   UNL     1      -2.802   0.553  -0.338  1.00  0.00     0.056 C 
ATOM     20  C   UNL     1      -1.465  -0.068  -0.126  1.00  0.00     0.003 A 
ATOM     21  C   UNL     1      -1.174  -1.315   0.380  1.00  0.00     0.029 A 
ATOM     22  S   UNL     1      -0.044   0.804  -0.481  1.00  0.00    -0.145 S 
ATOM     23  C   UNL     1       0.967  -0.465   0.075  1.00  0.00     0.014 A 
ATOM     24  C   UNL     1       2.444  -0.243   0.101  1.00  0.00     0.057 C 
ENDBRANCH  16  18
ENDBRANCH   8  16
ENDBRANCH   4   7
ENDBRANCH   2   3
ENDBRANCH   1   2
BRANCH   1  25
ATOM     25  C   UNL     1       4.728  -4.715  -3.001  1.00  0.00     0.118 C 
BRANCH  25  26
ATOM     26  N   UNL     1       5.589  -3.567  -3.226  1.00  0.00    -0.352 N 
ATOM     27  C   UNL     1       6.948  -3.403  -3.109  1.00  0.00     0.251 C 
ATOM     28  H   UNL     1       5.111  -2.757  -3.515  1.00  0.00     0.163 HD
ATOM     29  O   UNL     1       7.394  -2.256  -3.158  1.00  0.00    -0.269 OA
BRANCH  27  30
ATOM     30  C   UNL     1       7.887  -4.540  -2.924  1.00  0.00     0.039 A 
ATOM     31  C   UNL     1       9.058  -4.316  -2.186  1.00  0.00     0.014 A 
ATOM     32  C   UNL     1       7.710  -5.777  -3.547  1.00  0.00     0.014 A 
ATOM     33  C   UNL     1      10.024  -5.322  -2.059  1.00  0.00     0.010 A 
ATOM     34  C   UNL     1       8.634  -6.809  -3.352  1.00  0.00     0.010 A 
ATOM     35  C   UNL     1       9.817  -6.584  -2.634  1.00  0.00    -0.014 A 
BRANCH  35  36
ATOM     36  C   UNL     1      10.861  -7.645  -2.573  1.00  0.00     0.031 A 
ATOM     37  C   UNL     1      11.513  -8.133  -3.844  1.00  0.00     0.074 A 
ATOM     38  C   UNL     1      11.211  -8.198  -1.395  1.00  0.00     0.049 A 
ATOM     39  N   UNL     1      12.365  -9.113  -4.015  1.00  0.00    -0.248 NA
ATOM     40  C   UNL     1      11.133  -7.447  -5.090  1.00  0.00     0.031 C 
ATOM     41  C   UNL     1      10.651  -7.847  -0.088  1.00  0.00     0.029 A 
ATOM     42  N   UNL     1      12.130  -9.178  -1.110  1.00  0.00    -0.354 N 
ATOM     43  C   UNL     1      12.580  -9.194  -5.386  1.00  0.00     0.074 A 
ATOM     44  C   UNL     1      11.756  -8.177  -6.003  1.00  0.00     0.031 C 
ATOM     45  C   UNL     1      11.262  -8.577   0.861  1.00  0.00     0.029 A 
ATOM     46  C   UNL     1      12.233  -9.465   0.230  1.00  0.00     0.049 A 
ATOM     47  H   UNL     1      12.664  -9.632  -1.801  1.00  0.00     0.167 HD
ATOM     48  C   UNL     1      13.395 -10.029  -6.076  1.00  0.00     0.031 A 
ATOM     49  C   UNL     1      13.024 -10.341   0.879  1.00  0.00     0.031 A 
ATOM     50  C   UNL     1      14.264 -11.000  -5.472  1.00  0.00     0.049 A 
ATOM     51  C   UNL     1      13.987 -11.193   0.103  1.00  0.00     0.074 A 
ATOM     52  C   UNL     1      15.149 -11.870  -6.087  1.00  0.00     0.029 A 
ATOM     53  N   UNL     1      14.380 -11.210  -4.108  1.00  0.00    -0.354 N 
ATOM     54  N   UNL     1      14.167 -11.258  -1.194  1.00  0.00    -0.248 NA
ATOM     55  C   UNL     1      14.861 -12.084   0.881  1.00  0.00     0.031 C 
ATOM     56  C   UNL     1      15.801 -12.608  -5.091  1.00  0.00     0.029 A 
ATOM     57  C   UNL     1      15.333 -12.182  -3.858  1.00  0.00     0.049 A 
ATOM     58  H   UNL     1      13.862 -10.737  -3.417  1.00  0.00     0.167 HD
ATOM     59  C   UNL     1      15.184 -12.187  -1.386  1.00  0.00     0.074 A 
ATOM     60  C   UNL     1      15.588 -12.648  -0.074  1.00  0.00     0.031 C 
ATOM     61  C   UNL     1      15.730 -12.621  -2.547  1.00  0.00     0.031 A 
BRANCH  48  62
ATOM     62  C   UNL     1      13.370  -9.919  -7.575  1.00  0.00    -0.014 A 
ATOM     63  C   UNL     1      14.008  -8.853  -8.233  1.00  0.00     0.010 A 
ATOM     64  C   UNL     1      12.689 -10.888  -8.333  1.00  0.00     0.010 A 
ATOM     65  C   UNL     1      13.919  -8.727  -9.622  1.00  0.00     0.020 A 
ATOM     66  C   UNL     1      12.616 -10.776  -9.724  1.00  0.00     0.020 A 
ATOM     67  C   UNL     1      13.210  -9.682 -10.357  1.00  0.00     0.054 A 
BRANCH  67  68
ATOM     68  S   UNL     1      13.086  -9.499 -12.158  1.00  0.00     0.124 S 
ATOM     69  O   UNL     1      11.950  -8.590 -12.288  1.00  0.00    -0.237 OA
ATOM     70  O   UNL     1      14.384  -8.935 -12.523  1.00  0.00    -0.237 OA
ATOM     71  O   UNL     1      12.852 -10.863 -12.624  1.00  0.00    -0.744 OA
ENDBRANCH  67  68
ENDBRANCH  48  62
BRANCH  49  72
ATOM     72  C   UNL     1      12.967 -10.431   2.361  1.00  0.00    -0.014 A 
ATOM     73  C   UNL     1      13.954  -9.804   3.142  1.00  0.00     0.010 A 
ATOM     74  C   UNL     1      11.927 -11.132   2.995  1.00  0.00     0.010 A 
ATOM     75  C   UNL     1      13.910  -9.888   4.536  1.00  0.00     0.020 A 
ATOM     76  C   UNL     1      11.872 -11.204   4.389  1.00  0.00     0.020 A 
ATOM     77  C   UNL     1      12.870 -10.591   5.151  1.00  0.00     0.054 A 
BRANCH  77  78
ATOM     78  S   UNL     1      12.790 -10.646   6.963  1.00  0.00     0.124 S 
ATOM     79  O   UNL     1      13.670 -11.768   7.271  1.00  0.00    -0.237 OA
ATOM     80  O   UNL     1      13.285  -9.327   7.351  1.00  0.00    -0.237 OA
ATOM     81  O   UNL     1      11.370 -10.869   7.228  1.00  0.00    -0.744 OA
ENDBRANCH  77  78
ENDBRANCH  49  72
BRANCH  61  82
ATOM     82  C   UNL     1      16.842 -13.624  -2.446  1.00  0.00    -0.014 A 
ATOM     83  C   UNL     1      16.567 -14.985  -2.227  1.00  0.00     0.010 A 
ATOM     84  C   UNL     1      18.175 -13.205  -2.604  1.00  0.00     0.010 A 
ATOM     85  C   UNL     1      17.610 -15.910  -2.140  1.00  0.00     0.020 A 
ATOM     86  C   UNL     1      19.220 -14.129  -2.530  1.00  0.00     0.020 A 
ATOM     87  C   UNL     1      18.932 -15.474  -2.284  1.00  0.00     0.054 A 
BRANCH  87  88
ATOM     88  S   UNL     1      20.278 -16.689  -2.205  1.00  0.00     0.124 S 
ATOM     89  O   UNL     1      20.502 -16.798  -0.766  1.00  0.00    -0.237 OA
ATOM     90  O   UNL     1      19.695 -17.868  -2.841  1.00  0.00    -0.237 OA
ATOM     91  O   UNL     1      21.355 -16.053  -2.960  1.00  0.00    -0.744 OA
ENDBRANCH  87  88
ENDBRANCH  61  82
ENDBRANCH  35  36
ENDBRANCH  27  30
ENDBRANCH  25  26
ENDBRANCH   1  25
TORSDOF 15
