REMARK SMILES Cc1ccc(S(=O)(=O)Nc2ccc(C(=O)CCC(=O)NCCCNC(=O)c3ccc(-c4c5nc(c(-c6ccc(S(=O)(=O)[O-])cc6)c6ccc([nH]6)c(-c6ccc(S(=O)(=O)[O-])cc6)c6nc(c(-c7ccc(S(=O)(=O)[O-])cc7)c7ccc4[nH]7)C=C6)C=C5)cc3)cc2)c(C)c1
REMARK SMILES IDX 18 1 19 2 20 3 17 5 16 6 14 7 15 8 13 9 10 10 11 11 88 12
REMARK SMILES IDX 12 13 87 14 9 15 6 17 7 18 8 19 5 20 1 21 2 22 3 23 91 24
REMARK SMILES IDX 4 25 89 26 90 27 21 28 22 29 23 30 24 31 25 32 26 34 27 35
REMARK SMILES IDX 28 36 86 37 29 38 85 39 30 40 31 41 32 42 79 43 33 44 84 45
REMARK SMILES IDX 78 46 80 47 34 48 83 49 77 50 76 51 35 53 65 54 46 55 64 56
REMARK SMILES IDX 47 57 50 58 63 59 81 60 48 61 49 62 62 64 82 65 51 66 36 67
REMARK SMILES IDX 37 68 45 69 38 70 44 71 39 72 40 73 41 74 42 75 43 76 66 77
REMARK SMILES IDX 67 78 75 79 68 80 74 81 69 82 70 83 71 84 72 85 73 86 52 87
REMARK SMILES IDX 53 88 61 89 54 90 60 91 55 92 56 93 57 94 58 95 59 96
REMARK H PARENT 20 4 9 16 24 33 80 52 50 63
REMARK Flexibility Score: inf
ROOT
ATOM      1  C   UNL     1       3.833  -3.126   1.149  1.00  0.00     0.220 C 
ATOM      2  O   UNL     1       4.125  -2.550   2.197  1.00  0.00    -0.275 OA
ATOM      3  N   UNL     1       3.045  -2.455   0.242  1.00  0.00    -0.356 N 
ATOM      4  H   UNL     1       3.016  -1.475   0.329  1.00  0.00     0.163 HD
ENDROOT
BRANCH   1   5
ATOM      5  C   UNL     1       4.324  -4.560   0.864  1.00  0.00     0.108 C 
BRANCH   5   6
ATOM      6  C   UNL     1       3.583  -5.700   1.626  1.00  0.00     0.091 C 
BRANCH   6   7
ATOM      7  C   UNL     1       2.783  -6.726   0.761  1.00  0.00     0.163 C 
ATOM      8  O   UNL     1       3.305  -7.731   0.289  1.00  0.00    -0.294 OA
BRANCH   7   9
ATOM      9  C   UNL     1       1.392  -6.347   0.276  1.00  0.00     0.018 A 
ATOM     10  C   UNL     1      -0.371  -3.384  -0.887  1.00  0.00     0.049 A 
ATOM     11  C   UNL     1       0.616  -4.408  -2.066  1.00  0.00     0.027 A 
ATOM     12  C   UNL     1      -0.456  -3.873   0.838  1.00  0.00     0.027 A 
ATOM     13  C   UNL     1       1.432  -5.916  -1.491  1.00  0.00     0.014 A 
ATOM     14  C   UNL     1       0.409  -5.364   1.403  1.00  0.00     0.014 A 
BRANCH  10  15
ATOM     15  N   UNL     1      -1.477  -2.657  -1.471  1.00  0.00    -0.280 N 
ATOM     16  H   UNL     1      -1.817  -2.951  -2.347  1.00  0.00     0.180 HD
BRANCH  15  17
ATOM     17  S   UNL     1      -2.216  -1.328  -0.727  1.00  0.00     0.262 S 
ATOM     18  O   UNL     1      -2.431  -1.657   0.665  1.00  0.00    -0.201 OA
ATOM     19  O   UNL     1      -3.312  -0.948  -1.589  1.00  0.00    -0.201 OA
BRANCH  17  20
ATOM     20  C   UNL     1      -1.011  -0.034  -0.812  1.00  0.00     0.090 A 
ATOM     21  C   UNL     1       2.537   2.136   0.131  1.00  0.00     0.044 C 
ATOM     22  C   UNL     1       1.263   1.465  -0.280  1.00  0.00    -0.051 A 
ATOM     23  C   UNL     1       1.300   0.470  -1.255  1.00  0.00     0.005 A 
ATOM     24  C   UNL     1       0.029   1.833   0.276  1.00  0.00     0.008 A 
ATOM     25  C   UNL     1       0.154  -0.257  -1.543  1.00  0.00     0.023 A 
ATOM     26  C   UNL     1      -1.131   1.091   0.013  1.00  0.00    -0.030 A 
ATOM     27  C   UNL     1      -2.465   1.596   0.489  1.00  0.00     0.046 C 
ENDBRANCH  17  20
ENDBRANCH  15  17
ENDBRANCH  10  15
ENDBRANCH   7   9
ENDBRANCH   6   7
ENDBRANCH   5   6
ENDBRANCH   1   5
BRANCH   3  28
ATOM     28  C   UNL     1       2.242  -3.038  -0.841  1.00  0.00     0.117 C 
BRANCH  28  29
ATOM     29  C   UNL     1       1.354  -4.261  -0.172  1.00  0.00     0.042 C 
BRANCH  29  30
ATOM     30  C   UNL     1      -0.419  -5.458  -0.602  1.00  0.00     0.118 C 
BRANCH  30  31
ATOM     31  N   UNL     1      -1.475  -5.310  -1.885  1.00  0.00    -0.352 N 
ATOM     32  C   UNL     1      -2.568  -5.889  -2.408  1.00  0.00     0.251 C 
ATOM     33  H   UNL     1      -1.208  -4.545  -2.445  1.00  0.00     0.163 HD
ATOM     34  O   UNL     1      -2.941  -5.488  -3.510  1.00  0.00    -0.269 OA
BRANCH  32  35
ATOM     35  C   UNL     1      -3.320  -6.895  -1.706  1.00  0.00     0.039 A 
ATOM     36  C   UNL     1      -3.938  -7.869  -2.494  1.00  0.00     0.014 A 
ATOM     37  C   UNL     1      -3.534  -6.782  -0.335  1.00  0.00     0.014 A 
ATOM     38  C   UNL     1      -4.786  -8.763  -1.887  1.00  0.00     0.010 A 
ATOM     39  C   UNL     1      -4.310  -7.728   0.286  1.00  0.00     0.010 A 
ATOM     40  C   UNL     1      -4.949  -8.692  -0.500  1.00  0.00    -0.014 A 
BRANCH  40  41
ATOM     41  C   UNL     1      -5.824  -9.640   0.170  1.00  0.00     0.031 A 
ATOM     42  C   UNL     1      -7.104  -9.138   0.742  1.00  0.00     0.074 A 
ATOM     43  C   UNL     1      -5.364 -10.895   0.279  1.00  0.00     0.049 A 
ATOM     44  N   UNL     1      -7.998  -9.788   1.425  1.00  0.00    -0.248 NA
ATOM     45  C   UNL     1      -7.402  -7.702   0.564  1.00  0.00     0.031 C 
ATOM     46  C   UNL     1      -4.072 -11.368  -0.240  1.00  0.00     0.029 A 
ATOM     47  N   UNL     1      -5.919 -11.995   0.847  1.00  0.00    -0.354 N 
ATOM     48  C   UNL     1      -8.951  -8.843   1.779  1.00  0.00     0.074 A 
ATOM     49  C   UNL     1      -8.497  -7.562   1.294  1.00  0.00     0.031 C 
ATOM     50  C   UNL     1      -3.959 -12.682  -0.002  1.00  0.00     0.029 A 
ATOM     51  C   UNL     1      -5.146 -13.120   0.716  1.00  0.00     0.049 A 
ATOM     52  H   UNL     1      -6.790 -11.987   1.308  1.00  0.00     0.167 HD
ATOM     53  C   UNL     1     -10.112  -9.059   2.433  1.00  0.00     0.031 A 
ATOM     54  C   UNL     1      -5.400 -14.370   1.132  1.00  0.00     0.031 A 
ATOM     55  C   UNL     1     -10.497 -10.373   2.871  1.00  0.00     0.049 A 
ATOM     56  C   UNL     1      -6.720 -14.589   1.810  1.00  0.00     0.074 A 
ATOM     57  C   UNL     1     -11.654 -10.775   3.507  1.00  0.00     0.029 A 
ATOM     58  N   UNL     1      -9.713 -11.511   2.695  1.00  0.00    -0.354 N 
ATOM     59  N   UNL     1      -7.646 -13.703   2.106  1.00  0.00    -0.248 NA
ATOM     60  C   UNL     1      -7.048 -15.964   2.183  1.00  0.00     0.031 C 
ATOM     61  C   UNL     1     -11.549 -12.149   3.751  1.00  0.00     0.029 A 
ATOM     62  C   UNL     1     -10.356 -12.616   3.212  1.00  0.00     0.049 A 
ATOM     63  H   UNL     1      -8.828 -11.524   2.264  1.00  0.00     0.167 HD
ATOM     64  C   UNL     1      -8.687 -14.416   2.676  1.00  0.00     0.074 A 
ATOM     65  C   UNL     1      -8.274 -15.812   2.664  1.00  0.00     0.031 C 
ATOM     66  C   UNL     1      -9.874 -13.977   3.167  1.00  0.00     0.031 A 
BRANCH  53  67
ATOM     67  C   UNL     1     -10.997  -7.871   2.700  1.00  0.00    -0.014 A 
ATOM     68  C   UNL     1     -11.600  -7.157   1.645  1.00  0.00     0.010 A 
ATOM     69  C   UNL     1     -11.227  -7.449   4.021  1.00  0.00     0.010 A 
ATOM     70  C   UNL     1     -12.377  -6.023   1.903  1.00  0.00     0.020 A 
ATOM     71  C   UNL     1     -12.030  -6.333   4.286  1.00  0.00     0.020 A 
ATOM     72  C   UNL     1     -12.587  -5.619   3.224  1.00  0.00     0.054 A 
BRANCH  72  73
ATOM     73  S   UNL     1     -13.628  -4.165   3.531  1.00  0.00     0.124 S 
ATOM     74  O   UNL     1     -12.770  -3.075   3.074  1.00  0.00    -0.237 OA
ATOM     75  O   UNL     1     -14.800  -4.431   2.700  1.00  0.00    -0.237 OA
ATOM     76  O   UNL     1     -13.867  -4.207   4.972  1.00  0.00    -0.744 OA
ENDBRANCH  72  73
ENDBRANCH  53  67
BRANCH  54  77
ATOM     77  C   UNL     1      -4.428 -15.456   0.851  1.00  0.00    -0.014 A 
ATOM     78  C   UNL     1      -4.724 -16.450  -0.097  1.00  0.00     0.010 A 
ATOM     79  C   UNL     1      -3.164 -15.460   1.470  1.00  0.00     0.010 A 
ATOM     80  C   UNL     1      -3.788 -17.444  -0.398  1.00  0.00     0.020 A 
ATOM     81  C   UNL     1      -2.214 -16.434   1.151  1.00  0.00     0.020 A 
ATOM     82  C   UNL     1      -2.539 -17.430   0.229  1.00  0.00     0.054 A 
BRANCH  82  83
ATOM     83  S   UNL     1      -1.333 -18.715  -0.200  1.00  0.00     0.124 S 
ATOM     84  O   UNL     1      -1.916 -19.898   0.425  1.00  0.00    -0.237 OA
ATOM     85  O   UNL     1      -1.355 -18.694  -1.660  1.00  0.00    -0.237 OA
ATOM     86  O   UNL     1      -0.091 -18.236   0.404  1.00  0.00    -0.744 OA
ENDBRANCH  82  83
ENDBRANCH  54  77
BRANCH  66  87
ATOM     87  C   UNL     1     -10.801 -15.033   3.687  1.00  0.00    -0.014 A 
ATOM     88  C   UNL     1     -10.536 -15.698   4.895  1.00  0.00     0.010 A 
ATOM     89  C   UNL     1     -11.976 -15.323   2.971  1.00  0.00     0.010 A 
ATOM     90  C   UNL     1     -11.415 -16.674   5.359  1.00  0.00     0.020 A 
ATOM     91  C   UNL     1     -12.875 -16.272   3.452  1.00  0.00     0.020 A 
ATOM     92  C   UNL     1     -12.578 -16.953   4.634  1.00  0.00     0.054 A 
BRANCH  92  93
ATOM     93  S   UNL     1     -13.721 -18.200   5.279  1.00  0.00     0.124 S 
ATOM     94  O   UNL     1     -13.003 -19.440   5.002  1.00  0.00    -0.237 OA
ATOM     95  O   UNL     1     -13.827 -17.835   6.690  1.00  0.00    -0.237 OA
ATOM     96  O   UNL     1     -14.937 -17.993   4.495  1.00  0.00    -0.744 OA
ENDBRANCH  92  93
ENDBRANCH  66  87
ENDBRANCH  40  41
ENDBRANCH  32  35
ENDBRANCH  30  31
ENDBRANCH  29  30
ENDBRANCH  28  29
ENDBRANCH   3  28
TORSDOF 19
