REMARK SMILES C[C@H](Nc1nc(CC(=O)NCCCNC(=O)c2ccc(-c3c4nc(c(-c5ccc(S(=O)(=O)[O-])cc5)c5ccc([nH]5)c(-c5ccc(S(=O)(=O)[O-])cc5)c5nc(c(-c6ccc(S(=O)(=O)[O-])cc6)c6ccc3[nH]6)C=C5)C=C4)cc2)cs1)c1ccccc1
REMARK SMILES IDX 11 1 10 2 8 3 9 4 7 6 6 7 4 8 5 9 78 10 77 11 3 12 2 14 1 15
REMARK SMILES IDX 79 16 80 17 84 18 81 19 83 20 82 21 12 22 13 23 14 24 15 25
REMARK SMILES IDX 16 27 17 28 18 29 76 30 19 31 75 32 20 33 21 34 22 35 69 36
REMARK SMILES IDX 23 37 74 38 68 39 70 40 24 41 73 42 67 43 66 44 25 46 55 47
REMARK SMILES IDX 36 48 54 49 37 50 40 51 53 52 71 53 38 54 39 55 52 57 72 58
REMARK SMILES IDX 41 59 26 60 27 61 35 62 28 63 34 64 29 65 30 66 31 67 32 68
REMARK SMILES IDX 33 69 56 70 57 71 65 72 58 73 64 74 59 75 60 76 61 77 62 78
REMARK SMILES IDX 63 79 42 80 43 81 51 82 44 83 50 84 45 85 46 86 47 87 48 88
REMARK SMILES IDX 49 89
REMARK H PARENT 10 5 3 13 14 26 70 45 40 56
REMARK Flexibility Score: inf
ROOT
ATOM      1  C   UNL     1       5.401   2.427  -0.722  1.00  0.00     0.117 C 
ENDROOT
BRANCH   1   2
ATOM      2  N   UNL     1       5.394   3.596  -1.588  1.00  0.00    -0.356 N 
ATOM      3  C   UNL     1       4.406   4.520  -1.776  1.00  0.00     0.226 C 
ATOM      4  O   UNL     1       4.588   5.410  -2.611  1.00  0.00    -0.275 OA
ATOM      5  H   UNL     1       6.216   3.742  -2.110  1.00  0.00     0.163 HD
BRANCH   3   6
ATOM      6  C   UNL     1       3.140   4.472  -0.944  1.00  0.00     0.157 C 
BRANCH   6   7
ATOM      7  C   UNL     1       2.276   3.309  -1.289  1.00  0.00     0.063 A 
ATOM      8  C   UNL     1       1.277   1.397  -0.745  1.00  0.00     0.183 A 
ATOM      9  N   UNL     1       1.968   2.409  -0.282  1.00  0.00    -0.225 NA
ATOM     10  S   UNL     1       0.922   1.493  -2.431  1.00  0.00    -0.105 S 
ATOM     11  C   UNL     1       1.738   2.995  -2.520  1.00  0.00     0.093 A 
BRANCH   8  12
ATOM     12  N   UNL     1       0.875   0.320  -0.045  1.00  0.00    -0.355 N 
ATOM     13  H   UNL     1       0.786  -0.528  -0.537  1.00  0.00     0.163 HD
BRANCH  12  14
ATOM     14  C   UNL     1       0.561   0.299   1.376  1.00  0.00     0.108 C 
ATOM     15  C   UNL     1       1.243   1.356   2.246  1.00  0.00     0.036 C 
BRANCH  14  16
ATOM     16  C   UNL     1      -0.955   0.282   1.513  1.00  0.00    -0.026 A 
ATOM     17  C   UNL     1      -1.719   1.459   1.492  1.00  0.00     0.006 A 
ATOM     18  C   UNL     1      -1.628  -0.951   1.579  1.00  0.00     0.006 A 
ATOM     19  C   UNL     1      -3.112   1.406   1.571  1.00  0.00     0.000 A 
ATOM     20  C   UNL     1      -3.020  -1.002   1.650  1.00  0.00     0.000 A 
ATOM     21  C   UNL     1      -3.762   0.176   1.652  1.00  0.00     0.000 A 
ENDBRANCH  14  16
ENDBRANCH  12  14
ENDBRANCH   8  12
ENDBRANCH   6   7
ENDBRANCH   3   6
ENDBRANCH   1   2
BRANCH   1  22
ATOM     22  C   UNL     1       5.158   1.132  -1.494  1.00  0.00     0.042 C 
BRANCH  22  23
ATOM     23  C   UNL     1       6.252   0.780  -2.499  1.00  0.00     0.118 C 
BRANCH  23  24
ATOM     24  N   UNL     1       7.536   0.510  -1.867  1.00  0.00    -0.352 N 
ATOM     25  C   UNL     1       8.343  -0.597  -1.940  1.00  0.00     0.251 C 
ATOM     26  H   UNL     1       7.880   1.237  -1.298  1.00  0.00     0.163 HD
ATOM     27  O   UNL     1       9.311  -0.685  -1.182  1.00  0.00    -0.269 OA
BRANCH  25  28
ATOM     28  C   UNL     1       8.058  -1.688  -2.897  1.00  0.00     0.039 A 
ATOM     29  C   UNL     1       8.219  -3.013  -2.477  1.00  0.00     0.014 A 
ATOM     30  C   UNL     1       7.667  -1.420  -4.212  1.00  0.00     0.014 A 
ATOM     31  C   UNL     1       7.929  -4.063  -3.352  1.00  0.00     0.010 A 
ATOM     32  C   UNL     1       7.307  -2.467  -5.059  1.00  0.00     0.010 A 
ATOM     33  C   UNL     1       7.437  -3.800  -4.641  1.00  0.00    -0.014 A 
BRANCH  33  34
ATOM     34  C   UNL     1       7.047  -4.902  -5.560  1.00  0.00     0.031 A 
ATOM     35  C   UNL     1       7.777  -5.103  -6.861  1.00  0.00     0.074 A 
ATOM     36  C   UNL     1       5.989  -5.680  -5.257  1.00  0.00     0.049 A 
ATOM     37  N   UNL     1       7.545  -5.972  -7.812  1.00  0.00    -0.248 NA
ATOM     38  C   UNL     1       8.900  -4.194  -7.140  1.00  0.00     0.031 C 
ATOM     39  C   UNL     1       5.178  -5.572  -4.041  1.00  0.00     0.029 A 
ATOM     40  N   UNL     1       5.411  -6.716  -5.948  1.00  0.00    -0.354 N 
ATOM     41  C   UNL     1       8.473  -5.698  -8.811  1.00  0.00     0.074 A 
ATOM     42  C   UNL     1       9.242  -4.556  -8.368  1.00  0.00     0.031 C 
ATOM     43  C   UNL     1       4.233  -6.525  -4.057  1.00  0.00     0.029 A 
ATOM     44  C   UNL     1       4.337  -7.280  -5.301  1.00  0.00     0.049 A 
ATOM     45  H   UNL     1       5.735  -7.025  -6.825  1.00  0.00     0.167 HD
ATOM     46  C   UNL     1       8.674  -6.345  -9.985  1.00  0.00     0.031 A 
ATOM     47  C   UNL     1       3.522  -8.289  -5.667  1.00  0.00     0.031 A 
ATOM     48  C   UNL     1       7.911  -7.486 -10.419  1.00  0.00     0.049 A 
ATOM     49  C   UNL     1       3.750  -8.978  -6.984  1.00  0.00     0.074 A 
ATOM     50  C   UNL     1       8.083  -8.253 -11.558  1.00  0.00     0.029 A 
ATOM     51  N   UNL     1       6.825  -8.019  -9.740  1.00  0.00    -0.354 N 
ATOM     52  N   UNL     1       4.677  -8.750  -7.884  1.00  0.00    -0.248 NA
ATOM     53  C   UNL     1       2.827 -10.067  -7.331  1.00  0.00     0.031 C 
ATOM     54  C   UNL     1       7.062  -9.209 -11.600  1.00  0.00     0.029 A 
ATOM     55  C   UNL     1       6.295  -9.082 -10.452  1.00  0.00     0.049 A 
ATOM     56  H   UNL     1       6.481  -7.689  -8.878  1.00  0.00     0.167 HD
ATOM     57  C   UNL     1       4.468  -9.688  -8.889  1.00  0.00     0.074 A 
ATOM     58  C   UNL     1       3.333 -10.491  -8.482  1.00  0.00     0.031 C 
ATOM     59  C   UNL     1       5.160  -9.871 -10.041  1.00  0.00     0.031 A 
BRANCH  46  60
ATOM     60  C   UNL     1       9.749  -5.810 -10.898  1.00  0.00    -0.014 A 
ATOM     61  C   UNL     1      11.112  -5.892 -10.555  1.00  0.00     0.010 A 
ATOM     62  C   UNL     1       9.390  -5.230 -12.129  1.00  0.00     0.010 A 
ATOM     63  C   UNL     1      12.088  -5.351 -11.396  1.00  0.00     0.020 A 
ATOM     64  C   UNL     1      10.366  -4.716 -12.988  1.00  0.00     0.020 A 
ATOM     65  C   UNL     1      11.708  -4.758 -12.604  1.00  0.00     0.054 A 
BRANCH  65  66
ATOM     66  S   UNL     1      12.994  -4.056 -13.672  1.00  0.00     0.124 S 
ATOM     67  O   UNL     1      13.368  -2.850 -12.938  1.00  0.00    -0.237 OA
ATOM     68  O   UNL     1      14.002  -5.113 -13.698  1.00  0.00    -0.237 OA
ATOM     69  O   UNL     1      12.306  -3.825 -14.940  1.00  0.00    -0.744 OA
ENDBRANCH  65  66
ENDBRANCH  46  60
BRANCH  47  70
ATOM     70  C   UNL     1       2.434  -8.730  -4.752  1.00  0.00    -0.014 A 
ATOM     71  C   UNL     1       2.530  -9.961  -4.080  1.00  0.00     0.010 A 
ATOM     72  C   UNL     1       1.314  -7.910  -4.520  1.00  0.00     0.010 A 
ATOM     73  C   UNL     1       1.526 -10.367  -3.197  1.00  0.00     0.020 A 
ATOM     74  C   UNL     1       0.321  -8.301  -3.617  1.00  0.00     0.020 A 
ATOM     75  C   UNL     1       0.431  -9.531  -2.965  1.00  0.00     0.054 A 
BRANCH  75  76
ATOM     76  S   UNL     1      -0.821 -10.047  -1.757  1.00  0.00     0.124 S 
ATOM     77  O   UNL     1      -1.502 -11.125  -2.465  1.00  0.00    -0.237 OA
ATOM     78  O   UNL     1      -0.006 -10.453  -0.615  1.00  0.00    -0.237 OA
ATOM     79  O   UNL     1      -1.613  -8.836  -1.547  1.00  0.00    -0.744 OA
ENDBRANCH  75  76
ENDBRANCH  47  70
BRANCH  59  80
ATOM     80  C   UNL     1       4.737 -11.008 -10.934  1.00  0.00    -0.014 A 
ATOM     81  C   UNL     1       3.541 -10.955 -11.672  1.00  0.00     0.010 A 
ATOM     82  C   UNL     1       5.581 -12.125 -11.078  1.00  0.00     0.010 A 
ATOM     83  C   UNL     1       3.185 -12.011 -12.516  1.00  0.00     0.020 A 
ATOM     84  C   UNL     1       5.243 -13.168 -11.944  1.00  0.00     0.020 A 
ATOM     85  C   UNL     1       4.039 -13.110 -12.648  1.00  0.00     0.054 A 
BRANCH  85  86
ATOM     86  S   UNL     1       3.577 -14.444 -13.787  1.00  0.00     0.124 S 
ATOM     87  O   UNL     1       2.492 -15.100 -13.063  1.00  0.00    -0.237 OA
ATOM     88  O   UNL     1       3.181 -13.715 -14.990  1.00  0.00    -0.237 OA
ATOM     89  O   UNL     1       4.803 -15.229 -13.918  1.00  0.00    -0.744 OA
ENDBRANCH  85  86
ENDBRANCH  59  80
ENDBRANCH  33  34
ENDBRANCH  25  28
ENDBRANCH  23  24
ENDBRANCH  22  23
ENDBRANCH   1  22
TORSDOF 17
