REMARK SMILES Cc1ccc(S(=O)(=O)n2cc(C(=O)C(=O)N[C@H](Cc3c[nH]c4ccccc34)C(=O)NCC(=O)NCCCNC(=O)c3ccc(-c4c5nc(c(-c6ccc(S(=O)(=O)[O-])cc6)c6ccc([nH]6)c(-c6ccc(S(=O)(=O)[O-])cc6)c6nc(c(-c7ccc(S(=O)(=O)[O-])cc7)c7ccc4[nH]7)C=C6)C=C5)cc3)c3ccccc32)cc1
REMARK SMILES IDX 32 1 33 2 34 3 31 5 30 6 28 7 29 8 17 10 16 11 14 12 15 13
REMARK SMILES IDX 12 15 13 16 11 17 9 18 10 19 106 20 101 21 105 22 102 23
REMARK SMILES IDX 104 24 103 25 6 26 7 27 8 28 5 29 1 30 2 31 3 32 108 33 4 34
REMARK SMILES IDX 107 35 18 36 19 37 20 38 27 39 21 40 22 41 26 42 23 44 25 45
REMARK SMILES IDX 24 46 35 47 36 48 37 49 38 50 39 51 40 53 41 54 42 55 100 56
REMARK SMILES IDX 43 57 99 58 44 59 45 60 46 61 93 62 47 63 98 64 92 65 94 66
REMARK SMILES IDX 48 67 97 68 91 69 90 70 49 72 79 73 60 74 78 75 61 76 64 77
REMARK SMILES IDX 77 78 95 79 62 80 63 81 76 83 96 84 65 85 50 86 51 87 59 88
REMARK SMILES IDX 52 89 58 90 53 91 54 92 55 93 56 94 57 95 80 96 81 97 89 98
REMARK SMILES IDX 82 99 88 100 83 101 84 102 85 103 86 104 87 105 66 106
REMARK SMILES IDX 67 107 75 108 68 109 74 110 69 111 70 112 71 113 72 114
REMARK SMILES IDX 73 115
REMARK H PARENT 34 4 30 9 16 14 21 43 38 52 94 71 64 82
REMARK Flexibility Score: inf
ROOT
ATOM      1  C   UNL     1     -13.331   4.846  -2.277  1.00  0.00     0.239 C 
ATOM      2  O   UNL     1     -14.269   5.640  -2.395  1.00  0.00    -0.273 OA
ATOM      3  N   UNL     1     -12.146   5.159  -2.873  1.00  0.00    -0.355 N 
ATOM      4  H   UNL     1     -12.170   5.928  -3.486  1.00  0.00     0.163 HD
ENDROOT
BRANCH   1   5
ATOM      5  C   UNL     1     -13.466   3.635  -1.341  1.00  0.00     0.216 C 
BRANCH   5   6
ATOM      6  N   UNL     1     -12.805   2.427  -1.774  1.00  0.00    -0.345 N 
ATOM      7  C   UNL     1     -11.964   1.544  -1.194  1.00  0.00     0.243 C 
ATOM      8  O   UNL     1     -11.725   0.561  -1.910  1.00  0.00    -0.273 OA
ATOM      9  H   UNL     1     -13.015   2.194  -2.707  1.00  0.00     0.164 HD
BRANCH   7  10
ATOM     10  C   UNL     1     -11.305   1.646   0.222  1.00  0.00     0.176 C 
BRANCH  10  11
ATOM     11  N   UNL     1     -12.077   2.213   1.393  1.00  0.00    -0.337 N 
ATOM     12  C   UNL     1     -12.208   3.473   1.979  1.00  0.00     0.293 C 
ATOM     13  O   UNL     1     -12.879   3.606   2.998  1.00  0.00    -0.265 OA
ATOM     14  H   UNL     1     -12.617   1.529   1.852  1.00  0.00     0.164 HD
BRANCH  12  15
ATOM     15  C   UNL     1     -11.565   4.692   1.335  1.00  0.00     0.252 C 
ATOM     16  O   UNL     1     -10.937   4.426   0.312  1.00  0.00    -0.283 OA
BRANCH  15  17
ATOM     17  C   UNL     1     -11.584   6.094   1.783  1.00  0.00     0.054 A 
ATOM     18  N   UNL     1     -11.472   8.120   2.791  1.00  0.00    -0.240 N 
ATOM     19  C   UNL     1     -12.058   6.829   2.877  1.00  0.00     0.117 A 
ATOM     20  C   UNL     1     -10.428   7.983   1.855  1.00  0.00     0.065 A 
ATOM     21  C   UNL     1     -10.995   7.091   0.960  1.00  0.00     0.012 A 
ATOM     22  C   UNL     1      -9.409   8.863   1.468  1.00  0.00     0.028 A 
ATOM     23  C   UNL     1     -10.797   7.282  -0.413  1.00  0.00     0.011 A 
ATOM     24  C   UNL     1      -9.284   9.078   0.090  1.00  0.00     0.002 A 
ATOM     25  C   UNL     1     -10.001   8.334  -0.842  1.00  0.00     0.001 A 
BRANCH  18  26
ATOM     26  S   UNL     1     -12.385   9.610   2.427  1.00  0.00     0.268 S 
ATOM     27  O   UNL     1     -13.339   9.225   1.405  1.00  0.00    -0.201 OA
ATOM     28  O   UNL     1     -11.324  10.574   2.164  1.00  0.00    -0.201 OA
BRANCH  26  29
ATOM     29  C   UNL     1     -13.294  10.466   3.660  1.00  0.00     0.088 A 
ATOM     30  C   UNL     1     -15.191  13.310   6.277  1.00  0.00     0.044 C 
ATOM     31  C   UNL     1     -14.599  12.283   5.359  1.00  0.00    -0.051 A 
ATOM     32  C   UNL     1     -14.060  12.737   4.164  1.00  0.00     0.005 A 
ATOM     33  C   UNL     1     -14.510  10.909   5.677  1.00  0.00     0.005 A 
ATOM     34  C   UNL     1     -13.438  11.835   3.325  1.00  0.00     0.022 A 
ATOM     35  C   UNL     1     -13.850   9.986   4.831  1.00  0.00     0.022 A 
ENDBRANCH  26  29
ENDBRANCH  18  26
ENDBRANCH  15  17
ENDBRANCH  12  15
ENDBRANCH  10  11
BRANCH  10  36
ATOM     36  C   UNL     1      -9.750   1.794   0.310  1.00  0.00     0.072 C 
BRANCH  36  37
ATOM     37  C   UNL     1      -8.891   1.676  -0.926  1.00  0.00    -0.020 A 
ATOM     38  C   UNL     1      -8.064   2.679  -1.400  1.00  0.00     0.087 A 
ATOM     39  C   UNL     1      -8.631   0.533  -1.765  1.00  0.00     0.003 A 
ATOM     40  N   UNL     1      -7.349   2.212  -2.476  1.00  0.00    -0.361 N 
ATOM     41  C   UNL     1      -7.767   0.939  -2.789  1.00  0.00     0.046 A 
ATOM     42  C   UNL     1      -9.055  -0.813  -1.765  1.00  0.00     0.010 A 
ATOM     43  H   UNL     1      -6.646   2.711  -2.950  1.00  0.00     0.166 HD
ATOM     44  C   UNL     1      -7.417   0.113  -3.867  1.00  0.00     0.026 A 
ATOM     45  C   UNL     1      -8.686  -1.665  -2.816  1.00  0.00     0.001 A 
ATOM     46  C   UNL     1      -7.903  -1.198  -3.868  1.00  0.00     0.002 A 
ENDBRANCH  36  37
ENDBRANCH  10  36
ENDBRANCH   7  10
ENDBRANCH   5   6
ENDBRANCH   1   5
BRANCH   3  47
ATOM     47  C   UNL     1     -10.852   4.515  -2.727  1.00  0.00     0.117 C 
BRANCH  47  48
ATOM     48  C   UNL     1     -10.530   3.647  -3.926  1.00  0.00     0.042 C 
BRANCH  48  49
ATOM     49  C   UNL     1      -9.595   4.351  -4.893  1.00  0.00     0.118 C 
BRANCH  49  50
ATOM     50  N   UNL     1      -8.234   4.418  -4.389  1.00  0.00    -0.352 N 
ATOM     51  C   UNL     1      -6.984   4.371  -4.984  1.00  0.00     0.251 C 
ATOM     52  H   UNL     1      -8.191   4.519  -3.411  1.00  0.00     0.163 HD
ATOM     53  O   UNL     1      -6.027   4.260  -4.270  1.00  0.00    -0.269 OA
BRANCH  51  54
ATOM     54  C   UNL     1      -6.751   4.617  -6.455  1.00  0.00     0.039 A 
ATOM     55  C   UNL     1      -5.719   5.566  -6.559  1.00  0.00     0.014 A 
ATOM     56  C   UNL     1      -7.886   4.816  -7.213  1.00  0.00     0.014 A 
ATOM     57  C   UNL     1      -6.094   6.888  -6.709  1.00  0.00     0.010 A 
ATOM     58  C   UNL     1      -8.329   6.111  -7.266  1.00  0.00     0.010 A 
ATOM     59  C   UNL     1      -7.446   7.133  -6.904  1.00  0.00    -0.014 A 
BRANCH  59  60
ATOM     60  C   UNL     1      -8.026   8.451  -6.899  1.00  0.00     0.031 A 
ATOM     61  C   UNL     1      -8.143   9.066  -8.228  1.00  0.00     0.074 A 
ATOM     62  C   UNL     1      -8.495   8.966  -5.742  1.00  0.00     0.049 A 
ATOM     63  N   UNL     1      -8.334  10.312  -8.454  1.00  0.00    -0.248 NA
ATOM     64  C   UNL     1      -7.962   8.280  -9.454  1.00  0.00     0.031 C 
ATOM     65  C   UNL     1      -9.300  10.170  -5.567  1.00  0.00     0.029 A 
ATOM     66  N   UNL     1      -8.115   8.626  -4.436  1.00  0.00    -0.354 N 
ATOM     67  C   UNL     1      -8.633  10.430  -9.794  1.00  0.00     0.074 A 
ATOM     68  C   UNL     1      -8.255   9.179 -10.390  1.00  0.00     0.031 C 
ATOM     69  C   UNL     1      -9.074  10.651  -4.330  1.00  0.00     0.029 A 
ATOM     70  C   UNL     1      -7.998   9.849  -3.759  1.00  0.00     0.049 A 
ATOM     71  H   UNL     1      -7.963   7.723  -4.073  1.00  0.00     0.167 HD
ATOM     72  C   UNL     1      -9.342  11.517 -10.197  1.00  0.00     0.031 A 
ATOM     73  C   UNL     1      -6.783  10.346  -3.376  1.00  0.00     0.031 A 
ATOM     74  C   UNL     1      -9.366  12.511  -9.123  1.00  0.00     0.049 A 
ATOM     75  C   UNL     1      -6.483  11.663  -4.093  1.00  0.00     0.074 A 
ATOM     76  C   UNL     1     -10.302  12.834  -8.155  1.00  0.00     0.029 A 
ATOM     77  N   UNL     1      -8.145  13.008  -8.665  1.00  0.00    -0.354 N 
ATOM     78  N   UNL     1      -6.982  12.002  -5.257  1.00  0.00    -0.248 NA
ATOM     79  C   UNL     1      -5.661  12.725  -3.518  1.00  0.00     0.031 C 
ATOM     80  C   UNL     1      -9.599  13.391  -7.044  1.00  0.00     0.029 A 
ATOM     81  C   UNL     1      -8.249  13.444  -7.356  1.00  0.00     0.049 A 
ATOM     82  H   UNL     1      -7.320  13.043  -9.202  1.00  0.00     0.167 HD
ATOM     83  C   UNL     1      -6.633  13.298  -5.557  1.00  0.00     0.074 A 
ATOM     84  C   UNL     1      -5.788  13.696  -4.441  1.00  0.00     0.031 C 
ATOM     85  C   UNL     1      -7.073  13.972  -6.667  1.00  0.00     0.031 A 
BRANCH  72  86
ATOM     86  C   UNL     1     -10.245  11.502 -11.413  1.00  0.00    -0.014 A 
ATOM     87  C   UNL     1     -11.293  12.437 -11.506  1.00  0.00     0.010 A 
ATOM     88  C   UNL     1     -10.193  10.540 -12.445  1.00  0.00     0.010 A 
ATOM     89  C   UNL     1     -12.250  12.386 -12.537  1.00  0.00     0.020 A 
ATOM     90  C   UNL     1     -11.147  10.464 -13.469  1.00  0.00     0.020 A 
ATOM     91  C   UNL     1     -12.176  11.390 -13.509  1.00  0.00     0.054 A 
BRANCH  91  92
ATOM     92  S   UNL     1     -13.416  11.323 -14.827  1.00  0.00     0.124 S 
ATOM     93  O   UNL     1     -14.660  11.153 -14.081  1.00  0.00    -0.237 OA
ATOM     94  O   UNL     1     -13.242  12.614 -15.484  1.00  0.00    -0.237 OA
ATOM     95  O   UNL     1     -13.014  10.165 -15.624  1.00  0.00    -0.744 OA
ENDBRANCH  91  92
ENDBRANCH  72  86
BRANCH  73  96
ATOM     96  C   UNL     1      -5.796   9.316  -2.905  1.00  0.00    -0.014 A 
ATOM     97  C   UNL     1      -6.128   8.576  -1.746  1.00  0.00     0.010 A 
ATOM     98  C   UNL     1      -4.742   8.827  -3.692  1.00  0.00     0.010 A 
ATOM     99  C   UNL     1      -5.523   7.353  -1.432  1.00  0.00     0.020 A 
ATOM    100  C   UNL     1      -4.113   7.598  -3.376  1.00  0.00     0.020 A 
ATOM    101  C   UNL     1      -4.526   6.855  -2.261  1.00  0.00     0.054 A 
BRANCH 101 102
ATOM    102  S   UNL     1      -3.813   5.223  -1.857  1.00  0.00     0.124 S 
ATOM    103  O   UNL     1      -3.100   5.509  -0.613  1.00  0.00    -0.237 OA
ATOM    104  O   UNL     1      -4.990   4.372  -1.693  1.00  0.00    -0.237 OA
ATOM    105  O   UNL     1      -2.956   4.927  -3.003  1.00  0.00    -0.744 OA
ENDBRANCH 101 102
ENDBRANCH  73  96
BRANCH  85 106
ATOM    106  C   UNL     1      -6.482  15.263  -7.208  1.00  0.00    -0.014 A 
ATOM    107  C   UNL     1      -5.205  15.743  -6.885  1.00  0.00     0.010 A 
ATOM    108  C   UNL     1      -7.180  15.962  -8.229  1.00  0.00     0.010 A 
ATOM    109  C   UNL     1      -4.677  16.890  -7.499  1.00  0.00     0.020 A 
ATOM    110  C   UNL     1      -6.639  17.066  -8.892  1.00  0.00     0.020 A 
ATOM    111  C   UNL     1      -5.397  17.543  -8.500  1.00  0.00     0.054 A 
BRANCH 111 112
ATOM    112  S   UNL     1      -4.675  18.979  -9.330  1.00  0.00     0.124 S 
ATOM    113  O   UNL     1      -5.020  20.060  -8.410  1.00  0.00    -0.237 OA
ATOM    114  O   UNL     1      -3.255  18.639  -9.393  1.00  0.00    -0.237 OA
ATOM    115  O   UNL     1      -5.358  19.011 -10.620  1.00  0.00    -0.744 OA
ENDBRANCH 111 112
ENDBRANCH  85 106
ENDBRANCH  59  60
ENDBRANCH  51  54
ENDBRANCH  49  50
ENDBRANCH  48  49
ENDBRANCH  47  48
ENDBRANCH   3  47
TORSDOF 22
