REMARK SMILES COc1cc(C(=O)NC2(C(=O)NCCCNC(=O)c3ccc(-c4c5nc(c(-c6ccc(S(=O)(=O)[O-])cc6)c6ccc([nH]6)c(-c6ccc(S(=O)(=O)[O-])cc6)c6nc(c(-c7ccc(S(=O)(=O)[O-])cc7)c7ccc4[nH]7)C=C6)C=C5)cc3)CCCCC2)cc2c1OCCO2
REMARK SMILES IDX 14 1 13 2 12 3 10 4 11 5 9 7 79 8 83 9 80 10 82 11 81 12
REMARK SMILES IDX 8 13 6 14 7 15 5 17 3 18 4 19 86 20 85 21 87 22 84 23 90 24
REMARK SMILES IDX 88 25 89 26 2 27 1 28 15 29 16 30 17 31 18 33 19 34 20 35
REMARK SMILES IDX 78 36 21 37 77 38 22 39 23 40 24 41 71 42 25 43 76 44 70 45
REMARK SMILES IDX 72 46 26 47 75 48 69 49 68 50 27 52 57 53 38 54 56 55 39 56
REMARK SMILES IDX 42 57 55 58 73 59 40 60 41 61 54 63 74 64 43 65 28 66 29 67
REMARK SMILES IDX 37 68 30 69 36 70 31 71 32 72 33 73 34 74 35 75 58 76 59 77
REMARK SMILES IDX 67 78 60 79 66 80 61 81 62 82 63 83 64 84 65 85 44 86 45 87
REMARK SMILES IDX 53 88 46 89 52 90 47 91 48 92 49 93 50 94 51 95
REMARK H PARENT 12 6 8 16 16 32 72 51 42 62
REMARK Flexibility Score: inf
ROOT
ATOM      1  C   UNL     1      -5.008  -0.811  -0.845  1.00  0.00     0.042 C 
ENDROOT
BRANCH   1   2
ATOM      2  C   UNL     1      -5.024  -1.998  -1.797  1.00  0.00     0.117 C 
BRANCH   2   3
ATOM      3  N   UNL     1      -5.008  -1.645  -3.204  1.00  0.00    -0.354 N 
ATOM      4  C   UNL     1      -3.992  -1.625  -4.121  1.00  0.00     0.245 C 
ATOM      5  O   UNL     1      -4.325  -1.507  -5.308  1.00  0.00    -0.272 OA
ATOM      6  H   UNL     1      -5.883  -1.372  -3.562  1.00  0.00     0.163 HD
BRANCH   4   7
ATOM      7  C   UNL     1      -2.464  -1.731  -3.718  1.00  0.00     0.119 C 
ATOM      8  C   UNL     1      -2.201  -3.159  -3.209  1.00  0.00     0.038 C 
ATOM      9  C   UNL     1      -2.168  -0.523  -2.825  1.00  0.00     0.038 C 
ATOM     10  C   UNL     1      -1.883  -3.382  -1.736  1.00  0.00     0.003 C 
ATOM     11  C   UNL     1      -1.756  -0.762  -1.383  1.00  0.00     0.003 C 
ATOM     12  C   UNL     1      -1.659  -2.179  -0.829  1.00  0.00     0.000 C 
BRANCH   7  13
ATOM     13  N   UNL     1      -1.722  -1.582  -5.030  1.00  0.00    -0.338 N 
ATOM     14  C   UNL     1      -0.415  -1.447  -5.452  1.00  0.00     0.252 C 
ATOM     15  O   UNL     1      -0.216  -1.442  -6.670  1.00  0.00    -0.269 OA
ATOM     16  H   UNL     1      -2.345  -1.581  -5.793  1.00  0.00     0.164 HD
BRANCH  14  17
ATOM     17  C   UNL     1       0.771  -1.243  -4.558  1.00  0.00     0.047 A 
ATOM     18  C   UNL     1       1.812  -1.177  -2.352  1.00  0.00     0.165 A 
ATOM     19  C   UNL     1       0.785  -1.571  -3.210  1.00  0.00     0.064 A 
ATOM     20  C   UNL     1       2.964  -0.615  -2.874  1.00  0.00     0.203 A 
ATOM     21  C   UNL     1       3.054  -0.441  -4.259  1.00  0.00     0.166 A 
ATOM     22  O   UNL     1       3.977  -0.318  -2.002  1.00  0.00    -0.483 OA
ATOM     23  C   UNL     1       1.951  -0.697  -5.089  1.00  0.00     0.064 A 
ATOM     24  O   UNL     1       4.218  -0.031  -4.866  1.00  0.00    -0.486 OA
ATOM     25  C   UNL     1       5.048   0.380  -2.635  1.00  0.00     0.271 C 
ATOM     26  C   UNL     1       5.336  -0.242  -3.989  1.00  0.00     0.271 C 
BRANCH  18  27
ATOM     27  O   UNL     1       1.631  -1.421  -1.016  1.00  0.00    -0.493 OA
ATOM     28  C   UNL     1       1.645  -0.214  -0.241  1.00  0.00     0.278 C 
ENDBRANCH  18  27
ENDBRANCH  14  17
ENDBRANCH   7  13
ENDBRANCH   4   7
ENDBRANCH   2   3
ENDBRANCH   1   2
BRANCH   1  29
ATOM     29  C   UNL     1      -6.282  -0.659  -0.041  1.00  0.00     0.118 C 
BRANCH  29  30
ATOM     30  N   UNL     1      -6.492  -1.768   0.883  1.00  0.00    -0.352 N 
ATOM     31  C   UNL     1      -6.776  -1.770   2.231  1.00  0.00     0.251 C 
ATOM     32  H   UNL     1      -6.418  -2.661   0.477  1.00  0.00     0.163 HD
ATOM     33  O   UNL     1      -6.768  -2.835   2.836  1.00  0.00    -0.269 OA
BRANCH  31  34
ATOM     34  C   UNL     1      -7.053  -0.503   2.950  1.00  0.00     0.039 A 
ATOM     35  C   UNL     1      -6.660  -0.383   4.285  1.00  0.00     0.014 A 
ATOM     36  C   UNL     1      -7.695   0.565   2.323  1.00  0.00     0.014 A 
ATOM     37  C   UNL     1      -6.857   0.825   4.959  1.00  0.00     0.010 A 
ATOM     38  C   UNL     1      -7.755   1.804   2.943  1.00  0.00     0.010 A 
ATOM     39  C   UNL     1      -7.369   1.944   4.280  1.00  0.00    -0.014 A 
BRANCH  39  40
ATOM     40  C   UNL     1      -7.543   3.252   4.960  1.00  0.00     0.031 A 
ATOM     41  C   UNL     1      -8.909   3.888   5.041  1.00  0.00     0.074 A 
ATOM     42  C   UNL     1      -6.466   3.887   5.464  1.00  0.00     0.049 A 
ATOM     43  N   UNL     1      -9.258   5.022   5.592  1.00  0.00    -0.248 NA
ATOM     44  C   UNL     1     -10.024   3.179   4.387  1.00  0.00     0.031 C 
ATOM     45  C   UNL     1      -5.083   3.408   5.383  1.00  0.00     0.029 A 
ATOM     46  N   UNL     1      -6.364   5.069   6.153  1.00  0.00    -0.354 N 
ATOM     47  C   UNL     1     -10.617   5.167   5.334  1.00  0.00     0.074 A 
ATOM     48  C   UNL     1     -11.015   4.047   4.513  1.00  0.00     0.031 C 
ATOM     49  C   UNL     1      -4.282   4.255   6.048  1.00  0.00     0.029 A 
ATOM     50  C   UNL     1      -5.084   5.358   6.564  1.00  0.00     0.049 A 
ATOM     51  H   UNL     1      -7.134   5.654   6.336  1.00  0.00     0.167 HD
ATOM     52  C   UNL     1     -11.469   6.125   5.769  1.00  0.00     0.031 A 
ATOM     53  C   UNL     1      -4.611   6.392   7.287  1.00  0.00     0.031 A 
ATOM     54  C   UNL     1     -11.069   7.224   6.606  1.00  0.00     0.049 A 
ATOM     55  C   UNL     1      -5.579   7.431   7.781  1.00  0.00     0.074 A 
ATOM     56  C   UNL     1     -11.858   8.218   7.156  1.00  0.00     0.029 A 
ATOM     57  N   UNL     1      -9.768   7.471   7.015  1.00  0.00    -0.354 N 
ATOM     58  N   UNL     1      -6.875   7.509   7.589  1.00  0.00    -0.248 NA
ATOM     59  C   UNL     1      -5.024   8.509   8.608  1.00  0.00     0.031 C 
ATOM     60  C   UNL     1     -11.024   9.099   7.852  1.00  0.00     0.029 A 
ATOM     61  C   UNL     1      -9.727   8.613   7.796  1.00  0.00     0.049 A 
ATOM     62  H   UNL     1      -8.988   6.916   6.785  1.00  0.00     0.167 HD
ATOM     63  C   UNL     1      -7.295   8.627   8.300  1.00  0.00     0.074 A 
ATOM     64  C   UNL     1      -6.118   9.180   8.940  1.00  0.00     0.031 C 
ATOM     65  C   UNL     1      -8.542   9.149   8.417  1.00  0.00     0.031 A 
BRANCH  52  66
ATOM     66  C   UNL     1     -12.914   6.019   5.351  1.00  0.00    -0.014 A 
ATOM     67  C   UNL     1     -13.734   4.974   5.818  1.00  0.00     0.010 A 
ATOM     68  C   UNL     1     -13.470   6.994   4.504  1.00  0.00     0.010 A 
ATOM     69  C   UNL     1     -15.068   4.881   5.410  1.00  0.00     0.020 A 
ATOM     70  C   UNL     1     -14.814   6.924   4.121  1.00  0.00     0.020 A 
ATOM     71  C   UNL     1     -15.599   5.858   4.564  1.00  0.00     0.054 A 
BRANCH  71  72
ATOM     72  S   UNL     1     -17.341   5.728   4.075  1.00  0.00     0.124 S 
ATOM     73  O   UNL     1     -17.312   4.588   3.162  1.00  0.00    -0.237 OA
ATOM     74  O   UNL     1     -18.013   5.494   5.351  1.00  0.00    -0.237 OA
ATOM     75  O   UNL     1     -17.624   7.018   3.451  1.00  0.00    -0.744 OA
ENDBRANCH  71  72
ENDBRANCH  52  66
BRANCH  53  76
ATOM     76  C   UNL     1      -3.160   6.469   7.616  1.00  0.00    -0.014 A 
ATOM     77  C   UNL     1      -2.713   6.283   8.936  1.00  0.00     0.010 A 
ATOM     78  C   UNL     1      -2.213   6.711   6.604  1.00  0.00     0.010 A 
ATOM     79  C   UNL     1      -1.351   6.361   9.242  1.00  0.00     0.020 A 
ATOM     80  C   UNL     1      -0.848   6.758   6.900  1.00  0.00     0.020 A 
ATOM     81  C   UNL     1      -0.426   6.596   8.221  1.00  0.00     0.054 A 
BRANCH  81  82
ATOM     82  S   UNL     1       1.340   6.644   8.632  1.00  0.00     0.124 S 
ATOM     83  O   UNL     1       1.453   7.915   9.340  1.00  0.00    -0.237 OA
ATOM     84  O   UNL     1       1.506   5.445   9.450  1.00  0.00    -0.237 OA
ATOM     85  O   UNL     1       1.996   6.593   7.327  1.00  0.00    -0.744 OA
ENDBRANCH  81  82
ENDBRANCH  53  76
BRANCH  65  86
ATOM     86  C   UNL     1      -8.701  10.354   9.307  1.00  0.00    -0.014 A 
ATOM     87  C   UNL     1      -8.170  11.606   8.952  1.00  0.00     0.010 A 
ATOM     88  C   UNL     1      -9.419  10.229  10.511  1.00  0.00     0.010 A 
ATOM     89  C   UNL     1      -8.304  12.698   9.813  1.00  0.00     0.020 A 
ATOM     90  C   UNL     1      -9.587  11.326  11.357  1.00  0.00     0.020 A 
ATOM     91  C   UNL     1      -9.008  12.549  11.013  1.00  0.00     0.054 A 
BRANCH  91  92
ATOM     92  S   UNL     1      -9.173  13.982  12.111  1.00  0.00     0.124 S 
ATOM     93  O   UNL     1      -7.826  14.097  12.663  1.00  0.00    -0.237 OA
ATOM     94  O   UNL     1      -9.570  15.045  11.192  1.00  0.00    -0.237 OA
ATOM     95  O   UNL     1     -10.203  13.572  13.063  1.00  0.00    -0.744 OA
ENDBRANCH  91  92
ENDBRANCH  65  86
ENDBRANCH  39  40
ENDBRANCH  31  34
ENDBRANCH  29  30
ENDBRANCH   1  29
TORSDOF 16
