REMARK SMILES CCC[NH2+][C@]1(C(=O)NCCCNC(=O)c2ccc(-c3c4nc(c(-c5ccc(S(=O)(=O)[O-])cc5)c5ccc([nH]5)c(-c5ccc(S(=O)(=O)[O-])cc5)c5nc(c(-c6ccc(S(=O)(=O)[O-])cc6)c6ccc3[nH]6)C=C5)C=C4)cc2)CCC[C@H](Sc2nnc(C)o2)C1
REMARK SMILES IDX 10 1 9 2 8 3 6 4 7 5 5 7 75 8 86 9 76 10 78 11 77 12 4 13
REMARK SMILES IDX 3 16 2 17 1 18 79 19 80 20 81 21 85 22 82 23 83 24 84 25
REMARK SMILES IDX 11 26 12 27 13 28 14 30 15 31 16 32 74 33 17 34 73 35 18 36
REMARK SMILES IDX 19 37 20 38 67 39 21 40 72 41 66 42 68 43 22 44 71 45 65 46
REMARK SMILES IDX 64 47 23 49 53 50 34 51 52 52 35 53 38 54 51 55 69 56 36 57
REMARK SMILES IDX 37 58 50 60 70 61 39 62 24 63 25 64 33 65 26 66 32 67 27 68
REMARK SMILES IDX 28 69 29 70 30 71 31 72 54 73 55 74 63 75 56 76 62 77 57 78
REMARK SMILES IDX 58 79 59 80 60 81 61 82 40 83 41 84 49 85 42 86 48 87 43 88
REMARK SMILES IDX 44 89 45 90 46 91 47 92
REMARK H PARENT 8 6 4 14 4 15 12 29 68 48 38 59
REMARK Flexibility Score: inf
ROOT
ATOM      1  C   UNL     1       1.006  -3.519   2.194  1.00  0.00     0.042 C 
ENDROOT
BRANCH   1   2
ATOM      2  C   UNL     1       0.396  -3.971   0.879  1.00  0.00     0.118 C 
BRANCH   2   3
ATOM      3  N   UNL     1       0.142  -2.868  -0.031  1.00  0.00    -0.351 N 
ATOM      4  C   UNL     1       0.245  -2.757  -1.382  1.00  0.00     0.281 C 
ATOM      5  O   UNL     1      -0.291  -1.754  -1.870  1.00  0.00    -0.268 OA
ATOM      6  H   UNL     1      -0.162  -2.045   0.415  1.00  0.00     0.163 HD
BRANCH   4   7
ATOM      7  C   UNL     1       0.948  -3.836  -2.274  1.00  0.00     0.176 C 
ATOM      8  C   UNL     1       2.425  -4.041  -1.870  1.00  0.00     0.079 C 
ATOM      9  C   UNL     1       0.141  -5.169  -2.174  1.00  0.00     0.094 C 
ATOM     10  C   UNL     1       3.076  -5.234  -2.566  1.00  0.00     0.008 C 
ATOM     11  C   UNL     1       0.811  -6.412  -2.796  1.00  0.00     0.063 C 
ATOM     12  C   UNL     1       2.273  -6.512  -2.340  1.00  0.00     0.015 C 
BRANCH   7  13
ATOM     13  N   UNL     1       0.822  -3.425  -3.705  1.00  0.00    -0.334 N 
ATOM     14  H   UNL     1       1.083  -4.231  -4.273  1.00  0.00     0.347 HD
ATOM     15  H   UNL     1      -0.145  -3.110  -3.789  1.00  0.00     0.347 HD
BRANCH  13  16
ATOM     16  C   UNL     1       1.610  -2.291  -4.177  1.00  0.00     0.261 C 
BRANCH  16  17
ATOM     17  C   UNL     1       1.449  -2.135  -5.697  1.00  0.00     0.058 C 
ATOM     18  C   UNL     1       0.008  -1.981  -6.168  1.00  0.00     0.010 C 
ENDBRANCH  16  17
ENDBRANCH  13  16
ENDBRANCH   7  13
BRANCH  11  19
ATOM     19  S   UNL     1       0.587  -6.394  -4.609  1.00  0.00    -0.062 SA
BRANCH  19  20
ATOM     20  C   UNL     1       1.089  -7.968  -5.104  1.00  0.00     0.276 A 
ATOM     21  N   UNL     1       1.380  -8.986  -4.321  1.00  0.00    -0.101 NA
ATOM     22  O   UNL     1       1.209  -8.285  -6.431  1.00  0.00    -0.416 OA
ATOM     23  N   UNL     1       1.727 -10.038  -5.148  1.00  0.00    -0.112 NA
ATOM     24  C   UNL     1       1.610  -9.586  -6.377  1.00  0.00     0.214 A 
ATOM     25  C   UNL     1       1.836 -10.264  -7.663  1.00  0.00     0.113 C 
ENDBRANCH  19  20
ENDBRANCH  11  19
ENDBRANCH   4   7
ENDBRANCH   2   3
ENDBRANCH   1   2
BRANCH   1  26
ATOM     26  C   UNL     1       0.141  -2.544   2.978  1.00  0.00     0.118 C 
BRANCH  26  27
ATOM     27  N   UNL     1      -1.162  -3.094   3.331  1.00  0.00    -0.352 N 
ATOM     28  C   UNL     1      -1.706  -3.334   4.571  1.00  0.00     0.251 C 
ATOM     29  H   UNL     1      -1.739  -3.328   2.568  1.00  0.00     0.163 HD
ATOM     30  O   UNL     1      -2.755  -3.964   4.668  1.00  0.00    -0.269 OA
BRANCH  28  31
ATOM     31  C   UNL     1      -1.005  -2.857   5.780  1.00  0.00     0.039 A 
ATOM     32  C   UNL     1      -0.860  -3.719   6.870  1.00  0.00     0.014 A 
ATOM     33  C   UNL     1      -0.467  -1.569   5.825  1.00  0.00     0.014 A 
ATOM     34  C   UNL     1      -0.100  -3.315   7.970  1.00  0.00     0.010 A 
ATOM     35  C   UNL     1       0.369  -1.208   6.874  1.00  0.00     0.010 A 
ATOM     36  C   UNL     1       0.558  -2.075   7.960  1.00  0.00    -0.014 A 
BRANCH  36  37
ATOM     37  C   UNL     1       1.439  -1.648   9.077  1.00  0.00     0.031 A 
ATOM     38  C   UNL     1       1.107  -0.402   9.855  1.00  0.00     0.074 A 
ATOM     39  C   UNL     1       2.576  -2.326   9.335  1.00  0.00     0.049 A 
ATOM     40  N   UNL     1       1.807   0.204  10.779  1.00  0.00    -0.248 NA
ATOM     41  C   UNL     1      -0.163   0.269   9.527  1.00  0.00     0.031 C 
ATOM     42  C   UNL     1       3.038  -3.519   8.618  1.00  0.00     0.029 A 
ATOM     43  N   UNL     1       3.560  -2.099  10.264  1.00  0.00    -0.354 N 
ATOM     44  C   UNL     1       1.078   1.337  11.121  1.00  0.00     0.074 A 
ATOM     45  C   UNL     1      -0.091   1.363  10.270  1.00  0.00     0.031 C 
ATOM     46  C   UNL     1       4.201  -3.929   9.150  1.00  0.00     0.029 A 
ATOM     47  C   UNL     1       4.589  -3.010  10.215  1.00  0.00     0.049 A 
ATOM     48  H   UNL     1       3.532  -1.353  10.906  1.00  0.00     0.167 HD
ATOM     49  C   UNL     1       1.343   2.261  12.074  1.00  0.00     0.031 A 
ATOM     50  C   UNL     1       5.722  -3.092  10.938  1.00  0.00     0.031 A 
ATOM     51  C   UNL     1       2.488   2.216  12.942  1.00  0.00     0.049 A 
ATOM     52  C   UNL     1       5.982  -2.067  12.009  1.00  0.00     0.074 A 
ATOM     53  C   UNL     1       2.821   3.076  13.973  1.00  0.00     0.029 A 
ATOM     54  N   UNL     1       3.481   1.250  12.889  1.00  0.00    -0.354 N 
ATOM     55  N   UNL     1       5.255  -1.028  12.348  1.00  0.00    -0.248 NA
ATOM     56  C   UNL     1       7.208  -2.231  12.802  1.00  0.00     0.031 C 
ATOM     57  C   UNL     1       4.032   2.647  14.525  1.00  0.00     0.029 A 
ATOM     58  C   UNL     1       4.429   1.494  13.866  1.00  0.00     0.049 A 
ATOM     59  H   UNL     1       3.507   0.500  12.251  1.00  0.00     0.167 HD
ATOM     60  C   UNL     1       5.923  -0.432  13.412  1.00  0.00     0.074 A 
ATOM     61  C   UNL     1       7.102  -1.233  13.669  1.00  0.00     0.031 C 
ATOM     62  C   UNL     1       5.589   0.678  14.113  1.00  0.00     0.031 A 
BRANCH  49  63
ATOM     63  C   UNL     1       0.364   3.393  12.236  1.00  0.00    -0.014 A 
ATOM     64  C   UNL     1      -0.914   3.168  12.780  1.00  0.00     0.010 A 
ATOM     65  C   UNL     1       0.736   4.701  11.877  1.00  0.00     0.010 A 
ATOM     66  C   UNL     1      -1.816   4.224  12.927  1.00  0.00     0.020 A 
ATOM     67  C   UNL     1      -0.155   5.765  12.048  1.00  0.00     0.020 A 
ATOM     68  C   UNL     1      -1.431   5.516  12.557  1.00  0.00     0.054 A 
BRANCH  68  69
ATOM     69  S   UNL     1      -2.613   6.873  12.787  1.00  0.00     0.124 S 
ATOM     70  O   UNL     1      -3.555   6.639  11.696  1.00  0.00    -0.237 OA
ATOM     71  O   UNL     1      -3.133   6.622  14.129  1.00  0.00    -0.237 OA
ATOM     72  O   UNL     1      -1.791   8.074  12.655  1.00  0.00    -0.744 OA
ENDBRANCH  68  69
ENDBRANCH  49  63
BRANCH  50  73
ATOM     73  C   UNL     1       6.694  -4.190  10.686  1.00  0.00    -0.014 A 
ATOM     74  C   UNL     1       6.849  -5.234  11.616  1.00  0.00     0.010 A 
ATOM     75  C   UNL     1       7.473  -4.197   9.514  1.00  0.00     0.010 A 
ATOM     76  C   UNL     1       7.785  -6.248  11.393  1.00  0.00     0.020 A 
ATOM     77  C   UNL     1       8.391  -5.224   9.276  1.00  0.00     0.020 A 
ATOM     78  C   UNL     1       8.552  -6.235  10.226  1.00  0.00     0.054 A 
BRANCH  78  79
ATOM     79  S   UNL     1       9.737  -7.579   9.938  1.00  0.00     0.124 S 
ATOM     80  O   UNL     1      10.834  -7.210  10.828  1.00  0.00    -0.237 OA
ATOM     81  O   UNL     1       8.975  -8.763  10.328  1.00  0.00    -0.237 OA
ATOM     82  O   UNL     1      10.026  -7.477   8.509  1.00  0.00    -0.744 OA
ENDBRANCH  78  79
ENDBRANCH  50  73
BRANCH  62  83
ATOM     83  C   UNL     1       6.486   1.072  15.254  1.00  0.00    -0.014 A 
ATOM     84  C   UNL     1       7.744   1.656  15.023  1.00  0.00     0.010 A 
ATOM     85  C   UNL     1       6.034   0.910  16.576  1.00  0.00     0.010 A 
ATOM     86  C   UNL     1       8.546   2.048  16.098  1.00  0.00     0.020 A 
ATOM     87  C   UNL     1       6.823   1.323  17.652  1.00  0.00     0.020 A 
ATOM     88  C   UNL     1       8.081   1.878  17.406  1.00  0.00     0.054 A 
BRANCH  88  89
ATOM     89  S   UNL     1       9.118   2.440  18.783  1.00  0.00     0.124 S 
ATOM     90  O   UNL     1      10.135   1.394  18.843  1.00  0.00    -0.237 OA
ATOM     91  O   UNL     1       9.585   3.745  18.322  1.00  0.00    -0.237 OA
ATOM     92  O   UNL     1       8.197   2.480  19.916  1.00  0.00    -0.744 OA
ENDBRANCH  88  89
ENDBRANCH  62  83
ENDBRANCH  36  37
ENDBRANCH  28  31
ENDBRANCH  26  27
ENDBRANCH   1  26
TORSDOF 18
