REMARK SMILES Cc1cscc1CNC(=O)CC(C)(C)C(=O)NCCCNC(=O)c1ccc(-c2c3nc(c(-c4ccc(S(=O)(=O)[O-])cc4)c4ccc([nH]4)c(-c4ccc(S(=O)(=O)[O-])cc4)c4nc(c(-c5ccc(S(=O)(=O)[O-])cc5)c5ccc2[nH]5)C=C4)C=C3)cc1
REMARK SMILES IDX 18 1 17 2 15 3 16 4 12 6 13 7 14 8 11 9 9 10 8 11 10 13 7 14
REMARK SMILES IDX 6 15 1 16 2 17 3 18 4 19 5 20 19 21 20 22 21 23 22 24 23 26
REMARK SMILES IDX 24 27 25 28 83 29 26 30 82 31 27 32 28 33 29 34 76 35 30 36
REMARK SMILES IDX 81 37 75 38 77 39 31 40 80 41 74 42 73 43 32 45 62 46 43 47
REMARK SMILES IDX 61 48 44 49 47 50 60 51 78 52 45 53 46 54 59 56 79 57 48 58
REMARK SMILES IDX 33 59 34 60 42 61 35 62 41 63 36 64 37 65 38 66 39 67 40 68
REMARK SMILES IDX 63 69 64 70 72 71 65 72 71 73 66 74 67 75 68 76 69 77 70 78
REMARK SMILES IDX 49 79 50 80 58 81 51 82 57 83 52 84 53 85 54 86 55 87 56 88
REMARK H PARENT 17 5 8 12 21 25 77 44 47 55
REMARK Flexibility Score: inf
ROOT
ATOM      1  C   UNL     1      -3.062   2.648   2.295  1.00  0.00     0.117 C 
ENDROOT
BRANCH   1   2
ATOM      2  N   UNL     1      -2.875   3.411   1.077  1.00  0.00    -0.356 N 
ATOM      3  C   UNL     1      -1.873   4.188   0.603  1.00  0.00     0.226 C 
ATOM      4  O   UNL     1      -2.131   4.757  -0.461  1.00  0.00    -0.274 OA
ATOM      5  H   UNL     1      -3.642   3.351   0.463  1.00  0.00     0.163 HD
BRANCH   3   6
ATOM      6  C   UNL     1      -0.553   4.456   1.357  1.00  0.00     0.052 C 
ATOM      7  C   UNL     1       0.054   3.232   2.058  1.00  0.00     0.022 C 
ATOM      8  C   UNL     1      -0.866   5.504   2.448  1.00  0.00     0.022 C 
BRANCH   6   9
ATOM      9  C   UNL     1       0.510   5.066   0.383  1.00  0.00     0.116 C 
BRANCH   9  10
ATOM     10  C   UNL     1       0.557   4.602  -1.072  1.00  0.00     0.221 C 
ATOM     11  N   UNL     1       0.974   3.364  -1.434  1.00  0.00    -0.352 N 
ATOM     12  H   UNL     1       0.763   3.124  -2.366  1.00  0.00     0.163 HD
ATOM     13  O   UNL     1       0.290   5.383  -1.990  1.00  0.00    -0.275 OA
BRANCH  11  14
ATOM     14  C   UNL     1       1.671   2.335  -0.704  1.00  0.00     0.152 C 
BRANCH  14  15
ATOM     15  C   UNL     1       0.854   1.072  -0.630  1.00  0.00    -0.015 A 
ATOM     16  C   UNL     1       2.838  -0.501   0.023  1.00  0.00     0.045 C 
ATOM     17  C   UNL     1       1.398  -0.225  -0.269  1.00  0.00    -0.035 A 
ATOM     18  C   UNL     1       0.410  -1.191  -0.213  1.00  0.00     0.068 A 
ATOM     19  S   UNL     1      -1.134  -0.588  -0.608  1.00  0.00    -0.152 S 
ATOM     20  C   UNL     1      -0.509   0.977  -0.863  1.00  0.00     0.070 A 
ENDBRANCH  14  15
ENDBRANCH  11  14
ENDBRANCH   9  10
ENDBRANCH   6   9
ENDBRANCH   3   6
ENDBRANCH   1   2
BRANCH   1  21
ATOM     21  C   UNL     1      -4.183   3.207   3.159  1.00  0.00     0.042 C 
BRANCH  21  22
ATOM     22  C   UNL     1      -5.562   3.115   2.519  1.00  0.00     0.118 C 
BRANCH  22  23
ATOM     23  N   UNL     1      -5.970   1.740   2.257  1.00  0.00    -0.352 N 
ATOM     24  C   UNL     1      -6.936   0.966   2.846  1.00  0.00     0.251 C 
ATOM     25  H   UNL     1      -5.467   1.293   1.538  1.00  0.00     0.163 HD
ATOM     26  O   UNL     1      -6.956  -0.245   2.615  1.00  0.00    -0.269 OA
BRANCH  24  27
ATOM     27  C   UNL     1      -7.934   1.557   3.763  1.00  0.00     0.039 A 
ATOM     28  C   UNL     1      -8.339   0.828   4.884  1.00  0.00     0.014 A 
ATOM     29  C   UNL     1      -8.498   2.810   3.513  1.00  0.00     0.014 A 
ATOM     30  C   UNL     1      -9.253   1.384   5.782  1.00  0.00     0.010 A 
ATOM     31  C   UNL     1      -9.323   3.406   4.462  1.00  0.00     0.010 A 
ATOM     32  C   UNL     1      -9.722   2.696   5.601  1.00  0.00    -0.014 A 
BRANCH  32  33
ATOM     33  C   UNL     1     -10.629   3.331   6.593  1.00  0.00     0.031 A 
ATOM     34  C   UNL     1     -12.009   3.781   6.188  1.00  0.00     0.074 A 
ATOM     35  C   UNL     1     -10.191   3.543   7.850  1.00  0.00     0.049 A 
ATOM     36  N   UNL     1     -12.933   4.356   6.914  1.00  0.00    -0.248 NA
ATOM     37  C   UNL     1     -12.394   3.584   4.780  1.00  0.00     0.031 C 
ATOM     38  C   UNL     1      -8.855   3.206   8.351  1.00  0.00     0.029 A 
ATOM     39  N   UNL     1     -10.822   4.089   8.940  1.00  0.00    -0.354 N 
ATOM     40  C   UNL     1     -13.996   4.602   6.052  1.00  0.00     0.074 A 
ATOM     41  C   UNL     1     -13.582   4.169   4.737  1.00  0.00     0.031 C 
ATOM     42  C   UNL     1      -8.784   3.510   9.656  1.00  0.00     0.029 A 
ATOM     43  C   UNL     1     -10.049   4.103  10.077  1.00  0.00     0.049 A 
ATOM     44  H   UNL     1     -11.743   4.437   8.910  1.00  0.00     0.167 HD
ATOM     45  C   UNL     1     -15.218   5.117   6.333  1.00  0.00     0.031 A 
ATOM     46  C   UNL     1     -10.325   4.541  11.320  1.00  0.00     0.031 A 
ATOM     47  C   UNL     1     -15.631   5.536   7.646  1.00  0.00     0.049 A 
ATOM     48  C   UNL     1     -11.688   5.106  11.608  1.00  0.00     0.074 A 
ATOM     49  C   UNL     1     -16.865   6.015   8.047  1.00  0.00     0.029 A 
ATOM     50  N   UNL     1     -14.819   5.529   8.771  1.00  0.00    -0.354 N 
ATOM     51  N   UNL     1     -12.706   5.258  10.794  1.00  0.00    -0.248 NA
ATOM     52  C   UNL     1     -11.945   5.545  12.986  1.00  0.00     0.031 C 
ATOM     53  C   UNL     1     -16.783   6.352   9.402  1.00  0.00     0.029 A 
ATOM     54  C   UNL     1     -15.518   6.021   9.861  1.00  0.00     0.049 A 
ATOM     55  H   UNL     1     -13.885   5.220   8.791  1.00  0.00     0.167 HD
ATOM     56  C   UNL     1     -13.733   5.788  11.568  1.00  0.00     0.074 A 
ATOM     57  C   UNL     1     -13.219   5.907  12.917  1.00  0.00     0.031 C 
ATOM     58  C   UNL     1     -14.988   6.144  11.196  1.00  0.00     0.031 A 
BRANCH  45  59
ATOM     59  C   UNL     1     -16.196   5.256   5.193  1.00  0.00    -0.014 A 
ATOM     60  C   UNL     1     -16.758   4.124   4.574  1.00  0.00     0.010 A 
ATOM     61  C   UNL     1     -16.591   6.535   4.762  1.00  0.00     0.010 A 
ATOM     62  C   UNL     1     -17.663   4.268   3.519  1.00  0.00     0.020 A 
ATOM     63  C   UNL     1     -17.521   6.684   3.728  1.00  0.00     0.020 A 
ATOM     64  C   UNL     1     -18.038   5.548   3.102  1.00  0.00     0.054 A 
BRANCH  64  65
ATOM     65  S   UNL     1     -19.237   5.704   1.750  1.00  0.00     0.124 S 
ATOM     66  O   UNL     1     -18.444   5.290   0.595  1.00  0.00    -0.237 OA
ATOM     67  O   UNL     1     -20.293   4.778   2.151  1.00  0.00    -0.237 OA
ATOM     68  O   UNL     1     -19.609   7.117   1.775  1.00  0.00    -0.744 OA
ENDBRANCH  64  65
ENDBRANCH  45  59
BRANCH  46  69
ATOM     69  C   UNL     1      -9.294   4.441  12.391  1.00  0.00    -0.014 A 
ATOM     70  C   UNL     1      -9.454   3.540  13.458  1.00  0.00     0.010 A 
ATOM     71  C   UNL     1      -8.137   5.241  12.341  1.00  0.00     0.010 A 
ATOM     72  C   UNL     1      -8.488   3.454  14.466  1.00  0.00     0.020 A 
ATOM     73  C   UNL     1      -7.155   5.136  13.330  1.00  0.00     0.020 A 
ATOM     74  C   UNL     1      -7.343   4.252  14.393  1.00  0.00     0.054 A 
BRANCH  74  75
ATOM     75  S   UNL     1      -6.079   4.088  15.685  1.00  0.00     0.124 S 
ATOM     76  O   UNL     1      -6.723   4.734  16.824  1.00  0.00    -0.237 OA
ATOM     77  O   UNL     1      -5.917   2.640  15.785  1.00  0.00    -0.237 OA
ATOM     78  O   UNL     1      -4.929   4.798  15.130  1.00  0.00    -0.744 OA
ENDBRANCH  74  75
ENDBRANCH  46  69
BRANCH  58  79
ATOM     79  C   UNL     1     -15.900   6.672  12.271  1.00  0.00    -0.014 A 
ATOM     80  C   UNL     1     -15.687   7.932  12.858  1.00  0.00     0.010 A 
ATOM     81  C   UNL     1     -17.007   5.905  12.680  1.00  0.00     0.010 A 
ATOM     82  C   UNL     1     -16.535   8.394  13.867  1.00  0.00     0.020 A 
ATOM     83  C   UNL     1     -17.877   6.378  13.665  1.00  0.00     0.020 A 
ATOM     84  C   UNL     1     -17.623   7.612  14.266  1.00  0.00     0.054 A 
BRANCH  84  85
ATOM     85  S   UNL     1     -18.721   8.243  15.565  1.00  0.00     0.124 S 
ATOM     86  O   UNL     1     -17.897   8.088  16.760  1.00  0.00    -0.237 OA
ATOM     87  O   UNL     1     -18.961   9.620  15.140  1.00  0.00    -0.237 OA
ATOM     88  O   UNL     1     -19.885   7.362  15.492  1.00  0.00    -0.744 OA
ENDBRANCH  84  85
ENDBRANCH  58  79
ENDBRANCH  32  33
ENDBRANCH  24  27
ENDBRANCH  22  23
ENDBRANCH  21  22
ENDBRANCH   1  21
TORSDOF 17
