REMARK SMILES CC[N@@H+]1CCO[C@H](C[N@H+]2CCCCC[C@@H]2C(=O)NCCCNC(=O)c2ccc(-c3c4nc(c(-c5ccc(S(=O)(=O)[O-])cc5)c5ccc([nH]5)c(-c5ccc(S(=O)(=O)[O-])cc5)c5nc(c(-c6ccc(S(=O)(=O)[O-])cc6)c6ccc3[nH]6)C=C5)C=C4)cc2)C1
REMARK SMILES IDX 19 1 18 2 16 3 17 4 15 6 9 7 8 9 7 10 3 11 4 12 85 13 5 15
REMARK SMILES IDX 6 16 2 17 1 18 10 19 11 20 14 22 13 23 12 24 20 26 21 27
REMARK SMILES IDX 22 28 23 29 24 31 25 32 26 33 84 34 27 35 83 36 28 37 29 38
REMARK SMILES IDX 30 39 77 40 31 41 82 42 76 43 78 44 32 45 81 46 75 47 74 48
REMARK SMILES IDX 33 50 63 51 44 52 62 53 45 54 48 55 61 56 79 57 46 58 47 59
REMARK SMILES IDX 60 61 80 62 49 63 34 64 35 65 43 66 36 67 42 68 37 69 38 70
REMARK SMILES IDX 39 71 40 72 41 73 64 74 65 75 73 76 66 77 72 78 67 79 68 80
REMARK SMILES IDX 69 81 70 82 71 83 50 84 51 85 59 86 52 87 58 88 53 89 54 90
REMARK SMILES IDX 55 91 56 92 57 93
REMARK H PARENT 18 5 9 8 3 14 22 30 78 49 48 60
REMARK Flexibility Score: 90.00
ROOT
ATOM      1  C   UNL     1      -1.675  -3.486  -6.267  1.00  0.00     0.118 C 
ENDROOT
BRANCH   1   2
ATOM      2  N   UNL     1      -2.228  -4.439  -5.328  1.00  0.00    -0.351 N 
ATOM      3  C   UNL     1      -1.621  -5.196  -4.371  1.00  0.00     0.278 C 
ATOM      4  O   UNL     1      -2.360  -5.947  -3.720  1.00  0.00    -0.268 OA
ATOM      5  H   UNL     1      -3.203  -4.560  -5.391  1.00  0.00     0.163 HD
BRANCH   3   6
ATOM      6  C   UNL     1      -0.093  -5.150  -4.061  1.00  0.00     0.274 C 
BRANCH   6   7
ATOM      7  N   UNL     1       0.352  -3.763  -3.813  1.00  0.00    -0.322 N 
ATOM      8  H   UNL     1      -0.178  -3.222  -4.496  1.00  0.00     0.348 HD
BRANCH   7   9
ATOM      9  C   UNL     1       0.002  -3.317  -2.434  1.00  0.00     0.301 C 
BRANCH   9  10
ATOM     10  C   UNL     1       0.705  -3.978  -1.200  1.00  0.00     0.228 C 
ATOM     11  N   UNL     1       1.007  -2.104   0.565  1.00  0.00    -0.331 N 
ATOM     12  C   UNL     1       2.456  -2.337   0.396  1.00  0.00     0.291 C 
ATOM     13  C   UNL     1       0.299  -3.343   0.160  1.00  0.00     0.300 C 
ATOM     14  H   UNL     1       0.814  -1.899   1.545  1.00  0.00     0.348 HD
ATOM     15  C   UNL     1       2.827  -2.867  -0.992  1.00  0.00     0.222 C 
ATOM     16  O   UNL     1       2.136  -4.078  -1.305  1.00  0.00    -0.361 OA
BRANCH  11  17
ATOM     17  C   UNL     1       0.522  -0.918  -0.148  1.00  0.00     0.258 C 
ATOM     18  C   UNL     1       0.925   0.386   0.528  1.00  0.00     0.071 C 
ENDBRANCH  11  17
ENDBRANCH   9  10
ENDBRANCH   7   9
BRANCH   7  19
ATOM     19  C   UNL     1       1.742  -3.449  -4.137  1.00  0.00     0.262 C 
BRANCH  19  20
ATOM     20  C   UNL     1       2.062  -3.307  -5.622  1.00  0.00     0.061 CG0
ATOM     21  G   UNL     1       2.340  -4.620  -6.329  1.00  0.00     0.000 G0
ENDBRANCH  19  20
ENDBRANCH   7  19
ENDBRANCH   6   7
BRANCH   6  22
ATOM     22  C   UNL     1       0.749  -6.097  -4.933  1.00  0.00     0.076 C 
BRANCH  22  23
ATOM     23  C   UNL     1       1.218  -5.642  -6.303  1.00  0.00     0.007 C 
BRANCH  23  24
ATOM     24  C   UNL     1       2.340  -4.620  -6.329  1.00  0.00     0.006 CG0
ATOM     25  G   UNL     1       2.062  -3.307  -5.622  1.00  0.00     0.000 G0
ENDBRANCH  23  24
ENDBRANCH  22  23
ENDBRANCH   6  22
ENDBRANCH   3   6
ENDBRANCH   1   2
BRANCH   1  26
ATOM     26  C   UNL     1      -1.663  -4.042  -7.684  1.00  0.00     0.042 C 
BRANCH  26  27
ATOM     27  C   UNL     1      -3.003  -3.949  -8.384  1.00  0.00     0.118 C 
BRANCH  27  28
ATOM     28  N   UNL     1      -3.301  -2.600  -8.835  1.00  0.00    -0.352 N 
ATOM     29  C   UNL     1      -3.362  -2.087 -10.110  1.00  0.00     0.251 C 
ATOM     30  H   UNL     1      -3.488  -1.954  -8.117  1.00  0.00     0.163 HD
ATOM     31  O   UNL     1      -3.425  -0.871 -10.262  1.00  0.00    -0.269 OA
BRANCH  29  32
ATOM     32  C   UNL     1      -3.328  -2.983 -11.291  1.00  0.00     0.039 A 
ATOM     33  C   UNL     1      -2.637  -2.571 -12.434  1.00  0.00     0.014 A 
ATOM     34  C   UNL     1      -3.988  -4.213 -11.292  1.00  0.00     0.014 A 
ATOM     35  C   UNL     1      -2.561  -3.416 -13.545  1.00  0.00     0.010 A 
ATOM     36  C   UNL     1      -3.811  -5.101 -12.347  1.00  0.00     0.010 A 
ATOM     37  C   UNL     1      -3.117  -4.705 -13.498  1.00  0.00    -0.014 A 
BRANCH  37  38
ATOM     38  C   UNL     1      -3.021  -5.638 -14.652  1.00  0.00     0.031 A 
ATOM     39  C   UNL     1      -4.278  -6.140 -15.319  1.00  0.00     0.074 A 
ATOM     40  C   UNL     1      -1.814  -6.075 -15.065  1.00  0.00     0.049 A 
ATOM     41  N   UNL     1      -4.405  -6.995 -16.301  1.00  0.00    -0.248 NA
ATOM     42  C   UNL     1      -5.562  -5.639 -14.797  1.00  0.00     0.031 C 
ATOM     43  C   UNL     1      -0.526  -5.697 -14.476  1.00  0.00     0.029 A 
ATOM     44  N   UNL     1      -1.471  -6.934 -16.079  1.00  0.00    -0.354 N 
ATOM     45  C   UNL     1      -5.773  -7.152 -16.494  1.00  0.00     0.074 A 
ATOM     46  C   UNL     1      -6.438  -6.347 -15.495  1.00  0.00     0.031 C 
ATOM     47  C   UNL     1       0.464  -6.289 -15.163  1.00  0.00     0.029 A 
ATOM     48  C   UNL     1      -0.115  -7.126 -16.209  1.00  0.00     0.049 A 
ATOM     49  H   UNL     1      -2.134  -7.373 -16.659  1.00  0.00     0.167 HD
ATOM     50  C   UNL     1      -6.420  -7.882 -17.432  1.00  0.00     0.031 A 
ATOM     51  C   UNL     1       0.584  -7.892 -17.069  1.00  0.00     0.031 A 
ATOM     52  C   UNL     1      -5.755  -8.657 -18.444  1.00  0.00     0.049 A 
ATOM     53  C   UNL     1      -0.162  -8.699 -18.099  1.00  0.00     0.074 A 
ATOM     54  C   UNL     1      -6.319  -9.373 -19.485  1.00  0.00     0.029 A 
ATOM     55  N   UNL     1      -4.382  -8.817 -18.544  1.00  0.00    -0.354 N 
ATOM     56  N   UNL     1      -1.454  -8.772 -18.311  1.00  0.00    -0.248 NA
ATOM     57  C   UNL     1       0.647  -9.518 -19.012  1.00  0.00     0.031 C 
ATOM     58  C   UNL     1      -5.290 -10.017 -20.178  1.00  0.00     0.029 A 
ATOM     59  C   UNL     1      -4.081  -9.646 -19.610  1.00  0.00     0.049 A 
ATOM     60  H   UNL     1      -3.719  -8.404 -17.945  1.00  0.00     0.167 HD
ATOM     61  C   UNL     1      -1.610  -9.617 -19.404  1.00  0.00     0.074 A 
ATOM     62  C   UNL     1      -0.281 -10.017 -19.817  1.00  0.00     0.031 C 
ATOM     63  C   UNL     1      -2.751 -10.026 -20.013  1.00  0.00     0.031 A 
BRANCH  50  64
ATOM     64  C   UNL     1      -7.927  -7.883 -17.412  1.00  0.00    -0.014 A 
ATOM     65  C   UNL     1      -8.663  -6.737 -17.763  1.00  0.00     0.010 A 
ATOM     66  C   UNL     1      -8.618  -9.069 -17.101  1.00  0.00     0.010 A 
ATOM     67  C   UNL     1     -10.060  -6.769 -17.776  1.00  0.00     0.020 A 
ATOM     68  C   UNL     1     -10.014  -9.114 -17.143  1.00  0.00     0.020 A 
ATOM     69  C   UNL     1     -10.727  -7.958 -17.470  1.00  0.00     0.054 A 
BRANCH  69  70
ATOM     70  S   UNL     1     -12.539  -7.983 -17.547  1.00  0.00     0.124 S 
ATOM     71  O   UNL     1     -12.901  -7.178 -16.383  1.00  0.00    -0.237 OA
ATOM     72  O   UNL     1     -12.811  -7.368 -18.844  1.00  0.00    -0.237 OA
ATOM     73  O   UNL     1     -12.873  -9.402 -17.450  1.00  0.00    -0.744 OA
ENDBRANCH  69  70
ENDBRANCH  50  64
BRANCH  51  74
ATOM     74  C   UNL     1       2.073  -7.930 -17.006  1.00  0.00    -0.014 A 
ATOM     75  C   UNL     1       2.845  -7.390 -18.050  1.00  0.00     0.010 A 
ATOM     76  C   UNL     1       2.727  -8.521 -15.910  1.00  0.00     0.010 A 
ATOM     77  C   UNL     1       4.241  -7.471 -18.016  1.00  0.00     0.020 A 
ATOM     78  C   UNL     1       4.123  -8.575 -15.857  1.00  0.00     0.020 A 
ATOM     79  C   UNL     1       4.871  -8.064 -16.919  1.00  0.00     0.054 A 
BRANCH  79  80
ATOM     80  S   UNL     1       6.684  -8.137 -16.885  1.00  0.00     0.124 S 
ATOM     81  O   UNL     1       6.965  -9.160 -17.888  1.00  0.00    -0.237 OA
ATOM     82  O   UNL     1       7.061  -6.774 -17.247  1.00  0.00    -0.237 OA
ATOM     83  O   UNL     1       6.984  -8.514 -15.505  1.00  0.00    -0.744 OA
ENDBRANCH  79  80
ENDBRANCH  51  74
BRANCH  63  84
ATOM     84  C   UNL     1      -2.615 -10.916 -21.220  1.00  0.00    -0.014 A 
ATOM     85  C   UNL     1      -2.199 -12.253 -21.101  1.00  0.00     0.010 A 
ATOM     86  C   UNL     1      -2.968 -10.417 -22.487  1.00  0.00     0.010 A 
ATOM     87  C   UNL     1      -2.105 -13.066 -22.233  1.00  0.00     0.020 A 
ATOM     88  C   UNL     1      -2.908 -11.236 -23.617  1.00  0.00     0.020 A 
ATOM     89  C   UNL     1      -2.462 -12.552 -23.484  1.00  0.00     0.054 A 
BRANCH  89  90
ATOM     90  S   UNL     1      -2.376 -13.641 -24.931  1.00  0.00     0.124 S 
ATOM     91  O   UNL     1      -0.935 -13.758 -25.138  1.00  0.00    -0.237 OA
ATOM     92  O   UNL     1      -3.044 -14.852 -24.461  1.00  0.00    -0.237 OA
ATOM     93  O   UNL     1      -3.095 -12.902 -25.966  1.00  0.00    -0.744 OA
ENDBRANCH  89  90
ENDBRANCH  63  84
ENDBRANCH  37  38
ENDBRANCH  29  32
ENDBRANCH  27  28
ENDBRANCH  26  27
ENDBRANCH   1  26
TORSDOF 16
