REMARK SMILES O=C(CCCc1ccc2c(c1Br)C=CC2)NCCCNC(=O)c1ccc(-c2c3nc(c(-c4ccc(S(=O)(=O)[O-])cc4)c4ccc([nH]4)c(-c4ccc(S(=O)(=O)[O-])cc4)c4nc(c(-c5ccc(S(=O)(=O)[O-])cc5)c5ccc2[nH]5)C=C4)C=C3)cc1
REMARK SMILES IDX 18 1 17 2 16 3 1 4 2 5 3 7 4 8 5 9 6 10 7 11 11 12 8 13
REMARK SMILES IDX 10 14 12 15 9 16 13 17 15 18 14 19 19 20 20 21 21 22 22 24
REMARK SMILES IDX 23 25 24 26 82 27 25 28 81 29 26 30 27 31 28 32 75 33 29 34
REMARK SMILES IDX 80 35 74 36 76 37 30 38 79 39 73 40 72 41 31 43 61 44 42 45
REMARK SMILES IDX 60 46 43 47 46 48 59 49 77 50 44 51 45 52 58 54 78 55 47 56
REMARK SMILES IDX 32 57 33 58 41 59 34 60 40 61 35 62 36 63 37 64 38 65 39 66
REMARK SMILES IDX 62 67 63 68 71 69 64 70 70 71 65 72 66 73 67 74 68 75 69 76
REMARK SMILES IDX 48 77 49 78 57 79 50 80 56 81 51 82 52 83 53 84 54 85 55 86
REMARK H PARENT 16 6 20 23 76 42 46 53
REMARK Flexibility Score: inf
ROOT
ATOM      1  C   UNL     1       2.037   3.329  -1.069  1.00  0.00     0.042 C 
ENDROOT
BRANCH   1   2
ATOM      2  C   UNL     1       1.881   1.863  -1.454  1.00  0.00     0.117 C 
BRANCH   2   3
ATOM      3  N   UNL     1       2.555   0.966  -0.539  1.00  0.00    -0.356 N 
ATOM      4  O   UNL     1       0.996  -0.717  -0.654  1.00  0.00    -0.275 OA
ATOM      5  C   UNL     1       2.060  -0.278  -0.232  1.00  0.00     0.220 C 
ATOM      6  H   UNL     1       3.397   1.258  -0.122  1.00  0.00     0.163 HD
BRANCH   5   7
ATOM      7  C   UNL     1       2.978  -1.097   0.648  1.00  0.00     0.100 C 
BRANCH   7   8
ATOM      8  C   UNL     1       3.921  -1.966  -0.187  1.00  0.00     0.015 C 
BRANCH   8   9
ATOM      9  C   UNL     1       5.176  -1.263  -0.739  1.00  0.00     0.037 C 
BRANCH   9  10
ATOM     10  C   UNL     1       6.051  -0.585   0.298  1.00  0.00    -0.033 A 
ATOM     11  C   UNL     1       6.122   0.832   0.274  1.00  0.00     0.005 A 
ATOM     12  C   UNL     1       6.782  -1.284   1.283  1.00  0.00     0.028 A 
ATOM     13  C   UNL     1       6.810   1.554   1.250  1.00  0.00     0.005 A 
ATOM     14  C   UNL     1       7.465  -0.557   2.257  1.00  0.00    -0.008 A 
ATOM     15  Br  UNL     1       6.915  -3.181   1.288  1.00  0.00    -0.050 Br
ATOM     16  C   UNL     1       7.456   0.846   2.244  1.00  0.00    -0.036 A 
ATOM     17  C   UNL     1       8.268  -0.991   3.397  1.00  0.00     0.005 C 
ATOM     18  C   UNL     1       8.238   1.381   3.406  1.00  0.00     0.063 C 
ATOM     19  C   UNL     1       8.701   0.100   4.048  1.00  0.00    -0.022 C 
ENDBRANCH   9  10
ENDBRANCH   8   9
ENDBRANCH   7   8
ENDBRANCH   5   7
ENDBRANCH   2   3
ENDBRANCH   1   2
BRANCH   1  20
ATOM     20  C   UNL     1       3.473   3.840  -1.022  1.00  0.00     0.118 C 
BRANCH  20  21
ATOM     21  N   UNL     1       4.165   3.751  -2.299  1.00  0.00    -0.352 N 
ATOM     22  C   UNL     1       4.977   4.691  -2.888  1.00  0.00     0.251 C 
ATOM     23  H   UNL     1       4.037   2.915  -2.803  1.00  0.00     0.163 HD
ATOM     24  O   UNL     1       5.422   4.518  -4.017  1.00  0.00    -0.269 OA
BRANCH  22  25
ATOM     25  C   UNL     1       5.279   5.930  -2.146  1.00  0.00     0.039 A 
ATOM     26  C   UNL     1       4.876   7.153  -2.683  1.00  0.00     0.014 A 
ATOM     27  C   UNL     1       5.900   5.865  -0.894  1.00  0.00     0.014 A 
ATOM     28  C   UNL     1       5.039   8.317  -1.932  1.00  0.00     0.010 A 
ATOM     29  C   UNL     1       6.031   7.025  -0.133  1.00  0.00     0.010 A 
ATOM     30  C   UNL     1       5.591   8.257  -0.642  1.00  0.00    -0.014 A 
BRANCH  30  31
ATOM     31  C   UNL     1       5.696   9.479   0.190  1.00  0.00     0.031 A 
ATOM     32  C   UNL     1       7.034  10.110   0.441  1.00  0.00     0.074 A 
ATOM     33  C   UNL     1       4.584  10.004   0.742  1.00  0.00     0.049 A 
ATOM     34  N   UNL     1       7.316  11.181   1.135  1.00  0.00    -0.248 NA
ATOM     35  C   UNL     1       8.205   9.448  -0.155  1.00  0.00     0.031 C 
ATOM     36  C   UNL     1       3.231   9.465   0.595  1.00  0.00     0.029 A 
ATOM     37  N   UNL     1       4.418  11.110   1.537  1.00  0.00    -0.354 N 
ATOM     38  C   UNL     1       8.695  11.325   1.060  1.00  0.00     0.074 A 
ATOM     39  C   UNL     1       9.197  10.210   0.286  1.00  0.00     0.031 C 
ATOM     40  C   UNL     1       2.369  10.257   1.254  1.00  0.00     0.029 A 
ATOM     41  C   UNL     1       3.109  11.346   1.886  1.00  0.00     0.049 A 
ATOM     42  H   UNL     1       5.164  11.681   1.828  1.00  0.00     0.167 HD
ATOM     43  C   UNL     1       9.470  12.309   1.571  1.00  0.00     0.031 A 
ATOM     44  C   UNL     1       2.563  12.333   2.624  1.00  0.00     0.031 A 
ATOM     45  C   UNL     1       8.972  13.423   2.329  1.00  0.00     0.049 A 
ATOM     46  C   UNL     1       3.445  13.410   3.189  1.00  0.00     0.074 A 
ATOM     47  C   UNL     1       9.682  14.488   2.856  1.00  0.00     0.029 A 
ATOM     48  N   UNL     1       7.643  13.620   2.666  1.00  0.00    -0.354 N 
ATOM     49  N   UNL     1       4.743  13.550   3.073  1.00  0.00    -0.248 NA
ATOM     50  C   UNL     1       2.791  14.466   3.977  1.00  0.00     0.031 C 
ATOM     51  C   UNL     1       8.784  15.316   3.535  1.00  0.00     0.029 A 
ATOM     52  C   UNL     1       7.512  14.783   3.402  1.00  0.00     0.049 A 
ATOM     53  H   UNL     1       6.902  13.021   2.418  1.00  0.00     0.167 HD
ATOM     54  C   UNL     1       5.059  14.720   3.752  1.00  0.00     0.074 A 
ATOM     55  C   UNL     1       3.819  15.250   4.280  1.00  0.00     0.031 C 
ATOM     56  C   UNL     1       6.270  15.303   3.915  1.00  0.00     0.031 A 
BRANCH  43  57
ATOM     57  C   UNL     1      10.947  12.231   1.314  1.00  0.00    -0.014 A 
ATOM     58  C   UNL     1      11.472  12.573   0.056  1.00  0.00     0.010 A 
ATOM     59  C   UNL     1      11.823  11.869   2.353  1.00  0.00     0.010 A 
ATOM     60  C   UNL     1      12.849  12.532  -0.168  1.00  0.00     0.020 A 
ATOM     61  C   UNL     1      13.204  11.843   2.137  1.00  0.00     0.020 A 
ATOM     62  C   UNL     1      13.707  12.167   0.875  1.00  0.00     0.054 A 
BRANCH  62  63
ATOM     63  S   UNL     1      15.491  12.139   0.553  1.00  0.00     0.124 S 
ATOM     64  O   UNL     1      15.601  11.082  -0.450  1.00  0.00    -0.237 OA
ATOM     65  O   UNL     1      15.746  13.493   0.070  1.00  0.00    -0.237 OA
ATOM     66  O   UNL     1      16.075  11.820   1.854  1.00  0.00    -0.744 OA
ENDBRANCH  62  63
ENDBRANCH  43  57
BRANCH  44  67
ATOM     67  C   UNL     1       1.093  12.361   2.829  1.00  0.00    -0.014 A 
ATOM     68  C   UNL     1       0.291  13.233   2.073  1.00  0.00     0.010 A 
ATOM     69  C   UNL     1       0.483  11.479   3.739  1.00  0.00     0.010 A 
ATOM     70  C   UNL     1      -1.099  13.219   2.219  1.00  0.00     0.020 A 
ATOM     71  C   UNL     1      -0.908  11.452   3.877  1.00  0.00     0.020 A 
ATOM     72  C   UNL     1      -1.690  12.321   3.112  1.00  0.00     0.054 A 
BRANCH  72  73
ATOM     73  S   UNL     1      -3.500  12.279   3.228  1.00  0.00     0.124 S 
ATOM     74  O   UNL     1      -3.807  13.614   3.732  1.00  0.00    -0.237 OA
ATOM     75  O   UNL     1      -3.890  12.019   1.844  1.00  0.00    -0.237 OA
ATOM     76  O   UNL     1      -3.760  11.184   4.159  1.00  0.00    -0.744 OA
ENDBRANCH  72  73
ENDBRANCH  44  67
BRANCH  56  77
ATOM     77  C   UNL     1       6.338  16.595   4.676  1.00  0.00    -0.014 A 
ATOM     78  C   UNL     1       6.360  16.599   6.081  1.00  0.00     0.010 A 
ATOM     79  C   UNL     1       6.527  17.801   3.977  1.00  0.00     0.010 A 
ATOM     80  C   UNL     1       6.584  17.790   6.776  1.00  0.00     0.020 A 
ATOM     81  C   UNL     1       6.765  18.991   4.669  1.00  0.00     0.020 A 
ATOM     82  C   UNL     1       6.799  18.976   6.065  1.00  0.00     0.054 A 
BRANCH  82  83
ATOM     83  S   UNL     1       7.185  20.485   6.995  1.00  0.00     0.124 S 
ATOM     84  O   UNL     1       5.954  20.704   7.750  1.00  0.00    -0.237 OA
ATOM     85  O   UNL     1       8.344  20.078   7.786  1.00  0.00    -0.237 OA
ATOM     86  O   UNL     1       7.461  21.475   5.956  1.00  0.00    -0.744 OA
ENDBRANCH  82  83
ENDBRANCH  56  77
ENDBRANCH  30  31
ENDBRANCH  22  25
ENDBRANCH  20  21
ENDBRANCH   1  20
TORSDOF 16
