REMARK SMILES Cc1coc2cc3c(cc12)[C@@H](C)[C@H](CCC(=O)N[C@@H](Cc1c[nH]c2ccccc12)C(=O)NCCCNC(=O)c1ccc(-c2c4nc(c(-c5ccc(S(=O)(=O)[O-])cc5)c5ccc([nH]5)c(-c5ccc(S(=O)(=O)[O-])cc5)c5nc(c(-c6ccc(S(=O)(=O)[O-])cc6)c6ccc2[nH]6)C=C5)C=C4)cc1)C(=O)O3
REMARK SMILES IDX 33 1 32 2 30 3 31 4 19 6 18 7 16 8 17 9 15 11 14 12 13 13
REMARK SMILES IDX 1 14 2 15 3 16 10 17 4 18 5 19 9 20 6 21 8 22 7 23 11 24
REMARK SMILES IDX 101 25 12 26 99 27 100 28 20 29 21 30 22 31 29 32 23 33
REMARK SMILES IDX 24 34 28 35 25 37 27 38 26 39 34 40 35 41 36 42 37 43 38 45
REMARK SMILES IDX 39 46 40 47 98 48 41 49 97 50 42 51 43 52 44 53 91 54 45 55
REMARK SMILES IDX 96 56 90 57 92 58 46 59 95 60 89 61 88 62 47 64 77 65 58 66
REMARK SMILES IDX 76 67 59 68 62 69 75 70 93 71 60 72 61 73 74 75 94 76 63 77
REMARK SMILES IDX 48 78 49 79 57 80 50 81 56 82 51 83 52 84 53 85 54 86 55 87
REMARK SMILES IDX 78 88 79 89 87 90 80 91 86 92 81 93 82 94 83 95 84 96 85 97
REMARK SMILES IDX 64 98 65 99 73 100 66 101 72 102 67 103 68 104 69 105 70 106
REMARK SMILES IDX 71 107
REMARK H PARENT 32 5 18 10 23 36 36 44 92 63 62 74
REMARK Flexibility Score: inf
ROOT
ATOM      1  C   UNL     1       4.135  -2.683   1.581  1.00  0.00     0.117 C 
ENDROOT
BRANCH   1   2
ATOM      2  N   UNL     1       3.321  -3.837   2.294  1.00  0.00    -0.354 N 
ATOM      3  C   UNL     1       2.444  -5.074   1.843  1.00  0.00     0.242 C 
ATOM      4  O   UNL     1       2.834  -5.937   2.667  1.00  0.00    -0.273 OA
ATOM      5  H   UNL     1       3.375  -3.768   3.275  1.00  0.00     0.163 HD
BRANCH   3   6
ATOM      6  C   UNL     1       1.175  -5.256   0.082  1.00  0.00     0.175 C 
BRANCH   6   7
ATOM      7  N   UNL     1      -0.221  -4.881  -0.375  1.00  0.00    -0.344 N 
ATOM      8  C   UNL     1      -1.051  -5.905  -0.802  1.00  0.00     0.220 C 
ATOM      9  O   UNL     1      -2.148  -5.661  -1.293  1.00  0.00    -0.275 OA
ATOM     10  H   UNL     1      -0.526  -3.945  -0.368  1.00  0.00     0.164 HD
BRANCH   8  11
ATOM     11  C   UNL     1      -0.543  -7.366  -0.496  1.00  0.00     0.101 C 
BRANCH  11  12
ATOM     12  C   UNL     1       1.089  -7.771  -0.558  1.00  0.00     0.026 C 
BRANCH  12  13
ATOM     13  C   UNL     1       2.360  -6.883   0.427  1.00  0.00     0.107 C 
ATOM     14  C   UNL     1       0.299   0.803  -0.243  1.00  0.00     0.048 C 
ATOM     15  C   UNL     1      -0.021  -0.171   0.813  1.00  0.00    -0.005 A 
ATOM     16  C   UNL     1      -0.760   0.095   1.947  1.00  0.00     0.199 A 
ATOM     17  C   UNL     1       0.431  -1.537   0.898  1.00  0.00     0.024 A 
ATOM     18  O   UNL     1      -0.945  -1.023   2.665  1.00  0.00    -0.464 OA
ATOM     19  C   UNL     1      -0.259  -2.015   2.043  1.00  0.00     0.137 A 
ATOM     20  C   UNL     1       1.416  -2.324   0.103  1.00  0.00     0.020 A 
ATOM     21  C   UNL     1      -0.307  -3.288   2.551  1.00  0.00     0.095 A 
ATOM     22  C   UNL     1       1.814  -3.526   0.654  1.00  0.00    -0.001 A 
ATOM     23  C   UNL     1       0.653  -3.971   1.874  1.00  0.00     0.138 A 
ATOM     24  C   UNL     1       3.097  -5.008   0.083  1.00  0.00     0.034 C 
ATOM     25  O   UNL     1       0.498  -5.658   2.278  1.00  0.00    -0.426 OA
ATOM     26  C   UNL     1       4.637  -5.345   0.457  1.00  0.00     0.014 C 
ATOM     27  C   UNL     1       1.232  -7.095   1.907  1.00  0.00     0.314 C 
ATOM     28  O   UNL     1       0.888  -8.147   2.426  1.00  0.00    -0.251 OA
ENDBRANCH  12  13
ENDBRANCH  11  12
ENDBRANCH   8  11
ENDBRANCH   6   7
BRANCH   6  29
ATOM     29  C   UNL     1       1.774  -5.466  -1.751  1.00  0.00     0.072 C 
BRANCH  29  30
ATOM     30  C   UNL     1       2.696  -4.416  -2.591  1.00  0.00    -0.020 A 
ATOM     31  C   UNL     1       2.348  -3.143  -2.986  1.00  0.00     0.087 A 
ATOM     32  C   UNL     1       4.176  -4.505  -2.861  1.00  0.00     0.003 A 
ATOM     33  N   UNL     1       3.498  -2.418  -3.204  1.00  0.00    -0.361 N 
ATOM     34  C   UNL     1       4.622  -3.190  -3.022  1.00  0.00     0.046 A 
ATOM     35  C   UNL     1       5.194  -5.502  -2.762  1.00  0.00     0.010 A 
ATOM     36  H   UNL     1       3.514  -1.467  -3.458  1.00  0.00     0.166 HD
ATOM     37  C   UNL     1       5.981  -2.812  -2.982  1.00  0.00     0.026 A 
ATOM     38  C   UNL     1       6.563  -5.141  -2.755  1.00  0.00     0.001 A 
ATOM     39  C   UNL     1       6.947  -3.808  -2.832  1.00  0.00     0.002 A 
ENDBRANCH  29  30
ENDBRANCH   6  29
ENDBRANCH   3   6
ENDBRANCH   1   2
BRANCH   1  40
ATOM     40  C   UNL     1       3.555  -1.248   1.530  1.00  0.00     0.042 C 
BRANCH  40  41
ATOM     41  C   UNL     1       4.297  -0.072   2.125  1.00  0.00     0.118 C 
BRANCH  41  42
ATOM     42  N   UNL     1       5.654   0.043   1.671  1.00  0.00    -0.352 N 
ATOM     43  C   UNL     1       6.342   0.892   0.859  1.00  0.00     0.251 C 
ATOM     44  H   UNL     1       6.229  -0.668   2.036  1.00  0.00     0.163 HD
ATOM     45  O   UNL     1       7.571   0.792   0.955  1.00  0.00    -0.269 OA
BRANCH  43  46
ATOM     46  C   UNL     1       5.793   1.842  -0.151  1.00  0.00     0.039 A 
ATOM     47  C   UNL     1       4.485   1.908  -0.641  1.00  0.00     0.014 A 
ATOM     48  C   UNL     1       6.780   2.634  -0.770  1.00  0.00     0.014 A 
ATOM     49  C   UNL     1       4.221   2.621  -1.825  1.00  0.00     0.010 A 
ATOM     50  C   UNL     1       6.524   3.338  -1.932  1.00  0.00     0.010 A 
ATOM     51  C   UNL     1       5.267   3.253  -2.513  1.00  0.00    -0.014 A 
BRANCH  51  52
ATOM     52  C   UNL     1       5.062   3.888  -3.817  1.00  0.00     0.031 A 
ATOM     53  C   UNL     1       4.220   5.121  -3.785  1.00  0.00     0.074 A 
ATOM     54  C   UNL     1       5.754   3.502  -4.919  1.00  0.00     0.049 A 
ATOM     55  N   UNL     1       3.133   5.360  -4.441  1.00  0.00    -0.248 NA
ATOM     56  C   UNL     1       4.565   6.177  -2.815  1.00  0.00     0.031 C 
ATOM     57  C   UNL     1       6.824   2.498  -5.021  1.00  0.00     0.029 A 
ATOM     58  N   UNL     1       5.724   4.006  -6.185  1.00  0.00    -0.354 N 
ATOM     59  C   UNL     1       2.741   6.656  -4.103  1.00  0.00     0.074 A 
ATOM     60  C   UNL     1       3.581   7.057  -3.003  1.00  0.00     0.031 C 
ATOM     61  C   UNL     1       7.494   2.657  -6.189  1.00  0.00     0.029 A 
ATOM     62  C   UNL     1       6.814   3.659  -6.989  1.00  0.00     0.049 A 
ATOM     63  H   UNL     1       4.989   4.574  -6.510  1.00  0.00     0.167 HD
ATOM     64  C   UNL     1       1.860   7.370  -4.858  1.00  0.00     0.031 A 
ATOM     65  C   UNL     1       7.143   4.179  -8.206  1.00  0.00     0.031 A 
ATOM     66  C   UNL     1       1.139   6.520  -5.764  1.00  0.00     0.049 A 
ATOM     67  C   UNL     1       5.913   4.817  -8.737  1.00  0.00     0.074 A 
ATOM     68  C   UNL     1       0.214   5.510  -5.599  1.00  0.00     0.029 A 
ATOM     69  N   UNL     1       1.640   6.377  -7.036  1.00  0.00    -0.354 N 
ATOM     70  N   UNL     1       4.836   4.149  -9.042  1.00  0.00    -0.248 NA
ATOM     71  C   UNL     1       5.723   6.229  -8.445  1.00  0.00     0.031 C 
ATOM     72  C   UNL     1       0.580   4.528  -6.562  1.00  0.00     0.029 A 
ATOM     73  C   UNL     1       1.631   5.036  -7.330  1.00  0.00     0.049 A 
ATOM     74  H   UNL     1       1.948   7.101  -7.626  1.00  0.00     0.167 HD
ATOM     75  C   UNL     1       3.795   4.928  -8.559  1.00  0.00     0.074 A 
ATOM     76  C   UNL     1       4.402   6.224  -8.247  1.00  0.00     0.031 C 
ATOM     77  C   UNL     1       2.604   4.378  -8.182  1.00  0.00     0.031 A 
BRANCH  64  78
ATOM     78  C   UNL     1       1.842   8.872  -4.973  1.00  0.00    -0.014 A 
ATOM     79  C   UNL     1       2.908   9.691  -4.549  1.00  0.00     0.010 A 
ATOM     80  C   UNL     1       0.831   9.492  -5.740  1.00  0.00     0.010 A 
ATOM     81  C   UNL     1       2.960  11.055  -4.847  1.00  0.00     0.020 A 
ATOM     82  C   UNL     1       0.892  10.852  -6.077  1.00  0.00     0.020 A 
ATOM     83  C   UNL     1       1.954  11.627  -5.619  1.00  0.00     0.054 A 
BRANCH  83  84
ATOM     84  S   UNL     1       2.092  13.382  -6.043  1.00  0.00     0.124 S 
ATOM     85  O   UNL     1       1.946  14.018  -4.737  1.00  0.00    -0.237 OA
ATOM     86  O   UNL     1       3.425  13.456  -6.635  1.00  0.00    -0.237 OA
ATOM     87  O   UNL     1       0.986  13.599  -6.971  1.00  0.00    -0.744 OA
ENDBRANCH  83  84
ENDBRANCH  64  78
BRANCH  65  88
ATOM     88  C   UNL     1       8.494   4.602  -8.693  1.00  0.00    -0.014 A 
ATOM     89  C   UNL     1       9.469   5.009  -7.761  1.00  0.00     0.010 A 
ATOM     90  C   UNL     1       8.713   4.942 -10.047  1.00  0.00     0.010 A 
ATOM     91  C   UNL     1      10.564   5.799  -8.141  1.00  0.00     0.020 A 
ATOM     92  C   UNL     1       9.816   5.730 -10.438  1.00  0.00     0.020 A 
ATOM     93  C   UNL     1      10.711   6.189  -9.472  1.00  0.00     0.054 A 
BRANCH  93  94
ATOM     94  S   UNL     1      12.026   7.381  -9.877  1.00  0.00     0.124 S 
ATOM     95  O   UNL     1      11.564   8.586  -9.193  1.00  0.00    -0.237 OA
ATOM     96  O   UNL     1      13.213   6.752  -9.302  1.00  0.00    -0.237 OA
ATOM     97  O   UNL     1      12.004   7.444 -11.336  1.00  0.00    -0.744 OA
ENDBRANCH  93  94
ENDBRANCH  65  88
BRANCH  77  98
ATOM     98  C   UNL     1       2.341   2.910  -8.466  1.00  0.00    -0.014 A 
ATOM     99  C   UNL     1       1.132   2.597  -9.113  1.00  0.00     0.010 A 
ATOM    100  C   UNL     1       3.101   1.852  -7.924  1.00  0.00     0.010 A 
ATOM    101  C   UNL     1       0.660   1.286  -9.168  1.00  0.00     0.020 A 
ATOM    102  C   UNL     1       2.645   0.523  -8.002  1.00  0.00     0.020 A 
ATOM    103  C   UNL     1       1.410   0.256  -8.599  1.00  0.00     0.054 A 
BRANCH 103 104
ATOM    104  S   UNL     1       0.710  -1.417  -8.628  1.00  0.00     0.124 S 
ATOM    105  O   UNL     1      -0.393  -1.303  -7.676  1.00  0.00    -0.237 OA
ATOM    106  O   UNL     1       0.316  -1.576 -10.026  1.00  0.00    -0.237 OA
ATOM    107  O   UNL     1       1.815  -2.268  -8.194  1.00  0.00    -0.744 OA
ENDBRANCH 103 104
ENDBRANCH  77  98
ENDBRANCH  51  52
ENDBRANCH  43  46
ENDBRANCH  41  42
ENDBRANCH  40  41
ENDBRANCH   1  40
TORSDOF 19
