REMARK SMILES Cc1n[nH]c(C)c1C(=O)N1CC(n2cc(C(=O)NCCCNC(=O)c3ccc(-c4c5nc(c(-c6ccc(S(=O)(=O)[O-])cc6)c6ccc([nH]6)c(-c6ccc(S(=O)(=O)[O-])cc6)c6nc(c(-c7ccc(S(=O)(=O)[O-])cc7)c7ccc4[nH]7)C=C6)C=C5)cc3)nn2)C1
REMARK SMILES IDX 20 1 19 2 18 3 16 4 17 5 15 7 13 8 14 9 86 10 85 11 12 12
REMARK SMILES IDX 8 13 9 14 10 15 11 16 87 17 7 18 1 19 2 20 3 21 4 22 5 23
REMARK SMILES IDX 6 25 21 26 22 27 23 28 24 30 25 31 26 32 84 33 27 34 83 35
REMARK SMILES IDX 28 36 29 37 30 38 77 39 31 40 82 41 76 42 78 43 32 44 81 45
REMARK SMILES IDX 75 46 74 47 33 49 63 50 44 51 62 52 45 53 48 54 61 55 79 56
REMARK SMILES IDX 46 57 47 58 60 60 80 61 49 62 34 63 35 64 43 65 36 66 42 67
REMARK SMILES IDX 37 68 38 69 39 70 40 71 41 72 64 73 65 74 73 75 66 76 72 77
REMARK SMILES IDX 67 78 68 79 69 80 70 81 71 82 50 83 51 84 59 85 52 86 58 87
REMARK SMILES IDX 53 88 54 89 55 90 56 91 57 92
REMARK H PARENT 18 6 4 24 22 29 78 48 48 59
REMARK Flexibility Score: inf
ROOT
ATOM      1  C   UNL     1       5.436  -6.306   4.351  1.00  0.00     0.042 C 
ENDROOT
BRANCH   1   2
ATOM      2  C   UNL     1       6.409  -5.482   3.498  1.00  0.00     0.118 C 
BRANCH   2   3
ATOM      3  N   UNL     1       7.180  -6.294   2.571  1.00  0.00    -0.351 N 
ATOM      4  C   UNL     1       7.014  -6.501   1.214  1.00  0.00     0.273 C 
ATOM      5  O   UNL     1       7.924  -7.043   0.604  1.00  0.00    -0.267 OA
ATOM      6  H   UNL     1       7.941  -6.772   2.973  1.00  0.00     0.163 HD
BRANCH   4   7
ATOM      7  C   UNL     1       5.798  -6.040   0.552  1.00  0.00     0.170 A 
ATOM      8  N   UNL     1       3.813  -5.357   0.009  1.00  0.00    -0.245 N 
ATOM      9  C   UNL     1       4.508  -5.934   1.030  1.00  0.00     0.145 A 
ATOM     10  N   UNL     1       4.591  -5.170  -1.064  1.00  0.00    -0.066 NA
ATOM     11  N   UNL     1       5.801  -5.622  -0.762  1.00  0.00    -0.125 NA
BRANCH   8  12
ATOM     12  C   UNL     1       2.471  -4.880   0.146  1.00  0.00     0.148 C 
ATOM     13  C   UNL     1       0.293  -2.559  -0.209  1.00  0.00     0.257 C 
ATOM     14  O   UNL     1      -0.715  -3.260  -0.250  1.00  0.00    -0.269 OA
ATOM     15  N   UNL     1       1.553  -3.090  -0.398  1.00  0.00    -0.334 N 
ATOM     16  C   UNL     1       1.829  -4.336  -1.126  1.00  0.00     0.149 C 
ATOM     17  C   UNL     1       2.470  -3.443   0.690  1.00  0.00     0.149 C 
BRANCH  13  18
ATOM     18  C   UNL     1       0.228  -1.108  -0.033  1.00  0.00     0.083 A 
ATOM     19  C   UNL     1      -2.378  -0.805   0.044  1.00  0.00     0.069 C 
ATOM     20  C   UNL     1      -0.969  -0.331   0.068  1.00  0.00     0.072 A 
ATOM     21  N   UNL     1      -0.716   0.979   0.174  1.00  0.00    -0.180 NA
ATOM     22  N   UNL     1       0.616   1.054   0.123  1.00  0.00    -0.282 N 
ATOM     23  C   UNL     1       1.242  -0.156   0.009  1.00  0.00     0.045 A 
ATOM     24  H   UNL     1       1.106   1.908   0.165  1.00  0.00     0.190 HD
ATOM     25  C   UNL     1       2.721  -0.225  -0.063  1.00  0.00     0.067 C 
ENDBRANCH  13  18
ENDBRANCH   8  12
ENDBRANCH   4   7
ENDBRANCH   2   3
ENDBRANCH   1   2
BRANCH   1  26
ATOM     26  C   UNL     1       6.114  -6.951   5.547  1.00  0.00     0.118 C 
BRANCH  26  27
ATOM     27  N   UNL     1       6.538  -5.973   6.561  1.00  0.00    -0.352 N 
ATOM     28  C   UNL     1       7.279  -6.170   7.721  1.00  0.00     0.251 C 
ATOM     29  H   UNL     1       6.256  -5.045   6.394  1.00  0.00     0.163 HD
ATOM     30  O   UNL     1       7.236  -5.348   8.625  1.00  0.00    -0.269 OA
BRANCH  28  31
ATOM     31  C   UNL     1       8.112  -7.381   7.836  1.00  0.00     0.039 A 
ATOM     32  C   UNL     1       8.361  -8.041   9.043  1.00  0.00     0.014 A 
ATOM     33  C   UNL     1       8.625  -7.884   6.652  1.00  0.00     0.014 A 
ATOM     34  C   UNL     1       9.093  -9.229   9.006  1.00  0.00     0.010 A 
ATOM     35  C   UNL     1       9.003  -9.186   6.586  1.00  0.00     0.010 A 
ATOM     36  C   UNL     1       9.404  -9.789   7.758  1.00  0.00    -0.014 A 
BRANCH  36  37
ATOM     37  C   UNL     1      10.118 -11.039   7.586  1.00  0.00     0.031 A 
ATOM     38  C   UNL     1       9.418 -12.207   8.150  1.00  0.00     0.074 A 
ATOM     39  C   UNL     1      11.163 -11.174   6.739  1.00  0.00     0.049 A 
ATOM     40  N   UNL     1       9.665 -12.785   9.274  1.00  0.00    -0.248 NA
ATOM     41  C   UNL     1       8.180 -12.660   7.497  1.00  0.00     0.031 C 
ATOM     42  C   UNL     1      11.739 -10.191   5.807  1.00  0.00     0.029 A 
ATOM     43  N   UNL     1      11.865 -12.296   6.445  1.00  0.00    -0.354 N 
ATOM     44  C   UNL     1       8.781 -13.852   9.339  1.00  0.00     0.074 A 
ATOM     45  C   UNL     1       7.747 -13.566   8.377  1.00  0.00     0.031 C 
ATOM     46  C   UNL     1      12.529 -10.825   4.910  1.00  0.00     0.029 A 
ATOM     47  C   UNL     1      12.653 -12.216   5.303  1.00  0.00     0.049 A 
ATOM     48  H   UNL     1      11.820 -13.108   7.000  1.00  0.00     0.167 HD
ATOM     49  C   UNL     1       9.128 -15.016   9.956  1.00  0.00     0.031 A 
ATOM     50  C   UNL     1      13.323 -13.242   4.717  1.00  0.00     0.031 A 
ATOM     51  C   UNL     1      10.373 -14.877  10.677  1.00  0.00     0.049 A 
ATOM     52  C   UNL     1      13.480 -14.293   5.758  1.00  0.00     0.074 A 
ATOM     53  C   UNL     1      10.826 -14.034  11.675  1.00  0.00     0.029 A 
ATOM     54  N   UNL     1      11.503 -15.384  10.070  1.00  0.00    -0.354 N 
ATOM     55  N   UNL     1      14.194 -14.125   6.838  1.00  0.00    -0.248 NA
ATOM     56  C   UNL     1      12.462 -15.330   5.844  1.00  0.00     0.031 C 
ATOM     57  C   UNL     1      12.157 -13.696  11.290  1.00  0.00     0.029 A 
ATOM     58  C   UNL     1      12.480 -14.422  10.141  1.00  0.00     0.049 A 
ATOM     59  H   UNL     1      11.592 -16.274   9.659  1.00  0.00     0.167 HD
ATOM     60  C   UNL     1      13.440 -14.695   7.856  1.00  0.00     0.074 A 
ATOM     61  C   UNL     1      12.435 -15.507   7.169  1.00  0.00     0.031 C 
ATOM     62  C   UNL     1      13.512 -14.231   9.140  1.00  0.00     0.031 A 
BRANCH  49  63
ATOM     63  C   UNL     1       8.583 -16.368   9.570  1.00  0.00    -0.014 A 
ATOM     64  C   UNL     1       8.965 -17.487  10.336  1.00  0.00     0.010 A 
ATOM     65  C   UNL     1       7.921 -16.622   8.352  1.00  0.00     0.010 A 
ATOM     66  C   UNL     1       8.757 -18.791   9.869  1.00  0.00     0.020 A 
ATOM     67  C   UNL     1       7.667 -17.916   7.899  1.00  0.00     0.020 A 
ATOM     68  C   UNL     1       8.120 -18.994   8.645  1.00  0.00     0.054 A 
BRANCH  68  69
ATOM     69  S   UNL     1       7.943 -20.675   8.006  1.00  0.00     0.124 S 
ATOM     70  O   UNL     1       9.332 -21.046   7.755  1.00  0.00    -0.237 OA
ATOM     71  O   UNL     1       7.293 -21.360   9.120  1.00  0.00    -0.237 OA
ATOM     72  O   UNL     1       7.113 -20.503   6.817  1.00  0.00    -0.744 OA
ENDBRANCH  68  69
ENDBRANCH  49  63
BRANCH  50  73
ATOM     73  C   UNL     1      13.518 -13.508   3.267  1.00  0.00    -0.014 A 
ATOM     74  C   UNL     1      14.362 -14.548   2.831  1.00  0.00     0.010 A 
ATOM     75  C   UNL     1      12.644 -12.939   2.317  1.00  0.00     0.010 A 
ATOM     76  C   UNL     1      14.268 -15.062   1.525  1.00  0.00     0.020 A 
ATOM     77  C   UNL     1      12.550 -13.440   1.012  1.00  0.00     0.020 A 
ATOM     78  C   UNL     1      13.340 -14.522   0.631  1.00  0.00     0.054 A 
BRANCH  78  79
ATOM     79  S   UNL     1      13.062 -15.333  -0.974  1.00  0.00     0.124 S 
ATOM     80  O   UNL     1      14.271 -14.985  -1.713  1.00  0.00    -0.237 OA
ATOM     81  O   UNL     1      12.932 -16.739  -0.600  1.00  0.00    -0.237 OA
ATOM     82  O   UNL     1      11.832 -14.712  -1.464  1.00  0.00    -0.744 OA
ENDBRANCH  78  79
ENDBRANCH  50  73
BRANCH  62  83
ATOM     83  C   UNL     1      14.624 -13.266   9.502  1.00  0.00    -0.014 A 
ATOM     84  C   UNL     1      14.809 -12.006   8.897  1.00  0.00     0.010 A 
ATOM     85  C   UNL     1      15.422 -13.592  10.613  1.00  0.00     0.010 A 
ATOM     86  C   UNL     1      15.785 -11.115   9.373  1.00  0.00     0.020 A 
ATOM     87  C   UNL     1      16.381 -12.704  11.104  1.00  0.00     0.020 A 
ATOM     88  C   UNL     1      16.568 -11.473  10.475  1.00  0.00     0.054 A 
BRANCH  88  89
ATOM     89  S   UNL     1      17.810 -10.311  11.109  1.00  0.00     0.124 S 
ATOM     90  O   UNL     1      18.801 -10.289  10.037  1.00  0.00    -0.237 OA
ATOM     91  O   UNL     1      17.044  -9.079  11.284  1.00  0.00    -0.237 OA
ATOM     92  O   UNL     1      18.262 -10.930  12.355  1.00  0.00    -0.744 OA
ENDBRANCH  88  89
ENDBRANCH  62  83
ENDBRANCH  36  37
ENDBRANCH  28  31
ENDBRANCH  26  27
ENDBRANCH   1  26
TORSDOF 15
