REMARK SMILES C[N@@H+](CC(=O)NCCCNC(=O)c1ccc(-c2c3nc(c(-c4ccc(S(=O)(=O)[O-])cc4)c4ccc([nH]4)c(-c4ccc(S(=O)(=O)[O-])cc4)c4nc(c(-c5ccc(S(=O)(=O)[O-])cc5)c5ccc2[nH]5)C=C4)C=C3)cc1)Cc1csc(-c2ccco2)n1
REMARK SMILES IDX 7 1 6 2 4 3 5 4 3 6 2 7 1 8 73 10 74 11 75 12 83 13 76 14
REMARK SMILES IDX 77 15 78 16 79 17 82 18 80 19 81 20 8 21 9 22 10 23 11 24
REMARK SMILES IDX 12 26 13 27 14 28 72 29 15 30 71 31 16 32 17 33 18 34 65 35
REMARK SMILES IDX 19 36 70 37 64 38 66 39 20 40 69 41 63 42 62 43 21 45 51 46
REMARK SMILES IDX 32 47 50 48 33 49 36 50 49 51 67 52 34 53 35 54 48 56 68 57
REMARK SMILES IDX 37 58 22 59 23 60 31 61 24 62 30 63 25 64 26 65 27 66 28 67
REMARK SMILES IDX 29 68 52 69 53 70 61 71 54 72 60 73 55 74 56 75 57 76 58 77
REMARK SMILES IDX 59 78 38 79 39 80 47 81 40 82 46 83 41 84 42 85 43 86 44 87
REMARK SMILES IDX 45 88
REMARK H PARENT 6 5 2 9 10 25 66 44 36 55
REMARK Flexibility Score: inf
ROOT
ATOM      1  C   UNL     1      -0.854  -1.369   1.139  1.00  0.00     0.118 C 
ENDROOT
BRANCH   1   2
ATOM      2  N   UNL     1      -1.476  -0.081   1.380  1.00  0.00    -0.351 N 
ATOM      3  C   UNL     1      -1.637   1.004   0.573  1.00  0.00     0.275 C 
ATOM      4  O   UNL     1      -2.354   1.917   0.992  1.00  0.00    -0.269 OA
ATOM      5  H   UNL     1      -1.847   0.027   2.285  1.00  0.00     0.163 HD
BRANCH   3   6
ATOM      6  C   UNL     1      -1.012   1.070  -0.818  1.00  0.00     0.363 C 
BRANCH   6   7
ATOM      7  N   UNL     1       0.347   1.603  -0.879  1.00  0.00    -0.325 N 
ATOM      8  C   UNL     1       1.439   0.670  -0.988  1.00  0.00     0.333 C 
ATOM      9  H   UNL     1       0.302   1.911  -1.851  1.00  0.00     0.348 HD
BRANCH   7  10
ATOM     10  C   UNL     1       0.623   2.914  -0.297  1.00  0.00     0.320 C 
BRANCH  10  11
ATOM     11  C   UNL     1       0.692   2.975   1.205  1.00  0.00     0.106 A 
ATOM     12  C   UNL     1       1.422   2.180   2.070  1.00  0.00     0.097 A 
ATOM     13  N   UNL     1       0.012   4.014   1.842  1.00  0.00    -0.232 NA
ATOM     14  S   UNL     1       1.183   2.672   3.693  1.00  0.00    -0.119 S 
ATOM     15  C   UNL     1       0.193   3.961   3.146  1.00  0.00     0.159 A 
BRANCH  15  16
ATOM     16  C   UNL     1      -0.365   4.930   4.050  1.00  0.00     0.162 A 
ATOM     17  C   UNL     1      -1.257   5.954   3.767  1.00  0.00     0.053 A 
ATOM     18  O   UNL     1      -0.055   4.991   5.389  1.00  0.00    -0.462 OA
ATOM     19  C   UNL     1      -1.485   6.666   4.970  1.00  0.00     0.043 A 
ATOM     20  C   UNL     1      -0.725   6.040   5.927  1.00  0.00     0.196 A 
ENDBRANCH  15  16
ENDBRANCH  10  11
ENDBRANCH   7  10
ENDBRANCH   6   7
ENDBRANCH   3   6
ENDBRANCH   1   2
BRANCH   1  21
ATOM     21  C   UNL     1       0.430  -1.585   1.934  1.00  0.00     0.042 C 
BRANCH  21  22
ATOM     22  C   UNL     1       0.326  -1.346   3.437  1.00  0.00     0.118 C 
BRANCH  22  23
ATOM     23  N   UNL     1      -0.297  -2.452   4.140  1.00  0.00    -0.352 N 
ATOM     24  C   UNL     1       0.203  -3.235   5.154  1.00  0.00     0.251 C 
ATOM     25  H   UNL     1      -1.211  -2.674   3.848  1.00  0.00     0.163 HD
ATOM     26  O   UNL     1      -0.422  -4.235   5.498  1.00  0.00    -0.269 OA
BRANCH  24  27
ATOM     27  C   UNL     1       1.490  -2.905   5.817  1.00  0.00     0.039 A 
ATOM     28  C   UNL     1       2.375  -3.949   6.107  1.00  0.00     0.014 A 
ATOM     29  C   UNL     1       1.811  -1.600   6.206  1.00  0.00     0.014 A 
ATOM     30  C   UNL     1       3.591  -3.682   6.744  1.00  0.00     0.010 A 
ATOM     31  C   UNL     1       3.052  -1.327   6.790  1.00  0.00     0.010 A 
ATOM     32  C   UNL     1       3.950  -2.366   7.076  1.00  0.00    -0.014 A 
BRANCH  32  33
ATOM     33  C   UNL     1       5.248  -2.076   7.742  1.00  0.00     0.031 A 
ATOM     34  C   UNL     1       5.283  -1.579   9.164  1.00  0.00     0.074 A 
ATOM     35  C   UNL     1       6.403  -2.234   7.066  1.00  0.00     0.049 A 
ATOM     36  N   UNL     1       6.317  -1.272   9.906  1.00  0.00    -0.248 NA
ATOM     37  C   UNL     1       3.986  -1.388   9.832  1.00  0.00     0.031 C 
ATOM     38  C   UNL     1       6.516  -2.683   5.677  1.00  0.00     0.029 A 
ATOM     39  N   UNL     1       7.705  -2.034   7.457  1.00  0.00    -0.354 N 
ATOM     40  C   UNL     1       5.799  -0.841  11.121  1.00  0.00     0.074 A 
ATOM     41  C   UNL     1       4.357  -0.888  11.002  1.00  0.00     0.031 C 
ATOM     42  C   UNL     1       7.816  -2.748   5.341  1.00  0.00     0.029 A 
ATOM     43  C   UNL     1       8.626  -2.320   6.478  1.00  0.00     0.049 A 
ATOM     44  H   UNL     1       7.954  -1.717   8.355  1.00  0.00     0.167 HD
ATOM     45  C   UNL     1       6.457  -0.456  12.242  1.00  0.00     0.031 A 
ATOM     46  C   UNL     1       9.972  -2.248   6.490  1.00  0.00     0.031 A 
ATOM     47  C   UNL     1       7.890  -0.413  12.370  1.00  0.00     0.049 A 
ATOM     48  C   UNL     1      10.683  -1.811   7.740  1.00  0.00     0.074 A 
ATOM     49  C   UNL     1       8.645  -0.081  13.482  1.00  0.00     0.029 A 
ATOM     50  N   UNL     1       8.785  -0.707  11.353  1.00  0.00    -0.354 N 
ATOM     51  N   UNL     1      10.174  -1.461   8.896  1.00  0.00    -0.248 NA
ATOM     52  C   UNL     1      12.152  -1.772   7.689  1.00  0.00     0.031 C 
ATOM     53  C   UNL     1       9.998  -0.137  13.125  1.00  0.00     0.029 A 
ATOM     54  C   UNL     1      10.085  -0.547  11.805  1.00  0.00     0.049 A 
ATOM     55  H   UNL     1       8.534  -0.988  10.444  1.00  0.00     0.167 HD
ATOM     56  C   UNL     1      11.260  -1.181   9.718  1.00  0.00     0.074 A 
ATOM     57  C   UNL     1      12.453  -1.412   8.930  1.00  0.00     0.031 C 
ATOM     58  C   UNL     1      11.266  -0.773  11.011  1.00  0.00     0.031 A 
BRANCH  45  59
ATOM     59  C   UNL     1       5.620  -0.037  13.421  1.00  0.00    -0.014 A 
ATOM     60  C   UNL     1       4.899  -0.984  14.170  1.00  0.00     0.010 A 
ATOM     61  C   UNL     1       5.564   1.318  13.793  1.00  0.00     0.010 A 
ATOM     62  C   UNL     1       4.095  -0.578  15.238  1.00  0.00     0.020 A 
ATOM     63  C   UNL     1       4.780   1.726  14.877  1.00  0.00     0.020 A 
ATOM     64  C   UNL     1       4.033   0.777  15.578  1.00  0.00     0.054 A 
BRANCH  64  65
ATOM     65  S   UNL     1       2.978   1.282  16.965  1.00  0.00     0.124 S 
ATOM     66  O   UNL     1       1.648   1.234  16.363  1.00  0.00    -0.237 OA
ATOM     67  O   UNL     1       3.249   0.256  17.969  1.00  0.00    -0.237 OA
ATOM     68  O   UNL     1       3.463   2.619  17.299  1.00  0.00    -0.744 OA
ENDBRANCH  64  65
ENDBRANCH  45  59
BRANCH  46  69
ATOM     69  C   UNL     1      10.738  -2.629   5.273  1.00  0.00    -0.014 A 
ATOM     70  C   UNL     1      11.432  -3.850   5.225  1.00  0.00     0.010 A 
ATOM     71  C   UNL     1      10.749  -1.787   4.146  1.00  0.00     0.010 A 
ATOM     72  C   UNL     1      12.127  -4.223   4.071  1.00  0.00     0.020 A 
ATOM     73  C   UNL     1      11.426  -2.166   2.984  1.00  0.00     0.020 A 
ATOM     74  C   UNL     1      12.116  -3.380   2.956  1.00  0.00     0.054 A 
BRANCH  74  75
ATOM     75  S   UNL     1      12.957  -3.918   1.441  1.00  0.00     0.124 S 
ATOM     76  O   UNL     1      14.357  -3.667   1.765  1.00  0.00    -0.237 OA
ATOM     77  O   UNL     1      12.571  -5.324   1.345  1.00  0.00    -0.237 OA
ATOM     78  O   UNL     1      12.385  -3.054   0.410  1.00  0.00    -0.744 OA
ENDBRANCH  74  75
ENDBRANCH  46  69
BRANCH  58  79
ATOM     79  C   UNL     1      12.605  -0.572  11.667  1.00  0.00    -0.014 A 
ATOM     80  C   UNL     1      13.398   0.550  11.370  1.00  0.00     0.010 A 
ATOM     81  C   UNL     1      13.053  -1.494  12.631  1.00  0.00     0.010 A 
ATOM     82  C   UNL     1      14.630   0.732  12.005  1.00  0.00     0.020 A 
ATOM     83  C   UNL     1      14.274  -1.304  13.283  1.00  0.00     0.020 A 
ATOM     84  C   UNL     1      15.062  -0.198  12.956  1.00  0.00     0.054 A 
BRANCH  84  85
ATOM     85  S   UNL     1      16.644   0.079  13.799  1.00  0.00     0.124 S 
ATOM     86  O   UNL     1      17.607  -0.334  12.781  1.00  0.00    -0.237 OA
ATOM     87  O   UNL     1      16.611   1.511  14.088  1.00  0.00    -0.237 OA
ATOM     88  O   UNL     1      16.566  -0.788  14.973  1.00  0.00    -0.744 OA
ENDBRANCH  84  85
ENDBRANCH  58  79
ENDBRANCH  32  33
ENDBRANCH  24  27
ENDBRANCH  22  23
ENDBRANCH  21  22
ENDBRANCH   1  21
TORSDOF 17
