REMARK SMILES C[C@@H]1[C@@H](C(=O)NCCCNC(=O)c2ccc(-c3c4nc(c(-c5ccc(S(=O)(=O)[O-])cc5)c5ccc([nH]5)c(-c5ccc(S(=O)(=O)[O-])cc5)c5nc(c(-c6ccc(S(=O)(=O)[O-])cc6)c6ccc3[nH]6)C=C5)C=C4)cc2)CCN1C(=O)[C@]1([NH3+])CCOC1
REMARK SMILES IDX 8 1 7 2 6 3 4 4 5 5 3 7 1 8 2 9 75 10 73 11 74 12 76 13
REMARK SMILES IDX 77 14 78 15 80 16 83 17 81 18 82 19 79 20 9 24 10 25 11 26
REMARK SMILES IDX 12 28 13 29 14 30 72 31 15 32 71 33 16 34 17 35 18 36 65 37
REMARK SMILES IDX 19 38 70 39 64 40 66 41 20 42 69 43 63 44 62 45 21 47 51 48
REMARK SMILES IDX 32 49 50 50 33 51 36 52 49 53 67 54 34 55 35 56 48 58 68 59
REMARK SMILES IDX 37 60 22 61 23 62 31 63 24 64 30 65 25 66 26 67 27 68 28 69
REMARK SMILES IDX 29 70 52 71 53 72 61 73 54 74 60 75 55 76 56 77 57 78 58 79
REMARK SMILES IDX 59 80 38 81 39 82 47 83 40 84 46 85 41 86 42 87 43 88 44 89
REMARK SMILES IDX 45 90
REMARK H PARENT 6 6 79 21 79 22 79 23 10 27 66 46 36 57
REMARK Flexibility Score: inf
ROOT
ATOM      1  C   UNL     1       7.254  -3.834  -0.161  1.00  0.00     0.042 C 
ENDROOT
BRANCH   1   2
ATOM      2  C   UNL     1       7.105  -5.186  -0.847  1.00  0.00     0.117 C 
BRANCH   2   3
ATOM      3  N   UNL     1       6.177  -6.056  -0.146  1.00  0.00    -0.356 N 
ATOM      4  C   UNL     1       5.039  -6.662  -0.584  1.00  0.00     0.225 C 
ATOM      5  O   UNL     1       4.446  -7.404   0.200  1.00  0.00    -0.275 OA
ATOM      6  H   UNL     1       6.408  -6.237   0.793  1.00  0.00     0.163 HD
BRANCH   4   7
ATOM      7  C   UNL     1       4.572  -6.439  -2.015  1.00  0.00     0.102 C 
ATOM      8  C   UNL     1       4.008  -4.636  -3.656  1.00  0.00     0.032 C 
ATOM      9  C   UNL     1       3.856  -5.087  -2.197  1.00  0.00     0.094 C 
ATOM     10  N   UNL     1       2.450  -5.368  -1.881  1.00  0.00    -0.334 N 
ATOM     11  C   UNL     1       3.492  -7.447  -2.417  1.00  0.00     0.037 C 
ATOM     12  C   UNL     1       2.203  -6.808  -1.925  1.00  0.00     0.121 C 
BRANCH  10  13
ATOM     13  C   UNL     1       1.419  -4.556  -1.454  1.00  0.00     0.286 C 
ATOM     14  O   UNL     1       0.288  -5.062  -1.325  1.00  0.00    -0.267 OA
BRANCH  13  15
ATOM     15  C   UNL     1       1.569  -3.030  -1.081  1.00  0.00     0.199 C 
ATOM     16  C   UNL     1       1.903  -2.108  -2.237  1.00  0.00     0.110 C 
ATOM     17  C   UNL     1       2.667  -2.759  -0.058  1.00  0.00     0.239 C 
ATOM     18  C   UNL     1       3.333  -1.665  -2.009  1.00  0.00     0.167 C 
ATOM     19  O   UNL     1       3.772  -2.144  -0.739  1.00  0.00    -0.374 OA
BRANCH  15  20
ATOM     20  N   UNL     1       0.248  -2.601  -0.506  1.00  0.00    -0.343 N 
ATOM     21  H   UNL     1       0.294  -1.615  -0.247  1.00  0.00     0.345 HD
ATOM     22  H   UNL     1       0.039  -3.160   0.321  1.00  0.00     0.345 HD
ATOM     23  H   UNL     1      -0.486  -2.736  -1.202  1.00  0.00     0.345 HD
ENDBRANCH  15  20
ENDBRANCH  13  15
ENDBRANCH  10  13
ENDBRANCH   4   7
ENDBRANCH   2   3
ENDBRANCH   1   2
BRANCH   1  24
ATOM     24  C   UNL     1       7.780  -3.896   1.270  1.00  0.00     0.118 C 
BRANCH  24  25
ATOM     25  N   UNL     1       9.131  -4.433   1.363  1.00  0.00    -0.352 N 
ATOM     26  C   UNL     1      10.262  -3.890   1.929  1.00  0.00     0.251 C 
ATOM     27  H   UNL     1       9.254  -5.322   0.958  1.00  0.00     0.163 HD
ATOM     28  O   UNL     1      11.341  -4.447   1.769  1.00  0.00    -0.269 OA
BRANCH  26  29
ATOM     29  C   UNL     1      10.186  -2.627   2.701  1.00  0.00     0.039 A 
ATOM     30  C   UNL     1      11.178  -1.661   2.507  1.00  0.00     0.014 A 
ATOM     31  C   UNL     1       9.157  -2.393   3.616  1.00  0.00     0.014 A 
ATOM     32  C   UNL     1      11.093  -0.433   3.171  1.00  0.00     0.010 A 
ATOM     33  C   UNL     1       9.030  -1.140   4.214  1.00  0.00     0.010 A 
ATOM     34  C   UNL     1       9.994  -0.144   3.997  1.00  0.00    -0.014 A 
BRANCH  34  35
ATOM     35  C   UNL     1       9.829   1.194   4.625  1.00  0.00     0.031 A 
ATOM     36  C   UNL     1       9.818   1.338   6.125  1.00  0.00     0.074 A 
ATOM     37  C   UNL     1       9.629   2.276   3.846  1.00  0.00     0.049 A 
ATOM     38  N   UNL     1       9.631   2.413   6.848  1.00  0.00    -0.248 NA
ATOM     39  C   UNL     1      10.020   0.112   6.914  1.00  0.00     0.031 C 
ATOM     40  C   UNL     1       9.583   2.269   2.381  1.00  0.00     0.029 A 
ATOM     41  N   UNL     1       9.421   3.593   4.175  1.00  0.00    -0.354 N 
ATOM     42  C   UNL     1       9.681   1.993   8.172  1.00  0.00     0.074 A 
ATOM     43  C   UNL     1       9.863   0.557   8.152  1.00  0.00     0.031 C 
ATOM     44  C   UNL     1       9.392   3.523   1.940  1.00  0.00     0.029 A 
ATOM     45  C   UNL     1       9.252   4.416   3.085  1.00  0.00     0.049 A 
ATOM     46  H   UNL     1       9.395   3.918   5.104  1.00  0.00     0.167 HD
ATOM     47  C   UNL     1       9.602   2.734   9.304  1.00  0.00     0.031 A 
ATOM     48  C   UNL     1       9.002   5.739   3.012  1.00  0.00     0.031 A 
ATOM     49  C   UNL     1       9.421   4.163   9.322  1.00  0.00     0.049 A 
ATOM     50  C   UNL     1       8.886   6.536   4.283  1.00  0.00     0.074 A 
ATOM     51  C   UNL     1       9.376   5.009  10.416  1.00  0.00     0.029 A 
ATOM     52  N   UNL     1       9.250   4.956   8.197  1.00  0.00    -0.354 N 
ATOM     53  N   UNL     1       8.999   6.128   5.524  1.00  0.00    -0.248 NA
ATOM     54  C   UNL     1       8.619   7.974   4.142  1.00  0.00     0.031 C 
ATOM     55  C   UNL     1       9.116   6.304   9.957  1.00  0.00     0.029 A 
ATOM     56  C   UNL     1       9.071   6.277   8.573  1.00  0.00     0.049 A 
ATOM     57  H   UNL     1       9.254   4.628   7.269  1.00  0.00     0.167 HD
ATOM     58  C   UNL     1       8.850   7.266   6.311  1.00  0.00     0.074 A 
ATOM     59  C   UNL     1       8.653   8.378   5.404  1.00  0.00     0.031 C 
ATOM     60  C   UNL     1       8.876   7.378   7.662  1.00  0.00     0.031 A 
BRANCH  47  61
ATOM     61  C   UNL     1       9.703   2.010  10.623  1.00  0.00    -0.014 A 
ATOM     62  C   UNL     1      10.910   1.419  11.037  1.00  0.00     0.010 A 
ATOM     63  C   UNL     1       8.589   1.961  11.482  1.00  0.00     0.010 A 
ATOM     64  C   UNL     1      10.990   0.755  12.265  1.00  0.00     0.020 A 
ATOM     65  C   UNL     1       8.674   1.326  12.725  1.00  0.00     0.020 A 
ATOM     66  C   UNL     1       9.870   0.712  13.101  1.00  0.00     0.054 A 
BRANCH  66  67
ATOM     67  S   UNL     1      10.012  -0.135  14.698  1.00  0.00     0.124 S 
ATOM     68  O   UNL     1      10.088  -1.536  14.290  1.00  0.00    -0.237 OA
ATOM     69  O   UNL     1      11.243   0.426  15.248  1.00  0.00    -0.237 OA
ATOM     70  O   UNL     1       8.789   0.243  15.402  1.00  0.00    -0.744 OA
ENDBRANCH  66  67
ENDBRANCH  47  61
BRANCH  48  71
ATOM     71  C   UNL     1       8.854   6.396   1.683  1.00  0.00    -0.014 A 
ATOM     72  C   UNL     1       9.825   7.303   1.222  1.00  0.00     0.010 A 
ATOM     73  C   UNL     1       7.744   6.113   0.866  1.00  0.00     0.010 A 
ATOM     74  C   UNL     1       9.680   7.929  -0.020  1.00  0.00     0.020 A 
ATOM     75  C   UNL     1       7.611   6.712  -0.390  1.00  0.00     0.020 A 
ATOM     76  C   UNL     1       8.574   7.626  -0.820  1.00  0.00     0.054 A 
BRANCH  76  77
ATOM     77  S   UNL     1       8.433   8.412  -2.449  1.00  0.00     0.124 S 
ATOM     78  O   UNL     1       8.102   9.789  -2.096  1.00  0.00    -0.237 OA
ATOM     79  O   UNL     1       9.764   8.205  -3.014  1.00  0.00    -0.237 OA
ATOM     80  O   UNL     1       7.364   7.658  -3.101  1.00  0.00    -0.744 OA
ENDBRANCH  76  77
ENDBRANCH  48  71
BRANCH  60  81
ATOM     81  C   UNL     1       8.730   8.758   8.249  1.00  0.00    -0.014 A 
ATOM     82  C   UNL     1       7.505   9.447   8.210  1.00  0.00     0.010 A 
ATOM     83  C   UNL     1       9.827   9.351   8.901  1.00  0.00     0.010 A 
ATOM     84  C   UNL     1       7.390  10.717   8.783  1.00  0.00     0.020 A 
ATOM     85  C   UNL     1       9.707  10.606   9.504  1.00  0.00     0.020 A 
ATOM     86  C   UNL     1       8.492  11.288   9.428  1.00  0.00     0.054 A 
BRANCH  86  87
ATOM     87  S   UNL     1       8.303  12.917  10.202  1.00  0.00     0.124 S 
ATOM     88  O   UNL     1       8.224  13.799   9.041  1.00  0.00    -0.237 OA
ATOM     89  O   UNL     1       7.065  12.767  10.963  1.00  0.00    -0.237 OA
ATOM     90  O   UNL     1       9.511  13.060  11.011  1.00  0.00    -0.744 OA
ENDBRANCH  86  87
ENDBRANCH  60  81
ENDBRANCH  34  35
ENDBRANCH  26  29
ENDBRANCH  24  25
ENDBRANCH   1  24
TORSDOF 16
