REMARK SMILES C[C@]1(C(=O)N2CCC(CC(=O)NCCCNC(=O)c3ccc(-c4c5nc(c(-c6ccc(S(=O)(=O)[O-])cc6)c6ccc([nH]6)c(-c6ccc(S(=O)(=O)[O-])cc6)c6nc(c(-c7ccc(S(=O)(=O)[O-])cc7)c7ccc4[nH]7)C=C6)C=C5)cc3)CC2)CCC[NH2+]C1
REMARK SMILES IDX 14 1 13 2 12 3 10 4 11 5 9 7 8 8 3 9 4 10 5 11 6 12 80 13
REMARK SMILES IDX 7 14 79 15 2 16 1 17 81 18 85 19 82 20 84 21 83 22 15 25
REMARK SMILES IDX 16 26 17 27 18 29 19 30 20 31 78 32 21 33 77 34 22 35 23 36
REMARK SMILES IDX 24 37 71 38 25 39 76 40 70 41 72 42 26 43 75 44 69 45 68 46
REMARK SMILES IDX 27 48 57 49 38 50 56 51 39 52 42 53 55 54 73 55 40 56 41 57
REMARK SMILES IDX 54 59 74 60 43 61 28 62 29 63 37 64 30 65 36 66 31 67 32 68
REMARK SMILES IDX 33 69 34 70 35 71 58 72 59 73 67 74 60 75 66 76 61 77 62 78
REMARK SMILES IDX 63 79 64 80 65 81 44 82 45 83 53 84 46 85 52 86 47 87 48 88
REMARK SMILES IDX 49 89 50 90 51 91
REMARK H PARENT 12 6 84 23 84 24 16 28 72 47 42 58
REMARK Flexibility Score: inf
ROOT
ATOM      1  C   UNL     1       4.698   4.637   0.597  1.00  0.00     0.042 C 
ENDROOT
BRANCH   1   2
ATOM      2  C   UNL     1       5.466   4.303  -0.684  1.00  0.00     0.117 C 
BRANCH   2   3
ATOM      3  N   UNL     1       6.699   3.574  -0.408  1.00  0.00    -0.356 N 
ATOM      4  C   UNL     1       7.049   2.274  -0.629  1.00  0.00     0.220 C 
ATOM      5  O   UNL     1       8.160   1.901  -0.247  1.00  0.00    -0.275 OA
ATOM      6  H   UNL     1       7.404   4.117   0.012  1.00  0.00     0.163 HD
BRANCH   4   7
ATOM      7  C   UNL     1       6.115   1.312  -1.341  1.00  0.00     0.103 C 
BRANCH   7   8
ATOM      8  C   UNL     1       5.301   0.397  -0.398  1.00  0.00     0.002 C 
ATOM      9  C   UNL     1       1.161  -0.315  -0.143  1.00  0.00     0.234 C 
ATOM     10  O   UNL     1       0.578  -1.384   0.062  1.00  0.00    -0.274 OA
ATOM     11  N   UNL     1       2.529  -0.241  -0.013  1.00  0.00    -0.342 N 
ATOM     12  C   UNL     1       3.372  -1.302  -0.523  1.00  0.00     0.120 C 
ATOM     13  C   UNL     1       3.148   0.535   1.038  1.00  0.00     0.120 C 
ATOM     14  C   UNL     1       4.550  -0.658  -1.247  1.00  0.00     0.026 C 
ATOM     15  C   UNL     1       4.369   1.244   0.485  1.00  0.00     0.026 C 
BRANCH   9  16
ATOM     16  C   UNL     1       0.422   0.878  -0.818  1.00  0.00     0.095 C 
ATOM     17  C   UNL     1      -0.081   0.274  -2.158  1.00  0.00     0.028 C 
ATOM     18  C   UNL     1      -0.804   1.293   0.019  1.00  0.00     0.028 C 
ATOM     19  C   UNL     1       1.252   2.125  -1.201  1.00  0.00     0.277 C 
ATOM     20  C   UNL     1      -0.428   2.255   1.143  1.00  0.00     0.063 C 
ATOM     21  N   UNL     1       1.522   3.087  -0.128  1.00  0.00    -0.345 N 
ATOM     22  C   UNL     1       0.313   3.470   0.599  1.00  0.00     0.260 C 
ATOM     23  H   UNL     1       2.180   2.667   0.530  1.00  0.00     0.346 HD
ATOM     24  H   UNL     1       1.907   3.929  -0.556  1.00  0.00     0.346 HD
ENDBRANCH   9  16
ENDBRANCH   7   8
ENDBRANCH   4   7
ENDBRANCH   2   3
ENDBRANCH   1   2
BRANCH   1  25
ATOM     25  C   UNL     1       5.290   5.784   1.404  1.00  0.00     0.118 C 
BRANCH  25  26
ATOM     26  N   UNL     1       4.780   7.070   0.956  1.00  0.00    -0.352 N 
ATOM     27  C   UNL     1       3.775   7.864   1.459  1.00  0.00     0.251 C 
ATOM     28  H   UNL     1       5.228   7.433   0.158  1.00  0.00     0.163 HD
ATOM     29  O   UNL     1       3.330   8.758   0.740  1.00  0.00    -0.269 OA
BRANCH  27  30
ATOM     30  C   UNL     1       3.210   7.673   2.822  1.00  0.00     0.039 A 
ATOM     31  C   UNL     1       1.861   7.988   3.036  1.00  0.00     0.014 A 
ATOM     32  C   UNL     1       3.992   7.285   3.912  1.00  0.00     0.014 A 
ATOM     33  C   UNL     1       1.297   7.871   4.314  1.00  0.00     0.010 A 
ATOM     34  C   UNL     1       3.410   7.087   5.167  1.00  0.00     0.010 A 
ATOM     35  C   UNL     1       2.059   7.392   5.390  1.00  0.00    -0.014 A 
BRANCH  35  36
ATOM     36  C   UNL     1       1.472   7.221   6.750  1.00  0.00     0.031 A 
ATOM     37  C   UNL     1       2.019   7.998   7.924  1.00  0.00     0.074 A 
ATOM     38  C   UNL     1       0.493   6.315   6.952  1.00  0.00     0.049 A 
ATOM     39  N   UNL     1       1.700   7.912   9.191  1.00  0.00    -0.248 NA
ATOM     40  C   UNL     1       3.080   8.980   7.643  1.00  0.00     0.031 C 
ATOM     41  C   UNL     1      -0.101   5.461   5.919  1.00  0.00     0.029 A 
ATOM     42  N   UNL     1      -0.166   5.947   8.100  1.00  0.00    -0.354 N 
ATOM     43  C   UNL     1       2.545   8.792   9.860  1.00  0.00     0.074 A 
ATOM     44  C   UNL     1       3.407   9.387   8.862  1.00  0.00     0.031 C 
ATOM     45  C   UNL     1      -1.042   4.682   6.478  1.00  0.00     0.029 A 
ATOM     46  C   UNL     1      -1.093   4.947   7.912  1.00  0.00     0.049 A 
ATOM     47  H   UNL     1       0.009   6.360   8.977  1.00  0.00     0.167 HD
ATOM     48  C   UNL     1       2.592   9.090  11.181  1.00  0.00     0.031 A 
ATOM     49  C   UNL     1      -1.883   4.301   8.792  1.00  0.00     0.031 A 
ATOM     50  C   UNL     1       1.702   8.541  12.169  1.00  0.00     0.049 A 
ATOM     51  C   UNL     1      -1.827   4.670  10.249  1.00  0.00     0.074 A 
ATOM     52  C   UNL     1       1.609   8.865  13.513  1.00  0.00     0.029 A 
ATOM     53  N   UNL     1       0.756   7.560  11.928  1.00  0.00    -0.354 N 
ATOM     54  N   UNL     1      -1.081   5.571  10.842  1.00  0.00    -0.248 NA
ATOM     55  C   UNL     1      -2.726   3.940  11.156  1.00  0.00     0.031 C 
ATOM     56  C   UNL     1       0.638   8.043  14.094  1.00  0.00     0.029 A 
ATOM     57  C   UNL     1       0.095   7.243  13.103  1.00  0.00     0.049 A 
ATOM     58  H   UNL     1       0.580   7.148  11.051  1.00  0.00     0.167 HD
ATOM     59  C   UNL     1      -1.436   5.529  12.186  1.00  0.00     0.074 A 
ATOM     60  C   UNL     1      -2.475   4.529  12.317  1.00  0.00     0.031 C 
ATOM     61  C   UNL     1      -0.941   6.251  13.220  1.00  0.00     0.031 A 
BRANCH  48  62
ATOM     62  C   UNL     1       3.646  10.058  11.652  1.00  0.00    -0.014 A 
ATOM     63  C   UNL     1       3.538  11.436  11.392  1.00  0.00     0.010 A 
ATOM     64  C   UNL     1       4.713   9.591  12.442  1.00  0.00     0.010 A 
ATOM     65  C   UNL     1       4.493  12.326  11.892  1.00  0.00     0.020 A 
ATOM     66  C   UNL     1       5.657  10.481  12.963  1.00  0.00     0.020 A 
ATOM     67  C   UNL     1       5.546  11.843  12.675  1.00  0.00     0.054 A 
BRANCH  67  68
ATOM     68  S   UNL     1       6.742  13.027  13.354  1.00  0.00     0.124 S 
ATOM     69  O   UNL     1       7.529  13.370  12.172  1.00  0.00    -0.237 OA
ATOM     70  O   UNL     1       5.883  14.091  13.867  1.00  0.00    -0.237 OA
ATOM     71  O   UNL     1       7.452  12.258  14.373  1.00  0.00    -0.744 OA
ENDBRANCH  67  68
ENDBRANCH  48  62
BRANCH  49  72
ATOM     72  C   UNL     1      -2.797   3.223   8.325  1.00  0.00    -0.014 A 
ATOM     73  C   UNL     1      -4.189   3.421   8.315  1.00  0.00     0.010 A 
ATOM     74  C   UNL     1      -2.280   1.983   7.909  1.00  0.00     0.010 A 
ATOM     75  C   UNL     1      -5.049   2.389   7.929  1.00  0.00     0.020 A 
ATOM     76  C   UNL     1      -3.135   0.957   7.496  1.00  0.00     0.020 A 
ATOM     77  C   UNL     1      -4.516   1.161   7.526  1.00  0.00     0.054 A 
BRANCH  77  78
ATOM     78  S   UNL     1      -5.647  -0.159   7.007  1.00  0.00     0.124 S 
ATOM     79  O   UNL     1      -6.148  -0.647   8.287  1.00  0.00    -0.237 OA
ATOM     80  O   UNL     1      -6.615   0.559   6.181  1.00  0.00    -0.237 OA
ATOM     81  O   UNL     1      -4.780  -1.082   6.278  1.00  0.00    -0.744 OA
ENDBRANCH  77  78
ENDBRANCH  49  72
BRANCH  61  82
ATOM     82  C   UNL     1      -1.534   6.012  14.582  1.00  0.00    -0.014 A 
ATOM     83  C   UNL     1      -1.230   4.849  15.311  1.00  0.00     0.010 A 
ATOM     84  C   UNL     1      -2.360   6.991  15.164  1.00  0.00     0.010 A 
ATOM     85  C   UNL     1      -1.762   4.657  16.588  1.00  0.00     0.020 A 
ATOM     86  C   UNL     1      -2.874   6.814  16.451  1.00  0.00     0.020 A 
ATOM     87  C   UNL     1      -2.582   5.641  17.150  1.00  0.00     0.054 A 
BRANCH  87  88
ATOM     88  S   UNL     1      -3.222   5.394  18.830  1.00  0.00     0.124 S 
ATOM     89  O   UNL     1      -4.289   4.422  18.608  1.00  0.00    -0.237 OA
ATOM     90  O   UNL     1      -2.054   4.891  19.549  1.00  0.00    -0.237 OA
ATOM     91  O   UNL     1      -3.665   6.727  19.230  1.00  0.00    -0.744 OA
ENDBRANCH  87  88
ENDBRANCH  61  82
ENDBRANCH  35  36
ENDBRANCH  27  30
ENDBRANCH  25  26
ENDBRANCH   1  25
TORSDOF 15
