REMARK SMILES COc1nc2c(cc1C(=O)NCc1ccc(C(=O)NCCCNC(=O)c3ccc(-c4c5nc(c(-c6ccc(S(=O)(=O)[O-])cc6)c6ccc([nH]6)c(-c6ccc(S(=O)(=O)[O-])cc6)c6nc(c(-c7ccc(S(=O)(=O)[O-])cc7)c7ccc4[nH]7)C=C6)C=C5)cc3)s1)CCC2
REMARK SMILES IDX 20 1 19 2 17 3 18 4 16 6 13 7 14 8 86 9 15 10 12 11 11 12
REMARK SMILES IDX 9 13 10 14 8 16 3 17 4 18 5 19 7 20 6 21 89 22 87 23 88 24
REMARK SMILES IDX 2 25 1 26 21 27 22 28 23 29 24 30 25 32 26 33 27 34 85 35
REMARK SMILES IDX 28 36 84 37 29 38 30 39 31 40 78 41 32 42 83 43 77 44 79 45
REMARK SMILES IDX 33 46 82 47 76 48 75 49 34 51 64 52 45 53 63 54 46 55 49 56
REMARK SMILES IDX 62 57 80 58 47 59 48 60 61 62 81 63 50 64 35 65 36 66 44 67
REMARK SMILES IDX 37 68 43 69 38 70 39 71 40 72 41 73 42 74 65 75 66 76 74 77
REMARK SMILES IDX 67 78 73 79 68 80 69 81 70 82 71 83 72 84 51 85 52 86 60 87
REMARK SMILES IDX 53 88 59 89 54 90 55 91 56 92 57 93 58 94
REMARK H PARENT 19 5 11 15 23 31 79 50 49 61
REMARK Flexibility Score: inf
ROOT
ATOM      1  C   UNL     1       0.679  -2.788   6.822  1.00  0.00     0.118 C 
ENDROOT
BRANCH   1   2
ATOM      2  N   UNL     1       0.721  -1.346   6.878  1.00  0.00    -0.351 N 
ATOM      3  C   UNL     1       1.085  -0.394   5.959  1.00  0.00     0.261 C 
ATOM      4  O   UNL     1       1.052   0.761   6.399  1.00  0.00    -0.268 OA
ATOM      5  H   UNL     1       0.433  -0.973   7.742  1.00  0.00     0.163 HD
BRANCH   3   6
ATOM      6  C   UNL     1       1.449  -0.717   4.581  1.00  0.00     0.092 A 
ATOM      7  C   UNL     1       1.970  -0.344   2.160  1.00  0.00     0.025 A 
ATOM      8  C   UNL     1       1.854  -1.679   2.470  1.00  0.00     0.018 A 
ATOM      9  S   UNL     1       1.791   0.627   3.556  1.00  0.00    -0.133 S 
ATOM     10  C   UNL     1       1.586  -1.892   3.861  1.00  0.00     0.026 A 
BRANCH   7  11
ATOM     11  C   UNL     1       2.159   0.339   0.851  1.00  0.00     0.163 C 
BRANCH  11  12
ATOM     12  N   UNL     1       3.140  -0.311   0.017  1.00  0.00    -0.347 N 
ATOM     13  C   UNL     1       3.151  -1.113  -1.086  1.00  0.00     0.257 C 
ATOM     14  O   UNL     1       4.247  -1.148  -1.662  1.00  0.00    -0.269 OA
ATOM     15  H   UNL     1       4.054  -0.126   0.331  1.00  0.00     0.164 HD
BRANCH  13  16
ATOM     16  C   UNL     1       2.070  -1.978  -1.641  1.00  0.00     0.102 A 
ATOM     17  C   UNL     1       0.685  -1.934  -1.451  1.00  0.00     0.226 A 
ATOM     18  N   UNL     1      -0.210  -2.816  -1.994  1.00  0.00    -0.218 NA
ATOM     19  C   UNL     1       0.304  -3.766  -2.787  1.00  0.00     0.048 A 
ATOM     20  C   UNL     1       2.534  -2.979  -2.529  1.00  0.00     0.025 A 
ATOM     21  C   UNL     1       1.644  -3.868  -3.100  1.00  0.00    -0.025 A 
ATOM     22  C   UNL     1      -0.495  -4.822  -3.499  1.00  0.00     0.057 C 
ATOM     23  C   UNL     1       1.897  -4.950  -4.093  1.00  0.00     0.038 C 
ATOM     24  C   UNL     1       0.616  -5.785  -3.954  1.00  0.00     0.011 C 
BRANCH  17  25
ATOM     25  O   UNL     1       0.077  -0.972  -0.702  1.00  0.00    -0.480 OA
ATOM     26  C   UNL     1      -0.381   0.071  -1.563  1.00  0.00     0.280 C 
ENDBRANCH  17  25
ENDBRANCH  13  16
ENDBRANCH  11  12
ENDBRANCH   7  11
ENDBRANCH   3   6
ENDBRANCH   1   2
BRANCH   1  27
ATOM     27  C   UNL     1       2.036  -3.395   7.164  1.00  0.00     0.042 C 
BRANCH  27  28
ATOM     28  C   UNL     1       2.362  -3.278   8.653  1.00  0.00     0.118 C 
BRANCH  28  29
ATOM     29  N   UNL     1       1.421  -4.043   9.463  1.00  0.00    -0.352 N 
ATOM     30  C   UNL     1       1.618  -5.229  10.126  1.00  0.00     0.251 C 
ATOM     31  H   UNL     1       0.520  -3.655   9.547  1.00  0.00     0.163 HD
ATOM     32  O   UNL     1       0.659  -5.906  10.476  1.00  0.00    -0.269 OA
BRANCH  30  33
ATOM     33  C   UNL     1       2.994  -5.663  10.424  1.00  0.00     0.039 A 
ATOM     34  C   UNL     1       3.364  -6.990  10.195  1.00  0.00     0.014 A 
ATOM     35  C   UNL     1       3.905  -4.749  10.963  1.00  0.00     0.014 A 
ATOM     36  C   UNL     1       4.671  -7.391  10.470  1.00  0.00     0.010 A 
ATOM     37  C   UNL     1       5.221  -5.134  11.178  1.00  0.00     0.010 A 
ATOM     38  C   UNL     1       5.608  -6.462  10.950  1.00  0.00    -0.014 A 
BRANCH  38  39
ATOM     39  C   UNL     1       6.991  -6.870  11.278  1.00  0.00     0.031 A 
ATOM     40  C   UNL     1       7.431  -6.887  12.715  1.00  0.00     0.074 A 
ATOM     41  C   UNL     1       7.851  -7.178  10.289  1.00  0.00     0.049 A 
ATOM     42  N   UNL     1       8.608  -7.167  13.208  1.00  0.00    -0.248 NA
ATOM     43  C   UNL     1       6.423  -6.527  13.729  1.00  0.00     0.031 C 
ATOM     44  C   UNL     1       7.534  -7.171   8.859  1.00  0.00     0.029 A 
ATOM     45  N   UNL     1       9.168  -7.555  10.337  1.00  0.00    -0.354 N 
ATOM     46  C   UNL     1       8.484  -7.013  14.583  1.00  0.00     0.074 A 
ATOM     47  C   UNL     1       7.134  -6.569  14.846  1.00  0.00     0.031 C 
ATOM     48  C   UNL     1       8.621  -7.552   8.168  1.00  0.00     0.029 A 
ATOM     49  C   UNL     1       9.717  -7.797   9.100  1.00  0.00     0.049 A 
ATOM     50  H   UNL     1       9.673  -7.643  11.177  1.00  0.00     0.167 HD
ATOM     51  C   UNL     1       9.408  -7.246  15.541  1.00  0.00     0.031 A 
ATOM     52  C   UNL     1      10.965  -8.172   8.758  1.00  0.00     0.031 A 
ATOM     53  C   UNL     1      10.742  -7.705  15.272  1.00  0.00     0.049 A 
ATOM     54  C   UNL     1      11.982  -8.401   9.842  1.00  0.00     0.074 A 
ATOM     55  C   UNL     1      11.739  -8.014  16.180  1.00  0.00     0.029 A 
ATOM     56  N   UNL     1      11.262  -7.927  14.007  1.00  0.00    -0.354 N 
ATOM     57  N   UNL     1      11.835  -8.287  11.140  1.00  0.00    -0.248 NA
ATOM     58  C   UNL     1      13.328  -8.813   9.419  1.00  0.00     0.031 C 
ATOM     59  C   UNL     1      12.879  -8.379  15.460  1.00  0.00     0.029 A 
ATOM     60  C   UNL     1      12.574  -8.349  14.108  1.00  0.00     0.049 A 
ATOM     61  H   UNL     1      10.770  -7.802  13.163  1.00  0.00     0.167 HD
ATOM     62  C   UNL     1      13.063  -8.634  11.692  1.00  0.00     0.074 A 
ATOM     63  C   UNL     1      13.940  -8.967  10.587  1.00  0.00     0.031 C 
ATOM     64  C   UNL     1      13.428  -8.678  12.996  1.00  0.00     0.031 A 
BRANCH  51  65
ATOM     65  C   UNL     1       9.010  -7.028  16.973  1.00  0.00    -0.014 A 
ATOM     66  C   UNL     1       8.173  -7.946  17.631  1.00  0.00     0.010 A 
ATOM     67  C   UNL     1       9.552  -5.948  17.693  1.00  0.00     0.010 A 
ATOM     68  C   UNL     1       7.880  -7.785  18.987  1.00  0.00     0.020 A 
ATOM     69  C   UNL     1       9.278  -5.796  19.055  1.00  0.00     0.020 A 
ATOM     70  C   UNL     1       8.444  -6.717  19.693  1.00  0.00     0.054 A 
BRANCH  70  71
ATOM     71  S   UNL     1       8.088  -6.572  21.465  1.00  0.00     0.124 S 
ATOM     72  O   UNL     1       6.633  -6.443  21.475  1.00  0.00    -0.237 OA
ATOM     73  O   UNL     1       8.612  -7.829  21.992  1.00  0.00    -0.237 OA
ATOM     74  O   UNL     1       8.818  -5.373  21.870  1.00  0.00    -0.744 OA
ENDBRANCH  70  71
ENDBRANCH  51  65
BRANCH  52  75
ATOM     75  C   UNL     1      11.303  -8.378   7.325  1.00  0.00    -0.014 A 
ATOM     76  C   UNL     1      11.456  -9.676   6.810  1.00  0.00     0.010 A 
ATOM     77  C   UNL     1      11.428  -7.277   6.458  1.00  0.00     0.010 A 
ATOM     78  C   UNL     1      11.728  -9.871   5.452  1.00  0.00     0.020 A 
ATOM     79  C   UNL     1      11.678  -7.469   5.096  1.00  0.00     0.020 A 
ATOM     80  C   UNL     1      11.826  -8.766   4.602  1.00  0.00     0.054 A 
BRANCH  80  81
ATOM     81  S   UNL     1      12.127  -9.054   2.836  1.00  0.00     0.124 S 
ATOM     82  O   UNL     1      13.405  -9.758   2.851  1.00  0.00    -0.237 OA
ATOM     83  O   UNL     1      10.967  -9.856   2.455  1.00  0.00    -0.237 OA
ATOM     84  O   UNL     1      12.162  -7.708   2.268  1.00  0.00    -0.744 OA
ENDBRANCH  80  81
ENDBRANCH  52  75
BRANCH  64  85
ATOM     85  C   UNL     1      14.826  -9.118  13.323  1.00  0.00    -0.014 A 
ATOM     86  C   UNL     1      15.912  -8.242  13.167  1.00  0.00     0.010 A 
ATOM     87  C   UNL     1      15.031 -10.376  13.921  1.00  0.00     0.010 A 
ATOM     88  C   UNL     1      17.185  -8.617  13.604  1.00  0.00     0.020 A 
ATOM     89  C   UNL     1      16.297 -10.745  14.379  1.00  0.00     0.020 A 
ATOM     90  C   UNL     1      17.366  -9.861  14.219  1.00  0.00     0.054 A 
BRANCH  90  91
ATOM     91  S   UNL     1      19.016 -10.288  14.838  1.00  0.00     0.124 S 
ATOM     92  O   UNL     1      19.821 -10.251  13.620  1.00  0.00    -0.237 OA
ATOM     93  O   UNL     1      19.277  -9.217  15.796  1.00  0.00    -0.237 OA
ATOM     94  O   UNL     1      18.838 -11.615  15.422  1.00  0.00    -0.744 OA
ENDBRANCH  90  91
ENDBRANCH  64  85
ENDBRANCH  38  39
ENDBRANCH  30  33
ENDBRANCH  28  29
ENDBRANCH  27  28
ENDBRANCH   1  27
TORSDOF 17
