REMARK SMILES Cc1ccc(-c2cc([C@@H](C)C(=O)NCCCNC(=O)c3ccc(-c4c5nc(c(-c6ccc(S(=O)(=O)[O-])cc6)c6ccc([nH]6)c(-c6ccc(S(=O)(=O)[O-])cc6)c6nc(c(-c7ccc(S(=O)(=O)[O-])cc7)c7ccc4[nH]7)C=C6)C=C5)cc3)ccc2C[C@H]2CCCC2=O)cc1
REMARK SMILES IDX 15 1 14 2 13 3 11 4 12 5 9 7 10 8 8 9 6 10 7 11 82 12 81 13
REMARK SMILES IDX 80 14 5 15 1 16 2 17 3 18 91 19 4 20 90 21 83 22 84 23 85 24
REMARK SMILES IDX 88 25 86 26 87 27 89 28 16 29 17 30 18 31 19 33 20 34 21 35
REMARK SMILES IDX 79 36 22 37 78 38 23 39 24 40 25 41 72 42 26 43 77 44 71 45
REMARK SMILES IDX 73 46 27 47 76 48 70 49 69 50 28 52 58 53 39 54 57 55 40 56
REMARK SMILES IDX 43 57 56 58 74 59 41 60 42 61 55 63 75 64 44 65 29 66 30 67
REMARK SMILES IDX 38 68 31 69 37 70 32 71 33 72 34 73 35 74 36 75 59 76 60 77
REMARK SMILES IDX 68 78 61 79 67 80 62 81 63 82 64 83 65 84 66 85 45 86 46 87
REMARK SMILES IDX 54 88 47 89 53 90 48 91 49 92 50 93 51 94 52 95
REMARK H PARENT 13 6 17 32 73 51 43 62
REMARK Flexibility Score: inf
ROOT
ATOM      1  C   UNL     1      -8.674   0.335   0.429  1.00  0.00     0.042 C 
ENDROOT
BRANCH   1   2
ATOM      2  C   UNL     1      -8.900   0.916  -0.965  1.00  0.00     0.117 C 
BRANCH   2   3
ATOM      3  N   UNL     1      -8.030   2.043  -1.264  1.00  0.00    -0.356 N 
ATOM      4  C   UNL     1      -6.809   2.138  -1.860  1.00  0.00     0.227 C 
ATOM      5  O   UNL     1      -6.331   3.277  -1.955  1.00  0.00    -0.274 OA
ATOM      6  H   UNL     1      -8.397   2.911  -0.979  1.00  0.00     0.163 HD
BRANCH   4   7
ATOM      7  C   UNL     1      -6.002   0.944  -2.404  1.00  0.00     0.105 C 
ATOM      8  C   UNL     1      -6.737   0.051  -3.401  1.00  0.00     0.023 C 
BRANCH   7   9
ATOM      9  C   UNL     1      -5.216   0.207  -1.329  1.00  0.00    -0.035 A 
ATOM     10  C   UNL     1      -3.126  -0.092  -0.056  1.00  0.00    -0.015 A 
ATOM     11  C   UNL     1      -3.864   0.515  -1.096  1.00  0.00     0.013 A 
ATOM     12  C   UNL     1      -3.812  -0.914   0.866  1.00  0.00    -0.039 A 
ATOM     13  C   UNL     1      -5.131  -1.290   0.578  1.00  0.00     0.004 A 
ATOM     14  C   UNL     1      -5.797  -0.779  -0.535  1.00  0.00     0.005 A 
BRANCH  10  15
ATOM     15  C   UNL     1      -1.657   0.039  -0.045  1.00  0.00    -0.018 A 
ATOM     16  C   UNL     1       2.667   0.219  -0.029  1.00  0.00     0.044 C 
ATOM     17  C   UNL     1       1.169   0.173  -0.055  1.00  0.00    -0.051 A 
ATOM     18  C   UNL     1       0.523  -1.055  -0.207  1.00  0.00     0.004 A 
ATOM     19  C   UNL     1       0.398   1.333   0.088  1.00  0.00     0.004 A 
ATOM     20  C   UNL     1      -0.869  -1.115  -0.216  1.00  0.00     0.009 A 
ATOM     21  C   UNL     1      -1.002   1.268   0.089  1.00  0.00     0.009 A 
ENDBRANCH  10  15
BRANCH  12  22
ATOM     22  C   UNL     1      -3.196  -1.400   2.166  1.00  0.00     0.047 C 
BRANCH  22  23
ATOM     23  C   UNL     1      -3.561  -0.614   3.434  1.00  0.00     0.060 C 
ATOM     24  C   UNL     1      -3.338   0.902   3.414  1.00  0.00     0.012 C 
ATOM     25  C   UNL     1      -5.026  -0.716   3.788  1.00  0.00     0.136 C 
ATOM     26  C   UNL     1      -4.700   1.529   3.144  1.00  0.00     0.009 C 
ATOM     27  C   UNL     1      -5.700   0.628   3.854  1.00  0.00     0.076 C 
ATOM     28  O   UNL     1      -5.587  -1.777   4.036  1.00  0.00    -0.299 OA
ENDBRANCH  22  23
ENDBRANCH  12  22
ENDBRANCH   7   9
ENDBRANCH   4   7
ENDBRANCH   2   3
ENDBRANCH   1   2
BRANCH   1  29
ATOM     29  C   UNL     1      -9.665   0.811   1.483  1.00  0.00     0.118 C 
BRANCH  29  30
ATOM     30  N   UNL     1     -10.112  -0.314   2.313  1.00  0.00    -0.352 N 
ATOM     31  C   UNL     1     -10.618  -0.298   3.597  1.00  0.00     0.251 C 
ATOM     32  H   UNL     1     -10.040  -1.202   1.896  1.00  0.00     0.163 HD
ATOM     33  O   UNL     1     -10.961  -1.308   4.186  1.00  0.00    -0.269 OA
BRANCH  31  34
ATOM     34  C   UNL     1     -10.766   1.026   4.216  1.00  0.00     0.039 A 
ATOM     35  C   UNL     1     -12.036   1.609   4.207  1.00  0.00     0.014 A 
ATOM     36  C   UNL     1      -9.614   1.768   4.458  1.00  0.00     0.014 A 
ATOM     37  C   UNL     1     -12.138   2.994   4.264  1.00  0.00     0.010 A 
ATOM     38  C   UNL     1      -9.714   3.144   4.427  1.00  0.00     0.010 A 
ATOM     39  C   UNL     1     -10.969   3.757   4.275  1.00  0.00    -0.014 A 
BRANCH  39  40
ATOM     40  C   UNL     1     -10.956   5.192   4.013  1.00  0.00     0.031 A 
ATOM     41  C   UNL     1     -10.680   6.147   5.112  1.00  0.00     0.074 A 
ATOM     42  C   UNL     1     -11.149   5.674   2.763  1.00  0.00     0.049 A 
ATOM     43  N   UNL     1     -11.117   7.364   5.137  1.00  0.00    -0.248 NA
ATOM     44  C   UNL     1      -9.923   5.780   6.306  1.00  0.00     0.031 C 
ATOM     45  C   UNL     1     -10.860   7.032   2.308  1.00  0.00     0.029 A 
ATOM     46  N   UNL     1     -11.845   5.103   1.695  1.00  0.00    -0.354 N 
ATOM     47  C   UNL     1     -10.464   8.008   6.162  1.00  0.00     0.074 A 
ATOM     48  C   UNL     1      -9.800   6.965   6.910  1.00  0.00     0.031 C 
ATOM     49  C   UNL     1     -11.612   7.292   1.229  1.00  0.00     0.029 A 
ATOM     50  C   UNL     1     -12.497   6.158   1.033  1.00  0.00     0.049 A 
ATOM     51  H   UNL     1     -11.873   4.149   1.453  1.00  0.00     0.167 HD
ATOM     52  C   UNL     1     -10.410   9.368   6.200  1.00  0.00     0.031 A 
ATOM     53  C   UNL     1     -13.841   6.234   0.809  1.00  0.00     0.031 A 
ATOM     54  C   UNL     1     -11.131   9.988   5.097  1.00  0.00     0.049 A 
ATOM     55  C   UNL     1     -14.471   7.501   1.338  1.00  0.00     0.074 A 
ATOM     56  C   UNL     1     -10.718  10.515   3.884  1.00  0.00     0.029 A 
ATOM     57  N   UNL     1     -12.514   9.885   5.033  1.00  0.00    -0.354 N 
ATOM     58  N   UNL     1     -13.872   8.319   2.156  1.00  0.00    -0.248 NA
ATOM     59  C   UNL     1     -15.846   7.909   1.056  1.00  0.00     0.031 C 
ATOM     60  C   UNL     1     -11.862  10.691   3.068  1.00  0.00     0.029 A 
ATOM     61  C   UNL     1     -12.968  10.281   3.790  1.00  0.00     0.049 A 
ATOM     62  H   UNL     1     -13.089   9.574   5.769  1.00  0.00     0.167 HD
ATOM     63  C   UNL     1     -14.745   9.300   2.550  1.00  0.00     0.074 A 
ATOM     64  C   UNL     1     -15.961   9.017   1.811  1.00  0.00     0.031 C 
ATOM     65  C   UNL     1     -14.389  10.237   3.476  1.00  0.00     0.031 A 
BRANCH  52  66
ATOM     66  C   UNL     1      -9.421  10.104   7.069  1.00  0.00    -0.014 A 
ATOM     67  C   UNL     1      -8.791  11.264   6.576  1.00  0.00     0.010 A 
ATOM     68  C   UNL     1      -9.031   9.671   8.351  1.00  0.00     0.010 A 
ATOM     69  C   UNL     1      -7.748  11.892   7.267  1.00  0.00     0.020 A 
ATOM     70  C   UNL     1      -7.961  10.266   9.037  1.00  0.00     0.020 A 
ATOM     71  C   UNL     1      -7.315  11.367   8.482  1.00  0.00     0.054 A 
BRANCH  71  72
ATOM     72  S   UNL     1      -5.890  12.127   9.301  1.00  0.00     0.124 S 
ATOM     73  O   UNL     1      -4.876  12.116   8.249  1.00  0.00    -0.237 OA
ATOM     74  O   UNL     1      -6.404  13.444   9.665  1.00  0.00    -0.237 OA
ATOM     75  O   UNL     1      -5.618  11.232  10.424  1.00  0.00    -0.744 OA
ENDBRANCH  71  72
ENDBRANCH  52  66
BRANCH  53  76
ATOM     76  C   UNL     1     -14.534   4.923   0.736  1.00  0.00    -0.014 A 
ATOM     77  C   UNL     1     -14.311   4.131  -0.408  1.00  0.00     0.010 A 
ATOM     78  C   UNL     1     -15.019   4.317   1.909  1.00  0.00     0.010 A 
ATOM     79  C   UNL     1     -14.407   2.741  -0.332  1.00  0.00     0.020 A 
ATOM     80  C   UNL     1     -15.114   2.922   1.986  1.00  0.00     0.020 A 
ATOM     81  C   UNL     1     -14.747   2.145   0.883  1.00  0.00     0.054 A 
BRANCH  81  82
ATOM     82  S   UNL     1     -14.478   0.356   1.050  1.00  0.00     0.124 S 
ATOM     83  O   UNL     1     -15.441  -0.193   0.102  1.00  0.00    -0.237 OA
ATOM     84  O   UNL     1     -13.072   0.228   0.666  1.00  0.00    -0.237 OA
ATOM     85  O   UNL     1     -14.762   0.104   2.459  1.00  0.00    -0.744 OA
ENDBRANCH  81  82
ENDBRANCH  53  76
BRANCH  65  86
ATOM     86  C   UNL     1     -15.300  11.245   4.134  1.00  0.00    -0.014 A 
ATOM     87  C   UNL     1     -16.693  11.108   4.238  1.00  0.00     0.010 A 
ATOM     88  C   UNL     1     -14.716  12.351   4.802  1.00  0.00     0.010 A 
ATOM     89  C   UNL     1     -17.470  12.054   4.925  1.00  0.00     0.020 A 
ATOM     90  C   UNL     1     -15.475  13.276   5.524  1.00  0.00     0.020 A 
ATOM     91  C   UNL     1     -16.857  13.135   5.561  1.00  0.00     0.054 A 
BRANCH  91  92
ATOM     92  S   UNL     1     -17.858  14.316   6.500  1.00  0.00     0.124 S 
ATOM     93  O   UNL     1     -18.209  15.295   5.476  1.00  0.00    -0.237 OA
ATOM     94  O   UNL     1     -18.965  13.495   6.987  1.00  0.00    -0.237 OA
ATOM     95  O   UNL     1     -16.943  14.789   7.536  1.00  0.00    -0.744 OA
ENDBRANCH  91  92
ENDBRANCH  65  86
ENDBRANCH  39  40
ENDBRANCH  31  34
ENDBRANCH  29  30
ENDBRANCH   1  29
TORSDOF 17
