REMARK SMILES Cc1cccc([C@@H](CC(=O)NCCCNC(=O)c2ccc(-c3c4nc(c(-c5ccc(S(=O)(=O)[O-])cc5)c5ccc([nH]5)c(-c5ccc(S(=O)(=O)[O-])cc5)c5nc(c(-c6ccc(S(=O)(=O)[O-])cc6)c6ccc3[nH]6)C=C5)C=C4)cc2)NC(=O)OC(C)(C)C)c1
REMARK SMILES IDX 12 1 11 2 9 3 10 4 8 6 7 7 6 8 1 9 2 10 3 11 86 12 4 13 5 14
REMARK SMILES IDX 78 15 79 16 80 18 81 19 82 20 83 21 84 22 85 23 13 24 14 25
REMARK SMILES IDX 15 26 16 27 17 29 18 30 19 31 77 32 20 33 76 34 21 35 22 36
REMARK SMILES IDX 23 37 70 38 24 39 75 40 69 41 71 42 25 43 74 44 68 45 67 46
REMARK SMILES IDX 26 48 56 49 37 50 55 51 38 52 41 53 54 54 72 55 39 56 40 57
REMARK SMILES IDX 53 59 73 60 42 61 27 62 28 63 36 64 29 65 35 66 30 67 31 68
REMARK SMILES IDX 32 69 33 70 34 71 57 72 58 73 66 74 59 75 65 76 60 77 61 78
REMARK SMILES IDX 62 79 63 80 64 81 43 82 44 83 52 84 45 85 51 86 46 87 47 88
REMARK SMILES IDX 48 89 49 90 50 91
REMARK H PARENT 11 5 78 17 15 28 71 47 41 58
REMARK Flexibility Score: inf
ROOT
ATOM      1  C   UNL     1      -2.519  -0.334  -2.345  1.00  0.00     0.117 C 
ENDROOT
BRANCH   1   2
ATOM      2  N   UNL     1      -3.638   0.525  -1.984  1.00  0.00    -0.356 N 
ATOM      3  C   UNL     1      -3.604   1.694  -1.283  1.00  0.00     0.222 C 
ATOM      4  O   UNL     1      -4.654   2.102  -0.781  1.00  0.00    -0.275 OA
ATOM      5  H   UNL     1      -4.527   0.224  -2.281  1.00  0.00     0.163 HD
BRANCH   3   6
ATOM      6  C   UNL     1      -2.326   2.507  -1.182  1.00  0.00     0.130 C 
BRANCH   6   7
ATOM      7  C   UNL     1      -1.691   2.634   0.218  1.00  0.00     0.125 C 
BRANCH   7   8
ATOM      8  C   UNL     1      -0.715   1.521   0.592  1.00  0.00    -0.025 A 
ATOM      9  C   UNL     1       2.824   0.403  -0.367  1.00  0.00     0.044 C 
ATOM     10  C   UNL     1       1.466   0.441   0.269  1.00  0.00    -0.051 A 
ATOM     11  C   UNL     1       1.060  -0.613   1.093  1.00  0.00     0.003 A 
ATOM     12  C   UNL     1       0.565   1.486   0.002  1.00  0.00     0.009 A 
ATOM     13  C   UNL     1      -0.178  -0.567   1.728  1.00  0.00     0.001 A 
ATOM     14  C   UNL     1      -1.047   0.505   1.503  1.00  0.00     0.006 A 
ENDBRANCH   7   8
BRANCH   7  15
ATOM     15  N   UNL     1      -2.674   2.873   1.260  1.00  0.00    -0.314 N 
ATOM     16  C   UNL     1      -2.594   3.783   2.270  1.00  0.00     0.408 C 
ATOM     17  H   UNL     1      -3.486   2.318   1.232  1.00  0.00     0.167 HD
ATOM     18  O   UNL     1      -3.397   3.796   3.180  1.00  0.00    -0.225 OA
BRANCH  16  19
ATOM     19  O   UNL     1      -1.560   4.646   2.105  1.00  0.00    -0.444 OA
BRANCH  19  20
ATOM     20  C   UNL     1      -1.345   5.717   3.053  1.00  0.00     0.106 C 
ATOM     21  C   UNL     1      -2.564   6.643   3.150  1.00  0.00     0.056 C 
ATOM     22  C   UNL     1      -0.930   5.157   4.416  1.00  0.00     0.056 C 
ATOM     23  C   UNL     1      -0.174   6.522   2.470  1.00  0.00     0.056 C 
ENDBRANCH  19  20
ENDBRANCH  16  19
ENDBRANCH   7  15
ENDBRANCH   6   7
ENDBRANCH   3   6
ENDBRANCH   1   2
BRANCH   1  24
ATOM     24  C   UNL     1      -2.036  -1.072  -1.113  1.00  0.00     0.042 C 
BRANCH  24  25
ATOM     25  C   UNL     1      -2.317  -2.564  -1.077  1.00  0.00     0.118 C 
BRANCH  25  26
ATOM     26  N   UNL     1      -1.046  -3.284  -1.129  1.00  0.00    -0.352 N 
ATOM     27  C   UNL     1      -0.462  -4.149  -0.229  1.00  0.00     0.251 C 
ATOM     28  H   UNL     1      -0.518  -3.124  -1.945  1.00  0.00     0.163 HD
ATOM     29  O   UNL     1       0.743  -4.325  -0.116  1.00  0.00    -0.269 OA
BRANCH  27  30
ATOM     30  C   UNL     1      -1.399  -4.977   0.539  1.00  0.00     0.039 A 
ATOM     31  C   UNL     1      -1.835  -6.131  -0.133  1.00  0.00     0.014 A 
ATOM     32  C   UNL     1      -2.173  -4.318   1.484  1.00  0.00     0.014 A 
ATOM     33  C   UNL     1      -3.175  -6.458  -0.089  1.00  0.00     0.010 A 
ATOM     34  C   UNL     1      -3.517  -4.585   1.452  1.00  0.00     0.010 A 
ATOM     35  C   UNL     1      -4.008  -5.593   0.602  1.00  0.00    -0.014 A 
BRANCH  35  36
ATOM     36  C   UNL     1      -5.448  -5.647   0.541  1.00  0.00     0.031 A 
ATOM     37  C   UNL     1      -6.103  -6.271   1.694  1.00  0.00     0.074 A 
ATOM     38  C   UNL     1      -6.088  -4.961  -0.430  1.00  0.00     0.049 A 
ATOM     39  N   UNL     1      -7.325  -6.647   1.711  1.00  0.00    -0.248 NA
ATOM     40  C   UNL     1      -5.389  -6.584   2.936  1.00  0.00     0.031 C 
ATOM     41  C   UNL     1      -7.481  -4.534  -0.481  1.00  0.00     0.029 A 
ATOM     42  N   UNL     1      -5.603  -4.671  -1.705  1.00  0.00    -0.354 N 
ATOM     43  C   UNL     1      -7.647  -6.875   3.029  1.00  0.00     0.074 A 
ATOM     44  C   UNL     1      -6.393  -6.967   3.727  1.00  0.00     0.031 C 
ATOM     45  C   UNL     1      -7.814  -4.284  -1.761  1.00  0.00     0.029 A 
ATOM     46  C   UNL     1      -6.696  -4.704  -2.592  1.00  0.00     0.049 A 
ATOM     47  H   UNL     1      -4.667  -4.479  -1.942  1.00  0.00     0.167 HD
ATOM     48  C   UNL     1      -8.954  -6.771   3.384  1.00  0.00     0.031 A 
ATOM     49  C   UNL     1      -6.755  -5.703  -3.527  1.00  0.00     0.031 A 
ATOM     50  C   UNL     1      -9.788  -6.604   2.191  1.00  0.00     0.049 A 
ATOM     51  C   UNL     1      -7.843  -6.728  -3.234  1.00  0.00     0.074 A 
ATOM     52  C   UNL     1     -10.395  -5.516   1.589  1.00  0.00     0.029 A 
ATOM     53  N   UNL     1      -9.741  -7.598   1.228  1.00  0.00    -0.354 N 
ATOM     54  N   UNL     1      -8.533  -6.767  -2.125  1.00  0.00    -0.248 NA
ATOM     55  C   UNL     1      -8.220  -7.808  -4.145  1.00  0.00     0.031 C 
ATOM     56  C   UNL     1     -10.667  -5.865   0.230  1.00  0.00     0.029 A 
ATOM     57  C   UNL     1     -10.260  -7.171   0.023  1.00  0.00     0.049 A 
ATOM     58  H   UNL     1      -9.380  -8.500   1.383  1.00  0.00     0.167 HD
ATOM     59  C   UNL     1      -9.404  -7.823  -2.142  1.00  0.00     0.074 A 
ATOM     60  C   UNL     1      -9.146  -8.465  -3.421  1.00  0.00     0.031 C 
ATOM     61  C   UNL     1     -10.255  -8.094  -1.105  1.00  0.00     0.031 A 
BRANCH  48  62
ATOM     62  C   UNL     1      -9.453  -6.570   4.791  1.00  0.00    -0.014 A 
ATOM     63  C   UNL     1     -10.776  -6.117   4.964  1.00  0.00     0.010 A 
ATOM     64  C   UNL     1      -8.694  -6.737   5.966  1.00  0.00     0.010 A 
ATOM     65  C   UNL     1     -11.297  -5.806   6.225  1.00  0.00     0.020 A 
ATOM     66  C   UNL     1      -9.201  -6.424   7.237  1.00  0.00     0.020 A 
ATOM     67  C   UNL     1     -10.502  -5.954   7.356  1.00  0.00     0.054 A 
BRANCH  67  68
ATOM     68  S   UNL     1     -11.203  -5.541   8.972  1.00  0.00     0.124 S 
ATOM     69  O   UNL     1     -11.520  -4.123   8.821  1.00  0.00    -0.237 OA
ATOM     70  O   UNL     1     -12.351  -6.440   9.052  1.00  0.00    -0.237 OA
ATOM     71  O   UNL     1     -10.119  -5.836   9.907  1.00  0.00    -0.744 OA
ENDBRANCH  67  68
ENDBRANCH  48  62
BRANCH  49  72
ATOM     72  C   UNL     1      -5.410  -5.976  -4.135  1.00  0.00    -0.014 A 
ATOM     73  C   UNL     1      -4.845  -4.953  -4.936  1.00  0.00     0.010 A 
ATOM     74  C   UNL     1      -4.546  -6.931  -3.570  1.00  0.00     0.010 A 
ATOM     75  C   UNL     1      -3.458  -4.785  -5.019  1.00  0.00     0.020 A 
ATOM     76  C   UNL     1      -3.151  -6.769  -3.661  1.00  0.00     0.020 A 
ATOM     77  C   UNL     1      -2.619  -5.666  -4.338  1.00  0.00     0.054 A 
BRANCH  77  78
ATOM     78  S   UNL     1      -0.855  -5.238  -4.198  1.00  0.00     0.124 S 
ATOM     79  O   UNL     1      -0.365  -5.492  -5.548  1.00  0.00    -0.237 OA
ATOM     80  O   UNL     1      -0.898  -3.827  -3.805  1.00  0.00    -0.237 OA
ATOM     81  O   UNL     1      -0.367  -6.147  -3.168  1.00  0.00    -0.744 OA
ENDBRANCH  77  78
ENDBRANCH  49  72
BRANCH  61  82
ATOM     82  C   UNL     1     -11.174  -9.290  -1.046  1.00  0.00    -0.014 A 
ATOM     83  C   UNL     1     -11.853  -9.787  -2.165  1.00  0.00     0.010 A 
ATOM     84  C   UNL     1     -11.461  -9.901   0.199  1.00  0.00     0.010 A 
ATOM     85  C   UNL     1     -12.698 -10.901  -2.059  1.00  0.00     0.020 A 
ATOM     86  C   UNL     1     -12.322 -10.989   0.323  1.00  0.00     0.020 A 
ATOM     87  C   UNL     1     -12.914 -11.504  -0.818  1.00  0.00     0.054 A 
BRANCH  87  88
ATOM     88  S   UNL     1     -14.004 -12.939  -0.702  1.00  0.00     0.124 S 
ATOM     89  O   UNL     1     -15.177 -12.506  -1.457  1.00  0.00    -0.237 OA
ATOM     90  O   UNL     1     -13.197 -13.979  -1.335  1.00  0.00    -0.237 OA
ATOM     91  O   UNL     1     -14.217 -13.103   0.734  1.00  0.00    -0.744 OA
ENDBRANCH  87  88
ENDBRANCH  61  82
ENDBRANCH  35  36
ENDBRANCH  27  30
ENDBRANCH  25  26
ENDBRANCH  24  25
ENDBRANCH   1  24
TORSDOF 18
