REMARK SMILES Cc1ccccc1OCCC(=O)N[C@@](C)(C(=O)NCCCNC(=O)c1ccc(-c2c3nc(c(-c4ccc(S(=O)(=O)[O-])cc4)c4ccc([nH]4)c(-c4ccc(S(=O)(=O)[O-])cc4)c4nc(c(-c5ccc(S(=O)(=O)[O-])cc5)c5ccc2[nH]5)C=C4)C=C3)cc1)C1CC1
REMARK SMILES IDX 19 1 18 2 16 3 17 4 14 6 15 7 13 8 11 9 12 10 10 12 9 13
REMARK SMILES IDX 8 14 7 15 1 16 2 17 3 18 4 19 6 20 5 21 85 22 86 23 87 24
REMARK SMILES IDX 20 25 21 26 22 27 23 28 24 30 25 31 26 32 84 33 27 34 83 35
REMARK SMILES IDX 28 36 29 37 30 38 77 39 31 40 82 41 76 42 78 43 32 44 81 45
REMARK SMILES IDX 75 46 74 47 33 49 63 50 44 51 62 52 45 53 48 54 61 55 79 56
REMARK SMILES IDX 46 57 47 58 60 60 80 61 49 62 34 63 35 64 43 65 36 66 42 67
REMARK SMILES IDX 37 68 38 69 39 70 40 71 41 72 64 73 65 74 73 75 66 76 72 77
REMARK SMILES IDX 67 78 68 79 69 80 70 81 71 82 50 83 51 84 59 85 52 86 58 87
REMARK SMILES IDX 53 88 54 89 55 90 56 91 57 92
REMARK H PARENT 18 5 13 11 22 29 78 48 48 59
REMARK Flexibility Score: inf
ROOT
ATOM      1  C   UNL     1      -1.666  -0.987   2.037  1.00  0.00     0.117 C 
ENDROOT
BRANCH   1   2
ATOM      2  N   UNL     1      -1.413  -0.128   3.197  1.00  0.00    -0.354 N 
ATOM      3  C   UNL     1      -0.870   1.135   3.300  1.00  0.00     0.245 C 
ATOM      4  O   UNL     1      -0.987   1.712   4.386  1.00  0.00    -0.272 OA
ATOM      5  H   UNL     1      -1.680  -0.524   4.058  1.00  0.00     0.163 HD
BRANCH   3   6
ATOM      6  C   UNL     1      -0.087   1.799   2.088  1.00  0.00     0.119 C 
ATOM      7  C   UNL     1      -1.074   1.919   0.920  1.00  0.00     0.046 C 
BRANCH   6   8
ATOM      8  N   UNL     1       1.003   0.807   1.883  1.00  0.00    -0.342 N 
ATOM      9  C   UNL     1       2.222   0.745   1.311  1.00  0.00     0.224 C 
ATOM     10  O   UNL     1       2.829  -0.326   1.419  1.00  0.00    -0.275 OA
ATOM     11  H   UNL     1       0.763  -0.060   2.283  1.00  0.00     0.164 HD
BRANCH   9  12
ATOM     12  C   UNL     1       2.894   1.913   0.648  1.00  0.00     0.141 C 
BRANCH  12  13
ATOM     13  C   UNL     1       2.930   1.915  -0.874  1.00  0.00     0.239 C 
BRANCH  13  14
ATOM     14  O   UNL     1       1.674   1.893  -1.525  1.00  0.00    -0.493 OA
BRANCH  14  15
ATOM     15  C   UNL     1       0.959   0.758  -1.771  1.00  0.00     0.122 A 
ATOM     16  C   UNL     1       2.628  -1.219  -1.389  1.00  0.00     0.048 C 
ATOM     17  C   UNL     1       1.278  -0.598  -1.617  1.00  0.00    -0.009 A 
ATOM     18  C   UNL     1       0.242  -1.551  -1.795  1.00  0.00     0.007 A 
ATOM     19  C   UNL     1      -1.053  -1.187  -2.156  1.00  0.00     0.001 A 
ATOM     20  C   UNL     1      -0.336   1.098  -2.219  1.00  0.00     0.047 A 
ATOM     21  C   UNL     1      -1.337   0.144  -2.399  1.00  0.00     0.004 A 
ENDBRANCH  14  15
ENDBRANCH  13  14
ENDBRANCH  12  13
ENDBRANCH   9  12
ENDBRANCH   6   8
BRANCH   6  22
ATOM     22  C   UNL     1       0.489   3.152   2.512  1.00  0.00     0.024 C 
ATOM     23  C   UNL     1       0.736   4.320   1.561  1.00  0.00     0.007 C 
ATOM     24  C   UNL     1      -0.370   4.402   2.566  1.00  0.00     0.007 C 
ENDBRANCH   6  22
ENDBRANCH   3   6
ENDBRANCH   1   2
BRANCH   1  25
ATOM     25  C   UNL     1      -1.023  -2.364   2.124  1.00  0.00     0.042 C 
BRANCH  25  26
ATOM     26  C   UNL     1      -1.793  -3.318   3.021  1.00  0.00     0.118 C 
BRANCH  26  27
ATOM     27  N   UNL     1      -2.408  -4.445   2.320  1.00  0.00    -0.352 N 
ATOM     28  C   UNL     1      -3.119  -5.502   2.869  1.00  0.00     0.251 C 
ATOM     29  H   UNL     1      -2.305  -4.454   1.341  1.00  0.00     0.163 HD
ATOM     30  O   UNL     1      -3.489  -6.447   2.181  1.00  0.00    -0.269 OA
BRANCH  28  31
ATOM     31  C   UNL     1      -3.470  -5.420   4.303  1.00  0.00     0.039 A 
ATOM     32  C   UNL     1      -4.820  -5.359   4.661  1.00  0.00     0.014 A 
ATOM     33  C   UNL     1      -2.474  -5.106   5.219  1.00  0.00     0.014 A 
ATOM     34  C   UNL     1      -5.177  -4.769   5.873  1.00  0.00     0.010 A 
ATOM     35  C   UNL     1      -2.831  -4.388   6.339  1.00  0.00     0.010 A 
ATOM     36  C   UNL     1      -4.183  -4.184   6.654  1.00  0.00    -0.014 A 
BRANCH  36  37
ATOM     37  C   UNL     1      -4.420  -3.298   7.790  1.00  0.00     0.031 A 
ATOM     38  C   UNL     1      -3.978  -3.724   9.144  1.00  0.00     0.074 A 
ATOM     39  C   UNL     1      -4.862  -2.034   7.594  1.00  0.00     0.049 A 
ATOM     40  N   UNL     1      -4.288  -3.125  10.244  1.00  0.00    -0.248 NA
ATOM     41  C   UNL     1      -3.187  -4.934   9.367  1.00  0.00     0.031 C 
ATOM     42  C   UNL     1      -4.726  -0.911   8.521  1.00  0.00     0.029 A 
ATOM     43  N   UNL     1      -5.719  -1.543   6.606  1.00  0.00    -0.354 N 
ATOM     44  C   UNL     1      -3.491  -3.647  11.239  1.00  0.00     0.074 A 
ATOM     45  C   UNL     1      -2.917  -4.839  10.670  1.00  0.00     0.031 C 
ATOM     46  C   UNL     1      -5.677  -0.007   8.246  1.00  0.00     0.029 A 
ATOM     47  C   UNL     1      -6.544  -0.598   7.242  1.00  0.00     0.049 A 
ATOM     48  H   UNL     1      -5.741  -1.805   5.657  1.00  0.00     0.167 HD
ATOM     49  C   UNL     1      -3.295  -2.928  12.380  1.00  0.00     0.031 A 
ATOM     50  C   UNL     1      -7.901  -0.706   7.352  1.00  0.00     0.031 A 
ATOM     51  C   UNL     1      -4.236  -1.812  12.472  1.00  0.00     0.049 A 
ATOM     52  C   UNL     1      -8.388  -0.685   8.786  1.00  0.00     0.074 A 
ATOM     53  C   UNL     1      -4.121  -0.444  12.296  1.00  0.00     0.029 A 
ATOM     54  N   UNL     1      -5.599  -2.091  12.515  1.00  0.00    -0.354 N 
ATOM     55  N   UNL     1      -7.612  -0.844   9.822  1.00  0.00    -0.248 NA
ATOM     56  C   UNL     1      -9.790  -0.531   9.167  1.00  0.00     0.031 C 
ATOM     57  C   UNL     1      -5.432   0.085  12.131  1.00  0.00     0.029 A 
ATOM     58  C   UNL     1      -6.338  -0.956  12.247  1.00  0.00     0.049 A 
ATOM     59  H   UNL     1      -5.983  -2.976  12.709  1.00  0.00     0.167 HD
ATOM     60  C   UNL     1      -8.358  -0.837  10.970  1.00  0.00     0.074 A 
ATOM     61  C   UNL     1      -9.717  -0.620  10.507  1.00  0.00     0.031 C 
ATOM     62  C   UNL     1      -7.794  -1.029  12.199  1.00  0.00     0.031 A 
BRANCH  49  63
ATOM     63  C   UNL     1      -2.094  -3.089  13.297  1.00  0.00    -0.014 A 
ATOM     64  C   UNL     1      -1.804  -2.087  14.248  1.00  0.00     0.010 A 
ATOM     65  C   UNL     1      -1.152  -4.133  13.211  1.00  0.00     0.010 A 
ATOM     66  C   UNL     1      -0.623  -2.097  15.013  1.00  0.00     0.020 A 
ATOM     67  C   UNL     1       0.028  -4.161  13.968  1.00  0.00     0.020 A 
ATOM     68  C   UNL     1       0.296  -3.131  14.855  1.00  0.00     0.054 A 
BRANCH  68  69
ATOM     69  S   UNL     1       1.845  -3.113  15.794  1.00  0.00     0.124 S 
ATOM     70  O   UNL     1       2.488  -1.893  15.315  1.00  0.00    -0.237 OA
ATOM     71  O   UNL     1       1.377  -3.080  17.177  1.00  0.00    -0.237 OA
ATOM     72  O   UNL     1       2.507  -4.355  15.396  1.00  0.00    -0.744 OA
ENDBRANCH  68  69
ENDBRANCH  49  63
BRANCH  50  73
ATOM     73  C   UNL     1      -8.549  -1.450   6.237  1.00  0.00    -0.014 A 
ATOM     74  C   UNL     1      -8.580  -0.811   4.980  1.00  0.00     0.010 A 
ATOM     75  C   UNL     1      -8.660  -2.851   6.297  1.00  0.00     0.010 A 
ATOM     76  C   UNL     1      -8.503  -1.562   3.806  1.00  0.00     0.020 A 
ATOM     77  C   UNL     1      -8.594  -3.605   5.118  1.00  0.00     0.020 A 
ATOM     78  C   UNL     1      -8.430  -2.952   3.892  1.00  0.00     0.054 A 
BRANCH  78  79
ATOM     79  S   UNL     1      -7.862  -3.862   2.424  1.00  0.00     0.124 S 
ATOM     80  O   UNL     1      -8.815  -3.442   1.402  1.00  0.00    -0.237 OA
ATOM     81  O   UNL     1      -6.503  -3.347   2.271  1.00  0.00    -0.237 OA
ATOM     82  O   UNL     1      -7.956  -5.259   2.838  1.00  0.00    -0.744 OA
ENDBRANCH  78  79
ENDBRANCH  50  73
BRANCH  62  83
ATOM     83  C   UNL     1      -8.541  -1.251  13.495  1.00  0.00    -0.014 A 
ATOM     84  C   UNL     1      -9.861  -1.722  13.577  1.00  0.00     0.010 A 
ATOM     85  C   UNL     1      -7.841  -1.101  14.717  1.00  0.00     0.010 A 
ATOM     86  C   UNL     1     -10.473  -1.966  14.816  1.00  0.00     0.020 A 
ATOM     87  C   UNL     1      -8.425  -1.385  15.955  1.00  0.00     0.020 A 
ATOM     88  C   UNL     1      -9.753  -1.791  15.998  1.00  0.00     0.054 A 
BRANCH  88  89
ATOM     89  S   UNL     1     -10.529  -2.167  17.591  1.00  0.00     0.124 S 
ATOM     90  O   UNL     1     -11.137  -0.885  17.938  1.00  0.00    -0.237 OA
ATOM     91  O   UNL     1     -11.469  -3.234  17.256  1.00  0.00    -0.237 OA
ATOM     92  O   UNL     1      -9.405  -2.578  18.428  1.00  0.00    -0.744 OA
ENDBRANCH  88  89
ENDBRANCH  62  83
ENDBRANCH  36  37
ENDBRANCH  28  31
ENDBRANCH  26  27
ENDBRANCH  25  26
ENDBRANCH   1  25
TORSDOF 19
