REMARK SMILES C[C@@H]1C[N@H+]2CCC[C@@H]2CN1C(=O)N1CC(C(=O)NCCCNC(=O)c2ccc(-c3c4nc(c(-c5ccc(S(=O)(=O)[O-])cc5)c5ccc([nH]5)c(-c5ccc(S(=O)(=O)[O-])cc5)c5nc(c(-c6ccc(S(=O)(=O)[O-])cc6)c6ccc3[nH]6)C=C5)C=C4)cc2)C1
REMARK SMILES IDX 21 1 20 2 19 3 18 4 16 5 17 6 15 8 11 9 12 10 13 11 14 12
REMARK SMILES IDX 85 13 10 14 1 15 2 16 3 17 4 18 9 19 5 20 8 21 6 23 7 24
REMARK SMILES IDX 22 25 23 26 24 28 25 29 26 30 84 31 27 32 83 33 28 34 29 35
REMARK SMILES IDX 30 36 77 37 31 38 82 39 76 40 78 41 32 42 81 43 75 44 74 45
REMARK SMILES IDX 33 47 63 48 44 49 62 50 45 51 48 52 61 53 79 54 46 55 47 56
REMARK SMILES IDX 60 58 80 59 49 60 34 61 35 62 43 63 36 64 42 65 37 66 38 67
REMARK SMILES IDX 39 68 40 69 41 70 64 71 65 72 73 73 66 74 72 75 67 76 68 77
REMARK SMILES IDX 69 78 70 79 71 80 50 81 51 82 59 83 52 84 58 85 53 86 54 87
REMARK SMILES IDX 55 88 56 89 57 90
REMARK H PARENT 18 7 4 22 22 27 78 46 48 57
REMARK Flexibility Score: inf
ROOT
ATOM      1  C   UNL     1       1.418   5.139   0.090  1.00  0.00     0.118 C 
ENDROOT
BRANCH   1   2
ATOM      2  C   UNL     1       1.264   3.623   0.180  1.00  0.00     0.042 C 
BRANCH   2   3
ATOM      3  C   UNL     1       1.787   3.023   1.480  1.00  0.00     0.117 C 
BRANCH   3   4
ATOM      4  N   UNL     1       1.010   3.456   2.628  1.00  0.00    -0.356 N 
ATOM      5  C   UNL     1       0.173   2.768   3.471  1.00  0.00     0.226 C 
ATOM      6  O   UNL     1      -0.361   3.447   4.362  1.00  0.00    -0.275 OA
ATOM      7  H   UNL     1       1.099   4.414   2.838  1.00  0.00     0.163 HD
BRANCH   5   8
ATOM      8  C   UNL     1      -0.069   1.261   3.353  1.00  0.00     0.117 C 
ATOM      9  C   UNL     1       0.666  -1.671   1.942  1.00  0.00     0.320 C 
ATOM     10  O   UNL     1       1.014  -2.471   2.813  1.00  0.00    -0.248 OA
ATOM     11  N   UNL     1       0.624  -0.330   2.216  1.00  0.00    -0.323 N 
ATOM     12  C   UNL     1       1.117   0.306   3.432  1.00  0.00     0.136 C 
ATOM     13  C   UNL     1      -0.481   0.608   2.034  1.00  0.00     0.136 C 
BRANCH   9  14
ATOM     14  N   UNL     1       0.351  -2.070   0.659  1.00  0.00    -0.310 N 
ATOM     15  C   UNL     1      -1.139  -1.095  -1.067  1.00  0.00     0.037 C 
ATOM     16  C   UNL     1       0.292  -1.179  -0.533  1.00  0.00     0.139 C 
ATOM     17  C   UNL     1       1.292  -1.641  -1.647  1.00  0.00     0.287 C 
ATOM     18  N   UNL     1       1.173  -3.076  -1.910  1.00  0.00    -0.329 N 
ATOM     19  C   UNL     1       0.324  -3.514   0.358  1.00  0.00     0.186 C 
ATOM     20  C   UNL     1       2.078  -3.623  -2.913  1.00  0.00     0.262 C 
ATOM     21  C   UNL     1       1.405  -3.840  -0.674  1.00  0.00     0.204 C 
ATOM     22  H   UNL     1       0.225  -3.171  -2.275  1.00  0.00     0.348 HD
ATOM     23  C   UNL     1       2.241  -5.092  -2.502  1.00  0.00     0.068 C 
ATOM     24  C   UNL     1       1.416  -5.251  -1.224  1.00  0.00     0.073 C 
ENDBRANCH   9  14
ENDBRANCH   5   8
ENDBRANCH   3   4
ENDBRANCH   2   3
ENDBRANCH   1   2
BRANCH   1  25
ATOM     25  N   UNL     1       2.812   5.565   0.074  1.00  0.00    -0.352 N 
ATOM     26  C   UNL     1       3.538   6.192  -0.909  1.00  0.00     0.251 C 
ATOM     27  H   UNL     1       3.312   5.372   0.899  1.00  0.00     0.163 HD
ATOM     28  O   UNL     1       4.758   6.290  -0.786  1.00  0.00    -0.269 OA
BRANCH  26  29
ATOM     29  C   UNL     1       2.872   6.722  -2.118  1.00  0.00     0.039 A 
ATOM     30  C   UNL     1       3.470   6.516  -3.365  1.00  0.00     0.014 A 
ATOM     31  C   UNL     1       1.669   7.427  -2.030  1.00  0.00     0.014 A 
ATOM     32  C   UNL     1       2.818   6.941  -4.526  1.00  0.00     0.010 A 
ATOM     33  C   UNL     1       0.983   7.776  -3.190  1.00  0.00     0.010 A 
ATOM     34  C   UNL     1       1.545   7.529  -4.452  1.00  0.00    -0.014 A 
BRANCH  34  35
ATOM     35  C   UNL     1       0.773   7.865  -5.678  1.00  0.00     0.031 A 
ATOM     36  C   UNL     1       0.387   9.290  -5.970  1.00  0.00     0.074 A 
ATOM     37  C   UNL     1       0.353   6.874  -6.490  1.00  0.00     0.049 A 
ATOM     38  N   UNL     1      -0.352   9.760  -6.942  1.00  0.00    -0.248 NA
ATOM     39  C   UNL     1       0.874  10.317  -5.035  1.00  0.00     0.031 C 
ATOM     40  C   UNL     1       0.628   5.447  -6.298  1.00  0.00     0.029 A 
ATOM     41  N   UNL     1      -0.405   6.912  -7.634  1.00  0.00    -0.354 N 
ATOM     42  C   UNL     1      -0.429  11.132  -6.732  1.00  0.00     0.074 A 
ATOM     43  C   UNL     1       0.294  11.411  -5.509  1.00  0.00     0.031 C 
ATOM     44  C   UNL     1       0.067   4.751  -7.299  1.00  0.00     0.029 A 
ATOM     45  C   UNL     1      -0.650   5.671  -8.175  1.00  0.00     0.049 A 
ATOM     46  H   UNL     1      -0.742   7.748  -8.029  1.00  0.00     0.167 HD
ATOM     47  C   UNL     1      -1.029  12.076  -7.495  1.00  0.00     0.031 A 
ATOM     48  C   UNL     1      -1.384   5.308  -9.246  1.00  0.00     0.031 A 
ATOM     49  C   UNL     1      -1.751  11.794  -8.708  1.00  0.00     0.049 A 
ATOM     50  C   UNL     1      -2.071   6.370 -10.059  1.00  0.00     0.074 A 
ATOM     51  C   UNL     1      -2.356  12.687  -9.576  1.00  0.00     0.029 A 
ATOM     52  N   UNL     1      -1.973  10.526  -9.223  1.00  0.00    -0.354 N 
ATOM     53  N   UNL     1      -2.076   7.669  -9.879  1.00  0.00    -0.248 NA
ATOM     54  C   UNL     1      -2.844   5.919 -11.225  1.00  0.00     0.031 C 
ATOM     55  C   UNL     1      -2.996  11.955 -10.581  1.00  0.00     0.029 A 
ATOM     56  C   UNL     1      -2.731  10.610 -10.379  1.00  0.00     0.049 A 
ATOM     57  H   UNL     1      -1.641   9.689  -8.825  1.00  0.00     0.167 HD
ATOM     58  C   UNL     1      -2.831   8.193 -10.923  1.00  0.00     0.074 A 
ATOM     59  C   UNL     1      -3.251   7.072 -11.739  1.00  0.00     0.031 C 
ATOM     60  C   UNL     1      -3.146   9.486 -11.182  1.00  0.00     0.031 A 
BRANCH  47  61
ATOM     61  C   UNL     1      -0.939  13.508  -7.031  1.00  0.00    -0.014 A 
ATOM     62  C   UNL     1       0.287  14.200  -7.041  1.00  0.00     0.010 A 
ATOM     63  C   UNL     1      -2.100  14.185  -6.616  1.00  0.00     0.010 A 
ATOM     64  C   UNL     1       0.357  15.524  -6.600  1.00  0.00     0.020 A 
ATOM     65  C   UNL     1      -2.040  15.521  -6.205  1.00  0.00     0.020 A 
ATOM     66  C   UNL     1      -0.807  16.175  -6.182  1.00  0.00     0.054 A 
BRANCH  66  67
ATOM     67  S   UNL     1      -0.685  17.898  -5.630  1.00  0.00     0.124 S 
ATOM     68  O   UNL     1       0.006  17.756  -4.351  1.00  0.00    -0.237 OA
ATOM     69  O   UNL     1       0.092  18.522  -6.697  1.00  0.00    -0.237 OA
ATOM     70  O   UNL     1      -2.077  18.334  -5.539  1.00  0.00    -0.744 OA
ENDBRANCH  66  67
ENDBRANCH  47  61
BRANCH  48  71
ATOM     71  C   UNL     1      -1.506   3.868  -9.606  1.00  0.00    -0.014 A 
ATOM     72  C   UNL     1      -0.898   3.364 -10.769  1.00  0.00     0.010 A 
ATOM     73  C   UNL     1      -2.220   2.986  -8.773  1.00  0.00     0.010 A 
ATOM     74  C   UNL     1      -1.013   2.011 -11.101  1.00  0.00     0.020 A 
ATOM     75  C   UNL     1      -2.311   1.626  -9.084  1.00  0.00     0.020 A 
ATOM     76  C   UNL     1      -1.715   1.149 -10.253  1.00  0.00     0.054 A 
BRANCH  76  77
ATOM     77  S   UNL     1      -1.801  -0.614 -10.673  1.00  0.00     0.124 S 
ATOM     78  O   UNL     1      -2.712  -0.610 -11.813  1.00  0.00    -0.237 OA
ATOM     79  O   UNL     1      -0.408  -0.932 -10.976  1.00  0.00    -0.237 OA
ATOM     80  O   UNL     1      -2.322  -1.230  -9.455  1.00  0.00    -0.744 OA
ENDBRANCH  76  77
ENDBRANCH  48  71
BRANCH  60  81
ATOM     81  C   UNL     1      -3.962   9.771 -12.416  1.00  0.00    -0.014 A 
ATOM     82  C   UNL     1      -5.324   9.429 -12.487  1.00  0.00     0.010 A 
ATOM     83  C   UNL     1      -3.370  10.452 -13.496  1.00  0.00     0.010 A 
ATOM     84  C   UNL     1      -6.073   9.741 -13.625  1.00  0.00     0.020 A 
ATOM     85  C   UNL     1      -4.123  10.793 -14.623  1.00  0.00     0.020 A 
ATOM     86  C   UNL     1      -5.468  10.425 -14.685  1.00  0.00     0.054 A 
BRANCH  86  87
ATOM     87  S   UNL     1      -6.477  10.868 -16.125  1.00  0.00     0.124 S 
ATOM     88  O   UNL     1      -6.687   9.570 -16.761  1.00  0.00    -0.237 OA
ATOM     89  O   UNL     1      -7.660  11.467 -15.514  1.00  0.00    -0.237 OA
ATOM     90  O   UNL     1      -5.630  11.796 -16.871  1.00  0.00    -0.744 OA
ENDBRANCH  86  87
ENDBRANCH  60  81
ENDBRANCH  34  35
ENDBRANCH  26  29
ENDBRANCH   1  25
TORSDOF 14
