REMARK SMILES Cc1c(C(=O)NCCCNC(=O)c2ccc(-c3c4nc(c(-c5ccc(S(=O)(=O)[O-])cc5)c5ccc([nH]5)c(-c5ccc(S(=O)(=O)[O-])cc5)c5nc(c(-c6ccc(S(=O)(=O)[O-])cc6)c6ccc3[nH]6)C=C5)C=C4)cc2)ccc2c1N[C@@H](c1ccc(S(=O)(=O)N3CCOCC3)cc1)[C@@H]1CC=C[C@H]21
REMARK SMILES IDX 8 1 7 2 6 3 4 4 5 5 3 7 1 8 2 9 76 10 73 11 75 12 77 13
REMARK SMILES IDX 74 14 98 15 78 16 94 18 97 19 95 20 96 21 79 22 80 23 93 24
REMARK SMILES IDX 81 25 92 26 82 27 83 28 84 29 85 30 86 31 87 32 91 33 88 34
REMARK SMILES IDX 90 35 89 36 9 37 10 38 11 39 12 41 13 42 14 43 72 44 15 45
REMARK SMILES IDX 71 46 16 47 17 48 18 49 65 50 19 51 70 52 64 53 66 54 20 55
REMARK SMILES IDX 69 56 63 57 62 58 21 60 51 61 32 62 50 63 33 64 36 65 49 66
REMARK SMILES IDX 67 67 34 68 35 69 48 71 68 72 37 73 22 74 23 75 31 76 24 77
REMARK SMILES IDX 30 78 25 79 26 80 27 81 28 82 29 83 52 84 53 85 61 86 54 87
REMARK SMILES IDX 60 88 55 89 56 90 57 91 58 92 59 93 38 94 39 95 47 96 40 97
REMARK SMILES IDX 46 98 41 99 42 100 43 101 44 102 45 103
REMARK H PARENT 6 6 77 17 10 40 66 59 36 70
REMARK Flexibility Score: inf
ROOT
ATOM      1  C   UNL     1       2.434  -1.668   2.231  1.00  0.00     0.042 C 
ENDROOT
BRANCH   1   2
ATOM      2  C   UNL     1       1.361  -0.938   1.439  1.00  0.00     0.118 C 
BRANCH   2   3
ATOM      3  N   UNL     1       0.155  -0.635   2.195  1.00  0.00    -0.352 N 
ATOM      4  C   UNL     1      -0.716   0.422   2.092  1.00  0.00     0.251 C 
ATOM      5  O   UNL     1      -1.701   0.458   2.829  1.00  0.00    -0.269 OA
ATOM      6  H   UNL     1      -0.073  -1.292   2.891  1.00  0.00     0.163 HD
BRANCH   4   7
ATOM      7  C   UNL     1      -0.448   1.557   1.176  1.00  0.00     0.044 A 
ATOM      8  C   UNL     1      -0.288   0.135  -0.938  1.00  0.00     0.047 C 
ATOM      9  C   UNL     1      -0.086   1.420  -0.173  1.00  0.00    -0.015 A 
ATOM     10  C   UNL     1       0.398   2.549  -0.864  1.00  0.00     0.042 A 
ATOM     11  C   UNL     1      -0.596   2.835   1.728  1.00  0.00     0.014 A 
ATOM     12  C   UNL     1       0.148   3.820  -0.352  1.00  0.00    -0.017 A 
ATOM     13  N   UNL     1       1.047   2.388  -2.078  1.00  0.00    -0.377 N 
ATOM     14  C   UNL     1      -0.356   3.960   0.949  1.00  0.00     0.007 A 
ATOM     15  C   UNL     1       0.344   5.025  -1.219  1.00  0.00     0.049 C 
ATOM     16  C   UNL     1       1.727   3.498  -2.756  1.00  0.00     0.114 C 
ATOM     17  H   UNL     1       1.052   1.498  -2.499  1.00  0.00     0.161 HD
ATOM     18  C   UNL     1       0.808   4.760  -2.684  1.00  0.00     0.031 C 
ATOM     19  C   UNL     1       1.375   5.994  -0.708  1.00  0.00    -0.023 C 
ATOM     20  C   UNL     1       1.447   6.127  -3.026  1.00  0.00     0.034 C 
ATOM     21  C   UNL     1       1.979   6.618  -1.722  1.00  0.00    -0.030 C 
BRANCH  16  22
ATOM     22  C   UNL     1       2.146   2.998  -4.163  1.00  0.00    -0.025 A 
ATOM     23  C   UNL     1       2.058   1.643  -4.572  1.00  0.00     0.007 A 
ATOM     24  C   UNL     1       2.758   3.862  -5.074  1.00  0.00     0.007 A 
ATOM     25  C   UNL     1       2.576   1.188  -5.797  1.00  0.00     0.022 A 
ATOM     26  C   UNL     1       3.192   3.437  -6.327  1.00  0.00     0.022 A 
ATOM     27  C   UNL     1       3.141   2.099  -6.678  1.00  0.00     0.082 A 
BRANCH  27  28
ATOM     28  S   UNL     1       3.893   1.541  -8.188  1.00  0.00     0.243 S 
ATOM     29  O   UNL     1       4.607   0.324  -7.873  1.00  0.00    -0.207 OA
ATOM     30  O   UNL     1       2.855   1.579  -9.197  1.00  0.00    -0.207 OA
BRANCH  28  31
ATOM     31  N   UNL     1       5.030   2.722  -8.539  1.00  0.00    -0.193 NA
ATOM     32  C   UNL     1       6.315   2.808  -7.815  1.00  0.00     0.131 C 
ATOM     33  C   UNL     1       4.800   3.766  -9.555  1.00  0.00     0.131 C 
ATOM     34  C   UNL     1       6.559   4.245  -7.335  1.00  0.00     0.177 C 
ATOM     35  C   UNL     1       5.170   5.158  -9.024  1.00  0.00     0.177 C 
ATOM     36  O   UNL     1       6.466   5.186  -8.416  1.00  0.00    -0.379 OA
ENDBRANCH  28  31
ENDBRANCH  27  28
ENDBRANCH  16  22
ENDBRANCH   4   7
ENDBRANCH   2   3
ENDBRANCH   1   2
BRANCH   1  37
ATOM     37  C   UNL     1       1.968  -2.976   2.858  1.00  0.00     0.118 C 
BRANCH  37  38
ATOM     38  N   UNL     1       1.530  -3.969   1.886  1.00  0.00    -0.352 N 
ATOM     39  C   UNL     1       2.206  -4.984   1.251  1.00  0.00     0.251 C 
ATOM     40  H   UNL     1       0.579  -3.901   1.639  1.00  0.00     0.163 HD
ATOM     41  O   UNL     1       1.648  -5.599   0.345  1.00  0.00    -0.269 OA
BRANCH  39  42
ATOM     42  C   UNL     1       3.604  -5.314   1.609  1.00  0.00     0.039 A 
ATOM     43  C   UNL     1       4.512  -5.606   0.587  1.00  0.00     0.014 A 
ATOM     44  C   UNL     1       4.022  -5.369   2.938  1.00  0.00     0.014 A 
ATOM     45  C   UNL     1       5.853  -5.860   0.894  1.00  0.00     0.010 A 
ATOM     46  C   UNL     1       5.372  -5.526   3.239  1.00  0.00     0.010 A 
ATOM     47  C   UNL     1       6.303  -5.774   2.220  1.00  0.00    -0.014 A 
BRANCH  47  48
ATOM     48  C   UNL     1       7.731  -5.966   2.580  1.00  0.00     0.031 A 
ATOM     49  C   UNL     1       8.127  -7.099   3.491  1.00  0.00     0.074 A 
ATOM     50  C   UNL     1       8.661  -5.089   2.150  1.00  0.00     0.049 A 
ATOM     51  N   UNL     1       9.289  -7.348   4.037  1.00  0.00    -0.248 NA
ATOM     52  C   UNL     1       7.074  -8.064   3.856  1.00  0.00     0.031 C 
ATOM     53  C   UNL     1       8.410  -3.940   1.275  1.00  0.00     0.029 A 
ATOM     54  N   UNL     1      10.011  -5.028   2.392  1.00  0.00    -0.354 N 
ATOM     55  C   UNL     1       9.100  -8.473   4.829  1.00  0.00     0.074 A 
ATOM     56  C   UNL     1       7.706  -8.843   4.722  1.00  0.00     0.031 C 
ATOM     57  C   UNL     1       9.573  -3.318   1.019  1.00  0.00     0.029 A 
ATOM     58  C   UNL     1      10.643  -3.991   1.747  1.00  0.00     0.049 A 
ATOM     59  H   UNL     1      10.483  -5.667   2.973  1.00  0.00     0.167 HD
ATOM     60  C   UNL     1      10.010  -9.154   5.563  1.00  0.00     0.031 A 
ATOM     61  C   UNL     1      11.939  -3.622   1.742  1.00  0.00     0.031 A 
ATOM     62  C   UNL     1      11.407  -8.825   5.625  1.00  0.00     0.049 A 
ATOM     63  C   UNL     1      12.930  -4.396   2.565  1.00  0.00     0.074 A 
ATOM     64  C   UNL     1      12.412  -9.485   6.309  1.00  0.00     0.029 A 
ATOM     65  N   UNL     1      12.000  -7.767   4.958  1.00  0.00    -0.354 N 
ATOM     66  N   UNL     1      12.725  -5.449   3.319  1.00  0.00    -0.248 NA
ATOM     67  C   UNL     1      14.325  -3.932   2.540  1.00  0.00     0.031 C 
ATOM     68  C   UNL     1      13.614  -8.814   6.069  1.00  0.00     0.029 A 
ATOM     69  C   UNL     1      13.359  -7.756   5.212  1.00  0.00     0.049 A 
ATOM     70  H   UNL     1      11.525  -7.119   4.388  1.00  0.00     0.167 HD
ATOM     71  C   UNL     1      13.969  -5.788   3.836  1.00  0.00     0.074 A 
ATOM     72  C   UNL     1      14.921  -4.832   3.313  1.00  0.00     0.031 C 
ATOM     73  C   UNL     1      14.292  -6.806   4.669  1.00  0.00     0.031 A 
BRANCH  60  74
ATOM     74  C   UNL     1       9.537 -10.348   6.340  1.00  0.00    -0.014 A 
ATOM     75  C   UNL     1       9.298 -11.572   5.691  1.00  0.00     0.010 A 
ATOM     76  C   UNL     1       9.426 -10.275   7.740  1.00  0.00     0.010 A 
ATOM     77  C   UNL     1       8.950 -12.704   6.430  1.00  0.00     0.020 A 
ATOM     78  C   UNL     1       9.094 -11.411   8.484  1.00  0.00     0.020 A 
ATOM     79  C   UNL     1       8.859 -12.618   7.823  1.00  0.00     0.054 A 
BRANCH  79  80
ATOM     80  S   UNL     1       8.462 -14.123   8.754  1.00  0.00     0.124 S 
ATOM     81  O   UNL     1       7.123 -14.441   8.263  1.00  0.00    -0.237 OA
ATOM     82  O   UNL     1       9.519 -15.039   8.336  1.00  0.00    -0.237 OA
ATOM     83  O   UNL     1       8.524 -13.696  10.150  1.00  0.00    -0.744 OA
ENDBRANCH  79  80
ENDBRANCH  60  74
BRANCH  61  84
ATOM     84  C   UNL     1      12.386  -2.480   0.902  1.00  0.00    -0.014 A 
ATOM     85  C   UNL     1      13.085  -2.724  -0.294  1.00  0.00     0.010 A 
ATOM     86  C   UNL     1      12.117  -1.154   1.282  1.00  0.00     0.010 A 
ATOM     87  C   UNL     1      13.517  -1.662  -1.091  1.00  0.00     0.020 A 
ATOM     88  C   UNL     1      12.533  -0.088   0.477  1.00  0.00     0.020 A 
ATOM     89  C   UNL     1      13.234  -0.349  -0.702  1.00  0.00     0.054 A 
BRANCH  89  90
ATOM     90  S   UNL     1      13.779   1.009  -1.775  1.00  0.00     0.124 S 
ATOM     91  O   UNL     1      15.232   0.878  -1.722  1.00  0.00    -0.237 OA
ATOM     92  O   UNL     1      13.158   0.663  -3.051  1.00  0.00    -0.237 OA
ATOM     93  O   UNL     1      13.234   2.200  -1.127  1.00  0.00    -0.744 OA
ENDBRANCH  89  90
ENDBRANCH  61  84
BRANCH  73  94
ATOM     94  C   UNL     1      15.735  -6.974   5.047  1.00  0.00    -0.014 A 
ATOM     95  C   UNL     1      16.307  -6.189   6.061  1.00  0.00     0.010 A 
ATOM     96  C   UNL     1      16.486  -8.010   4.464  1.00  0.00     0.010 A 
ATOM     97  C   UNL     1      17.611  -6.441   6.490  1.00  0.00     0.020 A 
ATOM     98  C   UNL     1      17.785  -8.275   4.902  1.00  0.00     0.020 A 
ATOM     99  C   UNL     1      18.338  -7.489   5.915  1.00  0.00     0.054 A 
BRANCH  99 100
ATOM    100  S   UNL     1      20.001  -7.838   6.550  1.00  0.00     0.124 S 
ATOM    101  O   UNL     1      20.727  -6.621   6.196  1.00  0.00    -0.237 OA
ATOM    102  O   UNL     1      19.758  -8.033   7.977  1.00  0.00    -0.237 OA
ATOM    103  O   UNL     1      20.408  -9.038   5.821  1.00  0.00    -0.744 OA
ENDBRANCH  99 100
ENDBRANCH  73  94
ENDBRANCH  47  48
ENDBRANCH  39  42
ENDBRANCH  37  38
ENDBRANCH   1  37
TORSDOF 16
