REMARK SMILES O=C(NCCCNC(=O)c1ccc(-c2c3nc(c(-c4ccc(S(=O)(=O)[O-])cc4)c4ccc([nH]4)c(-c4ccc(S(=O)(=O)[O-])cc4)c4nc(c(-c5ccc(S(=O)(=O)[O-])cc5)c5ccc2[nH]5)C=C4)C=C3)cc1)C1=Cc2c(Cl)ccc(Cl)c2O[C@@H]1C(F)(F)F
REMARK SMILES IDX 6 1 5 2 4 3 3 4 1 5 2 6 70 8 71 9 81 10 72 11 80 12 73 13
REMARK SMILES IDX 79 14 74 15 75 16 77 17 76 18 78 19 82 20 83 21 84 22 85 23
REMARK SMILES IDX 7 24 8 25 9 27 10 28 11 29 69 30 12 31 68 32 13 33 14 34
REMARK SMILES IDX 15 35 62 36 16 37 67 38 61 39 63 40 17 41 66 42 60 43 59 44
REMARK SMILES IDX 18 46 48 47 29 48 47 49 30 50 33 51 46 52 64 53 31 54 32 55
REMARK SMILES IDX 45 57 65 58 34 59 19 60 20 61 28 62 21 63 27 64 22 65 23 66
REMARK SMILES IDX 24 67 25 68 26 69 49 70 50 71 58 72 51 73 57 74 52 75 53 76
REMARK SMILES IDX 54 77 55 78 56 79 35 80 36 81 44 82 37 83 43 84 38 85 39 86
REMARK SMILES IDX 40 87 41 88 42 89
REMARK H PARENT 3 7 7 26 63 45 33 56
REMARK Flexibility Score: inf
ROOT
ATOM      1  C   UNL     1       4.062  -1.338   3.873  1.00  0.00     0.118 C 
ENDROOT
BRANCH   1   2
ATOM      2  C   UNL     1       4.069  -0.280   2.776  1.00  0.00     0.042 C 
BRANCH   2   3
ATOM      3  C   UNL     1       3.252  -0.694   1.558  1.00  0.00     0.118 C 
BRANCH   3   4
ATOM      4  N   UNL     1       2.264   0.309   1.153  1.00  0.00    -0.352 N 
ATOM      5  O   UNL     1       1.090   1.614  -0.284  1.00  0.00    -0.270 OA
ATOM      6  C   UNL     1       2.106   0.980  -0.035  1.00  0.00     0.251 C 
ATOM      7  H   UNL     1       1.605   0.540   1.847  1.00  0.00     0.163 HD
BRANCH   6   8
ATOM      8  C   UNL     1       3.178   0.836  -1.035  1.00  0.00     0.067 C 
ATOM      9  C   UNL     1       4.364   1.388  -0.754  1.00  0.00     0.027 C 
ATOM     10  C   UNL     1       3.000  -0.215  -2.076  1.00  0.00     0.314 C 
ATOM     11  C   UNL     1       5.497   0.453  -0.910  1.00  0.00     0.037 A 
ATOM     12  O   UNL     1       4.063  -1.191  -2.047  1.00  0.00    -0.474 OA
ATOM     13  C   UNL     1       6.690   0.676  -0.196  1.00  0.00     0.052 A 
ATOM     14  C   UNL     1       5.239  -0.845  -1.418  1.00  0.00     0.148 A 
ATOM     15  Cl  UNL     1       7.093   2.217   0.484  1.00  0.00    -0.084 Cl
ATOM     16  C   UNL     1       7.545  -0.388   0.102  1.00  0.00     0.023 A 
ATOM     17  C   UNL     1       6.115  -1.901  -1.120  1.00  0.00     0.083 A 
ATOM     18  C   UNL     1       7.245  -1.677  -0.337  1.00  0.00     0.026 A 
ATOM     19  Cl  UNL     1       5.738  -3.529  -1.562  1.00  0.00    -0.080 Cl
BRANCH  10  20
ATOM     20  C   UNL     1       2.873   0.413  -3.473  1.00  0.00     0.429 C 
ATOM     21  F   UNL     1       2.558  -0.522  -4.403  1.00  0.00    -0.167 F 
ATOM     22  F   UNL     1       1.899   1.352  -3.522  1.00  0.00    -0.167 F 
ATOM     23  F   UNL     1       4.022   1.005  -3.876  1.00  0.00    -0.167 F 
ENDBRANCH  10  20
ENDBRANCH   6   8
ENDBRANCH   3   4
ENDBRANCH   2   3
ENDBRANCH   1   2
BRANCH   1  24
ATOM     24  N   UNL     1       4.699  -2.597   3.503  1.00  0.00    -0.352 N 
ATOM     25  C   UNL     1       5.527  -3.417   4.240  1.00  0.00     0.251 C 
ATOM     26  H   UNL     1       4.510  -2.908   2.588  1.00  0.00     0.163 HD
ATOM     27  O   UNL     1       6.013  -4.414   3.707  1.00  0.00    -0.269 OA
BRANCH  25  28
ATOM     28  C   UNL     1       5.875  -3.082   5.643  1.00  0.00     0.039 A 
ATOM     29  C   UNL     1       7.172  -3.333   6.103  1.00  0.00     0.014 A 
ATOM     30  C   UNL     1       4.944  -2.498   6.500  1.00  0.00     0.014 A 
ATOM     31  C   UNL     1       7.548  -2.920   7.386  1.00  0.00     0.010 A 
ATOM     32  C   UNL     1       5.356  -1.967   7.715  1.00  0.00     0.010 A 
ATOM     33  C   UNL     1       6.656  -2.191   8.187  1.00  0.00    -0.014 A 
BRANCH  33  34
ATOM     34  C   UNL     1       7.036  -1.686   9.533  1.00  0.00     0.031 A 
ATOM     35  C   UNL     1       6.230  -2.095  10.742  1.00  0.00     0.074 A 
ATOM     36  C   UNL     1       8.046  -0.802   9.662  1.00  0.00     0.049 A 
ATOM     37  N   UNL     1       6.345  -1.700  11.984  1.00  0.00    -0.248 NA
ATOM     38  C   UNL     1       5.114  -3.030  10.518  1.00  0.00     0.031 C 
ATOM     39  C   UNL     1       8.852  -0.263   8.562  1.00  0.00     0.029 A 
ATOM     40  N   UNL     1       8.566  -0.194  10.777  1.00  0.00    -0.354 N 
ATOM     41  C   UNL     1       5.295  -2.302  12.670  1.00  0.00     0.074 A 
ATOM     42  C   UNL     1       4.514  -3.030  11.697  1.00  0.00     0.031 C 
ATOM     43  C   UNL     1       9.791   0.556   9.062  1.00  0.00     0.029 A 
ATOM     44  C   UNL     1       9.633   0.632  10.510  1.00  0.00     0.049 A 
ATOM     45  H   UNL     1       8.210  -0.337  11.683  1.00  0.00     0.167 HD
ATOM     46  C   UNL     1       5.021  -2.283  13.996  1.00  0.00     0.031 A 
ATOM     47  C   UNL     1      10.402   1.364  11.340  1.00  0.00     0.031 A 
ATOM     48  C   UNL     1       5.834  -1.605  14.967  1.00  0.00     0.049 A 
ATOM     49  C   UNL     1      10.128   1.311  12.818  1.00  0.00     0.074 A 
ATOM     50  C   UNL     1       5.704  -1.593  16.344  1.00  0.00     0.029 A 
ATOM     51  N   UNL     1       6.943  -0.831  14.661  1.00  0.00    -0.354 N 
ATOM     52  N   UNL     1       9.175   0.673  13.456  1.00  0.00    -0.248 NA
ATOM     53  C   UNL     1      11.046   2.057  13.688  1.00  0.00     0.031 C 
ATOM     54  C   UNL     1       6.713  -0.778  16.869  1.00  0.00     0.029 A 
ATOM     55  C   UNL     1       7.501  -0.326  15.822  1.00  0.00     0.049 A 
ATOM     56  H   UNL     1       7.282  -0.664  13.752  1.00  0.00     0.167 HD
ATOM     57  C   UNL     1       9.395   0.920  14.807  1.00  0.00     0.074 A 
ATOM     58  C   UNL     1      10.580   1.749  14.891  1.00  0.00     0.031 C 
ATOM     59  C   UNL     1       8.681   0.499  15.881  1.00  0.00     0.031 A 
BRANCH  46  60
ATOM     60  C   UNL     1       3.797  -3.030  14.465  1.00  0.00    -0.014 A 
ATOM     61  C   UNL     1       3.730  -4.434  14.399  1.00  0.00     0.010 A 
ATOM     62  C   UNL     1       2.701  -2.319  14.986  1.00  0.00     0.010 A 
ATOM     63  C   UNL     1       2.570  -5.109  14.789  1.00  0.00     0.020 A 
ATOM     64  C   UNL     1       1.551  -2.993  15.410  1.00  0.00     0.020 A 
ATOM     65  C   UNL     1       1.485  -4.382  15.287  1.00  0.00     0.054 A 
BRANCH  65  66
ATOM     66  S   UNL     1      -0.005  -5.284  15.794  1.00  0.00     0.124 S 
ATOM     67  O   UNL     1      -0.590  -5.644  14.505  1.00  0.00    -0.237 OA
ATOM     68  O   UNL     1       0.541  -6.396  16.568  1.00  0.00    -0.237 OA
ATOM     69  O   UNL     1      -0.758  -4.300  16.568  1.00  0.00    -0.744 OA
ENDBRANCH  65  66
ENDBRANCH  46  60
BRANCH  47  70
ATOM     70  C   UNL     1      11.532   2.164  10.793  1.00  0.00    -0.014 A 
ATOM     71  C   UNL     1      12.861   1.754  10.999  1.00  0.00     0.010 A 
ATOM     72  C   UNL     1      11.287   3.325  10.037  1.00  0.00     0.010 A 
ATOM     73  C   UNL     1      13.924   2.496  10.474  1.00  0.00     0.020 A 
ATOM     74  C   UNL     1      12.345   4.055   9.488  1.00  0.00     0.020 A 
ATOM     75  C   UNL     1      13.659   3.640   9.718  1.00  0.00     0.054 A 
BRANCH  75  76
ATOM     76  S   UNL     1      15.050   4.551   8.992  1.00  0.00     0.124 S 
ATOM     77  O   UNL     1      15.614   5.224  10.158  1.00  0.00    -0.237 OA
ATOM     78  O   UNL     1      15.865   3.481   8.422  1.00  0.00    -0.237 OA
ATOM     79  O   UNL     1      14.411   5.426   8.011  1.00  0.00    -0.744 OA
ENDBRANCH  75  76
ENDBRANCH  47  70
BRANCH  59  80
ATOM     80  C   UNL     1       9.185   0.900  17.240  1.00  0.00    -0.014 A 
ATOM     81  C   UNL     1       9.077   2.225  17.697  1.00  0.00     0.010 A 
ATOM     82  C   UNL     1       9.739  -0.078  18.087  1.00  0.00     0.010 A 
ATOM     83  C   UNL     1       9.554   2.574  18.962  1.00  0.00     0.020 A 
ATOM     84  C   UNL     1      10.190   0.262  19.363  1.00  0.00     0.020 A 
ATOM     85  C   UNL     1      10.112   1.591  19.785  1.00  0.00     0.054 A 
BRANCH  85  86
ATOM     86  S   UNL     1      10.704   2.063  21.432  1.00  0.00     0.124 S 
ATOM     87  O   UNL     1      11.955   2.748  21.119  1.00  0.00    -0.237 OA
ATOM     88  O   UNL     1       9.627   2.917  21.929  1.00  0.00    -0.237 OA
ATOM     89  O   UNL     1      10.849   0.786  22.127  1.00  0.00    -0.744 OA
ENDBRANCH  85  86
ENDBRANCH  59  80
ENDBRANCH  33  34
ENDBRANCH  25  28
ENDBRANCH   1  24
TORSDOF 14
