REMARK SMILES CCOc1ccc(-c2cc(Cl)cc3c2O[C@H](C(F)(F)F)C(C(=O)NCCCNC(=O)c2ccc(-c4c5nc(c(-c6ccc(S(=O)(=O)[O-])cc6)c6ccc([nH]6)c(-c6ccc(S(=O)(=O)[O-])cc6)c6nc(c(-c7ccc(S(=O)(=O)[O-])cc7)c7ccc4[nH]7)C=C6)C=C5)cc2)=C3)cc1
REMARK SMILES IDX 26 1 25 2 24 3 22 4 23 5 21 7 8 8 9 9 14 10 10 11 13 12
REMARK SMILES IDX 15 13 11 14 12 15 91 16 16 17 7 18 4 19 5 20 93 21 6 22
REMARK SMILES IDX 92 23 3 24 2 25 1 26 17 27 18 28 19 29 20 30 27 31 28 32
REMARK SMILES IDX 29 33 30 35 31 36 32 37 90 38 33 39 89 40 34 41 35 42 36 43
REMARK SMILES IDX 83 44 37 45 88 46 82 47 84 48 38 49 87 50 81 51 80 52 39 54
REMARK SMILES IDX 69 55 50 56 68 57 51 58 54 59 67 60 85 61 52 62 53 63 66 65
REMARK SMILES IDX 86 66 55 67 40 68 41 69 49 70 42 71 48 72 43 73 44 74 45 75
REMARK SMILES IDX 46 76 47 77 70 78 71 79 79 80 72 81 78 82 73 83 74 84 75 85
REMARK SMILES IDX 76 86 77 87 56 88 57 89 65 90 58 91 64 92 59 93 60 94 61 95
REMARK SMILES IDX 62 96 63 97
REMARK H PARENT 24 6 28 34 84 53 54 64
REMARK Flexibility Score: inf
ROOT
ATOM      1  C   UNL     1      13.847  -7.169  -0.924  1.00  0.00     0.042 C 
ENDROOT
BRANCH   1   2
ATOM      2  C   UNL     1      13.293  -5.818  -0.462  1.00  0.00     0.118 C 
BRANCH   2   3
ATOM      3  N   UNL     1      12.593  -5.167  -1.553  1.00  0.00    -0.352 N 
ATOM      4  C   UNL     1      11.276  -4.848  -1.601  1.00  0.00     0.251 C 
ATOM      5  O   UNL     1      10.651  -4.992  -2.646  1.00  0.00    -0.270 OA
ATOM      6  H   UNL     1      13.132  -4.931  -2.342  1.00  0.00     0.163 HD
BRANCH   4   7
ATOM      7  C   UNL     1      10.689  -4.184  -0.399  1.00  0.00     0.067 C 
ATOM      8  C   UNL     1       7.098  -3.045  -1.955  1.00  0.00     0.026 A 
ATOM      9  C   UNL     1       7.339  -2.464  -3.225  1.00  0.00     0.033 A 
ATOM     10  C   UNL     1       8.221  -3.245  -1.134  1.00  0.00     0.135 A 
ATOM     11  C   UNL     1       8.587  -1.958  -3.588  1.00  0.00     0.042 A 
ATOM     12  C   UNL     1       9.449  -2.625  -1.471  1.00  0.00     0.019 A 
ATOM     13  O   UNL     1       8.197  -4.059  -0.012  1.00  0.00    -0.475 OA
ATOM     14  Cl  UNL     1       8.806  -1.272  -5.149  1.00  0.00    -0.084 Cl
ATOM     15  C   UNL     1       9.633  -1.974  -2.686  1.00  0.00     0.032 A 
ATOM     16  C   UNL     1      10.601  -2.849  -0.567  1.00  0.00     0.025 C 
ATOM     17  C   UNL     1       9.441  -4.866   0.156  1.00  0.00     0.314 C 
BRANCH   8  18
ATOM     18  C   UNL     1       5.670  -3.151  -1.564  1.00  0.00    -0.014 A 
ATOM     19  C   UNL     1       2.933  -2.467  -1.318  1.00  0.00     0.119 A 
ATOM     20  C   UNL     1       3.348  -3.324  -2.332  1.00  0.00     0.047 A 
ATOM     21  C   UNL     1       3.847  -2.055  -0.354  1.00  0.00     0.047 A 
ATOM     22  C   UNL     1       4.703  -3.670  -2.450  1.00  0.00     0.013 A 
ATOM     23  C   UNL     1       5.202  -2.397  -0.474  1.00  0.00     0.013 A 
BRANCH  19  24
ATOM     24  O   UNL     1       1.609  -2.130  -1.262  1.00  0.00    -0.494 OA
BRANCH  24  25
ATOM     25  C   UNL     1       1.349  -0.726  -1.412  1.00  0.00     0.226 C 
ATOM     26  C   UNL     1       1.125  -0.058  -0.064  1.00  0.00     0.049 C 
ENDBRANCH  24  25
ENDBRANCH  19  24
ENDBRANCH   8  18
BRANCH  17  27
ATOM     27  C   UNL     1       9.692  -5.218   1.639  1.00  0.00     0.429 C 
ATOM     28  F   UNL     1       8.900  -4.516   2.482  1.00  0.00    -0.167 F 
ATOM     29  F   UNL     1       9.477  -6.534   1.875  1.00  0.00    -0.167 F 
ATOM     30  F   UNL     1      10.972  -4.968   2.023  1.00  0.00    -0.167 F 
ENDBRANCH  17  27
ENDBRANCH   4   7
ENDBRANCH   2   3
ENDBRANCH   1   2
BRANCH   1  31
ATOM     31  C   UNL     1      14.858  -7.093  -2.069  1.00  0.00     0.118 C 
BRANCH  31  32
ATOM     32  N   UNL     1      16.053  -6.335  -1.730  1.00  0.00    -0.352 N 
ATOM     33  C   UNL     1      17.373  -6.703  -1.833  1.00  0.00     0.251 C 
ATOM     34  H   UNL     1      15.893  -5.430  -1.377  1.00  0.00     0.163 HD
ATOM     35  O   UNL     1      18.250  -5.981  -1.363  1.00  0.00    -0.269 OA
BRANCH  33  36
ATOM     36  C   UNL     1      17.730  -7.985  -2.476  1.00  0.00     0.039 A 
ATOM     37  C   UNL     1      18.598  -8.855  -1.812  1.00  0.00     0.014 A 
ATOM     38  C   UNL     1      17.186  -8.342  -3.713  1.00  0.00     0.014 A 
ATOM     39  C   UNL     1      18.849 -10.121  -2.346  1.00  0.00     0.010 A 
ATOM     40  C   UNL     1      17.383  -9.629  -4.208  1.00  0.00     0.010 A 
ATOM     41  C   UNL     1      18.203 -10.538  -3.521  1.00  0.00    -0.014 A 
BRANCH  41  42
ATOM     42  C   UNL     1      18.332 -11.932  -4.022  1.00  0.00     0.031 A 
ATOM     43  C   UNL     1      18.944 -12.205  -5.370  1.00  0.00     0.074 A 
ATOM     44  C   UNL     1      17.816 -12.947  -3.297  1.00  0.00     0.049 A 
ATOM     45  N   UNL     1      19.049 -13.341  -6.011  1.00  0.00    -0.248 NA
ATOM     46  C   UNL     1      19.488 -11.050  -6.102  1.00  0.00     0.031 C 
ATOM     47  C   UNL     1      17.157 -12.811  -1.995  1.00  0.00     0.029 A 
ATOM     48  N   UNL     1      17.749 -14.294  -3.559  1.00  0.00    -0.354 N 
ATOM     49  C   UNL     1      19.648 -13.036  -7.227  1.00  0.00     0.074 A 
ATOM     50  C   UNL     1      19.852 -11.603  -7.250  1.00  0.00     0.031 C 
ATOM     51  C   UNL     1      16.769 -14.023  -1.567  1.00  0.00     0.029 A 
ATOM     52  C   UNL     1      17.105 -15.017  -2.581  1.00  0.00     0.049 A 
ATOM     53  H   UNL     1      18.126 -14.704  -4.371  1.00  0.00     0.167 HD
ATOM     54  C   UNL     1      20.009 -13.874  -8.228  1.00  0.00     0.031 A 
ATOM     55  C   UNL     1      16.801 -16.328  -2.513  1.00  0.00     0.031 A 
ATOM     56  C   UNL     1      19.822 -15.301  -8.195  1.00  0.00     0.049 A 
ATOM     57  C   UNL     1      17.204 -17.234  -3.644  1.00  0.00     0.074 A 
ATOM     58  C   UNL     1      20.218 -16.240  -9.132  1.00  0.00     0.029 A 
ATOM     59  N   UNL     1      19.183 -15.995  -7.179  1.00  0.00    -0.354 N 
ATOM     60  N   UNL     1      17.838 -16.934  -4.753  1.00  0.00    -0.248 NA
ATOM     61  C   UNL     1      16.857 -18.656  -3.513  1.00  0.00     0.031 C 
ATOM     62  C   UNL     1      19.769 -17.495  -8.709  1.00  0.00     0.029 A 
ATOM     63  C   UNL     1      19.148 -17.346  -7.480  1.00  0.00     0.049 A 
ATOM     64  H   UNL     1      18.811 -15.587  -6.364  1.00  0.00     0.167 HD
ATOM     65  C   UNL     1      17.986 -18.135  -5.439  1.00  0.00     0.074 A 
ATOM     66  C   UNL     1      17.395 -19.166  -4.612  1.00  0.00     0.031 C 
ATOM     67  C   UNL     1      18.556 -18.362  -6.648  1.00  0.00     0.031 A 
BRANCH  54  68
ATOM     68  C   UNL     1      20.645 -13.275  -9.455  1.00  0.00    -0.014 A 
ATOM     69  C   UNL     1      21.955 -12.763  -9.417  1.00  0.00     0.010 A 
ATOM     70  C   UNL     1      19.953 -13.295 -10.680  1.00  0.00     0.010 A 
ATOM     71  C   UNL     1      22.550 -12.259 -10.577  1.00  0.00     0.020 A 
ATOM     72  C   UNL     1      20.555 -12.816 -11.847  1.00  0.00     0.020 A 
ATOM     73  C   UNL     1      21.848 -12.292 -11.785  1.00  0.00     0.054 A 
BRANCH  73  74
ATOM     74  S   UNL     1      22.667 -11.680 -13.283  1.00  0.00     0.124 S 
ATOM     75  O   UNL     1      22.679 -10.237 -13.052  1.00  0.00    -0.237 OA
ATOM     76  O   UNL     1      23.971 -12.336 -13.224  1.00  0.00    -0.237 OA
ATOM     77  O   UNL     1      21.795 -12.129 -14.365  1.00  0.00    -0.744 OA
ENDBRANCH  73  74
ENDBRANCH  54  68
BRANCH  55  78
ATOM     78  C   UNL     1      16.060 -16.866  -1.338  1.00  0.00    -0.014 A 
ATOM     79  C   UNL     1      16.691 -17.732  -0.428  1.00  0.00     0.010 A 
ATOM     80  C   UNL     1      14.710 -16.525  -1.132  1.00  0.00     0.010 A 
ATOM     81  C   UNL     1      15.978 -18.271   0.648  1.00  0.00     0.020 A 
ATOM     82  C   UNL     1      14.004 -17.037  -0.041  1.00  0.00     0.020 A 
ATOM     83  C   UNL     1      14.638 -17.921   0.833  1.00  0.00     0.054 A 
BRANCH  83  84
ATOM     84  S   UNL     1      13.740 -18.609   2.252  1.00  0.00     0.124 S 
ATOM     85  O   UNL     1      13.514 -19.987   1.827  1.00  0.00    -0.237 OA
ATOM     86  O   UNL     1      14.692 -18.431   3.345  1.00  0.00    -0.237 OA
ATOM     87  O   UNL     1      12.544 -17.774   2.336  1.00  0.00    -0.744 OA
ENDBRANCH  83  84
ENDBRANCH  55  78
BRANCH  67  88
ATOM     88  C   UNL     1      18.596 -19.785  -7.139  1.00  0.00    -0.014 A 
ATOM     89  C   UNL     1      17.430 -20.437  -7.577  1.00  0.00     0.010 A 
ATOM     90  C   UNL     1      19.829 -20.460  -7.210  1.00  0.00     0.010 A 
ATOM     91  C   UNL     1      17.492 -21.751  -8.049  1.00  0.00     0.020 A 
ATOM     92  C   UNL     1      19.898 -21.764  -7.709  1.00  0.00     0.020 A 
ATOM     93  C   UNL     1      18.726 -22.406  -8.112  1.00  0.00     0.054 A 
BRANCH  93  94
ATOM     94  S   UNL     1      18.784 -24.096  -8.768  1.00  0.00     0.124 S 
ATOM     95  O   UNL     1      18.201 -24.867  -7.674  1.00  0.00    -0.237 OA
ATOM     96  O   UNL     1      17.967 -23.999  -9.975  1.00  0.00    -0.237 OA
ATOM     97  O   UNL     1      20.207 -24.327  -9.004  1.00  0.00    -0.744 OA
ENDBRANCH  93  94
ENDBRANCH  67  88
ENDBRANCH  41  42
ENDBRANCH  33  36
ENDBRANCH  31  32
ENDBRANCH   1  31
TORSDOF 17
