REMARK SMILES COC(=O)c1cc(F)cc(-c2ccc(C(=O)NCCCNC(=O)c3ccc(-c4c5nc(c(-c6ccc(S(=O)(=O)[O-])cc6)c6ccc([nH]6)c(-c6ccc(S(=O)(=O)[O-])cc6)c6nc(c(-c7ccc(S(=O)(=O)[O-])cc7)c7ccc4[nH]7)C=C6)C=C5)cc3)cc2C)c1
REMARK SMILES IDX 19 1 18 2 17 3 15 4 16 5 14 7 11 8 12 9 85 10 13 11 84 12
REMARK SMILES IDX 86 13 10 14 5 15 6 16 87 17 7 18 8 19 9 20 3 21 4 22 2 23
REMARK SMILES IDX 1 24 20 25 21 26 22 27 23 29 24 30 25 31 83 32 26 33 82 34
REMARK SMILES IDX 27 35 28 36 29 37 76 38 30 39 81 40 75 41 77 42 31 43 80 44
REMARK SMILES IDX 74 45 73 46 32 48 62 49 43 50 61 51 44 52 47 53 60 54 78 55
REMARK SMILES IDX 45 56 46 57 59 59 79 60 48 61 33 62 34 63 42 64 35 65 41 66
REMARK SMILES IDX 36 67 37 68 38 69 39 70 40 71 63 72 64 73 72 74 65 75 71 76
REMARK SMILES IDX 66 77 67 78 68 79 69 80 70 81 49 82 50 83 58 84 51 85 57 86
REMARK SMILES IDX 52 87 53 88 54 89 55 90 56 91
REMARK H PARENT 17 6 21 28 77 47 47 58
REMARK Flexibility Score: inf
ROOT
ATOM      1  C   UNL     1       6.377   3.144  -7.765  1.00  0.00     0.042 C 
ENDROOT
BRANCH   1   2
ATOM      2  C   UNL     1       5.761   4.302  -6.785  1.00  0.00     0.118 C 
BRANCH   2   3
ATOM      3  N   UNL     1       5.763   5.782  -7.023  1.00  0.00    -0.352 N 
ATOM      4  C   UNL     1       5.005   6.835  -6.460  1.00  0.00     0.251 C 
ATOM      5  O   UNL     1       5.204   8.019  -6.726  1.00  0.00    -0.269 OA
ATOM      6  H   UNL     1       6.416   6.077  -7.699  1.00  0.00     0.163 HD
BRANCH   4   7
ATOM      7  C   UNL     1       3.868   6.532  -5.538  1.00  0.00     0.040 A 
ATOM      8  C   UNL     1       1.592   5.402  -4.308  1.00  0.00    -0.015 A 
ATOM      9  C   UNL     1       2.863   4.795  -4.290  1.00  0.00     0.010 A 
ATOM     10  C   UNL     1       1.512   6.710  -4.819  1.00  0.00    -0.042 A 
ATOM     11  C   UNL     1       3.998   5.438  -4.721  1.00  0.00     0.014 A 
ATOM     12  C   UNL     1       2.645   7.239  -5.506  1.00  0.00     0.018 A 
ATOM     13  C   UNL     1       0.314   7.597  -4.589  1.00  0.00     0.045 C 
BRANCH   8  14
ATOM     14  C   UNL     1       0.514   4.598  -3.698  1.00  0.00    -0.014 A 
ATOM     15  C   UNL     1       0.017   2.886  -2.010  1.00  0.00     0.063 A 
ATOM     16  C   UNL     1      -1.227   2.659  -2.586  1.00  0.00     0.055 A 
ATOM     17  C   UNL     1       0.838   3.881  -2.531  1.00  0.00     0.024 A 
ATOM     18  C   UNL     1      -1.598   3.416  -3.697  1.00  0.00     0.124 A 
ATOM     19  F   UNL     1      -2.803   3.206  -4.247  1.00  0.00    -0.207 F 
ATOM     20  C   UNL     1      -0.737   4.357  -4.276  1.00  0.00     0.048 A 
BRANCH  15  21
ATOM     21  C   UNL     1       0.590   2.091  -0.908  1.00  0.00     0.337 C 
ATOM     22  O   UNL     1       1.445   2.533  -0.138  1.00  0.00    -0.246 OA
BRANCH  21  23
ATOM     23  O   UNL     1       0.163   0.812  -0.965  1.00  0.00    -0.465 OA
ATOM     24  C   UNL     1       0.873  -0.045  -0.069  1.00  0.00     0.282 C 
ENDBRANCH  21  23
ENDBRANCH  15  21
ENDBRANCH   8  14
ENDBRANCH   4   7
ENDBRANCH   2   3
ENDBRANCH   1   2
BRANCH   1  25
ATOM     25  C   UNL     1       7.964   3.073  -7.846  1.00  0.00     0.118 C 
BRANCH  25  26
ATOM     26  N   UNL     1       9.011   2.170  -8.715  1.00  0.00    -0.352 N 
ATOM     27  C   UNL     1      10.108   2.139  -9.730  1.00  0.00     0.251 C 
ATOM     28  H   UNL     1       8.848   1.234  -8.456  1.00  0.00     0.163 HD
ATOM     29  O   UNL     1      10.995   1.326  -9.387  1.00  0.00    -0.269 OA
BRANCH  27  30
ATOM     30  C   UNL     1      10.541   2.928 -11.099  1.00  0.00     0.039 A 
ATOM     31  C   UNL     1      11.847   3.483 -11.311  1.00  0.00     0.014 A 
ATOM     32  C   UNL     1       9.730   3.230 -12.166  1.00  0.00     0.014 A 
ATOM     33  C   UNL     1      11.977   4.800 -11.892  1.00  0.00     0.010 A 
ATOM     34  C   UNL     1       9.860   4.503 -12.781  1.00  0.00     0.010 A 
ATOM     35  C   UNL     1      10.838   5.424 -12.389  1.00  0.00    -0.014 A 
BRANCH  35  36
ATOM     36  C   UNL     1      10.572   6.921 -12.453  1.00  0.00     0.031 A 
ATOM     37  C   UNL     1      10.632   7.565 -13.752  1.00  0.00     0.074 A 
ATOM     38  C   UNL     1      10.129   7.794 -11.493  1.00  0.00     0.049 A 
ATOM     39  N   UNL     1      11.433   8.523 -14.082  1.00  0.00    -0.248 NA
ATOM     40  C   UNL     1       9.733   7.125 -14.805  1.00  0.00     0.031 C 
ATOM     41  C   UNL     1       9.783   9.232 -11.511  1.00  0.00     0.029 A 
ATOM     42  N   UNL     1       9.879   7.536 -10.161  1.00  0.00    -0.354 N 
ATOM     43  C   UNL     1      10.902   9.018 -15.253  1.00  0.00     0.074 A 
ATOM     44  C   UNL     1      10.099   7.942 -15.789  1.00  0.00     0.031 C 
ATOM     45  C   UNL     1       9.819   9.718 -10.244  1.00  0.00     0.029 A 
ATOM     46  C   UNL     1      10.213   8.633  -9.369  1.00  0.00     0.049 A 
ATOM     47  H   UNL     1       9.514   6.690  -9.815  1.00  0.00     0.167 HD
ATOM     48  C   UNL     1      10.848  10.362 -15.497  1.00  0.00     0.031 A 
ATOM     49  C   UNL     1      11.304   8.514  -8.546  1.00  0.00     0.031 A 
ATOM     50  C   UNL     1      11.260  11.154 -14.321  1.00  0.00     0.049 A 
ATOM     51  C   UNL     1      12.464   9.302  -9.092  1.00  0.00     0.074 A 
ATOM     52  C   UNL     1      10.577  12.012 -13.468  1.00  0.00     0.029 A 
ATOM     53  N   UNL     1      12.454  10.868 -13.671  1.00  0.00    -0.354 N 
ATOM     54  N   UNL     1      12.371  10.065 -10.140  1.00  0.00    -0.248 NA
ATOM     55  C   UNL     1      13.828   9.247  -8.573  1.00  0.00     0.031 C 
ATOM     56  C   UNL     1      11.363  12.203 -12.292  1.00  0.00     0.029 A 
ATOM     57  C   UNL     1      12.545  11.502 -12.442  1.00  0.00     0.049 A 
ATOM     58  H   UNL     1      13.155  10.282 -14.040  1.00  0.00     0.167 HD
ATOM     59  C   UNL     1      13.595  10.530 -10.502  1.00  0.00     0.074 A 
ATOM     60  C   UNL     1      14.484   9.995  -9.481  1.00  0.00     0.031 C 
ATOM     61  C   UNL     1      13.741  11.297 -11.622  1.00  0.00     0.031 A 
BRANCH  48  62
ATOM     62  C   UNL     1      10.110  10.955 -16.691  1.00  0.00    -0.014 A 
ATOM     63  C   UNL     1       9.844  12.335 -16.749  1.00  0.00     0.010 A 
ATOM     64  C   UNL     1       9.688  10.212 -17.815  1.00  0.00     0.010 A 
ATOM     65  C   UNL     1       9.145  12.917 -17.823  1.00  0.00     0.020 A 
ATOM     66  C   UNL     1       8.942  10.761 -18.865  1.00  0.00     0.020 A 
ATOM     67  C   UNL     1       8.682  12.120 -18.869  1.00  0.00     0.054 A 
BRANCH  67  68
ATOM     68  S   UNL     1       7.810  12.878 -20.262  1.00  0.00     0.124 S 
ATOM     69  O   UNL     1       6.662  13.507 -19.614  1.00  0.00    -0.237 OA
ATOM     70  O   UNL     1       8.814  13.793 -20.798  1.00  0.00    -0.237 OA
ATOM     71  O   UNL     1       7.484  11.746 -21.128  1.00  0.00    -0.744 OA
ENDBRANCH  67  68
ENDBRANCH  48  62
BRANCH  49  72
ATOM     72  C   UNL     1      11.421   7.144  -7.890  1.00  0.00    -0.014 A 
ATOM     73  C   UNL     1      10.328   6.776  -7.085  1.00  0.00     0.010 A 
ATOM     74  C   UNL     1      11.875   6.123  -8.700  1.00  0.00     0.010 A 
ATOM     75  C   UNL     1       9.339   5.932  -7.613  1.00  0.00     0.020 A 
ATOM     76  C   UNL     1      10.908   5.207  -9.144  1.00  0.00     0.020 A 
ATOM     77  C   UNL     1       9.563   5.305  -8.833  1.00  0.00     0.054 A 
BRANCH  77  78
ATOM     78  S   UNL     1       7.935   5.081 -10.130  1.00  0.00     0.124 S 
ATOM     79  O   UNL     1       6.867   5.570  -9.270  1.00  0.00    -0.237 OA
ATOM     80  O   UNL     1       8.129   5.964 -11.260  1.00  0.00    -0.237 OA
ATOM     81  O   UNL     1       7.800   3.672 -10.468  1.00  0.00    -0.744 OA
ENDBRANCH  77  78
ENDBRANCH  49  72
BRANCH  61  82
ATOM     82  C   UNL     1      15.031  11.924 -12.071  1.00  0.00    -0.014 A 
ATOM     83  C   UNL     1      16.101  12.206 -11.213  1.00  0.00     0.010 A 
ATOM     84  C   UNL     1      15.159  12.356 -13.412  1.00  0.00     0.010 A 
ATOM     85  C   UNL     1      17.284  12.776 -11.694  1.00  0.00     0.020 A 
ATOM     86  C   UNL     1      16.319  12.948 -13.901  1.00  0.00     0.020 A 
ATOM     87  C   UNL     1      17.389  13.129 -13.040  1.00  0.00     0.054 A 
BRANCH  87  88
ATOM     88  S   UNL     1      18.921  13.872 -13.632  1.00  0.00     0.124 S 
ATOM     89  O   UNL     1      19.128  14.961 -12.680  1.00  0.00    -0.237 OA
ATOM     90  O   UNL     1      19.859  12.758 -13.524  1.00  0.00    -0.237 OA
ATOM     91  O   UNL     1      18.605  14.293 -14.995  1.00  0.00    -0.744 OA
ENDBRANCH  87  88
ENDBRANCH  61  82
ENDBRANCH  35  36
ENDBRANCH  27  30
ENDBRANCH  25  26
ENDBRANCH   1  25
TORSDOF 16
