REMARK SMILES CCc1ccc(C[NH+]2CCC(Oc3ccccc3OC)(C(=O)NCCCNC(=O)c3ccc(-c4c5nc(c(-c6ccc(S(=O)(=O)[O-])cc6)c6ccc([nH]6)c(-c6ccc(S(=O)(=O)[O-])cc6)c6nc(c(-c7ccc(S(=O)(=O)[O-])cc7)c7ccc4[nH]7)C=C6)C=C5)cc3)CC2)nc1
REMARK SMILES IDX 25 1 24 2 23 3 21 4 22 5 11 7 8 8 9 9 91 10 10 12 90 13 7 14
REMARK SMILES IDX 6 15 3 16 4 17 93 18 5 19 92 20 2 21 1 22 12 23 13 24 14 25
REMARK SMILES IDX 18 26 15 27 17 28 16 29 19 30 20 31 26 32 27 33 28 34 29 36
REMARK SMILES IDX 30 37 31 38 89 39 32 40 88 41 33 42 34 43 35 44 82 45 36 46
REMARK SMILES IDX 87 47 81 48 83 49 37 50 86 51 80 52 79 53 38 55 68 56 49 57
REMARK SMILES IDX 67 58 50 59 53 60 66 61 84 62 51 63 52 64 65 66 85 67 54 68
REMARK SMILES IDX 39 69 40 70 48 71 41 72 47 73 42 74 43 75 44 76 45 77 46 78
REMARK SMILES IDX 69 79 70 80 78 81 71 82 77 83 72 84 73 85 74 86 75 87 76 88
REMARK SMILES IDX 55 89 56 90 64 91 57 92 63 93 58 94 59 95 60 96 61 97 62 98
REMARK H PARENT 23 6 8 11 27 35 83 54 53 65
REMARK Flexibility Score: inf
ROOT
ATOM      1  C   UNL     1      -4.447   1.346   6.568  1.00  0.00     0.042 C 
ENDROOT
BRANCH   1   2
ATOM      2  C   UNL     1      -3.723   0.587   7.673  1.00  0.00     0.118 C 
BRANCH   2   3
ATOM      3  N   UNL     1      -2.526  -0.106   7.213  1.00  0.00    -0.353 N 
ATOM      4  C   UNL     1      -1.199   0.092   7.499  1.00  0.00     0.264 C 
ATOM      5  O   UNL     1      -0.438  -0.817   7.148  1.00  0.00    -0.270 OA
ATOM      6  H   UNL     1      -2.700  -0.847   6.588  1.00  0.00     0.163 HD
BRANCH   4   7
ATOM      7  C   UNL     1      -0.678   1.391   8.191  1.00  0.00     0.197 C 
ATOM      8  N   UNL     1       1.381   2.629   6.476  1.00  0.00    -0.330 N 
ATOM      9  C   UNL     1      -0.016   2.587   6.043  1.00  0.00     0.267 C 
ATOM     10  C   UNL     1       1.714   1.399   7.210  1.00  0.00     0.267 C 
ATOM     11  H   UNL     1       1.505   3.411   7.119  1.00  0.00     0.348 HD
ATOM     12  C   UNL     1      -0.908   2.587   7.267  1.00  0.00     0.120 C 
ATOM     13  C   UNL     1       0.840   1.269   8.476  1.00  0.00     0.120 C 
BRANCH   8  14
ATOM     14  C   UNL     1       2.302   2.899   5.343  1.00  0.00     0.319 C 
BRANCH  14  15
ATOM     15  C   UNL     1       2.043   2.097   4.077  1.00  0.00     0.095 A 
ATOM     16  C   UNL     1       1.111   0.469   2.059  1.00  0.00    -0.030 A 
ATOM     17  C   UNL     1       0.824   1.834   2.026  1.00  0.00     0.007 A 
ATOM     18  C   UNL     1       1.919   0.012   3.094  1.00  0.00     0.115 A 
ATOM     19  C   UNL     1       1.296   2.660   3.040  1.00  0.00     0.030 A 
ATOM     20  N   UNL     1       2.399   0.790   4.088  1.00  0.00    -0.255 NA
BRANCH  16  21
ATOM     21  C   UNL     1       0.529  -0.485   1.056  1.00  0.00     0.034 C 
ATOM     22  C   UNL     1       1.023  -0.227  -0.358  1.00  0.00     0.009 C 
ENDBRANCH  16  21
ENDBRANCH  14  15
ENDBRANCH   8  14
BRANCH   7  23
ATOM     23  O   UNL     1      -1.545   1.481   9.351  1.00  0.00    -0.473 OA
BRANCH  23  24
ATOM     24  C   UNL     1      -1.194   2.195  10.454  1.00  0.00     0.162 A 
ATOM     25  C   UNL     1      -0.381   1.560  11.399  1.00  0.00     0.050 A 
ATOM     26  C   UNL     1      -1.851   3.382  10.813  1.00  0.00     0.160 A 
ATOM     27  C   UNL     1      -0.141   2.145  12.643  1.00  0.00     0.004 A 
ATOM     28  C   UNL     1      -1.568   3.992  12.041  1.00  0.00     0.050 A 
ATOM     29  C   UNL     1      -0.708   3.379  12.952  1.00  0.00     0.004 A 
BRANCH  26  30
ATOM     30  O   UNL     1      -2.983   3.837  10.185  1.00  0.00    -0.493 OA
ATOM     31  C   UNL     1      -2.752   4.583   9.000  1.00  0.00     0.278 C 
ENDBRANCH  26  30
ENDBRANCH  23  24
ENDBRANCH   7  23
ENDBRANCH   4   7
ENDBRANCH   2   3
ENDBRANCH   1   2
BRANCH   1  32
ATOM     32  C   UNL     1      -5.084   0.455   5.512  1.00  0.00     0.118 C 
BRANCH  32  33
ATOM     33  N   UNL     1      -6.188  -0.336   6.038  1.00  0.00    -0.352 N 
ATOM     34  C   UNL     1      -7.536  -0.253   5.792  1.00  0.00     0.251 C 
ATOM     35  H   UNL     1      -5.925  -1.044   6.671  1.00  0.00     0.163 HD
ATOM     36  O   UNL     1      -8.319  -0.888   6.500  1.00  0.00    -0.269 OA
BRANCH  34  37
ATOM     37  C   UNL     1      -8.057   0.606   4.707  1.00  0.00     0.039 A 
ATOM     38  C   UNL     1      -9.185   1.395   4.951  1.00  0.00     0.014 A 
ATOM     39  C   UNL     1      -7.450   0.630   3.448  1.00  0.00     0.014 A 
ATOM     40  C   UNL     1      -9.645   2.274   3.966  1.00  0.00     0.010 A 
ATOM     41  C   UNL     1      -7.864   1.558   2.495  1.00  0.00     0.010 A 
ATOM     42  C   UNL     1      -8.956   2.402   2.750  1.00  0.00    -0.014 A 
BRANCH  42  43
ATOM     43  C   UNL     1      -9.315   3.450   1.758  1.00  0.00     0.031 A 
ATOM     44  C   UNL     1      -9.783   3.070   0.379  1.00  0.00     0.074 A 
ATOM     45  C   UNL     1      -9.121   4.748   2.074  1.00  0.00     0.049 A 
ATOM     46  N   UNL     1     -10.025   3.844  -0.647  1.00  0.00    -0.248 NA
ATOM     47  C   UNL     1      -9.986   1.636   0.111  1.00  0.00     0.031 C 
ATOM     48  C   UNL     1      -8.640   5.243   3.368  1.00  0.00     0.029 A 
ATOM     49  N   UNL     1      -9.283   5.889   1.327  1.00  0.00    -0.354 N 
ATOM     50  C   UNL     1     -10.383   2.994  -1.688  1.00  0.00     0.074 A 
ATOM     51  C   UNL     1     -10.305   1.643  -1.177  1.00  0.00     0.031 C 
ATOM     52  C   UNL     1      -8.555   6.582   3.325  1.00  0.00     0.029 A 
ATOM     53  C   UNL     1      -8.920   7.040   1.989  1.00  0.00     0.049 A 
ATOM     54  H   UNL     1      -9.627   5.884   0.404  1.00  0.00     0.167 HD
ATOM     55  C   UNL     1     -10.749   3.316  -2.952  1.00  0.00     0.031 A 
ATOM     56  C   UNL     1      -8.856   8.318   1.564  1.00  0.00     0.031 A 
ATOM     57  C   UNL     1     -10.844   4.664  -3.448  1.00  0.00     0.049 A 
ATOM     58  C   UNL     1      -9.237   8.636   0.142  1.00  0.00     0.074 A 
ATOM     59  C   UNL     1     -11.290   5.089  -4.688  1.00  0.00     0.029 A 
ATOM     60  N   UNL     1     -10.478   5.799  -2.744  1.00  0.00    -0.354 N 
ATOM     61  N   UNL     1      -9.670   7.826  -0.794  1.00  0.00    -0.248 NA
ATOM     62  C   UNL     1      -9.121  10.039  -0.281  1.00  0.00     0.031 C 
ATOM     63  C   UNL     1     -11.121   6.474  -4.761  1.00  0.00     0.029 A 
ATOM     64  C   UNL     1     -10.638   6.920  -3.542  1.00  0.00     0.049 A 
ATOM     65  H   UNL     1     -10.152   5.808  -1.815  1.00  0.00     0.167 HD
ATOM     66  C   UNL     1      -9.898   8.627  -1.908  1.00  0.00     0.074 A 
ATOM     67  C   UNL     1      -9.582   9.985  -1.522  1.00  0.00     0.031 C 
ATOM     68  C   UNL     1     -10.325   8.268  -3.143  1.00  0.00     0.031 A 
BRANCH  55  69
ATOM     69  C   UNL     1     -11.063   2.200  -3.913  1.00  0.00    -0.014 A 
ATOM     70  C   UNL     1     -12.251   1.457  -3.807  1.00  0.00     0.010 A 
ATOM     71  C   UNL     1     -10.212   1.977  -5.013  1.00  0.00     0.010 A 
ATOM     72  C   UNL     1     -12.579   0.506  -4.778  1.00  0.00     0.020 A 
ATOM     73  C   UNL     1     -10.547   1.046  -5.998  1.00  0.00     0.020 A 
ATOM     74  C   UNL     1     -11.728   0.312  -5.872  1.00  0.00     0.054 A 
BRANCH  74  75
ATOM     75  S   UNL     1     -12.221  -0.870  -7.157  1.00  0.00     0.124 S 
ATOM     76  O   UNL     1     -12.069  -2.148  -6.465  1.00  0.00    -0.237 OA
ATOM     77  O   UNL     1     -13.596  -0.472  -7.445  1.00  0.00    -0.237 OA
ATOM     78  O   UNL     1     -11.266  -0.630  -8.236  1.00  0.00    -0.744 OA
ENDBRANCH  74  75
ENDBRANCH  55  69
BRANCH  56  79
ATOM     79  C   UNL     1      -8.370   9.394   2.473  1.00  0.00    -0.014 A 
ATOM     80  C   UNL     1      -9.227  10.430   2.884  1.00  0.00     0.010 A 
ATOM     81  C   UNL     1      -7.028   9.412   2.897  1.00  0.00     0.010 A 
ATOM     82  C   UNL     1      -8.742  11.486   3.662  1.00  0.00     0.020 A 
ATOM     83  C   UNL     1      -6.548  10.446   3.705  1.00  0.00     0.020 A 
ATOM     84  C   UNL     1      -7.403  11.489   4.063  1.00  0.00     0.054 A 
BRANCH  84  85
ATOM     85  S   UNL     1      -6.792  12.869   5.069  1.00  0.00     0.124 S 
ATOM     86  O   UNL     1      -6.728  13.951   4.092  1.00  0.00    -0.237 OA
ATOM     87  O   UNL     1      -7.827  12.997   6.091  1.00  0.00    -0.237 OA
ATOM     88  O   UNL     1      -5.501  12.388   5.558  1.00  0.00    -0.744 OA
ENDBRANCH  84  85
ENDBRANCH  56  79
BRANCH  68  89
ATOM     89  C   UNL     1     -10.499   9.358  -4.167  1.00  0.00    -0.014 A 
ATOM     90  C   UNL     1      -9.387   9.996  -4.744  1.00  0.00     0.010 A 
ATOM     91  C   UNL     1     -11.791   9.698  -4.609  1.00  0.00     0.010 A 
ATOM     92  C   UNL     1      -9.565  10.967  -5.733  1.00  0.00     0.020 A 
ATOM     93  C   UNL     1     -11.971  10.646  -5.619  1.00  0.00     0.020 A 
ATOM     94  C   UNL     1     -10.856  11.281  -6.168  1.00  0.00     0.054 A 
BRANCH  94  95
ATOM     95  S   UNL     1     -11.052  12.496  -7.500  1.00  0.00     0.124 S 
ATOM     96  O   UNL     1     -10.704  13.745  -6.827  1.00  0.00    -0.237 OA
ATOM     97  O   UNL     1     -10.092  12.032  -8.499  1.00  0.00    -0.237 OA
ATOM     98  O   UNL     1     -12.456  12.367  -7.885  1.00  0.00    -0.744 OA
ENDBRANCH  94  95
ENDBRANCH  68  89
ENDBRANCH  42  43
ENDBRANCH  34  37
ENDBRANCH  32  33
ENDBRANCH   1  32
TORSDOF 19
