REMARK SMILES C[C@H]([NH2+]Cc1cc(C(=O)NCCCNC(=O)c2ccc(-c3c4nc(c(-c5ccc(S(=O)(=O)[O-])cc5)c5ccc([nH]5)c(-c5ccc(S(=O)(=O)[O-])cc5)c5nc(c(-c6ccc(S(=O)(=O)[O-])cc6)c6ccc3[nH]6)C=C5)C=C4)cc2)cs1)c1ccsc1
REMARK SMILES IDX 11 1 10 2 8 3 9 4 7 6 5 7 6 8 78 9 77 10 4 11 3 12 2 15 1 16
REMARK SMILES IDX 79 17 80 18 83 19 81 20 82 21 12 22 13 23 14 24 15 25 16 27
REMARK SMILES IDX 17 28 18 29 76 30 19 31 75 32 20 33 21 34 22 35 69 36 23 37
REMARK SMILES IDX 74 38 68 39 70 40 24 41 73 42 67 43 66 44 25 46 55 47 36 48
REMARK SMILES IDX 54 49 37 50 40 51 53 52 71 53 38 54 39 55 52 57 72 58 41 59
REMARK SMILES IDX 26 60 27 61 35 62 28 63 34 64 29 65 30 66 31 67 32 68 33 69
REMARK SMILES IDX 56 70 57 71 65 72 58 73 64 74 59 75 60 76 61 77 62 78 63 79
REMARK SMILES IDX 42 80 43 81 51 82 44 83 50 84 45 85 46 86 47 87 48 88 49 89
REMARK H PARENT 10 5 3 13 3 14 14 26 70 45 40 56
REMARK Flexibility Score: inf
ROOT
ATOM      1  C   UNL     1       5.510   2.400  -3.159  1.00  0.00     0.118 C 
ENDROOT
BRANCH   1   2
ATOM      2  N   UNL     1       5.725   1.311  -4.090  1.00  0.00    -0.352 N 
ATOM      3  C   UNL     1       5.161   0.066  -4.199  1.00  0.00     0.252 C 
ATOM      4  O   UNL     1       5.471  -0.591  -5.194  1.00  0.00    -0.269 OA
ATOM      5  H   UNL     1       6.407   1.501  -4.774  1.00  0.00     0.163 HD
BRANCH   3   6
ATOM      6  C   UNL     1       4.209  -0.454  -3.213  1.00  0.00     0.051 A 
ATOM      7  C   UNL     1       2.945  -0.789  -1.244  1.00  0.00     0.059 A 
ATOM      8  C   UNL     1       3.971  -0.082  -1.846  1.00  0.00     0.035 A 
ATOM      9  S   UNL     1       2.329  -1.992  -2.289  1.00  0.00    -0.142 S 
ATOM     10  C   UNL     1       3.386  -1.522  -3.542  1.00  0.00     0.079 A 
BRANCH   7  11
ATOM     11  C   UNL     1       2.408  -0.627   0.151  1.00  0.00     0.308 C 
BRANCH  11  12
ATOM     12  N   UNL     1       1.035  -0.125   0.132  1.00  0.00    -0.336 N 
ATOM     13  H   UNL     1       1.005   0.719  -0.441  1.00  0.00     0.347 HD
ATOM     14  H   UNL     1       0.443  -0.862  -0.250  1.00  0.00     0.347 HD
BRANCH  12  15
ATOM     15  C   UNL     1       0.533   0.199   1.470  1.00  0.00     0.211 C 
ATOM     16  C   UNL     1       1.118   1.512   2.002  1.00  0.00     0.081 C 
BRANCH  15  17
ATOM     17  C   UNL     1      -0.981   0.218   1.377  1.00  0.00     0.020 A 
ATOM     18  C   UNL     1      -1.823   1.383   1.304  1.00  0.00     0.021 A 
ATOM     19  C   UNL     1      -1.762  -0.929   1.368  1.00  0.00     0.074 A 
ATOM     20  C   UNL     1      -3.166   1.077   1.276  1.00  0.00     0.065 A 
ATOM     21  S   UNL     1      -3.439  -0.607   1.306  1.00  0.00    -0.152 S 
ENDBRANCH  15  17
ENDBRANCH  12  15
ENDBRANCH  11  12
ENDBRANCH   7  11
ENDBRANCH   3   6
ENDBRANCH   1   2
BRANCH   1  22
ATOM     22  C   UNL     1       6.633   2.496  -2.127  1.00  0.00     0.042 C 
BRANCH  22  23
ATOM     23  C   UNL     1       7.941   3.058  -2.691  1.00  0.00     0.118 C 
BRANCH  23  24
ATOM     24  N   UNL     1       7.802   4.442  -3.122  1.00  0.00    -0.352 N 
ATOM     25  C   UNL     1       8.474   5.574  -2.737  1.00  0.00     0.251 C 
ATOM     26  H   UNL     1       7.109   4.590  -3.804  1.00  0.00     0.163 HD
ATOM     27  O   UNL     1       8.024   6.668  -3.073  1.00  0.00    -0.269 OA
BRANCH  25  28
ATOM     28  C   UNL     1       9.715   5.504  -1.932  1.00  0.00     0.039 A 
ATOM     29  C   UNL     1       9.940   6.494  -0.970  1.00  0.00     0.014 A 
ATOM     30  C   UNL     1      10.687   4.526  -2.160  1.00  0.00     0.014 A 
ATOM     31  C   UNL     1      11.110   6.475  -0.208  1.00  0.00     0.010 A 
ATOM     32  C   UNL     1      11.823   4.467  -1.351  1.00  0.00     0.010 A 
ATOM     33  C   UNL     1      12.050   5.444  -0.372  1.00  0.00    -0.014 A 
BRANCH  33  34
ATOM     34  C   UNL     1      13.256   5.375   0.494  1.00  0.00     0.031 A 
ATOM     35  C   UNL     1      14.635   5.539  -0.086  1.00  0.00     0.074 A 
ATOM     36  C   UNL     1      13.105   5.129   1.810  1.00  0.00     0.049 A 
ATOM     37  N   UNL     1      15.793   5.531   0.527  1.00  0.00    -0.248 NA
ATOM     38  C   UNL     1      14.729   5.712  -1.544  1.00  0.00     0.031 C 
ATOM     39  C   UNL     1      11.825   4.905   2.486  1.00  0.00     0.029 A 
ATOM     40  N   UNL     1      14.033   5.033   2.816  1.00  0.00    -0.354 N 
ATOM     41  C   UNL     1      16.751   5.688  -0.468  1.00  0.00     0.074 A 
ATOM     42  C   UNL     1      16.042   5.735  -1.729  1.00  0.00     0.031 C 
ATOM     43  C   UNL     1      12.044   4.744   3.800  1.00  0.00     0.029 A 
ATOM     44  C   UNL     1      13.479   4.815   4.055  1.00  0.00     0.049 A 
ATOM     45  H   UNL     1      15.002   5.113   2.665  1.00  0.00     0.167 HD
ATOM     46  C   UNL     1      18.097   5.802  -0.344  1.00  0.00     0.031 A 
ATOM     47  C   UNL     1      14.058   4.694   5.266  1.00  0.00     0.031 A 
ATOM     48  C   UNL     1      18.800   5.748   0.911  1.00  0.00     0.049 A 
ATOM     49  C   UNL     1      15.550   4.821   5.380  1.00  0.00     0.074 A 
ATOM     50  C   UNL     1      20.155   5.904   1.149  1.00  0.00     0.029 A 
ATOM     51  N   UNL     1      18.205   5.513   2.143  1.00  0.00    -0.354 N 
ATOM     52  N   UNL     1      16.433   5.038   4.434  1.00  0.00    -0.248 NA
ATOM     53  C   UNL     1      16.120   4.701   6.728  1.00  0.00     0.031 C 
ATOM     54  C   UNL     1      20.385   5.712   2.517  1.00  0.00     0.029 A 
ATOM     55  C   UNL     1      19.166   5.493   3.140  1.00  0.00     0.049 A 
ATOM     56  H   UNL     1      17.240   5.380   2.286  1.00  0.00     0.167 HD
ATOM     57  C   UNL     1      17.665   5.096   5.076  1.00  0.00     0.074 A 
ATOM     58  C   UNL     1      17.407   4.916   6.491  1.00  0.00     0.031 C 
ATOM     59  C   UNL     1      18.898   5.284   4.542  1.00  0.00     0.031 A 
BRANCH  46  60
ATOM     60  C   UNL     1      18.893   5.979  -1.613  1.00  0.00    -0.014 A 
ATOM     61  C   UNL     1      18.803   7.163  -2.369  1.00  0.00     0.010 A 
ATOM     62  C   UNL     1      19.747   4.953  -2.055  1.00  0.00     0.010 A 
ATOM     63  C   UNL     1      19.502   7.292  -3.573  1.00  0.00     0.020 A 
ATOM     64  C   UNL     1      20.473   5.090  -3.243  1.00  0.00     0.020 A 
ATOM     65  C   UNL     1      20.325   6.250  -4.007  1.00  0.00     0.054 A 
BRANCH  65  66
ATOM     66  S   UNL     1      21.210   6.437  -5.580  1.00  0.00     0.124 S 
ATOM     67  O   UNL     1      20.134   6.258  -6.552  1.00  0.00    -0.237 OA
ATOM     68  O   UNL     1      21.751   7.790  -5.486  1.00  0.00    -0.237 OA
ATOM     69  O   UNL     1      22.204   5.367  -5.548  1.00  0.00    -0.744 OA
ENDBRANCH  65  66
ENDBRANCH  46  60
BRANCH  47  70
ATOM     70  C   UNL     1      13.207   4.482   6.468  1.00  0.00    -0.014 A 
ATOM     71  C   UNL     1      13.014   5.523   7.392  1.00  0.00     0.010 A 
ATOM     72  C   UNL     1      12.549   3.255   6.668  1.00  0.00     0.010 A 
ATOM     73  C   UNL     1      12.178   5.341   8.498  1.00  0.00     0.020 A 
ATOM     74  C   UNL     1      11.692   3.079   7.758  1.00  0.00     0.020 A 
ATOM     75  C   UNL     1      11.516   4.122   8.669  1.00  0.00     0.054 A 
BRANCH  75  76
ATOM     76  S   UNL     1      10.369   3.940  10.063  1.00  0.00     0.124 S 
ATOM     77  O   UNL     1      11.281   3.823  11.195  1.00  0.00    -0.237 OA
ATOM     78  O   UNL     1       9.594   5.177   9.998  1.00  0.00    -0.237 OA
ATOM     79  O   UNL     1       9.620   2.729   9.732  1.00  0.00    -0.744 OA
ENDBRANCH  75  76
ENDBRANCH  47  70
BRANCH  59  80
ATOM     80  C   UNL     1      20.059   5.311   5.501  1.00  0.00    -0.014 A 
ATOM     81  C   UNL     1      20.493   4.141   6.151  1.00  0.00     0.010 A 
ATOM     82  C   UNL     1      20.731   6.521   5.749  1.00  0.00     0.010 A 
ATOM     83  C   UNL     1      21.544   4.192   7.071  1.00  0.00     0.020 A 
ATOM     84  C   UNL     1      21.802   6.570   6.645  1.00  0.00     0.020 A 
ATOM     85  C   UNL     1      22.187   5.409   7.317  1.00  0.00     0.054 A 
BRANCH  85  86
ATOM     86  S   UNL     1      23.552   5.449   8.510  1.00  0.00     0.124 S 
ATOM     87  O   UNL     1      22.843   5.372   9.785  1.00  0.00    -0.237 OA
ATOM     88  O   UNL     1      24.330   4.266   8.151  1.00  0.00    -0.237 OA
ATOM     89  O   UNL     1      24.210   6.726   8.239  1.00  0.00    -0.744 OA
ENDBRANCH  85  86
ENDBRANCH  59  80
ENDBRANCH  33  34
ENDBRANCH  25  28
ENDBRANCH  23  24
ENDBRANCH  22  23
ENDBRANCH   1  22
TORSDOF 17
