REMARK SMILES O=C(NCCCNC(=O)c1cncc(Oc2cc(F)ccc2F)n1)c1ccc(-c2c3nc(c(-c4ccc(S(=O)(=O)[O-])cc4)c4ccc([nH]4)c(-c4ccc(S(=O)(=O)[O-])cc4)c4nc(c(-c5ccc(S(=O)(=O)[O-])cc5)c5ccc2[nH]5)C=C4)C=C3)cc1
REMARK SMILES IDX 4 1 3 2 1 3 2 4 25 6 26 7 84 8 27 9 83 10 28 11 29 12 30 13
REMARK SMILES IDX 77 14 31 15 82 16 76 17 78 18 32 19 81 20 75 21 74 22 33 24
REMARK SMILES IDX 63 25 44 26 62 27 45 28 48 29 61 30 79 31 46 32 47 33 60 35
REMARK SMILES IDX 80 36 49 37 34 38 35 39 43 40 36 41 42 42 37 43 38 44 39 45
REMARK SMILES IDX 40 46 41 47 64 48 65 49 73 50 66 51 72 52 67 53 68 54 69 55
REMARK SMILES IDX 70 56 71 57 50 58 51 59 59 60 52 61 58 62 53 63 54 64 55 65
REMARK SMILES IDX 56 66 57 67 5 68 6 69 7 70 8 71 9 73 10 74 11 75 24 76 12 77
REMARK SMILES IDX 14 78 13 79 15 80 16 81 17 82 22 83 18 84 21 85 23 86 19 87
REMARK SMILES IDX 20 88
REMARK H PARENT 3 5 78 23 48 34 7 72
REMARK Flexibility Score: inf
ROOT
ATOM      1  C   UNL     1       4.571  -0.967   0.793  1.00  0.00     0.118 C 
ENDROOT
BRANCH   1   2
ATOM      2  N   UNL     1       3.134  -0.937   0.562  1.00  0.00    -0.352 N 
ATOM      3  O   UNL     1       1.138  -0.115  -0.054  1.00  0.00    -0.269 OA
ATOM      4  C   UNL     1       2.365  -0.067  -0.167  1.00  0.00     0.251 C 
ATOM      5  H   UNL     1       2.631  -1.660   1.001  1.00  0.00     0.163 HD
BRANCH   4   6
ATOM      6  C   UNL     1       2.982   0.932  -1.065  1.00  0.00     0.039 A 
ATOM      7  C   UNL     1       4.058   0.599  -1.894  1.00  0.00     0.014 A 
ATOM      8  C   UNL     1       2.434   2.217  -1.121  1.00  0.00     0.014 A 
ATOM      9  C   UNL     1       4.667   1.579  -2.675  1.00  0.00     0.010 A 
ATOM     10  C   UNL     1       2.997   3.179  -1.964  1.00  0.00     0.010 A 
ATOM     11  C   UNL     1       4.136   2.876  -2.726  1.00  0.00    -0.014 A 
BRANCH  11  12
ATOM     12  C   UNL     1       4.740   3.903  -3.612  1.00  0.00     0.031 A 
ATOM     13  C   UNL     1       5.360   5.144  -3.035  1.00  0.00     0.074 A 
ATOM     14  C   UNL     1       4.690   3.732  -4.947  1.00  0.00     0.049 A 
ATOM     15  N   UNL     1       5.850   6.186  -3.656  1.00  0.00    -0.248 NA
ATOM     16  C   UNL     1       5.429   5.229  -1.568  1.00  0.00     0.031 C 
ATOM     17  C   UNL     1       4.118   2.568  -5.628  1.00  0.00     0.029 A 
ATOM     18  N   UNL     1       5.112   4.543  -5.971  1.00  0.00    -0.354 N 
ATOM     19  C   UNL     1       6.259   7.065  -2.659  1.00  0.00     0.074 A 
ATOM     20  C   UNL     1       5.940   6.440  -1.393  1.00  0.00     0.031 C 
ATOM     21  C   UNL     1       4.229   2.737  -6.953  1.00  0.00     0.029 A 
ATOM     22  C   UNL     1       4.820   4.045  -7.218  1.00  0.00     0.049 A 
ATOM     23  H   UNL     1       5.579   5.397  -5.826  1.00  0.00     0.167 HD
ATOM     24  C   UNL     1       6.844   8.281  -2.789  1.00  0.00     0.031 A 
ATOM     25  C   UNL     1       4.971   4.589  -8.441  1.00  0.00     0.031 A 
ATOM     26  C   UNL     1       7.142   8.899  -4.055  1.00  0.00     0.049 A 
ATOM     27  C   UNL     1       5.580   5.955  -8.565  1.00  0.00     0.074 A 
ATOM     28  C   UNL     1       7.762  10.114  -4.294  1.00  0.00     0.029 A 
ATOM     29  N   UNL     1       6.829   8.360  -5.295  1.00  0.00    -0.354 N 
ATOM     30  N   UNL     1       5.995   6.757  -7.614  1.00  0.00    -0.248 NA
ATOM     31  C   UNL     1       5.748   6.489  -9.923  1.00  0.00     0.031 C 
ATOM     32  C   UNL     1       7.769  10.335  -5.675  1.00  0.00     0.029 A 
ATOM     33  C   UNL     1       7.217   9.228  -6.301  1.00  0.00     0.049 A 
ATOM     34  H   UNL     1       6.394   7.488  -5.438  1.00  0.00     0.167 HD
ATOM     35  C   UNL     1       6.500   7.879  -8.258  1.00  0.00     0.074 A 
ATOM     36  C   UNL     1       6.339   7.653  -9.680  1.00  0.00     0.031 C 
ATOM     37  C   UNL     1       7.056   8.990  -7.715  1.00  0.00     0.031 A 
BRANCH  24  38
ATOM     38  C   UNL     1       7.148   9.042  -1.524  1.00  0.00    -0.014 A 
ATOM     39  C   UNL     1       8.144   8.612  -0.628  1.00  0.00     0.010 A 
ATOM     40  C   UNL     1       6.423  10.210  -1.226  1.00  0.00     0.010 A 
ATOM     41  C   UNL     1       8.360   9.296   0.573  1.00  0.00     0.020 A 
ATOM     42  C   UNL     1       6.656  10.915  -0.042  1.00  0.00     0.020 A 
ATOM     43  C   UNL     1       7.604  10.435   0.864  1.00  0.00     0.054 A 
BRANCH  43  44
ATOM     44  S   UNL     1       7.876  11.281   2.445  1.00  0.00     0.124 S 
ATOM     45  O   UNL     1       7.244  10.361   3.389  1.00  0.00    -0.237 OA
ATOM     46  O   UNL     1       9.332  11.357   2.524  1.00  0.00    -0.237 OA
ATOM     47  O   UNL     1       7.195  12.563   2.276  1.00  0.00    -0.744 OA
ENDBRANCH  43  44
ENDBRANCH  24  38
BRANCH  25  48
ATOM     48  C   UNL     1       4.511   3.823  -9.630  1.00  0.00    -0.014 A 
ATOM     49  C   UNL     1       5.438   3.217 -10.494  1.00  0.00     0.010 A 
ATOM     50  C   UNL     1       3.135   3.620  -9.848  1.00  0.00     0.010 A 
ATOM     51  C   UNL     1       4.997   2.411 -11.548  1.00  0.00     0.020 A 
ATOM     52  C   UNL     1       2.692   2.793 -10.883  1.00  0.00     0.020 A 
ATOM     53  C   UNL     1       3.628   2.194 -11.728  1.00  0.00     0.054 A 
BRANCH  53  54
ATOM     54  S   UNL     1       3.087   1.058 -13.036  1.00  0.00     0.124 S 
ATOM     55  O   UNL     1       3.339   1.840 -14.241  1.00  0.00    -0.237 OA
ATOM     56  O   UNL     1       3.963  -0.094 -12.833  1.00  0.00    -0.237 OA
ATOM     57  O   UNL     1       1.679   0.822 -12.724  1.00  0.00    -0.744 OA
ENDBRANCH  53  54
ENDBRANCH  25  48
BRANCH  37  58
ATOM     58  C   UNL     1       7.584  10.041  -8.655  1.00  0.00    -0.014 A 
ATOM     59  C   UNL     1       6.720  10.907  -9.347  1.00  0.00     0.010 A 
ATOM     60  C   UNL     1       8.975  10.231  -8.758  1.00  0.00     0.010 A 
ATOM     61  C   UNL     1       7.240  11.943 -10.129  1.00  0.00     0.020 A 
ATOM     62  C   UNL     1       9.497  11.280  -9.517  1.00  0.00     0.020 A 
ATOM     63  C   UNL     1       8.625  12.129 -10.201  1.00  0.00     0.054 A 
BRANCH  63  64
ATOM     64  S   UNL     1       9.270  13.539 -11.143  1.00  0.00     0.124 S 
ATOM     65  O   UNL     1       9.043  13.114 -12.522  1.00  0.00    -0.237 OA
ATOM     66  O   UNL     1       8.434  14.643 -10.680  1.00  0.00    -0.237 OA
ATOM     67  O   UNL     1      10.672  13.614 -10.738  1.00  0.00    -0.744 OA
ENDBRANCH  63  64
ENDBRANCH  37  58
ENDBRANCH  11  12
ENDBRANCH   4   6
ENDBRANCH   1   2
BRANCH   1  68
ATOM     68  C   UNL     1       4.944  -0.613   2.229  1.00  0.00     0.042 C 
BRANCH  68  69
ATOM     69  C   UNL     1       4.366  -1.552   3.280  1.00  0.00     0.118 C 
BRANCH  69  70
ATOM     70  N   UNL     1       4.835  -2.923   3.128  1.00  0.00    -0.351 N 
ATOM     71  C   UNL     1       5.688  -3.653   3.923  1.00  0.00     0.271 C 
ATOM     72  H   UNL     1       4.489  -3.398   2.338  1.00  0.00     0.163 HD
ATOM     73  O   UNL     1       6.047  -4.772   3.558  1.00  0.00    -0.267 OA
BRANCH  71  74
ATOM     74  C   UNL     1       6.152  -3.108   5.219  1.00  0.00     0.150 A 
ATOM     75  C   UNL     1       5.227  -2.756   6.194  1.00  0.00     0.145 A 
ATOM     76  N   UNL     1       7.492  -2.994   5.402  1.00  0.00    -0.205 NA
ATOM     77  N   UNL     1       5.595  -2.216   7.381  1.00  0.00    -0.257 NA
ATOM     78  C   UNL     1       7.863  -2.474   6.594  1.00  0.00     0.238 A 
ATOM     79  C   UNL     1       6.935  -2.079   7.552  1.00  0.00     0.179 A 
BRANCH  78  80
ATOM     80  O   UNL     1       9.203  -2.292   6.911  1.00  0.00    -0.434 OA
BRANCH  80  81
ATOM     81  C   UNL     1      10.125  -2.906   6.100  1.00  0.00     0.168 A 
ATOM     82  C   UNL     1      10.363  -2.466   4.798  1.00  0.00     0.089 A 
ATOM     83  C   UNL     1      10.909  -3.926   6.643  1.00  0.00     0.166 A 
ATOM     84  C   UNL     1      11.354  -3.088   4.045  1.00  0.00     0.127 A 
ATOM     85  C   UNL     1      11.907  -4.538   5.888  1.00  0.00     0.046 A 
ATOM     86  F   UNL     1      10.715  -4.324   7.909  1.00  0.00    -0.203 F 
ATOM     87  F   UNL     1      11.578  -2.683   2.789  1.00  0.00    -0.207 F 
ATOM     88  C   UNL     1      12.128  -4.118   4.577  1.00  0.00     0.042 A 
ENDBRANCH  80  81
ENDBRANCH  78  80
ENDBRANCH  71  74
ENDBRANCH  69  70
ENDBRANCH  68  69
ENDBRANCH   1  68
TORSDOF 15
