REMARK SMILES CC[C@H]1Sc2ccc(S(=O)(=O)N3CCC(C(=O)NCCCNC(=O)c4ccc(-c5c6nc(c(-c7ccc(S(=O)(=O)[O-])cc7)c7ccc([nH]7)c(-c7ccc(S(=O)(=O)[O-])cc7)c7nc(c(-c8ccc(S(=O)(=O)[O-])cc8)c8ccc5[nH]8)C=C7)C=C6)cc4)CC3)cc2NC1=O
REMARK SMILES IDX 20 1 19 2 18 3 16 4 17 5 15 7 12 8 13 9 86 10 14 11 85 12
REMARK SMILES IDX 9 13 10 14 11 15 8 16 3 17 4 18 90 19 5 20 89 21 91 22 6 23
REMARK SMILES IDX 88 24 7 26 87 27 2 28 1 29 21 30 22 31 23 32 24 34 25 35
REMARK SMILES IDX 26 36 84 37 27 38 83 39 28 40 29 41 30 42 77 43 31 44 82 45
REMARK SMILES IDX 76 46 78 47 32 48 81 49 75 50 74 51 33 53 63 54 44 55 62 56
REMARK SMILES IDX 45 57 48 58 61 59 79 60 46 61 47 62 60 64 80 65 49 66 34 67
REMARK SMILES IDX 35 68 43 69 36 70 42 71 37 72 38 73 39 74 40 75 41 76 64 77
REMARK SMILES IDX 65 78 73 79 66 80 72 81 67 82 68 83 69 84 70 85 71 86 50 87
REMARK SMILES IDX 51 88 59 89 52 90 58 91 53 92 54 93 55 94 56 95 57 96
REMARK H PARENT 18 6 89 25 22 33 78 52 48 63
REMARK Flexibility Score: inf
ROOT
ATOM      1  C   UNL     1      -4.529   1.851  -8.779  1.00  0.00     0.042 C 
ENDROOT
BRANCH   1   2
ATOM      2  C   UNL     1      -3.167   2.508  -8.640  1.00  0.00     0.117 C 
BRANCH   2   3
ATOM      3  N   UNL     1      -3.235   3.768  -7.908  1.00  0.00    -0.356 N 
ATOM      4  C   UNL     1      -2.736   4.115  -6.689  1.00  0.00     0.223 C 
ATOM      5  O   UNL     1      -2.931   5.258  -6.273  1.00  0.00    -0.275 OA
ATOM      6  H   UNL     1      -3.722   4.486  -8.372  1.00  0.00     0.163 HD
BRANCH   4   7
ATOM      7  C   UNL     1      -1.928   3.123  -5.870  1.00  0.00     0.081 C 
ATOM      8  N   UNL     1      -0.764   0.483  -5.559  1.00  0.00    -0.198 NA
ATOM      9  C   UNL     1      -2.015   0.804  -4.833  1.00  0.00     0.103 C 
ATOM     10  C   UNL     1       0.088   1.558  -6.112  1.00  0.00     0.103 C 
ATOM     11  C   UNL     1      -2.791   1.942  -5.450  1.00  0.00     0.030 C 
ATOM     12  C   UNL     1      -0.646   2.775  -6.617  1.00  0.00     0.030 C 
BRANCH   8  13
ATOM     13  S   UNL     1       0.131  -0.829  -4.899  1.00  0.00     0.243 S 
ATOM     14  O   UNL     1       1.168  -1.170  -5.851  1.00  0.00    -0.207 OA
ATOM     15  O   UNL     1      -0.803  -1.808  -4.396  1.00  0.00    -0.207 OA
BRANCH  13  16
ATOM     16  C   UNL     1       0.978  -0.166  -3.471  1.00  0.00     0.084 A 
ATOM     17  C   UNL     1       1.409   2.035   1.102  1.00  0.00     0.141 C 
ATOM     18  S   UNL     1       2.889   1.179   0.455  1.00  0.00    -0.111 SA
ATOM     19  C   UNL     1       0.902   3.071   0.103  1.00  0.00     0.237 C 
ATOM     20  C   UNL     1       2.208   0.702  -1.119  1.00  0.00     0.032 A 
ATOM     21  N   UNL     1       0.790   2.709  -1.210  1.00  0.00    -0.324 N 
ATOM     22  O   UNL     1       0.471   4.169   0.462  1.00  0.00    -0.273 OA
ATOM     23  C   UNL     1       2.567  -0.525  -1.687  1.00  0.00     0.018 A 
ATOM     24  C   UNL     1       1.261   1.510  -1.758  1.00  0.00     0.056 A 
ATOM     25  H   UNL     1       0.343   3.341  -1.818  1.00  0.00     0.170 HD
ATOM     26  C   UNL     1       1.934  -0.973  -2.850  1.00  0.00     0.023 A 
ATOM     27  C   UNL     1       0.688   1.097  -2.952  1.00  0.00     0.049 A 
BRANCH  17  28
ATOM     28  C   UNL     1       0.257   1.130   1.602  1.00  0.00     0.021 C 
ATOM     29  C   UNL     1       0.009  -0.215   0.922  1.00  0.00     0.005 C 
ENDBRANCH  17  28
ENDBRANCH  13  16
ENDBRANCH   8  13
ENDBRANCH   4   7
ENDBRANCH   2   3
ENDBRANCH   1   2
BRANCH   1  30
ATOM     30  C   UNL     1      -5.484   2.652  -9.643  1.00  0.00     0.118 C 
BRANCH  30  31
ATOM     31  N   UNL     1      -5.006   2.781 -11.013  1.00  0.00    -0.352 N 
ATOM     32  C   UNL     1      -5.525   2.265 -12.174  1.00  0.00     0.251 C 
ATOM     33  H   UNL     1      -4.189   3.319 -11.122  1.00  0.00     0.163 HD
ATOM     34  O   UNL     1      -4.852   2.281 -13.199  1.00  0.00    -0.269 OA
BRANCH  32  35
ATOM     35  C   UNL     1      -6.881   1.680 -12.174  1.00  0.00     0.039 A 
ATOM     36  C   UNL     1      -7.117   0.508 -12.894  1.00  0.00     0.014 A 
ATOM     37  C   UNL     1      -7.917   2.286 -11.459  1.00  0.00     0.014 A 
ATOM     38  C   UNL     1      -8.378  -0.090 -12.840  1.00  0.00     0.010 A 
ATOM     39  C   UNL     1      -9.134   1.633 -11.318  1.00  0.00     0.010 A 
ATOM     40  C   UNL     1      -9.384   0.446 -12.019  1.00  0.00    -0.014 A 
BRANCH  40  41
ATOM     41  C   UNL     1     -10.712  -0.204 -11.892  1.00  0.00     0.031 A 
ATOM     42  C   UNL     1     -11.953   0.538 -12.312  1.00  0.00     0.074 A 
ATOM     43  C   UNL     1     -10.805  -1.436 -11.352  1.00  0.00     0.049 A 
ATOM     44  N   UNL     1     -13.205   0.170 -12.218  1.00  0.00    -0.248 NA
ATOM     45  C   UNL     1     -11.767   1.881 -12.890  1.00  0.00     0.031 C 
ATOM     46  C   UNL     1      -9.678  -2.244 -10.877  1.00  0.00     0.029 A 
ATOM     47  N   UNL     1     -11.900  -2.226 -11.112  1.00  0.00    -0.354 N 
ATOM     48  C   UNL     1     -13.949   1.231 -12.720  1.00  0.00     0.074 A 
ATOM     49  C   UNL     1     -13.018   2.286 -13.049  1.00  0.00     0.031 C 
ATOM     50  C   UNL     1     -10.137  -3.427 -10.440  1.00  0.00     0.029 A 
ATOM     51  C   UNL     1     -11.592  -3.445 -10.554  1.00  0.00     0.049 A 
ATOM     52  H   UNL     1     -12.821  -1.946 -11.319  1.00  0.00     0.167 HD
ATOM     53  C   UNL     1     -15.286   1.311 -12.919  1.00  0.00     0.031 A 
ATOM     54  C   UNL     1     -12.391  -4.459 -10.171  1.00  0.00     0.031 A 
ATOM     55  C   UNL     1     -16.210   0.258 -12.595  1.00  0.00     0.049 A 
ATOM     56  C   UNL     1     -13.880  -4.323 -10.357  1.00  0.00     0.074 A 
ATOM     57  C   UNL     1     -17.581   0.230 -12.781  1.00  0.00     0.029 A 
ATOM     58  N   UNL     1     -15.858  -0.955 -12.022  1.00  0.00    -0.354 N 
ATOM     59  N   UNL     1     -14.559  -3.329 -10.878  1.00  0.00    -0.248 NA
ATOM     60  C   UNL     1     -14.708  -5.452  -9.911  1.00  0.00     0.031 C 
ATOM     61  C   UNL     1     -18.065  -0.980 -12.272  1.00  0.00     0.029 A 
ATOM     62  C   UNL     1     -16.988  -1.732 -11.831  1.00  0.00     0.049 A 
ATOM     63  H   UNL     1     -14.941  -1.223 -11.787  1.00  0.00     0.167 HD
ATOM     64  C   UNL     1     -15.891  -3.731 -10.858  1.00  0.00     0.074 A 
ATOM     65  C   UNL     1     -15.917  -5.063 -10.288  1.00  0.00     0.031 C 
ATOM     66  C   UNL     1     -16.993  -3.060 -11.273  1.00  0.00     0.031 A 
BRANCH  53  67
ATOM     67  C   UNL     1     -15.825   2.578 -13.530  1.00  0.00    -0.014 A 
ATOM     68  C   UNL     1     -15.551   2.905 -14.872  1.00  0.00     0.010 A 
ATOM     69  C   UNL     1     -16.655   3.428 -12.777  1.00  0.00     0.010 A 
ATOM     70  C   UNL     1     -16.066   4.074 -15.437  1.00  0.00     0.020 A 
ATOM     71  C   UNL     1     -17.198   4.583 -13.348  1.00  0.00     0.020 A 
ATOM     72  C   UNL     1     -16.888   4.905 -14.671  1.00  0.00     0.054 A 
BRANCH  72  73
ATOM     73  S   UNL     1     -17.572   6.396 -15.445  1.00  0.00     0.124 S 
ATOM     74  O   UNL     1     -16.385   7.237 -15.579  1.00  0.00    -0.237 OA
ATOM     75  O   UNL     1     -18.121   5.881 -16.697  1.00  0.00    -0.237 OA
ATOM     76  O   UNL     1     -18.562   6.866 -14.480  1.00  0.00    -0.744 OA
ENDBRANCH  72  73
ENDBRANCH  53  67
BRANCH  54  77
ATOM     77  C   UNL     1     -11.810  -5.697  -9.579  1.00  0.00    -0.014 A 
ATOM     78  C   UNL     1     -11.896  -6.923 -10.264  1.00  0.00     0.010 A 
ATOM     79  C   UNL     1     -11.194  -5.664  -8.315  1.00  0.00     0.010 A 
ATOM     80  C   UNL     1     -11.416  -8.098  -9.678  1.00  0.00     0.020 A 
ATOM     81  C   UNL     1     -10.680  -6.831  -7.741  1.00  0.00     0.020 A 
ATOM     82  C   UNL     1     -10.814  -8.044  -8.418  1.00  0.00     0.054 A 
BRANCH  82  83
ATOM     83  S   UNL     1     -10.192  -9.581  -7.681  1.00  0.00     0.124 S 
ATOM     84  O   UNL     1     -11.429 -10.267  -7.323  1.00  0.00    -0.237 OA
ATOM     85  O   UNL     1      -9.433 -10.172  -8.779  1.00  0.00    -0.237 OA
ATOM     86  O   UNL     1      -9.385  -9.116  -6.554  1.00  0.00    -0.744 OA
ENDBRANCH  82  83
ENDBRANCH  54  77
BRANCH  66  87
ATOM     87  C   UNL     1     -18.317  -3.772 -11.175  1.00  0.00    -0.014 A 
ATOM     88  C   UNL     1     -18.926  -4.021  -9.933  1.00  0.00     0.010 A 
ATOM     89  C   UNL     1     -18.986  -4.150 -12.355  1.00  0.00     0.010 A 
ATOM     90  C   UNL     1     -20.164  -4.666  -9.871  1.00  0.00     0.020 A 
ATOM     91  C   UNL     1     -20.238  -4.765 -12.298  1.00  0.00     0.020 A 
ATOM     92  C   UNL     1     -20.813  -5.032 -11.055  1.00  0.00     0.054 A 
BRANCH  92  93
ATOM     93  S   UNL     1     -22.440  -5.826 -10.946  1.00  0.00     0.124 S 
ATOM     94  O   UNL     1     -22.098  -7.153 -10.442  1.00  0.00    -0.237 OA
ATOM     95  O   UNL     1     -23.154  -4.962 -10.010  1.00  0.00    -0.237 OA
ATOM     96  O   UNL     1     -22.936  -5.790 -12.320  1.00  0.00    -0.744 OA
ENDBRANCH  92  93
ENDBRANCH  66  87
ENDBRANCH  40  41
ENDBRANCH  32  35
ENDBRANCH  30  31
ENDBRANCH   1  30
TORSDOF 16
