REMARK SMILES O=C(NCCCNC(=O)[C@H]1CCCN(C(=O)c2ccc(NC(=O)c3ccccc3)cc2)C1)c1ccc(-c2c3nc(c(-c4ccc(S(=O)(=O)[O-])cc4)c4ccc([nH]4)c(-c4ccc(S(=O)(=O)[O-])cc4)c4nc(c(-c5ccc(S(=O)(=O)[O-])cc5)c5ccc2[nH]5)C=C4)C=C3)cc1
REMARK SMILES IDX 5 1 4 2 3 3 1 4 2 5 33 7 34 8 92 9 35 10 91 11 36 12 37 13
REMARK SMILES IDX 38 14 85 15 39 16 90 17 84 18 86 19 40 20 89 21 83 22 82 23
REMARK SMILES IDX 41 25 71 26 52 27 70 28 53 29 56 30 69 31 87 32 54 33 55 34
REMARK SMILES IDX 68 36 88 37 57 38 42 39 43 40 51 41 44 42 50 43 45 44 46 45
REMARK SMILES IDX 47 46 48 47 49 48 72 49 73 50 81 51 74 52 80 53 75 54 76 55
REMARK SMILES IDX 77 56 78 57 79 58 58 59 59 60 67 61 60 62 66 63 61 64 62 65
REMARK SMILES IDX 63 66 64 67 65 68 6 69 7 70 8 71 9 73 10 74 11 75 32 76
REMARK SMILES IDX 12 77 14 78 13 79 15 80 16 81 17 82 18 83 31 84 19 85 30 86
REMARK SMILES IDX 20 87 21 88 22 89 23 91 24 92 25 93 29 94 26 95 28 96 27 97
REMARK H PARENT 3 6 86 24 56 35 7 72 21 90
REMARK Flexibility Score: inf
ROOT
ATOM      1  C   UNL     1       9.651   4.971   2.382  1.00  0.00     0.042 C 
ENDROOT
BRANCH   1   2
ATOM      2  C   UNL     1       9.512   5.558   0.989  1.00  0.00     0.118 C 
BRANCH   2   3
ATOM      3  N   UNL     1       9.617   7.013   0.993  1.00  0.00    -0.352 N 
ATOM      4  O   UNL     1      10.679   8.996   0.772  1.00  0.00    -0.269 OA
ATOM      5  C   UNL     1      10.636   7.800   0.507  1.00  0.00     0.251 C 
ATOM      6  H   UNL     1       8.859   7.495   1.396  1.00  0.00     0.163 HD
BRANCH   5   7
ATOM      7  C   UNL     1      11.686   7.170  -0.317  1.00  0.00     0.039 A 
ATOM      8  C   UNL     1      11.326   6.274  -1.325  1.00  0.00     0.014 A 
ATOM      9  C   UNL     1      13.031   7.441  -0.056  1.00  0.00     0.014 A 
ATOM     10  C   UNL     1      12.303   5.515  -1.948  1.00  0.00     0.010 A 
ATOM     11  C   UNL     1      14.018   6.765  -0.777  1.00  0.00     0.010 A 
ATOM     12  C   UNL     1      13.660   5.781  -1.712  1.00  0.00    -0.014 A 
BRANCH  12  13
ATOM     13  C   UNL     1      14.674   5.106  -2.555  1.00  0.00     0.031 A 
ATOM     14  C   UNL     1      15.708   4.192  -1.964  1.00  0.00     0.074 A 
ATOM     15  C   UNL     1      14.634   5.337  -3.883  1.00  0.00     0.049 A 
ATOM     16  N   UNL     1      16.680   3.561  -2.572  1.00  0.00    -0.248 NA
ATOM     17  C   UNL     1      15.659   3.960  -0.512  1.00  0.00     0.031 C 
ATOM     18  C   UNL     1      13.672   6.219  -4.557  1.00  0.00     0.029 A 
ATOM     19  N   UNL     1      15.403   4.850  -4.906  1.00  0.00    -0.354 N 
ATOM     20  C   UNL     1      17.380   2.889  -1.577  1.00  0.00     0.074 A 
ATOM     21  C   UNL     1      16.722   3.187  -0.323  1.00  0.00     0.031 C 
ATOM     22  C   UNL     1      13.882   6.175  -5.879  1.00  0.00     0.029 A 
ATOM     23  C   UNL     1      15.042   5.337  -6.140  1.00  0.00     0.049 A 
ATOM     24  H   UNL     1      16.142   4.213  -4.771  1.00  0.00     0.167 HD
ATOM     25  C   UNL     1      18.476   2.104  -1.708  1.00  0.00     0.031 A 
ATOM     26  C   UNL     1      15.607   5.169  -7.348  1.00  0.00     0.031 A 
ATOM     27  C   UNL     1      19.105   1.805  -2.969  1.00  0.00     0.049 A 
ATOM     28  C   UNL     1      16.834   4.317  -7.453  1.00  0.00     0.074 A 
ATOM     29  C   UNL     1      20.177   0.965  -3.215  1.00  0.00     0.029 A 
ATOM     30  N   UNL     1      18.729   2.342  -4.191  1.00  0.00    -0.354 N 
ATOM     31  N   UNL     1      17.449   3.649  -6.508  1.00  0.00    -0.248 NA
ATOM     32  C   UNL     1      17.453   4.209  -8.779  1.00  0.00     0.031 C 
ATOM     33  C   UNL     1      20.485   1.039  -4.578  1.00  0.00     0.029 A 
ATOM     34  C   UNL     1      19.574   1.886  -5.188  1.00  0.00     0.049 A 
ATOM     35  H   UNL     1      17.972   2.957  -4.329  1.00  0.00     0.167 HD
ATOM     36  C   UNL     1      18.532   3.040  -7.124  1.00  0.00     0.074 A 
ATOM     37  C   UNL     1      18.470   3.395  -8.529  1.00  0.00     0.031 C 
ATOM     38  C   UNL     1      19.498   2.264  -6.576  1.00  0.00     0.031 A 
BRANCH  25  39
ATOM     39  C   UNL     1      19.098   1.535  -0.461  1.00  0.00    -0.014 A 
ATOM     40  C   UNL     1      18.514   0.455   0.224  1.00  0.00     0.010 A 
ATOM     41  C   UNL     1      20.338   2.035  -0.019  1.00  0.00     0.010 A 
ATOM     42  C   UNL     1      19.150  -0.102   1.338  1.00  0.00     0.020 A 
ATOM     43  C   UNL     1      20.985   1.469   1.083  1.00  0.00     0.020 A 
ATOM     44  C   UNL     1      20.382   0.409   1.761  1.00  0.00     0.054 A 
BRANCH  44  45
ATOM     45  S   UNL     1      21.206  -0.362   3.183  1.00  0.00     0.124 S 
ATOM     46  O   UNL     1      20.392   0.117   4.298  1.00  0.00    -0.237 OA
ATOM     47  O   UNL     1      21.087  -1.788   2.888  1.00  0.00    -0.237 OA
ATOM     48  O   UNL     1      22.564   0.172   3.129  1.00  0.00    -0.744 OA
ENDBRANCH  44  45
ENDBRANCH  25  39
BRANCH  26  49
ATOM     49  C   UNL     1      15.050   5.884  -8.526  1.00  0.00    -0.014 A 
ATOM     50  C   UNL     1      14.392   5.183  -9.549  1.00  0.00     0.010 A 
ATOM     51  C   UNL     1      15.145   7.287  -8.605  1.00  0.00     0.010 A 
ATOM     52  C   UNL     1      13.853   5.872 -10.640  1.00  0.00     0.020 A 
ATOM     53  C   UNL     1      14.582   7.980  -9.677  1.00  0.00     0.020 A 
ATOM     54  C   UNL     1      13.952   7.266 -10.697  1.00  0.00     0.054 A 
BRANCH  54  55
ATOM     55  S   UNL     1      13.206   8.146 -12.095  1.00  0.00     0.124 S 
ATOM     56  O   UNL     1      14.192   7.928 -13.149  1.00  0.00    -0.237 OA
ATOM     57  O   UNL     1      11.932   7.452 -12.267  1.00  0.00    -0.237 OA
ATOM     58  O   UNL     1      13.096   9.521 -11.612  1.00  0.00    -0.744 OA
ENDBRANCH  54  55
ENDBRANCH  26  49
BRANCH  38  59
ATOM     59  C   UNL     1      20.562   1.749  -7.501  1.00  0.00    -0.014 A 
ATOM     60  C   UNL     1      21.584   2.598  -7.961  1.00  0.00     0.010 A 
ATOM     61  C   UNL     1      20.571   0.393  -7.869  1.00  0.00     0.010 A 
ATOM     62  C   UNL     1      22.589   2.102  -8.792  1.00  0.00     0.020 A 
ATOM     63  C   UNL     1      21.589  -0.113  -8.680  1.00  0.00     0.020 A 
ATOM     64  C   UNL     1      22.587   0.748  -9.144  1.00  0.00     0.054 A 
BRANCH  64  65
ATOM     65  S   UNL     1      23.937   0.113 -10.175  1.00  0.00     0.124 S 
ATOM     66  O   UNL     1      23.578   0.625 -11.494  1.00  0.00    -0.237 OA
ATOM     67  O   UNL     1      25.118   0.719  -9.566  1.00  0.00    -0.237 OA
ATOM     68  O   UNL     1      23.837  -1.336 -10.019  1.00  0.00    -0.744 OA
ENDBRANCH  64  65
ENDBRANCH  38  59
ENDBRANCH  12  13
ENDBRANCH   5   7
ENDBRANCH   2   3
ENDBRANCH   1   2
BRANCH   1  69
ATOM     69  C   UNL     1       8.356   5.090   3.155  1.00  0.00     0.117 C 
BRANCH  69  70
ATOM     70  N   UNL     1       7.357   4.146   2.688  1.00  0.00    -0.356 N 
ATOM     71  C   UNL     1       6.226   3.704   3.293  1.00  0.00     0.224 C 
ATOM     72  H   UNL     1       7.526   3.769   1.795  1.00  0.00     0.163 HD
ATOM     73  O   UNL     1       5.513   2.916   2.666  1.00  0.00    -0.275 OA
BRANCH  71  74
ATOM     74  C   UNL     1       5.854   4.123   4.700  1.00  0.00     0.098 C 
ATOM     75  C   UNL     1       6.697   3.450   5.781  1.00  0.00     0.017 C 
ATOM     76  C   UNL     1       5.839   5.632   4.884  1.00  0.00     0.133 C 
ATOM     77  C   UNL     1       6.165   3.837   7.160  1.00  0.00     0.022 C 
ATOM     78  N   UNL     1       5.328   5.997   6.197  1.00  0.00    -0.338 N 
ATOM     79  C   UNL     1       5.989   5.350   7.337  1.00  0.00     0.120 C 
BRANCH  78  80
ATOM     80  C   UNL     1       4.391   7.024   6.226  1.00  0.00     0.253 C 
ATOM     81  O   UNL     1       3.946   7.557   5.210  1.00  0.00    -0.269 OA
BRANCH  80  82
ATOM     82  C   UNL     1       3.818   7.484   7.500  1.00  0.00     0.040 A 
ATOM     83  C   UNL     1       2.427   7.553   7.561  1.00  0.00     0.016 A 
ATOM     84  C   UNL     1       4.586   7.927   8.577  1.00  0.00     0.016 A 
ATOM     85  C   UNL     1       1.805   7.979   8.727  1.00  0.00     0.027 A 
ATOM     86  C   UNL     1       3.951   8.318   9.762  1.00  0.00     0.027 A 
ATOM     87  C   UNL     1       2.555   8.284   9.864  1.00  0.00     0.041 A 
BRANCH  87  88
ATOM     88  N   UNL     1       1.980   8.575  11.116  1.00  0.00    -0.322 N 
ATOM     89  C   UNL     1       0.720   8.308  11.614  1.00  0.00     0.255 C 
ATOM     90  H   UNL     1       2.577   9.046  11.742  1.00  0.00     0.170 HD
ATOM     91  O   UNL     1       0.346   8.815  12.670  1.00  0.00    -0.269 OA
BRANCH  89  92
ATOM     92  C   UNL     1      -0.182   7.364  10.921  1.00  0.00     0.040 A 
ATOM     93  C   UNL     1      -1.429   7.823  10.487  1.00  0.00     0.014 A 
ATOM     94  C   UNL     1       0.235   6.057  10.633  1.00  0.00     0.014 A 
ATOM     95  C   UNL     1      -2.227   6.997   9.694  1.00  0.00     0.001 A 
ATOM     96  C   UNL     1      -0.566   5.238   9.837  1.00  0.00     0.001 A 
ATOM     97  C   UNL     1      -1.788   5.714   9.357  1.00  0.00     0.000 A 
ENDBRANCH  89  92
ENDBRANCH  87  88
ENDBRANCH  80  82
ENDBRANCH  78  80
ENDBRANCH  71  74
ENDBRANCH  69  70
ENDBRANCH   1  69
TORSDOF 17
