REMARK SMILES COc1ccc(-c2cnc(N)c(C(=O)NCCCNC(=O)c3ccc(-c4c5nc(c(-c6ccc(S(=O)(=O)[O-])cc6)c6ccc([nH]6)c(-c6ccc(S(=O)(=O)[O-])cc6)c6nc(c(-c7ccc(S(=O)(=O)[O-])cc7)c7ccc4[nH]7)C=C6)C=C5)cc3)c2)c(C)c1
REMARK SMILES IDX 17 1 16 2 15 3 13 4 14 5 12 7 7 8 8 9 82 10 9 11 10 12 6 13
REMARK SMILES IDX 3 14 4 15 85 16 5 17 83 18 84 19 2 20 1 21 11 22 18 25 19 26
REMARK SMILES IDX 20 27 21 29 22 30 23 31 81 32 24 33 80 34 25 35 26 36 27 37
REMARK SMILES IDX 74 38 28 39 79 40 73 41 75 42 29 43 78 44 72 45 71 46 30 48
REMARK SMILES IDX 60 49 41 50 59 51 42 52 45 53 58 54 76 55 43 56 44 57 57 59
REMARK SMILES IDX 77 60 46 61 31 62 32 63 40 64 33 65 39 66 34 67 35 68 36 69
REMARK SMILES IDX 37 70 38 71 61 72 62 73 70 74 63 75 69 76 64 77 65 78 66 79
REMARK SMILES IDX 67 80 68 81 47 82 48 83 56 84 49 85 55 86 50 87 51 88 52 89
REMARK SMILES IDX 53 90 54 91
REMARK H PARENT 15 6 11 23 11 24 19 28 75 47 45 58
REMARK Flexibility Score: inf
ROOT
ATOM      1  C   UNL     1       2.324  11.418  -4.645  1.00  0.00     0.042 C 
ENDROOT
BRANCH   1   2
ATOM      2  C   UNL     1       3.088  10.471  -3.744  1.00  0.00     0.118 C 
BRANCH   2   3
ATOM      3  N   UNL     1       2.409  10.213  -2.478  1.00  0.00    -0.352 N 
ATOM      4  C   UNL     1       2.222   9.020  -1.820  1.00  0.00     0.255 C 
ATOM      5  O   UNL     1       1.574   8.999  -0.774  1.00  0.00    -0.269 OA
ATOM      6  H   UNL     1       2.032  11.005  -2.032  1.00  0.00     0.163 HD
BRANCH   4   7
ATOM      7  C   UNL     1       2.721   7.737  -2.371  1.00  0.00     0.082 A 
ATOM      8  C   UNL     1       2.293   5.373  -2.744  1.00  0.00     0.001 A 
ATOM      9  C   UNL     1       3.473   5.381  -3.486  1.00  0.00     0.122 A 
ATOM     10  C   UNL     1       1.893   6.607  -2.227  1.00  0.00     0.028 A 
ATOM     11  N   UNL     1       4.327   6.422  -3.571  1.00  0.00    -0.238 NA
ATOM     12  C   UNL     1       3.987   7.557  -2.932  1.00  0.00     0.136 A 
BRANCH   8  13
ATOM     13  C   UNL     1       1.667   4.090  -2.376  1.00  0.00    -0.014 A 
ATOM     14  C   UNL     1       0.735   1.561  -1.497  1.00  0.00     0.119 A 
ATOM     15  C   UNL     1       2.076   1.882  -1.366  1.00  0.00     0.047 A 
ATOM     16  C   UNL     1      -0.133   2.479  -2.094  1.00  0.00     0.050 A 
ATOM     17  C   UNL     1       2.525   3.130  -1.788  1.00  0.00     0.013 A 
ATOM     18  C   UNL     1       0.311   3.747  -2.536  1.00  0.00    -0.040 A 
ATOM     19  C   UNL     1      -0.725   4.667  -3.124  1.00  0.00     0.045 C 
BRANCH  14  20
ATOM     20  O   UNL     1       0.191   0.369  -1.104  1.00  0.00    -0.497 OA
ATOM     21  C   UNL     1       0.772  -0.174   0.081  1.00  0.00     0.278 C 
ENDBRANCH  14  20
ENDBRANCH   8  13
BRANCH  12  22
ATOM     22  N   UNL     1       4.993   8.494  -2.907  1.00  0.00    -0.383 N 
ATOM     23  H   UNL     1       5.862   8.295  -3.324  1.00  0.00     0.158 HD
ATOM     24  H   UNL     1       4.844   9.364  -2.472  1.00  0.00     0.158 HD
ENDBRANCH  12  22
ENDBRANCH   4   7
ENDBRANCH   2   3
ENDBRANCH   1   2
BRANCH   1  25
ATOM     25  C   UNL     1       2.655  12.873  -4.343  1.00  0.00     0.118 C 
BRANCH  25  26
ATOM     26  N   UNL     1       3.827  13.318  -5.104  1.00  0.00    -0.352 N 
ATOM     27  C   UNL     1       3.992  14.447  -5.891  1.00  0.00     0.251 C 
ATOM     28  H   UNL     1       4.613  12.727  -5.047  1.00  0.00     0.163 HD
ATOM     29  O   UNL     1       4.939  14.625  -6.626  1.00  0.00    -0.269 OA
BRANCH  27  30
ATOM     30  C   UNL     1       2.968  15.492  -5.715  1.00  0.00     0.039 A 
ATOM     31  C   UNL     1       3.237  16.438  -4.718  1.00  0.00     0.014 A 
ATOM     32  C   UNL     1       1.675  15.208  -6.141  1.00  0.00     0.014 A 
ATOM     33  C   UNL     1       2.186  16.927  -3.958  1.00  0.00     0.010 A 
ATOM     34  C   UNL     1       0.641  15.635  -5.330  1.00  0.00     0.010 A 
ATOM     35  C   UNL     1       0.912  16.419  -4.193  1.00  0.00    -0.014 A 
BRANCH  35  36
ATOM     36  C   UNL     1      -0.195  16.589  -3.259  1.00  0.00     0.031 A 
ATOM     37  C   UNL     1      -1.303  17.491  -3.659  1.00  0.00     0.074 A 
ATOM     38  C   UNL     1      -0.247  15.884  -2.102  1.00  0.00     0.049 A 
ATOM     39  N   UNL     1      -2.186  17.981  -2.858  1.00  0.00    -0.248 NA
ATOM     40  C   UNL     1      -1.451  17.976  -5.031  1.00  0.00     0.031 C 
ATOM     41  C   UNL     1      -1.413  15.748  -1.225  1.00  0.00     0.029 A 
ATOM     42  N   UNL     1       0.775  15.277  -1.360  1.00  0.00    -0.354 N 
ATOM     43  C   UNL     1      -3.168  18.562  -3.630  1.00  0.00     0.074 A 
ATOM     44  C   UNL     1      -2.611  18.631  -4.957  1.00  0.00     0.031 C 
ATOM     45  C   UNL     1      -0.991  15.421   0.006  1.00  0.00     0.029 A 
ATOM     46  C   UNL     1       0.458  15.511  -0.009  1.00  0.00     0.049 A 
ATOM     47  H   UNL     1       1.553  14.787  -1.711  1.00  0.00     0.167 HD
ATOM     48  C   UNL     1      -4.399  18.781  -3.085  1.00  0.00     0.031 A 
ATOM     49  C   UNL     1       1.183  16.310   0.833  1.00  0.00     0.031 A 
ATOM     50  C   UNL     1      -4.364  18.607  -1.631  1.00  0.00     0.049 A 
ATOM     51  C   UNL     1       0.374  17.469   1.401  1.00  0.00     0.074 A 
ATOM     52  C   UNL     1      -4.753  17.584  -0.784  1.00  0.00     0.029 A 
ATOM     53  N   UNL     1      -3.551  19.451  -0.877  1.00  0.00    -0.354 N 
ATOM     54  N   UNL     1      -0.761  17.877   0.899  1.00  0.00    -0.248 NA
ATOM     55  C   UNL     1       0.784  18.274   2.552  1.00  0.00     0.031 C 
ATOM     56  C   UNL     1      -4.058  17.750   0.447  1.00  0.00     0.029 A 
ATOM     57  C   UNL     1      -3.287  18.898   0.362  1.00  0.00     0.049 A 
ATOM     58  H   UNL     1      -3.211  20.323  -1.185  1.00  0.00     0.167 HD
ATOM     59  C   UNL     1      -1.233  18.946   1.613  1.00  0.00     0.074 A 
ATOM     60  C   UNL     1      -0.233  19.151   2.647  1.00  0.00     0.031 C 
ATOM     61  C   UNL     1      -2.402  19.581   1.300  1.00  0.00     0.031 A 
BRANCH  48  62
ATOM     62  C   UNL     1      -5.671  18.861  -3.911  1.00  0.00    -0.014 A 
ATOM     63  C   UNL     1      -6.916  18.582  -3.309  1.00  0.00     0.010 A 
ATOM     64  C   UNL     1      -5.709  19.096  -5.300  1.00  0.00     0.010 A 
ATOM     65  C   UNL     1      -8.101  18.464  -4.059  1.00  0.00     0.020 A 
ATOM     66  C   UNL     1      -6.875  18.962  -6.066  1.00  0.00     0.020 A 
ATOM     67  C   UNL     1      -8.068  18.633  -5.442  1.00  0.00     0.054 A 
BRANCH  67  68
ATOM     68  S   UNL     1      -9.578  18.412  -6.417  1.00  0.00     0.124 S 
ATOM     69  O   UNL     1      -9.955  17.035  -6.106  1.00  0.00    -0.237 OA
ATOM     70  O   UNL     1     -10.455  19.446  -5.876  1.00  0.00    -0.237 OA
ATOM     71  O   UNL     1      -9.139  18.632  -7.794  1.00  0.00    -0.744 OA
ENDBRANCH  67  68
ENDBRANCH  48  62
BRANCH  49  72
ATOM     72  C   UNL     1       2.648  16.332   0.566  1.00  0.00    -0.014 A 
ATOM     73  C   UNL     1       3.370  15.151   0.838  1.00  0.00     0.010 A 
ATOM     74  C   UNL     1       3.207  17.284  -0.303  1.00  0.00     0.010 A 
ATOM     75  C   UNL     1       4.519  14.836   0.109  1.00  0.00     0.020 A 
ATOM     76  C   UNL     1       4.367  16.973  -1.031  1.00  0.00     0.020 A 
ATOM     77  C   UNL     1       4.969  15.721  -0.870  1.00  0.00     0.054 A 
BRANCH  77  78
ATOM     78  S   UNL     1       6.195  15.107  -2.067  1.00  0.00     0.124 S 
ATOM     79  O   UNL     1       7.368  14.887  -1.228  1.00  0.00    -0.237 OA
ATOM     80  O   UNL     1       5.546  13.895  -2.571  1.00  0.00    -0.237 OA
ATOM     81  O   UNL     1       6.302  16.200  -3.028  1.00  0.00    -0.744 OA
ENDBRANCH  77  78
ENDBRANCH  49  72
BRANCH  61  82
ATOM     82  C   UNL     1      -2.869  20.885   1.903  1.00  0.00    -0.014 A 
ATOM     83  C   UNL     1      -2.003  21.861   2.422  1.00  0.00     0.010 A 
ATOM     84  C   UNL     1      -4.243  21.218   1.831  1.00  0.00     0.010 A 
ATOM     85  C   UNL     1      -2.492  23.079   2.916  1.00  0.00     0.020 A 
ATOM     86  C   UNL     1      -4.735  22.447   2.278  1.00  0.00     0.020 A 
ATOM     87  C   UNL     1      -3.857  23.361   2.847  1.00  0.00     0.054 A 
BRANCH  87  88
ATOM     88  S   UNL     1      -4.475  24.956   3.442  1.00  0.00     0.124 S 
ATOM     89  O   UNL     1      -4.720  24.675   4.854  1.00  0.00    -0.237 OA
ATOM     90  O   UNL     1      -3.362  25.864   3.169  1.00  0.00    -0.237 OA
ATOM     91  O   UNL     1      -5.667  25.184   2.630  1.00  0.00    -0.744 OA
ENDBRANCH  87  88
ENDBRANCH  61  82
ENDBRANCH  35  36
ENDBRANCH  27  30
ENDBRANCH  25  26
ENDBRANCH   1  25
TORSDOF 16
