REMARK SMILES Cc1c(C(=O)NCCCNC(=O)c2ccc(-c3c4nc(c(-c5ccc(S(=O)(=O)[O-])cc5)c5ccc([nH]5)c(-c5ccc(S(=O)(=O)[O-])cc5)c5nc(c(-c6ccc(S(=O)(=O)[O-])cc6)c6ccc3[nH]6)C=C5)C=C4)cc2)sc2ncnc(NCc3cn4c(n3)SCC4)c12
REMARK SMILES IDX 8 1 7 2 6 3 4 4 5 5 3 7 1 8 2 9 89 10 73 11 74 12 78 13
REMARK SMILES IDX 75 14 77 15 76 16 79 17 80 19 81 20 82 21 85 22 83 23 84 24
REMARK SMILES IDX 88 25 86 26 87 27 9 28 10 29 11 30 12 32 13 33 14 34 72 35
REMARK SMILES IDX 15 36 71 37 16 38 17 39 18 40 65 41 19 42 70 43 64 44 66 45
REMARK SMILES IDX 20 46 69 47 63 48 62 49 21 51 51 52 32 53 50 54 33 55 36 56
REMARK SMILES IDX 49 57 67 58 34 59 35 60 48 62 68 63 37 64 22 65 23 66 31 67
REMARK SMILES IDX 24 68 30 69 25 70 26 71 27 72 28 73 29 74 52 75 53 76 61 77
REMARK SMILES IDX 54 78 60 79 55 80 56 81 57 82 58 83 59 84 38 85 39 86 47 87
REMARK SMILES IDX 40 88 46 89 41 90 42 91 43 92 44 93 45 94
REMARK H PARENT 6 6 79 18 10 31 66 50 36 61
REMARK Flexibility Score: inf
ROOT
ATOM      1  C   UNL     1       2.217   6.250   0.383  1.00  0.00     0.042 C 
ENDROOT
BRANCH   1   2
ATOM      2  C   UNL     1       1.215   5.641  -0.604  1.00  0.00     0.118 C 
BRANCH   2   3
ATOM      3  N   UNL     1       1.710   4.411  -1.189  1.00  0.00    -0.351 N 
ATOM      4  C   UNL     1       1.611   3.095  -0.814  1.00  0.00     0.261 C 
ATOM      5  O   UNL     1       2.096   2.312  -1.638  1.00  0.00    -0.268 OA
ATOM      6  H   UNL     1       2.219   4.547  -2.021  1.00  0.00     0.163 HD
BRANCH   4   7
ATOM      7  C   UNL     1       0.937   2.636   0.408  1.00  0.00     0.098 A 
ATOM      8  C   UNL     1       1.100   0.186  -0.107  1.00  0.00     0.047 C 
ATOM      9  C   UNL     1       0.588   1.315   0.723  1.00  0.00    -0.014 A 
ATOM     10  C   UNL     1      -0.323   1.233   1.878  1.00  0.00     0.057 A 
ATOM     11  S   UNL     1       0.582   3.646   1.723  1.00  0.00    -0.110 S 
ATOM     12  C   UNL     1      -0.368   2.486   2.481  1.00  0.00     0.129 A 
ATOM     13  C   UNL     1      -1.141   0.261   2.522  1.00  0.00     0.138 A 
ATOM     14  N   UNL     1      -1.056   2.870   3.566  1.00  0.00    -0.225 NA
ATOM     15  N   UNL     1      -1.854   0.642   3.616  1.00  0.00    -0.219 NA
ATOM     16  C   UNL     1      -1.779   1.890   4.075  1.00  0.00     0.225 A 
BRANCH  13  17
ATOM     17  N   UNL     1      -1.441  -1.032   2.226  1.00  0.00    -0.364 N 
ATOM     18  H   UNL     1      -2.207  -1.370   2.746  1.00  0.00     0.162 HD
BRANCH  17  19
ATOM     19  C   UNL     1      -0.904  -2.017   1.337  1.00  0.00     0.172 C 
BRANCH  19  20
ATOM     20  C   UNL     1       0.136  -2.935   1.908  1.00  0.00     0.079 A 
ATOM     21  C   UNL     1       1.524  -2.876   1.835  1.00  0.00     0.113 A 
ATOM     22  N   UNL     1      -0.271  -4.116   2.526  1.00  0.00    -0.226 NA
ATOM     23  N   UNL     1       1.931  -4.075   2.312  1.00  0.00    -0.325 N 
ATOM     24  C   UNL     1       0.839  -4.768   2.725  1.00  0.00     0.168 A 
ATOM     25  C   UNL     1       3.145  -4.835   2.093  1.00  0.00     0.135 C 
ATOM     26  S   UNL     1       1.165  -6.449   2.917  1.00  0.00    -0.086 SA
ATOM     27  C   UNL     1       2.666  -6.270   1.862  1.00  0.00     0.100 C 
ENDBRANCH  19  20
ENDBRANCH  17  19
ENDBRANCH  13  17
ENDBRANCH   4   7
ENDBRANCH   2   3
ENDBRANCH   1   2
BRANCH   1  28
ATOM     28  C   UNL     1       3.312   7.001  -0.347  1.00  0.00     0.118 C 
BRANCH  28  29
ATOM     29  N   UNL     1       2.790   8.178  -1.044  1.00  0.00    -0.352 N 
ATOM     30  C   UNL     1       3.466   9.085  -1.838  1.00  0.00     0.251 C 
ATOM     31  H   UNL     1       1.827   8.345  -0.932  1.00  0.00     0.163 HD
ATOM     32  O   UNL     1       2.974  10.162  -2.113  1.00  0.00    -0.269 OA
BRANCH  30  33
ATOM     33  C   UNL     1       4.801   8.705  -2.330  1.00  0.00     0.039 A 
ATOM     34  C   UNL     1       5.865   9.608  -2.312  1.00  0.00     0.014 A 
ATOM     35  C   UNL     1       4.980   7.391  -2.748  1.00  0.00     0.014 A 
ATOM     36  C   UNL     1       7.133   9.144  -2.650  1.00  0.00     0.010 A 
ATOM     37  C   UNL     1       6.246   6.894  -2.875  1.00  0.00     0.010 A 
ATOM     38  C   UNL     1       7.315   7.776  -2.910  1.00  0.00    -0.014 A 
BRANCH  38  39
ATOM     39  C   UNL     1       8.636   7.221  -3.161  1.00  0.00     0.031 A 
ATOM     40  C   UNL     1       9.647   7.514  -2.113  1.00  0.00     0.074 A 
ATOM     41  C   UNL     1       8.876   6.340  -4.156  1.00  0.00     0.049 A 
ATOM     42  N   UNL     1      10.657   8.311  -2.204  1.00  0.00    -0.248 NA
ATOM     43  C   UNL     1       9.432   6.975  -0.760  1.00  0.00     0.031 C 
ATOM     44  C   UNL     1       7.926   5.706  -5.083  1.00  0.00     0.029 A 
ATOM     45  N   UNL     1      10.042   5.728  -4.474  1.00  0.00    -0.354 N 
ATOM     46  C   UNL     1      11.334   8.216  -0.994  1.00  0.00     0.074 A 
ATOM     47  C   UNL     1      10.444   7.530  -0.089  1.00  0.00     0.031 C 
ATOM     48  C   UNL     1       8.508   4.637  -5.671  1.00  0.00     0.029 A 
ATOM     49  C   UNL     1       9.914   4.633  -5.320  1.00  0.00     0.049 A 
ATOM     50  H   UNL     1      10.913   6.035  -4.131  1.00  0.00     0.167 HD
ATOM     51  C   UNL     1      12.662   8.506  -0.895  1.00  0.00     0.031 A 
ATOM     52  C   UNL     1      10.901   3.780  -5.689  1.00  0.00     0.031 A 
ATOM     53  C   UNL     1      13.149   9.170  -2.078  1.00  0.00     0.049 A 
ATOM     54  C   UNL     1      12.181   4.500  -5.472  1.00  0.00     0.074 A 
ATOM     55  C   UNL     1      12.854  10.361  -2.711  1.00  0.00     0.029 A 
ATOM     56  N   UNL     1      13.775   8.385  -3.020  1.00  0.00    -0.354 N 
ATOM     57  N   UNL     1      12.519   5.569  -6.138  1.00  0.00    -0.248 NA
ATOM     58  C   UNL     1      12.860   4.321  -4.198  1.00  0.00     0.031 C 
ATOM     59  C   UNL     1      12.866  10.046  -4.103  1.00  0.00     0.029 A 
ATOM     60  C   UNL     1      13.246   8.709  -4.245  1.00  0.00     0.049 A 
ATOM     61  H   UNL     1      14.474   7.714  -2.847  1.00  0.00     0.167 HD
ATOM     62  C   UNL     1      13.104   6.407  -5.198  1.00  0.00     0.074 A 
ATOM     63  C   UNL     1      13.372   5.546  -4.045  1.00  0.00     0.031 C 
ATOM     64  C   UNL     1      13.062   7.767  -5.332  1.00  0.00     0.031 A 
BRANCH  51  65
ATOM     65  C   UNL     1      13.593   7.858   0.097  1.00  0.00    -0.014 A 
ATOM     66  C   UNL     1      14.921   8.319   0.192  1.00  0.00     0.010 A 
ATOM     67  C   UNL     1      13.287   6.647   0.750  1.00  0.00     0.010 A 
ATOM     68  C   UNL     1      15.903   7.574   0.860  1.00  0.00     0.020 A 
ATOM     69  C   UNL     1      14.247   5.918   1.454  1.00  0.00     0.020 A 
ATOM     70  C   UNL     1      15.559   6.371   1.478  1.00  0.00     0.054 A 
BRANCH  70  71
ATOM     71  S   UNL     1      16.852   5.367   2.246  1.00  0.00     0.124 S 
ATOM     72  O   UNL     1      17.682   5.013   1.099  1.00  0.00    -0.237 OA
ATOM     73  O   UNL     1      17.447   6.303   3.196  1.00  0.00    -0.237 OA
ATOM     74  O   UNL     1      16.114   4.260   2.850  1.00  0.00    -0.744 OA
ENDBRANCH  70  71
ENDBRANCH  51  65
BRANCH  52  75
ATOM     75  C   UNL     1      10.822   2.309  -5.867  1.00  0.00    -0.014 A 
ATOM     76  C   UNL     1      11.881   1.599  -6.463  1.00  0.00     0.010 A 
ATOM     77  C   UNL     1       9.842   1.567  -5.175  1.00  0.00     0.010 A 
ATOM     78  C   UNL     1      11.999   0.207  -6.303  1.00  0.00     0.020 A 
ATOM     79  C   UNL     1       9.952   0.179  -5.015  1.00  0.00     0.020 A 
ATOM     80  C   UNL     1      11.047  -0.491  -5.555  1.00  0.00     0.054 A 
BRANCH  80  81
ATOM     81  S   UNL     1      11.318  -2.251  -5.185  1.00  0.00     0.124 S 
ATOM     82  O   UNL     1      11.169  -2.873  -6.497  1.00  0.00    -0.237 OA
ATOM     83  O   UNL     1      12.670  -2.254  -4.633  1.00  0.00    -0.237 OA
ATOM     84  O   UNL     1      10.261  -2.568  -4.225  1.00  0.00    -0.744 OA
ENDBRANCH  80  81
ENDBRANCH  52  75
BRANCH  64  85
ATOM     85  C   UNL     1      12.581   8.343  -6.650  1.00  0.00    -0.014 A 
ATOM     86  C   UNL     1      11.286   8.143  -7.173  1.00  0.00     0.010 A 
ATOM     87  C   UNL     1      13.432   9.244  -7.312  1.00  0.00     0.010 A 
ATOM     88  C   UNL     1      10.871   8.803  -8.342  1.00  0.00     0.020 A 
ATOM     89  C   UNL     1      13.020   9.917  -8.466  1.00  0.00     0.020 A 
ATOM     90  C   UNL     1      11.745   9.686  -8.983  1.00  0.00     0.054 A 
BRANCH  90  91
ATOM     91  S   UNL     1      11.203  10.554 -10.484  1.00  0.00     0.124 S 
ATOM     92  O   UNL     1      11.049   9.465 -11.444  1.00  0.00    -0.237 OA
ATOM     93  O   UNL     1       9.962  11.197 -10.057  1.00  0.00    -0.237 OA
ATOM     94  O   UNL     1      12.302  11.477 -10.769  1.00  0.00    -0.744 OA
ENDBRANCH  90  91
ENDBRANCH  64  85
ENDBRANCH  38  39
ENDBRANCH  30  33
ENDBRANCH  28  29
ENDBRANCH   1  28
TORSDOF 16
