REMARK SMILES COC(=O)[C@@H]1CN(C(=O)NC(=O)CCCC(=O)NCCCNC(=O)c2ccc(-c3c4nc(c(-c5ccc(S(=O)(=O)[O-])cc5)c5ccc([nH]5)c(-c5ccc(S(=O)(=O)[O-])cc5)c5nc(c(-c6ccc(S(=O)(=O)[O-])cc6)c6ccc3[nH]6)C=C5)C=C4)cc2)C[C@H]1C
REMARK SMILES IDX 16 1 17 2 18 3 15 5 14 6 13 7 11 8 8 9 9 10 10 11 12 13 7 14
REMARK SMILES IDX 5 15 6 16 86 17 85 18 87 19 3 20 4 21 2 22 1 23 19 24 20 25
REMARK SMILES IDX 21 26 22 27 23 28 24 30 25 31 26 32 84 33 27 34 83 35 28 36
REMARK SMILES IDX 29 37 30 38 77 39 31 40 82 41 76 42 78 43 32 44 81 45 75 46
REMARK SMILES IDX 74 47 33 49 63 50 44 51 62 52 45 53 48 54 61 55 79 56 46 57
REMARK SMILES IDX 47 58 60 60 80 61 49 62 34 63 35 64 43 65 36 66 42 67 37 68
REMARK SMILES IDX 38 69 39 70 40 71 41 72 64 73 65 74 73 75 66 76 72 77 67 78
REMARK SMILES IDX 68 79 69 80 70 81 71 82 50 83 51 84 59 85 52 86 58 87 53 88
REMARK SMILES IDX 54 89 55 90 56 91 57 92
REMARK H PARENT 18 4 10 12 22 29 78 48 48 59
REMARK Flexibility Score: inf
ROOT
ATOM      1  C   UNL     1       1.903  -1.305   3.392  1.00  0.00     0.220 C 
ATOM      2  O   UNL     1       0.790  -1.052   3.914  1.00  0.00    -0.275 OA
ATOM      3  N   UNL     1       3.523  -0.195   3.236  1.00  0.00    -0.356 N 
ATOM      4  H   UNL     1       3.406   0.639   3.745  1.00  0.00     0.163 HD
ENDROOT
BRANCH   1   5
ATOM      5  C   UNL     1       1.686  -2.980   2.711  1.00  0.00     0.100 C 
BRANCH   5   6
ATOM      6  C   UNL     1       1.838  -3.572   1.263  1.00  0.00     0.020 C 
BRANCH   6   7
ATOM      7  C   UNL     1       2.980  -3.318   0.258  1.00  0.00     0.101 C 
BRANCH   7   8
ATOM      8  C   UNL     1       4.404  -3.688   0.569  1.00  0.00     0.227 C 
ATOM      9  C   UNL     1       4.501  -3.110   2.999  1.00  0.00     0.324 C 
ATOM     10  O   UNL     1       5.000  -3.525   4.048  1.00  0.00    -0.248 OA
ATOM     11  N   UNL     1       4.868  -3.701   1.843  1.00  0.00    -0.278 N 
ATOM     12  H   UNL     1       5.659  -4.277   1.949  1.00  0.00     0.174 HD
ATOM     13  O   UNL     1       5.201  -3.932  -0.341  1.00  0.00    -0.275 OA
BRANCH   9  14
ATOM     14  N   UNL     1       3.636  -2.050   3.007  1.00  0.00    -0.323 N 
ATOM     15  C   UNL     1       1.888   0.672   2.735  1.00  0.00     0.123 C 
ATOM     16  C   UNL     1       2.707  -0.873   1.681  1.00  0.00     0.137 C 
ATOM     17  C   UNL     1       2.291   0.330   4.703  1.00  0.00     0.021 C 
ATOM     18  C   UNL     1       3.376  -1.358   4.799  1.00  0.00     0.125 C 
ATOM     19  C   UNL     1       3.016   1.492   5.438  1.00  0.00     0.010 C 
BRANCH  15  20
ATOM     20  C   UNL     1       0.434   1.097   2.529  1.00  0.00     0.310 C 
ATOM     21  O   UNL     1      -0.244   1.503   3.472  1.00  0.00    -0.252 OA
BRANCH  20  22
ATOM     22  O   UNL     1      -0.038   1.249   1.272  1.00  0.00    -0.469 OA
ATOM     23  C   UNL     1       0.556   0.700   0.095  1.00  0.00     0.282 C 
ENDBRANCH  20  22
ENDBRANCH  15  20
ENDBRANCH   9  14
ENDBRANCH   7   8
ENDBRANCH   6   7
ENDBRANCH   5   6
ENDBRANCH   1   5
BRANCH   3  24
ATOM     24  C   UNL     1       5.024  -0.213   2.522  1.00  0.00     0.117 C 
BRANCH  24  25
ATOM     25  C   UNL     1       5.200   0.990   1.583  1.00  0.00     0.042 C 
BRANCH  25  26
ATOM     26  C   UNL     1       5.449   2.287   2.318  1.00  0.00     0.118 C 
BRANCH  26  27
ATOM     27  N   UNL     1       6.843   2.405   2.700  1.00  0.00    -0.352 N 
ATOM     28  C   UNL     1       7.869   3.013   2.012  1.00  0.00     0.251 C 
ATOM     29  H   UNL     1       7.087   1.998   3.562  1.00  0.00     0.163 HD
ATOM     30  O   UNL     1       9.033   2.750   2.297  1.00  0.00    -0.269 OA
BRANCH  28  31
ATOM     31  C   UNL     1       7.556   3.950   0.910  1.00  0.00     0.039 A 
ATOM     32  C   UNL     1       8.304   3.905  -0.268  1.00  0.00     0.014 A 
ATOM     33  C   UNL     1       6.503   4.859   1.034  1.00  0.00     0.014 A 
ATOM     34  C   UNL     1       7.943   4.719  -1.345  1.00  0.00     0.010 A 
ATOM     35  C   UNL     1       6.067   5.568  -0.076  1.00  0.00     0.010 A 
ATOM     36  C   UNL     1       6.792   5.521  -1.274  1.00  0.00    -0.014 A 
BRANCH  36  37
ATOM     37  C   UNL     1       6.329   6.335  -2.426  1.00  0.00     0.031 A 
ATOM     38  C   UNL     1       6.197   7.828  -2.282  1.00  0.00     0.074 A 
ATOM     39  C   UNL     1       5.947   5.727  -3.567  1.00  0.00     0.049 A 
ATOM     40  N   UNL     1       5.713   8.699  -3.129  1.00  0.00    -0.248 NA
ATOM     41  C   UNL     1       6.633   8.414  -1.003  1.00  0.00     0.031 C 
ATOM     42  C   UNL     1       5.984   4.283  -3.812  1.00  0.00     0.029 A 
ATOM     43  N   UNL     1       5.438   6.247  -4.731  1.00  0.00    -0.354 N 
ATOM     44  C   UNL     1       5.773   9.928  -2.481  1.00  0.00     0.074 A 
ATOM     45  C   UNL     1       6.270   9.679  -1.147  1.00  0.00     0.031 C 
ATOM     46  C   UNL     1       5.539   4.036  -5.054  1.00  0.00     0.029 A 
ATOM     47  C   UNL     1       5.132   5.293  -5.673  1.00  0.00     0.049 A 
ATOM     48  H   UNL     1       5.305   7.212  -4.878  1.00  0.00     0.167 HD
ATOM     49  C   UNL     1       5.468  11.157  -2.960  1.00  0.00     0.031 A 
ATOM     50  C   UNL     1       4.565   5.411  -6.890  1.00  0.00     0.031 A 
ATOM     51  C   UNL     1       4.970  11.395  -4.288  1.00  0.00     0.049 A 
ATOM     52  C   UNL     1       4.194   6.778  -7.392  1.00  0.00     0.074 A 
ATOM     53  C   UNL     1       4.676  12.603  -4.893  1.00  0.00     0.029 A 
ATOM     54  N   UNL     1       4.680  10.401  -5.213  1.00  0.00    -0.354 N 
ATOM     55  N   UNL     1       4.336   7.938  -6.795  1.00  0.00    -0.248 NA
ATOM     56  C   UNL     1       3.591   6.856  -8.729  1.00  0.00     0.031 C 
ATOM     57  C   UNL     1       4.142  12.336  -6.157  1.00  0.00     0.029 A 
ATOM     58  C   UNL     1       4.170  10.965  -6.369  1.00  0.00     0.049 A 
ATOM     59  H   UNL     1       4.818   9.437  -5.067  1.00  0.00     0.167 HD
ATOM     60  C   UNL     1       3.848   8.886  -7.688  1.00  0.00     0.074 A 
ATOM     61  C   UNL     1       3.432   8.165  -8.874  1.00  0.00     0.031 C 
ATOM     62  C   UNL     1       3.748  10.230  -7.536  1.00  0.00     0.031 A 
BRANCH  49  63
ATOM     63  C   UNL     1       5.654  12.328  -2.028  1.00  0.00    -0.014 A 
ATOM     64  C   UNL     1       6.935  12.709  -1.582  1.00  0.00     0.010 A 
ATOM     65  C   UNL     1       4.537  13.062  -1.591  1.00  0.00     0.010 A 
ATOM     66  C   UNL     1       7.086  13.754  -0.668  1.00  0.00     0.020 A 
ATOM     67  C   UNL     1       4.687  14.133  -0.706  1.00  0.00     0.020 A 
ATOM     68  C   UNL     1       5.960  14.456  -0.230  1.00  0.00     0.054 A 
BRANCH  68  69
ATOM     69  S   UNL     1       6.187  15.800   0.965  1.00  0.00     0.124 S 
ATOM     70  O   UNL     1       6.538  15.066   2.179  1.00  0.00    -0.237 OA
ATOM     71  O   UNL     1       7.270  16.578   0.368  1.00  0.00    -0.237 OA
ATOM     72  O   UNL     1       4.887  16.465   0.993  1.00  0.00    -0.744 OA
ENDBRANCH  68  69
ENDBRANCH  49  63
BRANCH  50  73
ATOM     73  C   UNL     1       4.300   4.187  -7.696  1.00  0.00    -0.014 A 
ATOM     74  C   UNL     1       5.041   3.912  -8.858  1.00  0.00     0.010 A 
ATOM     75  C   UNL     1       3.331   3.259  -7.268  1.00  0.00     0.010 A 
ATOM     76  C   UNL     1       4.820   2.731  -9.575  1.00  0.00     0.020 A 
ATOM     77  C   UNL     1       3.130   2.064  -7.964  1.00  0.00     0.020 A 
ATOM     78  C   UNL     1       3.874   1.810  -9.116  1.00  0.00     0.054 A 
BRANCH  78  79
ATOM     79  S   UNL     1       3.668   0.246 -10.013  1.00  0.00     0.124 S 
ATOM     80  O   UNL     1       3.022   0.685 -11.246  1.00  0.00    -0.237 OA
ATOM     81  O   UNL     1       5.045  -0.220 -10.149  1.00  0.00    -0.237 OA
ATOM     82  O   UNL     1       2.834  -0.553  -9.118  1.00  0.00    -0.744 OA
ENDBRANCH  78  79
ENDBRANCH  50  73
BRANCH  62  83
ATOM     83  C   UNL     1       3.164  11.018  -8.678  1.00  0.00    -0.014 A 
ATOM     84  C   UNL     1       1.789  10.962  -8.966  1.00  0.00     0.010 A 
ATOM     85  C   UNL     1       3.984  11.898  -9.409  1.00  0.00     0.010 A 
ATOM     86  C   UNL     1       1.246  11.763  -9.973  1.00  0.00     0.020 A 
ATOM     87  C   UNL     1       3.439  12.723 -10.396  1.00  0.00     0.020 A 
ATOM     88  C   UNL     1       2.073  12.647 -10.674  1.00  0.00     0.054 A 
BRANCH  88  89
ATOM     89  S   UNL     1       1.324  13.734 -11.917  1.00  0.00     0.124 S 
ATOM     90  O   UNL     1       0.964  12.790 -12.971  1.00  0.00    -0.237 OA
ATOM     91  O   UNL     1       0.202  14.322 -11.189  1.00  0.00    -0.237 OA
ATOM     92  O   UNL     1       2.397  14.666 -12.256  1.00  0.00    -0.744 OA
ENDBRANCH  88  89
ENDBRANCH  62  83
ENDBRANCH  36  37
ENDBRANCH  28  31
ENDBRANCH  26  27
ENDBRANCH  25  26
ENDBRANCH  24  25
ENDBRANCH   3  24
TORSDOF 19
