REMARK SMILES Cc1c(Cl)cc2c(c1C)O[C@@H](C(F)(F)F)C(C(=O)NCCCNC(=O)c1ccc(-c3c4nc(c(-c5ccc(S(=O)(=O)[O-])cc5)c5ccc([nH]5)c(-c5ccc(S(=O)(=O)[O-])cc5)c5nc(c(-c6ccc(S(=O)(=O)[O-])cc6)c6ccc3[nH]6)C=C5)C=C4)cc1)=C2
REMARK SMILES IDX 22 1 21 2 20 3 19 4 17 5 18 6 16 8 1 9 2 10 3 11 8 12 4 13
REMARK SMILES IDX 5 14 7 15 9 16 6 17 10 18 86 19 11 20 12 21 13 22 14 23
REMARK SMILES IDX 15 24 23 25 24 26 25 28 26 29 27 30 85 31 28 32 84 33 29 34
REMARK SMILES IDX 30 35 31 36 78 37 32 38 83 39 77 40 79 41 33 42 82 43 76 44
REMARK SMILES IDX 75 45 34 47 64 48 45 49 63 50 46 51 49 52 62 53 80 54 47 55
REMARK SMILES IDX 48 56 61 58 81 59 50 60 35 61 36 62 44 63 37 64 43 65 38 66
REMARK SMILES IDX 39 67 40 68 41 69 42 70 65 71 66 72 74 73 67 74 73 75 68 76
REMARK SMILES IDX 69 77 70 78 71 79 72 80 51 81 52 82 60 83 53 84 59 85 54 86
REMARK SMILES IDX 55 87 56 88 57 89 58 90
REMARK H PARENT 19 7 23 27 79 46 49 57
REMARK Flexibility Score: inf
ROOT
ATOM      1  C   UNL     1      -6.117   7.672  -3.635  1.00  0.00     0.118 C 
ENDROOT
BRANCH   1   2
ATOM      2  C   UNL     1      -5.384   6.337  -3.525  1.00  0.00     0.042 C 
BRANCH   2   3
ATOM      3  C   UNL     1      -3.962   6.397  -4.076  1.00  0.00     0.118 C 
BRANCH   3   4
ATOM      4  N   UNL     1      -3.053   7.054  -3.151  1.00  0.00    -0.352 N 
ATOM      5  C   UNL     1      -2.079   6.681  -2.289  1.00  0.00     0.251 C 
ATOM      6  O   UNL     1      -1.477   7.613  -1.744  1.00  0.00    -0.270 OA
ATOM      7  H   UNL     1      -3.179   8.030  -3.152  1.00  0.00     0.163 HD
BRANCH   5   8
ATOM      8  C   UNL     1      -1.698   5.275  -1.972  1.00  0.00     0.067 C 
ATOM      9  C   UNL     1       1.279  -0.180   0.094  1.00  0.00     0.046 C 
ATOM     10  C   UNL     1       0.796   1.202  -0.266  1.00  0.00    -0.026 A 
ATOM     11  C   UNL     1       1.480   2.348   0.190  1.00  0.00     0.045 A 
ATOM     12  C   UNL     1      -0.386   1.380  -1.026  1.00  0.00    -0.004 A 
ATOM     13  Cl  UNL     1       2.881   2.244   1.203  1.00  0.00    -0.084 Cl
ATOM     14  C   UNL     1       1.052   3.633  -0.156  1.00  0.00     0.032 A 
ATOM     15  C   UNL     1      -0.791   2.684  -1.376  1.00  0.00     0.131 A 
ATOM     16  C   UNL     1      -1.236   0.225  -1.499  1.00  0.00     0.049 C 
ATOM     17  C   UNL     1      -0.076   3.804  -0.955  1.00  0.00     0.019 A 
ATOM     18  O   UNL     1      -1.887   2.802  -2.191  1.00  0.00    -0.475 OA
ATOM     19  C   UNL     1      -0.501   5.132  -1.374  1.00  0.00     0.025 C 
ATOM     20  C   UNL     1      -2.584   4.078  -2.176  1.00  0.00     0.314 C 
BRANCH  20  21
ATOM     21  C   UNL     1      -3.779   4.016  -1.211  1.00  0.00     0.429 C 
ATOM     22  F   UNL     1      -4.872   3.536  -1.857  1.00  0.00    -0.167 F 
ATOM     23  F   UNL     1      -3.551   3.213  -0.148  1.00  0.00    -0.167 F 
ATOM     24  F   UNL     1      -4.116   5.233  -0.725  1.00  0.00    -0.167 F 
ENDBRANCH  20  21
ENDBRANCH   5   8
ENDBRANCH   3   4
ENDBRANCH   2   3
ENDBRANCH   1   2
BRANCH   1  25
ATOM     25  N   UNL     1      -6.475   7.973  -5.015  1.00  0.00    -0.352 N 
ATOM     26  C   UNL     1      -7.697   7.932  -5.633  1.00  0.00     0.251 C 
ATOM     27  H   UNL     1      -5.725   8.248  -5.591  1.00  0.00     0.163 HD
ATOM     28  O   UNL     1      -7.744   7.933  -6.869  1.00  0.00    -0.269 OA
BRANCH  26  29
ATOM     29  C   UNL     1      -8.949   7.886  -4.849  1.00  0.00     0.039 A 
ATOM     30  C   UNL     1     -10.012   7.101  -5.306  1.00  0.00     0.014 A 
ATOM     31  C   UNL     1      -9.105   8.666  -3.699  1.00  0.00     0.014 A 
ATOM     32  C   UNL     1     -11.210   7.065  -4.588  1.00  0.00     0.010 A 
ATOM     33  C   UNL     1     -10.270   8.568  -2.942  1.00  0.00     0.010 A 
ATOM     34  C   UNL     1     -11.342   7.782  -3.389  1.00  0.00    -0.014 A 
BRANCH  34  35
ATOM     35  C   UNL     1     -12.604   7.756  -2.607  1.00  0.00     0.031 A 
ATOM     36  C   UNL     1     -13.411   9.016  -2.439  1.00  0.00     0.074 A 
ATOM     37  C   UNL     1     -12.999   6.615  -2.009  1.00  0.00     0.049 A 
ATOM     38  N   UNL     1     -14.509   9.207  -1.753  1.00  0.00    -0.248 NA
ATOM     39  C   UNL     1     -12.906  10.225  -3.111  1.00  0.00     0.031 C 
ATOM     40  C   UNL     1     -12.287   5.337  -2.071  1.00  0.00     0.029 A 
ATOM     41  N   UNL     1     -14.096   6.348  -1.230  1.00  0.00    -0.354 N 
ATOM     42  C   UNL     1     -14.813  10.556  -1.895  1.00  0.00     0.074 A 
ATOM     43  C   UNL     1     -13.759  11.147  -2.689  1.00  0.00     0.031 C 
ATOM     44  C   UNL     1     -12.983   4.414  -1.388  1.00  0.00     0.029 A 
ATOM     45  C   UNL     1     -14.168   5.041  -0.808  1.00  0.00     0.049 A 
ATOM     46  H   UNL     1     -14.769   7.027  -0.995  1.00  0.00     0.167 HD
ATOM     47  C   UNL     1     -15.885  11.239  -1.427  1.00  0.00     0.031 A 
ATOM     48  C   UNL     1     -15.082   4.417  -0.041  1.00  0.00     0.031 A 
ATOM     49  C   UNL     1     -16.941  10.645  -0.652  1.00  0.00     0.049 A 
ATOM     50  C   UNL     1     -16.259   5.194   0.477  1.00  0.00     0.074 A 
ATOM     51  C   UNL     1     -18.096  11.238  -0.175  1.00  0.00     0.029 A 
ATOM     52  N   UNL     1     -16.971   9.320  -0.242  1.00  0.00    -0.354 N 
ATOM     53  N   UNL     1     -16.555   6.459   0.291  1.00  0.00    -0.248 NA
ATOM     54  C   UNL     1     -17.229   4.462   1.303  1.00  0.00     0.031 C 
ATOM     55  C   UNL     1     -18.803  10.283   0.563  1.00  0.00     0.029 A 
ATOM     56  C   UNL     1     -18.113   9.082   0.502  1.00  0.00     0.049 A 
ATOM     57  H   UNL     1     -16.281   8.649  -0.449  1.00  0.00     0.167 HD
ATOM     58  C   UNL     1     -17.753   6.670   0.964  1.00  0.00     0.074 A 
ATOM     59  C   UNL     1     -18.134   5.400   1.548  1.00  0.00     0.031 C 
ATOM     60  C   UNL     1     -18.471   7.814   1.086  1.00  0.00     0.031 A 
BRANCH  47  61
ATOM     61  C   UNL     1     -15.963  12.709  -1.743  1.00  0.00    -0.014 A 
ATOM     62  C   UNL     1     -16.220  13.155  -3.053  1.00  0.00     0.010 A 
ATOM     63  C   UNL     1     -15.806  13.657  -0.716  1.00  0.00     0.010 A 
ATOM     64  C   UNL     1     -16.270  14.522  -3.338  1.00  0.00     0.020 A 
ATOM     65  C   UNL     1     -15.883  15.026  -0.993  1.00  0.00     0.020 A 
ATOM     66  C   UNL     1     -16.096  15.449  -2.306  1.00  0.00     0.054 A 
BRANCH  66  67
ATOM     67  S   UNL     1     -16.176  17.217  -2.706  1.00  0.00     0.124 S 
ATOM     68  O   UNL     1     -14.920  17.420  -3.424  1.00  0.00    -0.237 OA
ATOM     69  O   UNL     1     -17.386  17.306  -3.520  1.00  0.00    -0.237 OA
ATOM     70  O   UNL     1     -16.258  17.865  -1.400  1.00  0.00    -0.744 OA
ENDBRANCH  66  67
ENDBRANCH  47  61
BRANCH  48  71
ATOM     71  C   UNL     1     -14.927   2.966   0.249  1.00  0.00    -0.014 A 
ATOM     72  C   UNL     1     -15.751   2.024  -0.391  1.00  0.00     0.010 A 
ATOM     73  C   UNL     1     -13.918   2.514   1.119  1.00  0.00     0.010 A 
ATOM     74  C   UNL     1     -15.567   0.656  -0.171  1.00  0.00     0.020 A 
ATOM     75  C   UNL     1     -13.716   1.145   1.324  1.00  0.00     0.020 A 
ATOM     76  C   UNL     1     -14.544   0.225   0.678  1.00  0.00     0.054 A 
BRANCH  76  77
ATOM     77  S   UNL     1     -14.268  -1.558   0.875  1.00  0.00     0.124 S 
ATOM     78  O   UNL     1     -15.422  -1.959   1.673  1.00  0.00    -0.237 OA
ATOM     79  O   UNL     1     -14.261  -2.029  -0.508  1.00  0.00    -0.237 OA
ATOM     80  O   UNL     1     -12.977  -1.632   1.556  1.00  0.00    -0.744 OA
ENDBRANCH  76  77
ENDBRANCH  48  71
BRANCH  60  81
ATOM     81  C   UNL     1     -19.750   7.750   1.877  1.00  0.00    -0.014 A 
ATOM     82  C   UNL     1     -19.727   7.676   3.280  1.00  0.00     0.010 A 
ATOM     83  C   UNL     1     -20.986   7.849   1.213  1.00  0.00     0.010 A 
ATOM     84  C   UNL     1     -20.921   7.686   4.006  1.00  0.00     0.020 A 
ATOM     85  C   UNL     1     -22.180   7.883   1.936  1.00  0.00     0.020 A 
ATOM     86  C   UNL     1     -22.140   7.793   3.329  1.00  0.00     0.054 A 
BRANCH  86  87
ATOM     87  S   UNL     1     -23.671   7.865   4.300  1.00  0.00     0.124 S 
ATOM     88  O   UNL     1     -23.797   6.489   4.772  1.00  0.00    -0.237 OA
ATOM     89  O   UNL     1     -23.352   8.856   5.325  1.00  0.00    -0.237 OA
ATOM     90  O   UNL     1     -24.678   8.285   3.328  1.00  0.00    -0.744 OA
ENDBRANCH  86  87
ENDBRANCH  60  81
ENDBRANCH  34  35
ENDBRANCH  26  29
ENDBRANCH   1  25
TORSDOF 14
