REMARK SMILES NC(=O)[C@@H]1CCCCN1c1cncc(C(=O)NCCCNC(=O)c2ccc(-c3c4nc(c(-c5ccc(S(=O)(=O)[O-])cc5)c5ccc([nH]5)c(-c5ccc(S(=O)(=O)[O-])cc5)c5nc(c(-c6ccc(S(=O)(=O)[O-])cc6)c6ccc3[nH]6)C=C5)C=C4)cc2)n1
REMARK SMILES IDX 19 1 18 2 17 3 15 4 16 5 14 7 10 8 11 9 84 10 12 11 13 12
REMARK SMILES IDX 9 13 4 14 5 15 6 16 8 17 7 18 2 19 1 20 3 23 20 24 21 25
REMARK SMILES IDX 22 26 23 28 24 29 25 30 83 31 26 32 82 33 27 34 28 35 29 36
REMARK SMILES IDX 76 37 30 38 81 39 75 40 77 41 31 42 80 43 74 44 73 45 32 47
REMARK SMILES IDX 62 48 43 49 61 50 44 51 47 52 60 53 78 54 45 55 46 56 59 58
REMARK SMILES IDX 79 59 48 60 33 61 34 62 42 63 35 64 41 65 36 66 37 67 38 68
REMARK SMILES IDX 39 69 40 70 63 71 64 72 72 73 65 74 71 75 66 76 67 77 68 78
REMARK SMILES IDX 69 79 70 80 49 81 50 82 58 83 51 84 57 85 52 86 53 87 54 88
REMARK SMILES IDX 55 89 56 90
REMARK H PARENT 17 6 1 21 1 22 21 27 77 46 47 57
REMARK Flexibility Score: inf
ROOT
ATOM      1  C   UNL     1       1.082   2.080   4.040  1.00  0.00     0.042 C 
ENDROOT
BRANCH   1   2
ATOM      2  C   UNL     1       0.017   1.239   3.345  1.00  0.00     0.118 C 
BRANCH   2   3
ATOM      3  N   UNL     1      -1.317   1.558   3.812  1.00  0.00    -0.351 N 
ATOM      4  C   UNL     1      -2.286   2.367   3.267  1.00  0.00     0.271 C 
ATOM      5  O   UNL     1      -3.348   2.467   3.886  1.00  0.00    -0.267 OA
ATOM      6  H   UNL     1      -1.571   1.124   4.658  1.00  0.00     0.163 HD
BRANCH   4   7
ATOM      7  C   UNL     1      -2.115   3.108   1.981  1.00  0.00     0.148 A 
ATOM      8  C   UNL     1      -0.874   3.716   0.132  1.00  0.00     0.148 A 
ATOM      9  C   UNL     1      -1.988   4.448  -0.311  1.00  0.00     0.157 A 
ATOM     10  N   UNL     1      -0.934   3.051   1.305  1.00  0.00    -0.222 NA
ATOM     11  N   UNL     1      -3.164   4.541   0.357  1.00  0.00    -0.258 NA
ATOM     12  C   UNL     1      -3.201   3.840   1.512  1.00  0.00     0.145 A 
BRANCH   8  13
ATOM     13  N   UNL     1       0.272   3.654  -0.638  1.00  0.00    -0.343 N 
ATOM     14  C   UNL     1       1.035   2.398  -0.820  1.00  0.00     0.172 C 
ATOM     15  C   UNL     1       2.334   2.457  -0.003  1.00  0.00     0.035 C 
ATOM     16  C   UNL     1       3.122   3.732  -0.304  1.00  0.00     0.004 C 
ATOM     17  C   UNL     1       0.976   4.905  -0.906  1.00  0.00     0.119 C 
ATOM     18  C   UNL     1       2.260   4.970  -0.077  1.00  0.00     0.022 C 
BRANCH  14  19
ATOM     19  C   UNL     1       0.196   1.098  -0.651  1.00  0.00     0.240 C 
ATOM     20  N   UNL     1       0.782   0.027  -0.033  1.00  0.00    -0.368 N 
ATOM     21  H   UNL     1       0.276  -0.809   0.088  1.00  0.00     0.159 HD
ATOM     22  H   UNL     1       1.709   0.092   0.291  1.00  0.00     0.159 HD
ATOM     23  O   UNL     1      -0.934   0.950  -1.119  1.00  0.00    -0.273 OA
ENDBRANCH  14  19
ENDBRANCH   8  13
ENDBRANCH   4   7
ENDBRANCH   2   3
ENDBRANCH   1   2
BRANCH   1  24
ATOM     24  C   UNL     1       1.313   1.669   5.492  1.00  0.00     0.118 C 
BRANCH  24  25
ATOM     25  N   UNL     1       1.802   0.298   5.597  1.00  0.00    -0.352 N 
ATOM     26  C   UNL     1       2.958  -0.194   6.137  1.00  0.00     0.251 C 
ATOM     27  H   UNL     1       1.203  -0.383   5.216  1.00  0.00     0.163 HD
ATOM     28  O   UNL     1       3.288  -1.355   5.877  1.00  0.00    -0.269 OA
BRANCH  26  29
ATOM     29  C   UNL     1       3.803   0.632   7.023  1.00  0.00     0.039 A 
ATOM     30  C   UNL     1       5.190   0.460   6.985  1.00  0.00     0.014 A 
ATOM     31  C   UNL     1       3.236   1.517   7.944  1.00  0.00     0.014 A 
ATOM     32  C   UNL     1       6.006   1.193   7.848  1.00  0.00     0.010 A 
ATOM     33  C   UNL     1       4.055   2.307   8.746  1.00  0.00     0.010 A 
ATOM     34  C   UNL     1       5.446   2.133   8.726  1.00  0.00    -0.014 A 
BRANCH  34  35
ATOM     35  C   UNL     1       6.295   2.911   9.662  1.00  0.00     0.031 A 
ATOM     36  C   UNL     1       6.141   2.729  11.149  1.00  0.00     0.074 A 
ATOM     37  C   UNL     1       7.160   3.822   9.178  1.00  0.00     0.049 A 
ATOM     38  N   UNL     1       6.763   3.341  12.124  1.00  0.00    -0.248 NA
ATOM     39  C   UNL     1       5.133   1.756  11.599  1.00  0.00     0.031 C 
ATOM     40  C   UNL     1       7.359   4.130   7.760  1.00  0.00     0.029 A 
ATOM     41  N   UNL     1       8.028   4.662   9.827  1.00  0.00    -0.354 N 
ATOM     42  C   UNL     1       6.201   2.851  13.297  1.00  0.00     0.074 A 
ATOM     43  C   UNL     1       5.156   1.929  12.911  1.00  0.00     0.031 C 
ATOM     44  C   UNL     1       8.306   5.075   7.646  1.00  0.00     0.029 A 
ATOM     45  C   UNL     1       8.759   5.459   8.980  1.00  0.00     0.049 A 
ATOM     46  H   UNL     1       8.119   4.691  10.807  1.00  0.00     0.167 HD
ATOM     47  C   UNL     1       6.536   3.127  14.581  1.00  0.00     0.031 A 
ATOM     48  C   UNL     1       9.690   6.395   9.245  1.00  0.00     0.031 A 
ATOM     49  C   UNL     1       7.590   4.031  14.959  1.00  0.00     0.049 A 
ATOM     50  C   UNL     1      10.082   6.654  10.672  1.00  0.00     0.074 A 
ATOM     51  C   UNL     1       8.058   4.328  16.226  1.00  0.00     0.029 A 
ATOM     52  N   UNL     1       8.339   4.785  14.068  1.00  0.00    -0.354 N 
ATOM     53  N   UNL     1       9.593   6.124  11.768  1.00  0.00    -0.248 NA
ATOM     54  C   UNL     1      11.167   7.618  10.896  1.00  0.00     0.031 C 
ATOM     55  C   UNL     1       9.062   5.296  16.104  1.00  0.00     0.029 A 
ATOM     56  C   UNL     1       9.256   5.560  14.757  1.00  0.00     0.049 A 
ATOM     57  H   UNL     1       8.235   4.771  13.089  1.00  0.00     0.167 HD
ATOM     58  C   UNL     1      10.330   6.670  12.813  1.00  0.00     0.074 A 
ATOM     59  C   UNL     1      11.304   7.562  12.215  1.00  0.00     0.031 C 
ATOM     60  C   UNL     1      10.214   6.448  14.147  1.00  0.00     0.031 A 
BRANCH  47  61
ATOM     61  C   UNL     1       5.734   2.450  15.663  1.00  0.00    -0.014 A 
ATOM     62  C   UNL     1       5.815   1.060  15.874  1.00  0.00     0.010 A 
ATOM     63  C   UNL     1       4.878   3.213  16.477  1.00  0.00     0.010 A 
ATOM     64  C   UNL     1       5.006   0.439  16.829  1.00  0.00     0.020 A 
ATOM     65  C   UNL     1       4.090   2.600  17.456  1.00  0.00     0.020 A 
ATOM     66  C   UNL     1       4.139   1.212  17.606  1.00  0.00     0.054 A 
BRANCH  66  67
ATOM     67  S   UNL     1       3.084   0.381  18.825  1.00  0.00     0.124 S 
ATOM     68  O   UNL     1       2.060  -0.220  17.973  1.00  0.00    -0.237 OA
ATOM     69  O   UNL     1       4.003  -0.560  19.459  1.00  0.00    -0.237 OA
ATOM     70  O   UNL     1       2.622   1.469  19.682  1.00  0.00    -0.744 OA
ENDBRANCH  66  67
ENDBRANCH  47  61
BRANCH  48  71
ATOM     71  C   UNL     1      10.339   7.117   8.118  1.00  0.00    -0.014 A 
ATOM     72  C   UNL     1      11.655   6.806   7.735  1.00  0.00     0.010 A 
ATOM     73  C   UNL     1       9.618   8.073   7.379  1.00  0.00     0.010 A 
ATOM     74  C   UNL     1      12.239   7.437   6.633  1.00  0.00     0.020 A 
ATOM     75  C   UNL     1      10.191   8.689   6.263  1.00  0.00     0.020 A 
ATOM     76  C   UNL     1      11.500   8.369   5.899  1.00  0.00     0.054 A 
BRANCH  76  77
ATOM     77  S   UNL     1      12.245   9.103   4.415  1.00  0.00     0.124 S 
ATOM     78  O   UNL     1      13.201  10.045   4.989  1.00  0.00    -0.237 OA
ATOM     79  O   UNL     1      12.824   7.941   3.745  1.00  0.00    -0.237 OA
ATOM     80  O   UNL     1      11.107   9.705   3.725  1.00  0.00    -0.744 OA
ENDBRANCH  76  77
ENDBRANCH  48  71
BRANCH  60  81
ATOM     81  C   UNL     1      11.189   7.155  15.050  1.00  0.00    -0.014 A 
ATOM     82  C   UNL     1      11.100   8.539  15.285  1.00  0.00     0.010 A 
ATOM     83  C   UNL     1      12.187   6.411  15.705  1.00  0.00     0.010 A 
ATOM     84  C   UNL     1      12.017   9.171  16.128  1.00  0.00     0.020 A 
ATOM     85  C   UNL     1      13.088   7.035  16.570  1.00  0.00     0.020 A 
ATOM     86  C   UNL     1      13.009   8.416  16.762  1.00  0.00     0.054 A 
BRANCH  86  87
ATOM     87  S   UNL     1      14.173   9.254  17.872  1.00  0.00     0.124 S 
ATOM     88  O   UNL     1      15.060   9.927  16.927  1.00  0.00    -0.237 OA
ATOM     89  O   UNL     1      13.302  10.131  18.650  1.00  0.00    -0.237 OA
ATOM     90  O   UNL     1      14.779   8.159  18.627  1.00  0.00    -0.744 OA
ENDBRANCH  86  87
ENDBRANCH  60  81
ENDBRANCH  34  35
ENDBRANCH  26  29
ENDBRANCH  24  25
ENDBRANCH   1  24
TORSDOF 15
