REMARK SMILES CSc1ncccc1C(=O)N1CSC[C@H]1C(=O)NCCCNC(=O)c1ccc(-c2c3nc(c(-c4ccc(S(=O)(=O)[O-])cc4)c4ccc([nH]4)c(-c4ccc(S(=O)(=O)[O-])cc4)c4nc(c(-c5ccc(S(=O)(=O)[O-])cc5)c5ccc2[nH]5)C=C4)C=C3)cc1
REMARK SMILES IDX 20 1 19 2 18 3 16 4 17 5 15 7 11 8 12 9 13 10 14 11 9 12
REMARK SMILES IDX 10 13 8 14 3 15 4 16 5 17 7 18 6 19 2 20 1 21 21 22 22 23
REMARK SMILES IDX 23 24 24 26 25 27 26 28 84 29 27 30 83 31 28 32 29 33 30 34
REMARK SMILES IDX 77 35 31 36 82 37 76 38 78 39 32 40 81 41 75 42 74 43 33 45
REMARK SMILES IDX 63 46 44 47 62 48 45 49 48 50 61 51 79 52 46 53 47 54 60 56
REMARK SMILES IDX 80 57 49 58 34 59 35 60 43 61 36 62 42 63 37 64 38 65 39 66
REMARK SMILES IDX 40 67 41 68 64 69 65 70 73 71 66 72 72 73 67 74 68 75 69 76
REMARK SMILES IDX 70 77 71 78 50 79 51 80 59 81 52 82 58 83 53 84 54 85 55 86
REMARK SMILES IDX 56 87 57 88
REMARK H PARENT 18 6 22 25 78 44 48 55
REMARK Flexibility Score: inf
ROOT
ATOM      1  C   UNL     1       1.767  -7.135   2.542  1.00  0.00     0.042 C 
ENDROOT
BRANCH   1   2
ATOM      2  C   UNL     1       0.626  -8.068   2.173  1.00  0.00     0.117 C 
BRANCH   2   3
ATOM      3  N   UNL     1      -0.669  -7.431   2.268  1.00  0.00    -0.354 N 
ATOM      4  C   UNL     1      -1.525  -7.010   1.296  1.00  0.00     0.243 C 
ATOM      5  O   UNL     1      -2.691  -6.804   1.652  1.00  0.00    -0.273 OA
ATOM      6  H   UNL     1      -0.984  -7.277   3.188  1.00  0.00     0.163 HD
BRANCH   4   7
ATOM      7  C   UNL     1      -1.149  -6.972  -0.201  1.00  0.00     0.185 C 
ATOM      8  N   UNL     1       0.017  -6.161  -0.597  1.00  0.00    -0.316 N 
ATOM      9  C   UNL     1       1.157  -6.920  -1.067  1.00  0.00     0.190 C 
ATOM     10  S   UNL     1       0.476  -8.428  -1.786  1.00  0.00    -0.138 SA
ATOM     11  C   UNL     1      -1.031  -8.388  -0.771  1.00  0.00     0.106 C 
BRANCH   8  12
ATOM     12  C   UNL     1      -0.176  -4.779  -0.685  1.00  0.00     0.257 C 
ATOM     13  O   UNL     1      -1.125  -4.238  -0.122  1.00  0.00    -0.269 OA
BRANCH  12  14
ATOM     14  C   UNL     1       0.654  -3.957  -1.604  1.00  0.00     0.072 A 
ATOM     15  C   UNL     1       1.122  -2.676  -1.293  1.00  0.00     0.108 A 
ATOM     16  N   UNL     1       1.811  -1.928  -2.202  1.00  0.00    -0.249 NA
ATOM     17  C   UNL     1       2.015  -2.429  -3.437  1.00  0.00     0.112 A 
ATOM     18  C   UNL     1       0.832  -4.416  -2.921  1.00  0.00     0.018 A 
ATOM     19  C   UNL     1       1.545  -3.659  -3.842  1.00  0.00     0.021 A 
BRANCH  15  20
ATOM     20  S   UNL     1       0.910  -1.895   0.303  1.00  0.00    -0.109 SA
ATOM     21  C   UNL     1       1.278  -0.165  -0.118  1.00  0.00     0.092 C 
ENDBRANCH  15  20
ENDBRANCH  12  14
ENDBRANCH   8  12
ENDBRANCH   4   7
ENDBRANCH   2   3
ENDBRANCH   1   2
BRANCH   1  22
ATOM     22  C   UNL     1       1.879  -6.895   4.042  1.00  0.00     0.118 C 
BRANCH  22  23
ATOM     23  N   UNL     1       2.201  -8.119   4.768  1.00  0.00    -0.352 N 
ATOM     24  C   UNL     1       3.295  -8.432   5.530  1.00  0.00     0.251 C 
ATOM     25  H   UNL     1       1.525  -8.832   4.701  1.00  0.00     0.163 HD
ATOM     26  O   UNL     1       3.489  -9.606   5.853  1.00  0.00    -0.269 OA
BRANCH  24  27
ATOM     27  C   UNL     1       4.237  -7.380   5.960  1.00  0.00     0.039 A 
ATOM     28  C   UNL     1       5.605  -7.664   6.003  1.00  0.00     0.014 A 
ATOM     29  C   UNL     1       3.771  -6.125   6.359  1.00  0.00     0.014 A 
ATOM     30  C   UNL     1       6.505  -6.673   6.398  1.00  0.00     0.010 A 
ATOM     31  C   UNL     1       4.673  -5.112   6.661  1.00  0.00     0.010 A 
ATOM     32  C   UNL     1       6.048  -5.381   6.704  1.00  0.00    -0.014 A 
BRANCH  32  33
ATOM     33  C   UNL     1       6.984  -4.301   7.104  1.00  0.00     0.031 A 
ATOM     34  C   UNL     1       6.875  -3.686   8.474  1.00  0.00     0.074 A 
ATOM     35  C   UNL     1       7.881  -3.832   6.215  1.00  0.00     0.049 A 
ATOM     36  N   UNL     1       7.548  -2.687   8.985  1.00  0.00    -0.248 NA
ATOM     37  C   UNL     1       5.858  -4.248   9.379  1.00  0.00     0.031 C 
ATOM     38  C   UNL     1       8.054  -4.321   4.845  1.00  0.00     0.029 A 
ATOM     39  N   UNL     1       8.814  -2.833   6.330  1.00  0.00    -0.354 N 
ATOM     40  C   UNL     1       7.021  -2.488  10.256  1.00  0.00     0.074 A 
ATOM     41  C   UNL     1       5.938  -3.432  10.419  1.00  0.00     0.031 C 
ATOM     42  C   UNL     1       9.050  -3.640   4.257  1.00  0.00     0.029 A 
ATOM     43  C   UNL     1       9.557  -2.638   5.189  1.00  0.00     0.049 A 
ATOM     44  H   UNL     1       8.940  -2.305   7.151  1.00  0.00     0.167 HD
ATOM     45  C   UNL     1       7.416  -1.613  11.211  1.00  0.00     0.031 A 
ATOM     46  C   UNL     1      10.532  -1.748   4.922  1.00  0.00     0.031 A 
ATOM     47  C   UNL     1       8.504  -0.686  11.046  1.00  0.00     0.049 A 
ATOM     48  C   UNL     1      10.953  -0.784   5.997  1.00  0.00     0.074 A 
ATOM     49  C   UNL     1       9.021   0.207  11.968  1.00  0.00     0.029 A 
ATOM     50  N   UNL     1       9.243  -0.533   9.882  1.00  0.00    -0.354 N 
ATOM     51  N   UNL     1      10.483  -0.651   7.215  1.00  0.00    -0.248 NA
ATOM     52  C   UNL     1      12.046   0.140   5.668  1.00  0.00     0.031 C 
ATOM     53  C   UNL     1      10.038   0.936  11.345  1.00  0.00     0.029 A 
ATOM     54  C   UNL     1      10.199   0.452  10.056  1.00  0.00     0.049 A 
ATOM     55  H   UNL     1       9.107  -1.049   9.055  1.00  0.00     0.167 HD
ATOM     56  C   UNL     1      11.247   0.347   7.809  1.00  0.00     0.074 A 
ATOM     57  C   UNL     1      12.216   0.774   6.820  1.00  0.00     0.031 C 
ATOM     58  C   UNL     1      11.159   0.860   9.061  1.00  0.00     0.031 A 
BRANCH  45  59
ATOM     59  C   UNL     1       6.663  -1.616  12.516  1.00  0.00    -0.014 A 
ATOM     60  C   UNL     1       6.749  -2.705  13.404  1.00  0.00     0.010 A 
ATOM     61  C   UNL     1       5.884  -0.502  12.877  1.00  0.00     0.010 A 
ATOM     62  C   UNL     1       6.036  -2.698  14.606  1.00  0.00     0.020 A 
ATOM     63  C   UNL     1       5.195  -0.477  14.094  1.00  0.00     0.020 A 
ATOM     64  C   UNL     1       5.261  -1.584  14.942  1.00  0.00     0.054 A 
BRANCH  64  65
ATOM     65  S   UNL     1       4.366  -1.594  16.519  1.00  0.00     0.124 S 
ATOM     66  O   UNL     1       3.298  -2.555  16.253  1.00  0.00    -0.237 OA
ATOM     67  O   UNL     1       5.388  -2.037  17.464  1.00  0.00    -0.237 OA
ATOM     68  O   UNL     1       3.931  -0.209  16.681  1.00  0.00    -0.744 OA
ENDBRANCH  64  65
ENDBRANCH  45  59
BRANCH  46  69
ATOM     69  C   UNL     1      11.190  -1.745   3.586  1.00  0.00    -0.014 A 
ATOM     70  C   UNL     1      12.523  -2.171   3.446  1.00  0.00     0.010 A 
ATOM     71  C   UNL     1      10.482  -1.331   2.443  1.00  0.00     0.010 A 
ATOM     72  C   UNL     1      13.141  -2.163   2.192  1.00  0.00     0.020 A 
ATOM     73  C   UNL     1      11.087  -1.350   1.184  1.00  0.00     0.020 A 
ATOM     74  C   UNL     1      12.418  -1.755   1.068  1.00  0.00     0.054 A 
BRANCH  74  75
ATOM     75  S   UNL     1      13.225  -1.802  -0.557  1.00  0.00     0.124 S 
ATOM     76  O   UNL     1      14.149  -0.675  -0.469  1.00  0.00    -0.237 OA
ATOM     77  O   UNL     1      13.840  -3.127  -0.565  1.00  0.00    -0.237 OA
ATOM     78  O   UNL     1      12.117  -1.633  -1.494  1.00  0.00    -0.744 OA
ENDBRANCH  74  75
ENDBRANCH  46  69
BRANCH  58  79
ATOM     79  C   UNL     1      12.169   1.906   9.455  1.00  0.00    -0.014 A 
ATOM     80  C   UNL     1      12.124   3.207   8.925  1.00  0.00     0.010 A 
ATOM     81  C   UNL     1      13.146   1.590  10.416  1.00  0.00     0.010 A 
ATOM     82  C   UNL     1      13.062   4.164   9.324  1.00  0.00     0.020 A 
ATOM     83  C   UNL     1      14.066   2.552  10.841  1.00  0.00     0.020 A 
ATOM     84  C   UNL     1      14.027   3.829  10.279  1.00  0.00     0.054 A 
BRANCH  84  85
ATOM     85  S   UNL     1      15.207   5.099  10.810  1.00  0.00     0.124 S 
ATOM     86  O   UNL     1      16.085   5.202   9.648  1.00  0.00    -0.237 OA
ATOM     87  O   UNL     1      14.347   6.255  11.052  1.00  0.00    -0.237 OA
ATOM     88  O   UNL     1      15.821   4.525  12.006  1.00  0.00    -0.744 OA
ENDBRANCH  84  85
ENDBRANCH  58  79
ENDBRANCH  32  33
ENDBRANCH  24  27
ENDBRANCH  22  23
ENDBRANCH   1  22
TORSDOF 16
