REMARK SMILES CC[C@H](C)[C@H](NC(=O)CCOC)C(=O)NCCCNC(=O)c1ccc(-c2c3nc(c(-c4ccc(S(=O)(=O)[O-])cc4)c4ccc([nH]4)c(-c4ccc(S(=O)(=O)[O-])cc4)c4nc(c(-c5ccc(S(=O)(=O)[O-])cc5)c5ccc2[nH]5)C=C4)C=C3)cc1
REMARK SMILES IDX 16 1 15 2 13 3 14 4 5 6 3 7 4 8 2 9 1 10 6 11 7 12 8 14 9 15
REMARK SMILES IDX 10 16 11 17 12 18 17 19 18 20 19 21 20 22 21 24 22 25 23 26
REMARK SMILES IDX 81 27 24 28 80 29 25 30 26 31 27 32 74 33 28 34 79 35 73 36
REMARK SMILES IDX 75 37 29 38 78 39 72 40 71 41 30 43 60 44 41 45 59 46 42 47
REMARK SMILES IDX 45 48 58 49 76 50 43 51 44 52 57 54 77 55 46 56 31 57 32 58
REMARK SMILES IDX 40 59 33 60 39 61 34 62 35 63 36 64 37 65 38 66 61 67 62 68
REMARK SMILES IDX 70 69 63 70 69 71 64 72 65 73 66 74 67 75 68 76 47 77 48 78
REMARK SMILES IDX 56 79 49 80 55 81 50 82 51 83 52 84 53 85 54 86
REMARK H PARENT 15 5 6 13 19 23 75 42 45 53
REMARK Flexibility Score: inf
ROOT
ATOM      1  C   UNL     1       3.507  -4.168   0.414  1.00  0.00     0.117 C 
ENDROOT
BRANCH   1   2
ATOM      2  N   UNL     1       2.294  -4.788   0.880  1.00  0.00    -0.354 N 
ATOM      3  C   UNL     1       1.025  -4.593   0.419  1.00  0.00     0.242 C 
ATOM      4  O   UNL     1       0.149  -5.374   0.804  1.00  0.00    -0.273 OA
ATOM      5  H   UNL     1       2.392  -5.430   1.620  1.00  0.00     0.163 HD
BRANCH   3   6
ATOM      6  C   UNL     1       0.710  -3.518  -0.663  1.00  0.00     0.174 C 
BRANCH   6   7
ATOM      7  C   UNL     1       1.268  -3.982  -2.069  1.00  0.00     0.018 C 
ATOM      8  C   UNL     1       0.154  -3.981  -3.125  1.00  0.00     0.010 C 
BRANCH   7   9
ATOM      9  C   UNL     1       2.504  -3.219  -2.615  1.00  0.00     0.002 C 
ATOM     10  C   UNL     1       2.928  -3.583  -4.032  1.00  0.00     0.004 C 
ENDBRANCH   7   9
ENDBRANCH   6   7
BRANCH   6  11
ATOM     11  N   UNL     1       1.109  -2.165  -0.244  1.00  0.00    -0.344 N 
ATOM     12  C   UNL     1       0.484  -1.189   0.459  1.00  0.00     0.222 C 
ATOM     13  H   UNL     1       2.017  -1.918  -0.535  1.00  0.00     0.164 HD
ATOM     14  O   UNL     1       1.191  -0.257   0.853  1.00  0.00    -0.275 OA
BRANCH  12  15
ATOM     15  C   UNL     1      -1.005  -1.154   0.689  1.00  0.00     0.128 C 
BRANCH  15  16
ATOM     16  C   UNL     1      -1.646  -0.204  -0.327  1.00  0.00     0.169 C 
BRANCH  16  17
ATOM     17  O   UNL     1      -2.674  -0.811  -1.117  1.00  0.00    -0.384 OA
ATOM     18  C   UNL     1      -2.203  -1.895  -1.897  1.00  0.00     0.194 C 
ENDBRANCH  16  17
ENDBRANCH  15  16
ENDBRANCH  12  15
ENDBRANCH   6  11
ENDBRANCH   3   6
ENDBRANCH   1   2
BRANCH   1  19
ATOM     19  C   UNL     1       4.401  -3.646   1.505  1.00  0.00     0.042 C 
BRANCH  19  20
ATOM     20  C   UNL     1       5.144  -4.748   2.215  1.00  0.00     0.118 C 
BRANCH  20  21
ATOM     21  N   UNL     1       6.030  -5.494   1.322  1.00  0.00    -0.352 N 
ATOM     22  C   UNL     1       7.402  -5.568   1.301  1.00  0.00     0.251 C 
ATOM     23  H   UNL     1       5.574  -6.024   0.630  1.00  0.00     0.163 HD
ATOM     24  O   UNL     1       7.971  -6.082   0.340  1.00  0.00    -0.269 OA
BRANCH  22  25
ATOM     25  C   UNL     1       8.177  -5.013   2.426  1.00  0.00     0.039 A 
ATOM     26  C   UNL     1       9.382  -4.354   2.184  1.00  0.00     0.014 A 
ATOM     27  C   UNL     1       7.687  -5.123   3.727  1.00  0.00     0.014 A 
ATOM     28  C   UNL     1      10.057  -3.756   3.249  1.00  0.00     0.010 A 
ATOM     29  C   UNL     1       8.261  -4.384   4.744  1.00  0.00     0.010 A 
ATOM     30  C   UNL     1       9.482  -3.738   4.531  1.00  0.00    -0.014 A 
BRANCH  30  31
ATOM     31  C   UNL     1      10.171  -3.126   5.691  1.00  0.00     0.031 A 
ATOM     32  C   UNL     1      10.494  -3.979   6.893  1.00  0.00     0.074 A 
ATOM     33  C   UNL     1      10.450  -1.809   5.688  1.00  0.00     0.049 A 
ATOM     34  N   UNL     1      11.047  -3.632   8.025  1.00  0.00    -0.248 NA
ATOM     35  C   UNL     1      10.105  -5.401   6.834  1.00  0.00     0.031 C 
ATOM     36  C   UNL     1      10.121  -0.871   4.610  1.00  0.00     0.029 A 
ATOM     37  N   UNL     1      11.080  -1.030   6.623  1.00  0.00    -0.354 N 
ATOM     38  C   UNL     1      11.049  -4.781   8.809  1.00  0.00     0.074 A 
ATOM     39  C   UNL     1      10.364  -5.809   8.065  1.00  0.00     0.031 C 
ATOM     40  C   UNL     1      10.595   0.345   4.926  1.00  0.00     0.029 A 
ATOM     41  C   UNL     1      11.220   0.283   6.243  1.00  0.00     0.049 A 
ATOM     42  H   UNL     1      11.401  -1.378   7.487  1.00  0.00     0.167 HD
ATOM     43  C   UNL     1      11.610  -4.979  10.025  1.00  0.00     0.031 A 
ATOM     44  C   UNL     1      11.794   1.319   6.884  1.00  0.00     0.031 A 
ATOM     45  C   UNL     1      12.315  -3.957  10.746  1.00  0.00     0.049 A 
ATOM     46  C   UNL     1      12.428   1.074   8.226  1.00  0.00     0.074 A 
ATOM     47  C   UNL     1      12.971  -4.055  11.959  1.00  0.00     0.029 A 
ATOM     48  N   UNL     1      12.461  -2.647  10.313  1.00  0.00    -0.354 N 
ATOM     49  N   UNL     1      12.482  -0.037   8.923  1.00  0.00    -0.248 NA
ATOM     50  C   UNL     1      13.099   2.217   8.858  1.00  0.00     0.031 C 
ATOM     51  C   UNL     1      13.469  -2.790  12.285  1.00  0.00     0.029 A 
ATOM     52  C   UNL     1      13.183  -1.921  11.243  1.00  0.00     0.049 A 
ATOM     53  H   UNL     1      12.103  -2.287   9.469  1.00  0.00     0.167 HD
ATOM     54  C   UNL     1      13.219   0.265  10.062  1.00  0.00     0.074 A 
ATOM     55  C   UNL     1      13.605   1.658   9.949  1.00  0.00     0.031 C 
ATOM     56  C   UNL     1      13.551  -0.534  11.107  1.00  0.00     0.031 A 
BRANCH  43  57
ATOM     57  C   UNL     1      11.486  -6.353  10.632  1.00  0.00    -0.014 A 
ATOM     58  C   UNL     1      12.130  -7.464  10.055  1.00  0.00     0.010 A 
ATOM     59  C   UNL     1      10.727  -6.537  11.801  1.00  0.00     0.010 A 
ATOM     60  C   UNL     1      11.977  -8.739  10.606  1.00  0.00     0.020 A 
ATOM     61  C   UNL     1      10.600  -7.805  12.376  1.00  0.00     0.020 A 
ATOM     62  C   UNL     1      11.212  -8.901  11.764  1.00  0.00     0.054 A 
BRANCH  62  63
ATOM     63  S   UNL     1      11.050 -10.564  12.469  1.00  0.00     0.124 S 
ATOM     64  O   UNL     1      10.177 -11.219  11.498  1.00  0.00    -0.237 OA
ATOM     65  O   UNL     1      12.431 -11.037  12.490  1.00  0.00    -0.237 OA
ATOM     66  O   UNL     1      10.454 -10.327  13.782  1.00  0.00    -0.744 OA
ENDBRANCH  62  63
ENDBRANCH  43  57
BRANCH  44  67
ATOM     67  C   UNL     1      11.819   2.664   6.247  1.00  0.00    -0.014 A 
ATOM     68  C   UNL     1      13.026   3.215   5.779  1.00  0.00     0.010 A 
ATOM     69  C   UNL     1      10.628   3.394   6.082  1.00  0.00     0.010 A 
ATOM     70  C   UNL     1      13.044   4.478   5.179  1.00  0.00     0.020 A 
ATOM     71  C   UNL     1      10.637   4.643   5.455  1.00  0.00     0.020 A 
ATOM     72  C   UNL     1      11.847   5.183   5.018  1.00  0.00     0.054 A 
BRANCH  72  73
ATOM     73  S   UNL     1      11.888   6.797   4.191  1.00  0.00     0.124 S 
ATOM     74  O   UNL     1      12.529   7.638   5.197  1.00  0.00    -0.237 OA
ATOM     75  O   UNL     1      12.684   6.519   2.998  1.00  0.00    -0.237 OA
ATOM     76  O   UNL     1      10.479   7.088   3.937  1.00  0.00    -0.744 OA
ENDBRANCH  72  73
ENDBRANCH  44  67
BRANCH  56  77
ATOM     77  C   UNL     1      14.409   0.066  12.188  1.00  0.00    -0.014 A 
ATOM     78  C   UNL     1      13.908   1.041  13.067  1.00  0.00     0.010 A 
ATOM     79  C   UNL     1      15.730  -0.392  12.350  1.00  0.00     0.010 A 
ATOM     80  C   UNL     1      14.727   1.582  14.060  1.00  0.00     0.020 A 
ATOM     81  C   UNL     1      16.541   0.121  13.364  1.00  0.00     0.020 A 
ATOM     82  C   UNL     1      16.040   1.120  14.200  1.00  0.00     0.054 A 
BRANCH  82  83
ATOM     83  S   UNL     1      17.076   1.822  15.511  1.00  0.00     0.124 S 
ATOM     84  O   UNL     1      17.362   3.156  14.990  1.00  0.00    -0.237 OA
ATOM     85  O   UNL     1      16.194   1.777  16.675  1.00  0.00    -0.237 OA
ATOM     86  O   UNL     1      18.222   0.917  15.570  1.00  0.00    -0.744 OA
ENDBRANCH  82  83
ENDBRANCH  56  77
ENDBRANCH  30  31
ENDBRANCH  22  25
ENDBRANCH  20  21
ENDBRANCH  19  20
ENDBRANCH   1  19
TORSDOF 19
