REMARK SMILES Cn1c(=O)c2c(nc(Nc3cccc(Cl)c3Cl)n2CC(=O)NCCCNC(=O)c2ccc(-c3c4nc(c(-c5ccc(S(=O)(=O)[O-])cc5)c5ccc([nH]5)c(-c5ccc(S(=O)(=O)[O-])cc5)c5nc(c(-c6ccc(S(=O)(=O)[O-])cc6)c6ccc3[nH]6)C=C5)C=C4)cc2)n(C)c1=O
REMARK SMILES IDX 24 1 23 2 22 3 20 4 21 5 19 7 18 8 1 9 2 10 3 11 91 12 4 13
REMARK SMILES IDX 5 14 89 15 92 16 6 17 90 18 7 19 8 20 9 21 10 23 11 24 16 25
REMARK SMILES IDX 12 26 14 27 17 28 13 29 15 30 25 31 26 32 27 33 28 35 29 36
REMARK SMILES IDX 30 37 88 38 31 39 87 40 32 41 33 42 34 43 81 44 35 45 86 46
REMARK SMILES IDX 80 47 82 48 36 49 85 50 79 51 78 52 37 54 67 55 48 56 66 57
REMARK SMILES IDX 49 58 52 59 65 60 83 61 50 62 51 63 64 65 84 66 53 67 38 68
REMARK SMILES IDX 39 69 47 70 40 71 46 72 41 73 42 74 43 75 44 76 45 77 68 78
REMARK SMILES IDX 69 79 77 80 70 81 76 82 71 83 72 84 73 85 74 86 75 87 54 88
REMARK SMILES IDX 55 89 63 90 56 91 62 92 57 93 58 94 59 95 60 96 61 97
REMARK H PARENT 22 6 9 22 26 34 82 53 52 64
REMARK Flexibility Score: inf
ROOT
ATOM      1  C   UNL     1       3.291   5.574   3.539  1.00  0.00     0.042 C 
ENDROOT
BRANCH   1   2
ATOM      2  C   UNL     1       3.580   6.453   2.326  1.00  0.00     0.117 C 
BRANCH   2   3
ATOM      3  N   UNL     1       3.856   5.705   1.120  1.00  0.00    -0.354 N 
ATOM      4  C   UNL     1       3.023   5.450   0.068  1.00  0.00     0.240 C 
ATOM      5  O   UNL     1       3.543   5.023  -0.965  1.00  0.00    -0.273 OA
ATOM      6  H   UNL     1       4.763   5.329   1.048  1.00  0.00     0.163 HD
BRANCH   4   7
ATOM      7  C   UNL     1       1.553   5.823   0.123  1.00  0.00     0.226 C 
BRANCH   7   8
ATOM      8  N   UNL     1       0.766   5.170   1.159  1.00  0.00    -0.295 N 
ATOM      9  C   UNL     1       1.006   0.333   0.043  1.00  0.00     0.159 C 
ATOM     10  N   UNL     1       0.571   1.470   0.836  1.00  0.00    -0.261 N 
ATOM     11  C   UNL     1       0.925   2.735   0.341  1.00  0.00     0.282 A 
ATOM     12  C   UNL     1      -0.189   1.228   1.992  1.00  0.00     0.332 A 
ATOM     13  O   UNL     1       1.482   2.911  -0.727  1.00  0.00    -0.267 OA
ATOM     14  C   UNL     1       0.538   3.805   1.205  1.00  0.00     0.154 A 
ATOM     15  N   UNL     1      -0.563   2.341   2.747  1.00  0.00    -0.279 N 
ATOM     16  O   UNL     1      -0.521   0.088   2.326  1.00  0.00    -0.247 OA
ATOM     17  C   UNL     1      -0.182   3.595   2.334  1.00  0.00     0.170 A 
ATOM     18  C   UNL     1      -1.336   2.175   3.964  1.00  0.00     0.157 C 
ATOM     19  N   UNL     1      -0.461   4.754   2.973  1.00  0.00    -0.194 NA
ATOM     20  C   UNL     1       0.076   5.715   2.242  1.00  0.00     0.210 A 
BRANCH  20  21
ATOM     21  N   UNL     1      -0.004   6.994   2.676  1.00  0.00    -0.324 N 
ATOM     22  H   UNL     1      -0.443   7.064   3.554  1.00  0.00     0.170 HD
BRANCH  21  23
ATOM     23  C   UNL     1       0.390   8.248   2.175  1.00  0.00     0.061 A 
ATOM     24  C   UNL     1       1.230   9.016   3.011  1.00  0.00     0.028 A 
ATOM     25  C   UNL     1       0.013   8.786   0.931  1.00  0.00     0.083 A 
ATOM     26  C   UNL     1       1.778  10.222   2.584  1.00  0.00     0.004 A 
ATOM     27  C   UNL     1       0.576  10.001   0.499  1.00  0.00     0.061 A 
ATOM     28  Cl  UNL     1      -1.177   7.972  -0.038  1.00  0.00    -0.080 Cl
ATOM     29  C   UNL     1       1.468  10.703   1.318  1.00  0.00     0.022 A 
ATOM     30  Cl  UNL     1       0.225  10.689  -1.049  1.00  0.00    -0.083 Cl
ENDBRANCH  21  23
ENDBRANCH  20  21
ENDBRANCH   7   8
ENDBRANCH   4   7
ENDBRANCH   2   3
ENDBRANCH   1   2
BRANCH   1  31
ATOM     31  C   UNL     1       4.566   5.001   4.125  1.00  0.00     0.118 C 
BRANCH  31  32
ATOM     32  N   UNL     1       5.395   6.024   4.766  1.00  0.00    -0.352 N 
ATOM     33  C   UNL     1       6.613   5.848   5.393  1.00  0.00     0.251 C 
ATOM     34  H   UNL     1       5.043   6.943   4.747  1.00  0.00     0.163 HD
ATOM     35  O   UNL     1       7.048   6.698   6.160  1.00  0.00    -0.269 OA
BRANCH  33  36
ATOM     36  C   UNL     1       7.359   4.609   5.120  1.00  0.00     0.039 A 
ATOM     37  C   UNL     1       7.942   3.869   6.151  1.00  0.00     0.014 A 
ATOM     38  C   UNL     1       7.392   4.154   3.805  1.00  0.00     0.014 A 
ATOM     39  C   UNL     1       8.477   2.618   5.853  1.00  0.00     0.010 A 
ATOM     40  C   UNL     1       7.760   2.860   3.548  1.00  0.00     0.010 A 
ATOM     41  C   UNL     1       8.357   2.105   4.551  1.00  0.00    -0.014 A 
BRANCH  41  42
ATOM     42  C   UNL     1       8.797   0.753   4.231  1.00  0.00     0.031 A 
ATOM     43  C   UNL     1       8.256  -0.332   5.094  1.00  0.00     0.074 A 
ATOM     44  C   UNL     1       9.502   0.457   3.118  1.00  0.00     0.049 A 
ATOM     45  N   UNL     1       8.904  -1.029   5.966  1.00  0.00    -0.248 NA
ATOM     46  C   UNL     1       6.811  -0.607   5.072  1.00  0.00     0.031 C 
ATOM     47  C   UNL     1       9.881   1.333   2.002  1.00  0.00     0.029 A 
ATOM     48  N   UNL     1       9.936  -0.759   2.699  1.00  0.00    -0.354 N 
ATOM     49  C   UNL     1       8.008  -1.965   6.473  1.00  0.00     0.074 A 
ATOM     50  C   UNL     1       6.705  -1.562   6.000  1.00  0.00     0.031 C 
ATOM     51  C   UNL     1      10.254   0.582   0.943  1.00  0.00     0.029 A 
ATOM     52  C   UNL     1      10.329  -0.802   1.369  1.00  0.00     0.049 A 
ATOM     53  H   UNL     1       9.969  -1.545   3.290  1.00  0.00     0.167 HD
ATOM     54  C   UNL     1       8.434  -3.107   7.083  1.00  0.00     0.031 A 
ATOM     55  C   UNL     1      10.679  -1.905   0.664  1.00  0.00     0.031 A 
ATOM     56  C   UNL     1       9.853  -3.075   7.333  1.00  0.00     0.049 A 
ATOM     57  C   UNL     1      11.096  -2.927   1.656  1.00  0.00     0.074 A 
ATOM     58  C   UNL     1      10.690  -2.274   8.082  1.00  0.00     0.029 A 
ATOM     59  N   UNL     1      10.661  -3.730   6.430  1.00  0.00    -0.354 N 
ATOM     60  N   UNL     1      12.149  -2.790   2.415  1.00  0.00    -0.248 NA
ATOM     61  C   UNL     1      10.100  -3.869   2.142  1.00  0.00     0.031 C 
ATOM     62  C   UNL     1      11.854  -2.111   7.274  1.00  0.00     0.029 A 
ATOM     63  C   UNL     1      11.690  -2.879   6.118  1.00  0.00     0.049 A 
ATOM     64  H   UNL     1      10.525  -4.638   6.075  1.00  0.00     0.167 HD
ATOM     65  C   UNL     1      11.760  -3.272   3.657  1.00  0.00     0.074 A 
ATOM     66  C   UNL     1      10.528  -4.018   3.400  1.00  0.00     0.031 C 
ATOM     67  C   UNL     1      12.313  -2.794   4.812  1.00  0.00     0.031 A 
BRANCH  54  68
ATOM     68  C   UNL     1       7.665  -4.402   7.138  1.00  0.00    -0.014 A 
ATOM     69  C   UNL     1       8.199  -5.474   7.885  1.00  0.00     0.010 A 
ATOM     70  C   UNL     1       6.597  -4.697   6.268  1.00  0.00     0.010 A 
ATOM     71  C   UNL     1       7.748  -6.787   7.703  1.00  0.00     0.020 A 
ATOM     72  C   UNL     1       6.111  -5.998   6.110  1.00  0.00     0.020 A 
ATOM     73  C   UNL     1       6.717  -7.041   6.799  1.00  0.00     0.054 A 
BRANCH  73  74
ATOM     74  S   UNL     1       6.241  -8.755   6.466  1.00  0.00     0.124 S 
ATOM     75  O   UNL     1       7.453  -9.290   5.853  1.00  0.00    -0.237 OA
ATOM     76  O   UNL     1       5.932  -9.256   7.803  1.00  0.00    -0.237 OA
ATOM     77  O   UNL     1       5.093  -8.624   5.573  1.00  0.00    -0.744 OA
ENDBRANCH  73  74
ENDBRANCH  54  68
BRANCH  55  78
ATOM     78  C   UNL     1      10.401  -2.201  -0.762  1.00  0.00    -0.014 A 
ATOM     79  C   UNL     1      11.030  -3.275  -1.415  1.00  0.00     0.010 A 
ATOM     80  C   UNL     1       9.303  -1.594  -1.407  1.00  0.00     0.010 A 
ATOM     81  C   UNL     1      10.535  -3.769  -2.635  1.00  0.00     0.020 A 
ATOM     82  C   UNL     1       8.807  -2.076  -2.624  1.00  0.00     0.020 A 
ATOM     83  C   UNL     1       9.410  -3.181  -3.219  1.00  0.00     0.054 A 
BRANCH  83  84
ATOM     84  S   UNL     1       8.666  -3.945  -4.692  1.00  0.00     0.124 S 
ATOM     85  O   UNL     1       9.682  -3.708  -5.713  1.00  0.00    -0.237 OA
ATOM     86  O   UNL     1       8.501  -5.335  -4.276  1.00  0.00    -0.237 OA
ATOM     87  O   UNL     1       7.419  -3.204  -4.873  1.00  0.00    -0.744 OA
ENDBRANCH  83  84
ENDBRANCH  55  78
BRANCH  67  88
ATOM     88  C   UNL     1      13.528  -1.894   4.716  1.00  0.00    -0.014 A 
ATOM     89  C   UNL     1      13.518  -0.640   4.073  1.00  0.00     0.010 A 
ATOM     90  C   UNL     1      14.664  -2.251   5.463  1.00  0.00     0.010 A 
ATOM     91  C   UNL     1      14.622   0.223   4.161  1.00  0.00     0.020 A 
ATOM     92  C   UNL     1      15.759  -1.389   5.571  1.00  0.00     0.020 A 
ATOM     93  C   UNL     1      15.736  -0.158   4.915  1.00  0.00     0.054 A 
BRANCH  93  94
ATOM     94  S   UNL     1      17.138   0.984   5.075  1.00  0.00     0.124 S 
ATOM     95  O   UNL     1      17.676   1.022   3.718  1.00  0.00    -0.237 OA
ATOM     96  O   UNL     1      16.502   2.217   5.534  1.00  0.00    -0.237 OA
ATOM     97  O   UNL     1      18.002   0.340   6.064  1.00  0.00    -0.744 OA
ENDBRANCH  93  94
ENDBRANCH  67  88
ENDBRANCH  41  42
ENDBRANCH  33  36
ENDBRANCH  31  32
ENDBRANCH   1  31
TORSDOF 16
