REMARK SMILES CC(=O)NS(=O)(=O)c1cc(-c2ccn(C(F)F)c(=O)c2)ccc1C(=O)NCCCNC(=O)c1ccc(-c2c3nc(c(-c4ccc(S(=O)(=O)[O-])cc4)c4ccc([nH]4)c(-c4ccc(S(=O)(=O)[O-])cc4)c4nc(c(-c5ccc(S(=O)(=O)[O-])cc5)c5ccc2[nH]5)C=C4)C=C3)cc1
REMARK SMILES IDX 28 1 27 2 26 3 24 4 25 5 23 7 8 8 9 9 10 10 22 11 21 12 5 13
REMARK SMILES IDX 6 14 7 15 4 16 1 17 2 18 3 19 11 21 12 22 20 23 13 24 18 25
REMARK SMILES IDX 14 26 19 27 15 28 16 29 17 30 29 31 30 32 31 33 32 35 33 36
REMARK SMILES IDX 34 37 92 38 35 39 91 40 36 41 37 42 38 43 85 44 39 45 90 46
REMARK SMILES IDX 84 47 86 48 40 49 89 50 83 51 82 52 41 54 71 55 52 56 70 57
REMARK SMILES IDX 53 58 56 59 69 60 87 61 54 62 55 63 68 65 88 66 57 67 42 68
REMARK SMILES IDX 43 69 51 70 44 71 50 72 45 73 46 74 47 75 48 76 49 77 72 78
REMARK SMILES IDX 73 79 81 80 74 81 80 82 75 83 76 84 77 85 78 86 79 87 58 88
REMARK SMILES IDX 59 89 67 90 60 91 66 92 61 93 62 94 63 95 64 96 65 97
REMARK H PARENT 26 6 4 20 30 34 86 53 56 64
REMARK Flexibility Score: inf
ROOT
ATOM      1  C   UNL     1       2.418  -1.039  -5.375  1.00  0.00     0.042 C 
ENDROOT
BRANCH   1   2
ATOM      2  C   UNL     1       2.836   0.286  -4.714  1.00  0.00     0.118 C 
BRANCH   2   3
ATOM      3  N   UNL     1       1.712   1.186  -4.506  1.00  0.00    -0.352 N 
ATOM      4  C   UNL     1       1.286   1.884  -3.414  1.00  0.00     0.252 C 
ATOM      5  O   UNL     1       0.382   2.708  -3.534  1.00  0.00    -0.269 OA
ATOM      6  H   UNL     1       1.152   1.316  -5.305  1.00  0.00     0.163 HD
BRANCH   4   7
ATOM      7  C   UNL     1       1.905   1.756  -2.082  1.00  0.00     0.060 A 
ATOM      8  C   UNL     1       1.788   0.635  -1.257  1.00  0.00     0.101 A 
ATOM      9  C   UNL     1       2.165   0.718   0.096  1.00  0.00     0.031 A 
ATOM     10  C   UNL     1       2.583   1.938   0.646  1.00  0.00    -0.017 A 
ATOM     11  C   UNL     1       2.417   2.951  -1.544  1.00  0.00     0.016 A 
ATOM     12  C   UNL     1       2.749   3.045  -0.189  1.00  0.00     0.009 A 
BRANCH   8  13
ATOM     13  S   UNL     1       1.053  -0.866  -1.835  1.00  0.00     0.264 S 
ATOM     14  O   UNL     1       2.161  -1.700  -2.240  1.00  0.00    -0.201 OA
ATOM     15  O   UNL     1      -0.042  -0.562  -2.723  1.00  0.00    -0.201 OA
BRANCH  13  16
ATOM     16  N   UNL     1       0.420  -1.581  -0.482  1.00  0.00    -0.249 N 
ATOM     17  C   UNL     1      -1.394   0.082   0.072  1.00  0.00     0.115 C 
ATOM     18  C   UNL     1      -0.719  -1.252   0.268  1.00  0.00     0.230 C 
ATOM     19  O   UNL     1      -1.056  -2.014   1.166  1.00  0.00    -0.274 OA
ATOM     20  H   UNL     1       0.922  -2.361  -0.151  1.00  0.00     0.183 HD
ENDBRANCH  13  16
ENDBRANCH   8  13
BRANCH  10  21
ATOM     21  C   UNL     1       2.601   2.081   2.116  1.00  0.00    -0.011 A 
ATOM     22  C   UNL     1       1.471   2.674   2.812  1.00  0.00     0.027 A 
ATOM     23  C   UNL     1       3.607   1.556   2.836  1.00  0.00     0.080 A 
ATOM     24  C   UNL     1       1.391   2.633   4.146  1.00  0.00     0.095 A 
ATOM     25  C   UNL     1       3.556   1.554   4.330  1.00  0.00     0.255 A 
ATOM     26  N   UNL     1       2.398   2.062   4.901  1.00  0.00    -0.258 N 
ATOM     27  O   UNL     1       4.511   1.093   4.947  1.00  0.00    -0.269 OA
BRANCH  26  28
ATOM     28  C   UNL     1       2.278   1.991   6.338  1.00  0.00     0.451 C 
ATOM     29  F   UNL     1       2.408   0.717   6.783  1.00  0.00    -0.185 F 
ATOM     30  F   UNL     1       3.228   2.744   6.944  1.00  0.00    -0.185 F 
ENDBRANCH  26  28
ENDBRANCH  10  21
ENDBRANCH   4   7
ENDBRANCH   2   3
ENDBRANCH   1   2
BRANCH   1  31
ATOM     31  C   UNL     1       1.759  -0.853  -6.749  1.00  0.00     0.118 C 
BRANCH  31  32
ATOM     32  N   UNL     1       2.421  -1.650  -7.769  1.00  0.00    -0.352 N 
ATOM     33  C   UNL     1       2.049  -2.805  -8.405  1.00  0.00     0.251 C 
ATOM     34  H   UNL     1       3.295  -1.296  -8.053  1.00  0.00     0.163 HD
ATOM     35  O   UNL     1       2.906  -3.428  -9.031  1.00  0.00    -0.269 OA
BRANCH  33  36
ATOM     36  C   UNL     1       0.659  -3.322  -8.375  1.00  0.00     0.039 A 
ATOM     37  C   UNL     1       0.475  -4.711  -8.340  1.00  0.00     0.014 A 
ATOM     38  C   UNL     1      -0.450  -2.487  -8.546  1.00  0.00     0.014 A 
ATOM     39  C   UNL     1      -0.805  -5.260  -8.472  1.00  0.00     0.010 A 
ATOM     40  C   UNL     1      -1.734  -3.035  -8.651  1.00  0.00     0.010 A 
ATOM     41  C   UNL     1      -1.921  -4.427  -8.636  1.00  0.00    -0.014 A 
BRANCH  41  42
ATOM     42  C   UNL     1      -3.267  -5.006  -8.886  1.00  0.00     0.031 A 
ATOM     43  C   UNL     1      -3.869  -4.944 -10.264  1.00  0.00     0.074 A 
ATOM     44  C   UNL     1      -3.960  -5.587  -7.889  1.00  0.00     0.049 A 
ATOM     45  N   UNL     1      -5.066  -5.299 -10.659  1.00  0.00    -0.248 NA
ATOM     46  C   UNL     1      -3.017  -4.403 -11.335  1.00  0.00     0.031 C 
ATOM     47  C   UNL     1      -3.504  -5.726  -6.506  1.00  0.00     0.029 A 
ATOM     48  N   UNL     1      -5.204  -6.168  -7.893  1.00  0.00    -0.354 N 
ATOM     49  C   UNL     1      -5.131  -4.974 -12.008  1.00  0.00     0.074 A 
ATOM     50  C   UNL     1      -3.844  -4.418 -12.371  1.00  0.00     0.031 C 
ATOM     51  C   UNL     1      -4.451  -6.365  -5.797  1.00  0.00     0.029 A 
ATOM     52  C   UNL     1      -5.585  -6.660  -6.670  1.00  0.00     0.049 A 
ATOM     53  H   UNL     1      -5.768  -6.227  -8.698  1.00  0.00     0.167 HD
ATOM     54  C   UNL     1      -6.170  -5.108 -12.868  1.00  0.00     0.031 A 
ATOM     55  C   UNL     1      -6.722  -7.274  -6.289  1.00  0.00     0.031 A 
ATOM     56  C   UNL     1      -7.438  -5.696 -12.540  1.00  0.00     0.049 A 
ATOM     57  C   UNL     1      -7.826  -7.499  -7.281  1.00  0.00     0.074 A 
ATOM     58  C   UNL     1      -8.554  -5.854 -13.345  1.00  0.00     0.029 A 
ATOM     59  N   UNL     1      -7.753  -6.245 -11.308  1.00  0.00    -0.354 N 
ATOM     60  N   UNL     1      -7.884  -7.140  -8.540  1.00  0.00    -0.248 NA
ATOM     61  C   UNL     1      -9.020  -8.210  -6.797  1.00  0.00     0.031 C 
ATOM     62  C   UNL     1      -9.542  -6.512 -12.600  1.00  0.00     0.029 A 
ATOM     63  C   UNL     1      -9.037  -6.761 -11.334  1.00  0.00     0.049 A 
ATOM     64  H   UNL     1      -7.151  -6.266 -10.529  1.00  0.00     0.167 HD
ATOM     65  C   UNL     1      -9.121  -7.576  -8.998  1.00  0.00     0.074 A 
ATOM     66  C   UNL     1      -9.776  -8.236  -7.888  1.00  0.00     0.031 C 
ATOM     67  C   UNL     1      -9.669  -7.429 -10.229  1.00  0.00     0.031 A 
BRANCH  54  68
ATOM     68  C   UNL     1      -5.968  -4.563 -14.251  1.00  0.00    -0.014 A 
ATOM     69  C   UNL     1      -5.358  -5.336 -15.252  1.00  0.00     0.010 A 
ATOM     70  C   UNL     1      -6.373  -3.247 -14.541  1.00  0.00     0.010 A 
ATOM     71  C   UNL     1      -5.119  -4.787 -16.515  1.00  0.00     0.020 A 
ATOM     72  C   UNL     1      -6.140  -2.698 -15.803  1.00  0.00     0.020 A 
ATOM     73  C   UNL     1      -5.494  -3.464 -16.776  1.00  0.00     0.054 A 
BRANCH  73  74
ATOM     74  S   UNL     1      -5.169  -2.734 -18.405  1.00  0.00     0.124 S 
ATOM     75  O   UNL     1      -3.881  -2.079 -18.187  1.00  0.00    -0.237 OA
ATOM     76  O   UNL     1      -5.139  -3.894 -19.293  1.00  0.00    -0.237 OA
ATOM     77  O   UNL     1      -6.303  -1.835 -18.602  1.00  0.00    -0.744 OA
ENDBRANCH  73  74
ENDBRANCH  54  68
BRANCH  55  78
ATOM     78  C   UNL     1      -6.874  -7.723  -4.884  1.00  0.00    -0.014 A 
ATOM     79  C   UNL     1      -6.554  -9.044  -4.529  1.00  0.00     0.010 A 
ATOM     80  C   UNL     1      -7.316  -6.827  -3.897  1.00  0.00     0.010 A 
ATOM     81  C   UNL     1      -6.677  -9.468  -3.203  1.00  0.00     0.020 A 
ATOM     82  C   UNL     1      -7.433  -7.246  -2.570  1.00  0.00     0.020 A 
ATOM     83  C   UNL     1      -7.119  -8.566  -2.232  1.00  0.00     0.054 A 
BRANCH  83  84
ATOM     84  S   UNL     1      -7.216  -9.091  -0.497  1.00  0.00     0.124 S 
ATOM     85  O   UNL     1      -8.610  -9.507  -0.385  1.00  0.00    -0.237 OA
ATOM     86  O   UNL     1      -6.229 -10.165  -0.418  1.00  0.00    -0.237 OA
ATOM     87  O   UNL     1      -6.859  -7.875   0.231  1.00  0.00    -0.744 OA
ENDBRANCH  83  84
ENDBRANCH  55  78
BRANCH  67  88
ATOM     88  C   UNL     1     -11.038  -8.003 -10.440  1.00  0.00    -0.014 A 
ATOM     89  C   UNL     1     -12.181  -7.245 -10.137  1.00  0.00     0.010 A 
ATOM     90  C   UNL     1     -11.185  -9.293 -10.977  1.00  0.00     0.010 A 
ATOM     91  C   UNL     1     -13.456  -7.776 -10.353  1.00  0.00     0.020 A 
ATOM     92  C   UNL     1     -12.458  -9.825 -11.196  1.00  0.00     0.020 A 
ATOM     93  C   UNL     1     -13.586  -9.067 -10.873  1.00  0.00     0.054 A 
BRANCH  93  94
ATOM     94  S   UNL     1     -15.241  -9.743 -11.191  1.00  0.00     0.124 S 
ATOM     95  O   UNL     1     -15.542 -10.414  -9.929  1.00  0.00    -0.237 OA
ATOM     96  O   UNL     1     -16.039  -8.553 -11.475  1.00  0.00    -0.237 OA
ATOM     97  O   UNL     1     -15.027 -10.627 -12.335  1.00  0.00    -0.744 OA
ENDBRANCH  93  94
ENDBRANCH  67  88
ENDBRANCH  41  42
ENDBRANCH  33  36
ENDBRANCH  31  32
ENDBRANCH   1  31
TORSDOF 17
