REMARK SMILES O=C(NCCCNC(=O)[C@@H]1[C@H](C(=O)NCc2ccncc2)[C@H]2C=C[C@@H]1O2)c1ccc(-c2c3nc(c(-c4ccc(S(=O)(=O)[O-])cc4)c4ccc([nH]4)c(-c4ccc(S(=O)(=O)[O-])cc4)c4nc(c(-c5ccc(S(=O)(=O)[O-])cc5)c5ccc2[nH]5)C=C4)C=C3)cc1
REMARK SMILES IDX 5 1 4 2 3 3 1 4 2 5 27 7 28 8 86 9 29 10 85 11 30 12 31 13
REMARK SMILES IDX 32 14 79 15 33 16 84 17 78 18 80 19 34 20 83 21 77 22 76 23
REMARK SMILES IDX 35 25 65 26 46 27 64 28 47 29 50 30 63 31 81 32 48 33 49 34
REMARK SMILES IDX 62 36 82 37 51 38 36 39 37 40 45 41 38 42 44 43 39 44 40 45
REMARK SMILES IDX 41 46 42 47 43 48 66 49 67 50 75 51 68 52 74 53 69 54 70 55
REMARK SMILES IDX 71 56 72 57 73 58 52 59 53 60 61 61 54 62 60 63 55 64 56 65
REMARK SMILES IDX 57 66 58 67 59 68 6 69 7 70 8 71 9 73 10 74 11 75 25 76
REMARK SMILES IDX 22 77 24 78 26 79 23 80 12 81 13 82 14 83 15 85 16 86 17 87
REMARK SMILES IDX 21 88 18 89 20 90 19 91
REMARK H PARENT 3 6 80 24 50 35 7 72 14 84
REMARK Flexibility Score: inf
ROOT
ATOM      1  C   UNL     1       5.253   0.550   2.316  1.00  0.00     0.042 C 
ENDROOT
BRANCH   1   2
ATOM      2  C   UNL     1       4.675   0.038   1.008  1.00  0.00     0.118 C 
BRANCH   2   3
ATOM      3  N   UNL     1       3.221  -0.041   1.011  1.00  0.00    -0.352 N 
ATOM      4  O   UNL     1       1.128   0.076   0.199  1.00  0.00    -0.269 OA
ATOM      5  C   UNL     1       2.322   0.239   0.009  1.00  0.00     0.251 C 
ATOM      6  H   UNL     1       2.821  -0.340   1.859  1.00  0.00     0.163 HD
BRANCH   5   7
ATOM      7  C   UNL     1       2.823   0.811  -1.256  1.00  0.00     0.039 A 
ATOM      8  C   UNL     1       3.890   0.223  -1.938  1.00  0.00     0.014 A 
ATOM      9  C   UNL     1       2.267   2.015  -1.693  1.00  0.00     0.014 A 
ATOM     10  C   UNL     1       4.513   0.926  -2.963  1.00  0.00     0.010 A 
ATOM     11  C   UNL     1       2.850   2.684  -2.766  1.00  0.00     0.010 A 
ATOM     12  C   UNL     1       4.006   2.169  -3.372  1.00  0.00    -0.014 A 
BRANCH  12  13
ATOM     13  C   UNL     1       4.678   2.936  -4.444  1.00  0.00     0.031 A 
ATOM     14  C   UNL     1       5.339   4.249  -4.139  1.00  0.00     0.074 A 
ATOM     15  C   UNL     1       4.647   2.457  -5.700  1.00  0.00     0.049 A 
ATOM     16  N   UNL     1       5.864   5.117  -4.965  1.00  0.00    -0.248 NA
ATOM     17  C   UNL     1       5.410   4.645  -2.723  1.00  0.00     0.031 C 
ATOM     18  C   UNL     1       4.033   1.190  -6.103  1.00  0.00     0.029 A 
ATOM     19  N   UNL     1       5.123   2.989  -6.869  1.00  0.00    -0.354 N 
ATOM     20  C   UNL     1       6.291   6.179  -4.176  1.00  0.00     0.074 A 
ATOM     21  C   UNL     1       5.963   5.848  -2.806  1.00  0.00     0.031 C 
ATOM     22  C   UNL     1       4.165   1.045  -7.429  1.00  0.00     0.029 A 
ATOM     23  C   UNL     1       4.820   2.230  -7.971  1.00  0.00     0.049 A 
ATOM     24  H   UNL     1       5.631   3.831  -6.913  1.00  0.00     0.167 HD
ATOM     25  C   UNL     1       6.896   7.328  -4.565  1.00  0.00     0.031 A 
ATOM     26  C   UNL     1       5.008   2.477  -9.280  1.00  0.00     0.031 A 
ATOM     27  C   UNL     1       7.221   7.640  -5.931  1.00  0.00     0.049 A 
ATOM     28  C   UNL     1       5.670   3.755  -9.692  1.00  0.00     0.074 A 
ATOM     29  C   UNL     1       7.868   8.757  -6.431  1.00  0.00     0.029 A 
ATOM     30  N   UNL     1       6.917   6.833  -7.018  1.00  0.00    -0.354 N 
ATOM     31  N   UNL     1       6.090   4.739  -8.933  1.00  0.00    -0.248 NA
ATOM     32  C   UNL     1       5.885   3.959 -11.129  1.00  0.00     0.031 C 
ATOM     33  C   UNL     1       7.924   8.640  -7.825  1.00  0.00     0.029 A 
ATOM     34  C   UNL     1       7.345   7.434  -8.189  1.00  0.00     0.049 A 
ATOM     35  H   UNL     1       6.463   5.961  -6.964  1.00  0.00     0.167 HD
ATOM     36  C   UNL     1       6.630   5.680  -9.800  1.00  0.00     0.074 A 
ATOM     37  C   UNL     1       6.490   5.141 -11.140  1.00  0.00     0.031 C 
ATOM     38  C   UNL     1       7.190   6.879  -9.511  1.00  0.00     0.031 A 
BRANCH  25  39
ATOM     39  C   UNL     1       7.199   8.343  -3.497  1.00  0.00    -0.014 A 
ATOM     40  C   UNL     1       8.252   8.152  -2.584  1.00  0.00     0.010 A 
ATOM     41  C   UNL     1       6.416   9.508  -3.404  1.00  0.00     0.010 A 
ATOM     42  C   UNL     1       8.480   9.080  -1.564  1.00  0.00     0.020 A 
ATOM     43  C   UNL     1       6.654  10.448  -2.398  1.00  0.00     0.020 A 
ATOM     44  C   UNL     1       7.669  10.215  -1.468  1.00  0.00     0.054 A 
BRANCH  44  45
ATOM     45  S   UNL     1       7.963  11.395  -0.121  1.00  0.00     0.124 S 
ATOM     46  O   UNL     1       7.310  10.731   1.005  1.00  0.00    -0.237 OA
ATOM     47  O   UNL     1       9.421  11.455  -0.052  1.00  0.00    -0.237 OA
ATOM     48  O   UNL     1       7.314  12.618  -0.586  1.00  0.00    -0.744 OA
ENDBRANCH  44  45
ENDBRANCH  25  39
BRANCH  26  49
ATOM     49  C   UNL     1       4.524   1.478 -10.265  1.00  0.00    -0.014 A 
ATOM     50  C   UNL     1       5.418   0.571 -10.857  1.00  0.00     0.010 A 
ATOM     51  C   UNL     1       3.143   1.343 -10.506  1.00  0.00     0.010 A 
ATOM     52  C   UNL     1       4.937  -0.471 -11.654  1.00  0.00     0.020 A 
ATOM     53  C   UNL     1       2.659   0.291 -11.286  1.00  0.00     0.020 A 
ATOM     54  C   UNL     1       3.560  -0.612 -11.854  1.00  0.00     0.054 A 
BRANCH  54  55
ATOM     55  S   UNL     1       2.946  -2.050 -12.775  1.00  0.00     0.124 S 
ATOM     56  O   UNL     1       3.154  -1.634 -14.158  1.00  0.00    -0.237 OA
ATOM     57  O   UNL     1       3.813  -3.127 -12.301  1.00  0.00    -0.237 OA
ATOM     58  O   UNL     1       1.552  -2.155 -12.352  1.00  0.00    -0.744 OA
ENDBRANCH  54  55
ENDBRANCH  26  49
BRANCH  38  59
ATOM     59  C   UNL     1       7.712   7.687 -10.663  1.00  0.00    -0.014 A 
ATOM     60  C   UNL     1       6.840   8.444 -11.463  1.00  0.00     0.010 A 
ATOM     61  C   UNL     1       9.097   7.748 -10.897  1.00  0.00     0.010 A 
ATOM     62  C   UNL     1       7.347   9.245 -12.489  1.00  0.00     0.020 A 
ATOM     63  C   UNL     1       9.607   8.560 -11.912  1.00  0.00     0.020 A 
ATOM     64  C   UNL     1       8.727   9.299 -12.707  1.00  0.00     0.054 A 
BRANCH  64  65
ATOM     65  S   UNL     1       9.371  10.400 -13.997  1.00  0.00     0.124 S 
ATOM     66  O   UNL     1       9.125   9.623 -15.208  1.00  0.00    -0.237 OA
ATOM     67  O   UNL     1       8.550  11.598 -13.840  1.00  0.00    -0.237 OA
ATOM     68  O   UNL     1      10.777  10.566 -13.636  1.00  0.00    -0.744 OA
ENDBRANCH  64  65
ENDBRANCH  38  59
ENDBRANCH  12  13
ENDBRANCH   5   7
ENDBRANCH   2   3
ENDBRANCH   1   2
BRANCH   1  69
ATOM     69  C   UNL     1       4.913  -0.296   3.534  1.00  0.00     0.117 C 
BRANCH  69  70
ATOM     70  N   UNL     1       5.648  -1.554   3.601  1.00  0.00    -0.356 N 
ATOM     71  C   UNL     1       6.114  -2.318   4.623  1.00  0.00     0.227 C 
ATOM     72  H   UNL     1       5.849  -1.931   2.714  1.00  0.00     0.163 HD
ATOM     73  O   UNL     1       6.511  -3.450   4.315  1.00  0.00    -0.275 OA
BRANCH  71  74
ATOM     74  C   UNL     1       6.210  -1.910   6.082  1.00  0.00     0.127 C 
ATOM     75  C   UNL     1       5.256  -2.657   7.051  1.00  0.00     0.127 C 
ATOM     76  C   UNL     1       5.937  -0.462   6.471  1.00  0.00     0.155 C 
ATOM     77  C   UNL     1       4.414  -1.503   7.624  1.00  0.00     0.155 C 
ATOM     78  C   UNL     1       6.230  -0.174   7.919  1.00  0.00     0.004 C 
ATOM     79  O   UNL     1       4.484  -0.524   6.550  1.00  0.00    -0.365 OA
ATOM     80  C   UNL     1       5.263  -0.772   8.627  1.00  0.00     0.004 C 
BRANCH  75  81
ATOM     81  C   UNL     1       4.451  -3.903   6.730  1.00  0.00     0.227 C 
ATOM     82  O   UNL     1       4.697  -4.938   7.367  1.00  0.00    -0.275 OA
ATOM     83  N   UNL     1       3.408  -3.997   5.884  1.00  0.00    -0.352 N 
ATOM     84  H   UNL     1       2.897  -4.832   5.988  1.00  0.00     0.163 HD
BRANCH  83  85
ATOM     85  C   UNL     1       2.882  -3.132   4.857  1.00  0.00     0.151 C 
BRANCH  85  86
ATOM     86  C   UNL     1       3.037  -3.718   3.469  1.00  0.00    -0.026 A 
ATOM     87  C   UNL     1       3.835  -4.838   3.197  1.00  0.00     0.025 A 
ATOM     88  C   UNL     1       2.387  -3.115   2.387  1.00  0.00     0.025 A 
ATOM     89  C   UNL     1       3.956  -5.285   1.890  1.00  0.00     0.111 A 
ATOM     90  C   UNL     1       2.581  -3.624   1.109  1.00  0.00     0.111 A 
ATOM     91  N   UNL     1       3.354  -4.696   0.839  1.00  0.00    -0.265 NA
ENDBRANCH  85  86
ENDBRANCH  83  85
ENDBRANCH  75  81
ENDBRANCH  71  74
ENDBRANCH  69  70
ENDBRANCH   1  69
TORSDOF 16
