REMARK SMILES NC(=O)c1ccsc1NS(=O)(=O)c1ccc(C(=O)NCCCNC(=O)c2ccc(-c3c4nc(c(-c5ccc(S(=O)(=O)[O-])cc5)c5ccc([nH]5)c(-c5ccc(S(=O)(=O)[O-])cc5)c5nc(c(-c6ccc(S(=O)(=O)[O-])cc6)c6ccc3[nH]6)C=C5)C=C4)cc2)cc1
REMARK SMILES IDX 20 1 19 2 17 3 18 4 16 6 13 7 14 8 87 9 15 10 86 11 10 12
REMARK SMILES IDX 11 13 12 14 9 15 8 17 4 18 5 19 6 20 7 21 2 22 1 23 3 26
REMARK SMILES IDX 21 27 22 28 23 29 24 30 25 32 26 33 27 34 85 35 28 36 84 37
REMARK SMILES IDX 29 38 30 39 31 40 78 41 32 42 83 43 77 44 79 45 33 46 82 47
REMARK SMILES IDX 76 48 75 49 34 51 64 52 45 53 63 54 46 55 49 56 62 57 80 58
REMARK SMILES IDX 47 59 48 60 61 62 81 63 50 64 35 65 36 66 44 67 37 68 43 69
REMARK SMILES IDX 38 70 39 71 40 72 41 73 42 74 65 75 66 76 74 77 67 78 73 79
REMARK SMILES IDX 68 80 69 81 70 82 71 83 72 84 51 85 52 86 60 87 53 88 59 89
REMARK SMILES IDX 54 90 55 91 56 92 57 93 58 94
REMARK H PARENT 19 5 9 16 1 24 1 25 23 31 79 50 49 61
REMARK Flexibility Score: inf
ROOT
ATOM      1  C   UNL     1       5.429  -7.343   3.359  1.00  0.00     0.118 C 
ENDROOT
BRANCH   1   2
ATOM      2  N   UNL     1       4.705  -8.593   3.276  1.00  0.00    -0.352 N 
ATOM      3  C   UNL     1       3.590  -9.033   2.618  1.00  0.00     0.251 C 
ATOM      4  O   UNL     1       3.299 -10.218   2.802  1.00  0.00    -0.269 OA
ATOM      5  H   UNL     1       5.115  -9.299   3.826  1.00  0.00     0.163 HD
BRANCH   3   6
ATOM      6  C   UNL     1       2.692  -8.206   1.752  1.00  0.00     0.039 A 
ATOM      7  C   UNL     1       0.709  -6.746   0.374  1.00  0.00     0.087 A 
ATOM      8  C   UNL     1       0.454  -8.056   0.781  1.00  0.00     0.023 A 
ATOM      9  C   UNL     1       1.990  -6.223   0.506  1.00  0.00     0.023 A 
ATOM     10  C   UNL     1       1.445  -8.781   1.447  1.00  0.00     0.015 A 
ATOM     11  C   UNL     1       2.959  -6.936   1.230  1.00  0.00     0.015 A 
BRANCH   7  12
ATOM     12  S   UNL     1      -0.685  -5.763  -0.130  1.00  0.00     0.262 S 
ATOM     13  O   UNL     1      -1.807  -6.160   0.695  1.00  0.00    -0.201 OA
ATOM     14  O   UNL     1      -0.743  -5.901  -1.572  1.00  0.00    -0.201 OA
BRANCH  12  15
ATOM     15  N   UNL     1      -0.392  -4.149   0.151  1.00  0.00    -0.270 N 
ATOM     16  H   UNL     1      -0.765  -3.522  -0.510  1.00  0.00     0.181 HD
BRANCH  15  17
ATOM     17  C   UNL     1       0.331  -3.563   1.228  1.00  0.00     0.115 A 
ATOM     18  C   UNL     1       0.816  -2.260   1.136  1.00  0.00     0.074 A 
ATOM     19  C   UNL     1       1.800  -2.030   2.163  1.00  0.00     0.028 A 
ATOM     20  C   UNL     1       1.899  -3.080   3.049  1.00  0.00     0.068 A 
ATOM     21  S   UNL     1       0.726  -4.278   2.724  1.00  0.00    -0.125 S 
BRANCH  18  22
ATOM     22  C   UNL     1       0.401  -1.333   0.082  1.00  0.00     0.251 C 
ATOM     23  N   UNL     1       1.027  -0.124   0.031  1.00  0.00    -0.366 N 
ATOM     24  H   UNL     1       0.779   0.530  -0.661  1.00  0.00     0.159 HD
ATOM     25  H   UNL     1       1.727   0.096   0.688  1.00  0.00     0.159 HD
ATOM     26  O   UNL     1      -0.467  -1.604  -0.747  1.00  0.00    -0.269 OA
ENDBRANCH  18  22
ENDBRANCH  15  17
ENDBRANCH  12  15
ENDBRANCH   7  12
ENDBRANCH   3   6
ENDBRANCH   1   2
BRANCH   1  27
ATOM     27  C   UNL     1       5.056  -6.521   4.590  1.00  0.00     0.042 C 
BRANCH  27  28
ATOM     28  C   UNL     1       5.947  -6.835   5.791  1.00  0.00     0.118 C 
BRANCH  28  29
ATOM     29  N   UNL     1       7.341  -6.495   5.523  1.00  0.00    -0.352 N 
ATOM     30  C   UNL     1       8.235  -5.742   6.234  1.00  0.00     0.251 C 
ATOM     31  H   UNL     1       7.699  -6.872   4.687  1.00  0.00     0.163 HD
ATOM     32  O   UNL     1       9.278  -5.391   5.686  1.00  0.00    -0.269 OA
BRANCH  30  33
ATOM     33  C   UNL     1       7.964  -5.354   7.631  1.00  0.00     0.039 A 
ATOM     34  C   UNL     1       8.423  -4.111   8.076  1.00  0.00     0.014 A 
ATOM     35  C   UNL     1       7.328  -6.225   8.520  1.00  0.00     0.014 A 
ATOM     36  C   UNL     1       8.217  -3.730   9.401  1.00  0.00     0.010 A 
ATOM     37  C   UNL     1       7.053  -5.812   9.820  1.00  0.00     0.010 A 
ATOM     38  C   UNL     1       7.510  -4.569  10.278  1.00  0.00    -0.014 A 
BRANCH  38  39
ATOM     39  C   UNL     1       7.254  -4.155  11.678  1.00  0.00     0.031 A 
ATOM     40  C   UNL     1       7.862  -4.921  12.821  1.00  0.00     0.074 A 
ATOM     41  C   UNL     1       6.449  -3.102  11.914  1.00  0.00     0.049 A 
ATOM     42  N   UNL     1       7.759  -4.702  14.106  1.00  0.00    -0.248 NA
ATOM     43  C   UNL     1       8.675  -6.100  12.477  1.00  0.00     0.031 C 
ATOM     44  C   UNL     1       5.774  -2.305  10.886  1.00  0.00     0.029 A 
ATOM     45  N   UNL     1       6.069  -2.513  13.092  1.00  0.00    -0.354 N 
ATOM     46  C   UNL     1       8.484  -5.715  14.723  1.00  0.00     0.074 A 
ATOM     47  C   UNL     1       8.970  -6.584  13.675  1.00  0.00     0.031 C 
ATOM     48  C   UNL     1       5.102  -1.304  11.476  1.00  0.00     0.029 A 
ATOM     49  C   UNL     1       5.262  -1.413  12.922  1.00  0.00     0.049 A 
ATOM     50  H   UNL     1       6.346  -2.846  13.976  1.00  0.00     0.167 HD
ATOM     51  C   UNL     1       8.743  -5.892  16.041  1.00  0.00     0.031 A 
ATOM     52  C   UNL     1       4.718  -0.580  13.829  1.00  0.00     0.031 A 
ATOM     53  C   UNL     1       8.250  -5.024  17.078  1.00  0.00     0.049 A 
ATOM     54  C   UNL     1       5.002  -0.809  15.287  1.00  0.00     0.074 A 
ATOM     55  C   UNL     1       8.480  -5.092  18.441  1.00  0.00     0.029 A 
ATOM     56  N   UNL     1       7.424  -3.929  16.867  1.00  0.00    -0.354 N 
ATOM     57  N   UNL     1       5.736  -1.741  15.848  1.00  0.00    -0.248 NA
ATOM     58  C   UNL     1       4.396   0.136  16.233  1.00  0.00     0.031 C 
ATOM     59  C   UNL     1       7.750  -4.070  19.058  1.00  0.00     0.029 A 
ATOM     60  C   UNL     1       7.119  -3.325  18.075  1.00  0.00     0.049 A 
ATOM     61  H   UNL     1       7.103  -3.626  15.987  1.00  0.00     0.167 HD
ATOM     62  C   UNL     1       5.708  -1.473  17.212  1.00  0.00     0.074 A 
ATOM     63  C   UNL     1       4.896  -0.284  17.386  1.00  0.00     0.031 C 
ATOM     64  C   UNL     1       6.303  -2.146  18.229  1.00  0.00     0.031 A 
BRANCH  51  65
ATOM     65  C   UNL     1       9.592  -7.077  16.427  1.00  0.00    -0.014 A 
ATOM     66  C   UNL     1      10.954  -7.140  16.079  1.00  0.00     0.010 A 
ATOM     67  C   UNL     1       9.027  -8.136  17.162  1.00  0.00     0.010 A 
ATOM     68  C   UNL     1      11.721  -8.261  16.410  1.00  0.00     0.020 A 
ATOM     69  C   UNL     1       9.800  -9.245  17.523  1.00  0.00     0.020 A 
ATOM     70  C   UNL     1      11.136  -9.309  17.125  1.00  0.00     0.054 A 
BRANCH  70  71
ATOM     71  S   UNL     1      12.157 -10.750  17.543  1.00  0.00     0.124 S 
ATOM     72  O   UNL     1      12.302 -11.401  16.243  1.00  0.00    -0.237 OA
ATOM     73  O   UNL     1      13.370 -10.138  18.077  1.00  0.00    -0.237 OA
ATOM     74  O   UNL     1      11.348 -11.477  18.517  1.00  0.00    -0.744 OA
ENDBRANCH  70  71
ENDBRANCH  51  65
BRANCH  52  75
ATOM     75  C   UNL     1       3.885   0.568  13.377  1.00  0.00    -0.014 A 
ATOM     76  C   UNL     1       4.362   1.884  13.503  1.00  0.00     0.010 A 
ATOM     77  C   UNL     1       2.622   0.350  12.797  1.00  0.00     0.010 A 
ATOM     78  C   UNL     1       3.584   2.964  13.074  1.00  0.00     0.020 A 
ATOM     79  C   UNL     1       1.855   1.425  12.340  1.00  0.00     0.020 A 
ATOM     80  C   UNL     1       2.337   2.726  12.491  1.00  0.00     0.054 A 
BRANCH  80  81
ATOM     81  S   UNL     1       1.371   4.139  11.889  1.00  0.00     0.124 S 
ATOM     82  O   UNL     1       0.925   4.755  13.134  1.00  0.00    -0.237 OA
ATOM     83  O   UNL     1       2.363   4.895  11.127  1.00  0.00    -0.237 OA
ATOM     84  O   UNL     1       0.322   3.517  11.084  1.00  0.00    -0.744 OA
ENDBRANCH  80  81
ENDBRANCH  52  75
BRANCH  64  85
ATOM     85  C   UNL     1       6.131  -1.585  19.616  1.00  0.00    -0.014 A 
ATOM     86  C   UNL     1       4.892  -1.631  20.279  1.00  0.00     0.010 A 
ATOM     87  C   UNL     1       7.241  -1.024  20.276  1.00  0.00     0.010 A 
ATOM     88  C   UNL     1       4.755  -1.083  21.557  1.00  0.00     0.020 A 
ATOM     89  C   UNL     1       7.116  -0.505  21.566  1.00  0.00     0.020 A 
ATOM     90  C   UNL     1       5.867  -0.519  22.191  1.00  0.00     0.054 A 
BRANCH  90  91
ATOM     91  S   UNL     1       5.668   0.169  23.856  1.00  0.00     0.124 S 
ATOM     92  O   UNL     1       4.936   1.404  23.588  1.00  0.00    -0.237 OA
ATOM     93  O   UNL     1       4.912  -0.873  24.546  1.00  0.00    -0.237 OA
ATOM     94  O   UNL     1       7.041   0.347  24.324  1.00  0.00    -0.744 OA
ENDBRANCH  90  91
ENDBRANCH  64  85
ENDBRANCH  38  39
ENDBRANCH  30  33
ENDBRANCH  28  29
ENDBRANCH  27  28
ENDBRANCH   1  27
TORSDOF 17
