REMARK SMILES C=CCN(CC(=O)NCCCNC(=O)c1ccc(-c2c3nc(c(-c4ccc(S(=O)(=O)[O-])cc4)c4ccc([nH]4)c(-c4ccc(S(=O)(=O)[O-])cc4)c4nc(c(-c5ccc(S(=O)(=O)[O-])cc5)c5ccc2[nH]5)C=C4)C=C3)cc1)S(=O)(=O)Cc1cc(C)on1
REMARK SMILES IDX 9 1 8 2 6 3 7 4 5 6 4 7 3 8 2 9 1 10 75 11 76 12 77 13 78 14
REMARK SMILES IDX 79 15 80 16 84 17 81 18 83 19 82 20 10 21 11 22 12 23 13 24
REMARK SMILES IDX 14 26 15 27 16 28 74 29 17 30 73 31 18 32 19 33 20 34 67 35
REMARK SMILES IDX 21 36 72 37 66 38 68 39 22 40 71 41 65 42 64 43 23 45 53 46
REMARK SMILES IDX 34 47 52 48 35 49 38 50 51 51 69 52 36 53 37 54 50 56 70 57
REMARK SMILES IDX 39 58 24 59 25 60 33 61 26 62 32 63 27 64 28 65 29 66 30 67
REMARK SMILES IDX 31 68 54 69 55 70 63 71 56 72 62 73 57 74 58 75 59 76 60 77
REMARK SMILES IDX 61 78 40 79 41 80 49 81 42 82 48 83 43 84 44 85 45 86 46 87
REMARK SMILES IDX 47 88
REMARK H PARENT 8 5 12 25 68 44 38 55
REMARK Flexibility Score: inf
ROOT
ATOM      1  C   UNL     1      -3.147   0.696   1.027  1.00  0.00     0.117 C 
ENDROOT
BRANCH   1   2
ATOM      2  N   UNL     1      -3.763   0.183  -0.184  1.00  0.00    -0.355 N 
ATOM      3  C   UNL     1      -3.716  -1.061  -0.747  1.00  0.00     0.235 C 
ATOM      4  O   UNL     1      -4.409  -1.271  -1.748  1.00  0.00    -0.274 OA
ATOM      5  H   UNL     1      -4.305   0.839  -0.680  1.00  0.00     0.163 HD
BRANCH   3   6
ATOM      6  C   UNL     1      -2.895  -2.187  -0.132  1.00  0.00     0.202 C 
BRANCH   6   7
ATOM      7  N   UNL     1      -1.427  -2.265  -0.419  1.00  0.00    -0.188 NA
BRANCH   7   8
ATOM      8  C   UNL     1      -0.616  -1.747   0.698  1.00  0.00     0.129 C 
BRANCH   8   9
ATOM      9  C   UNL     1       0.860  -1.734   0.516  1.00  0.00    -0.018 C 
ATOM     10  C   UNL     1       1.565  -0.643   0.181  1.00  0.00     0.005 C 
ENDBRANCH   8   9
ENDBRANCH   7   8
BRANCH   7  11
ATOM     11  S   UNL     1      -0.958  -2.134  -2.051  1.00  0.00     0.220 S 
ATOM     12  O   UNL     1      -1.597  -0.961  -2.603  1.00  0.00    -0.212 OA
ATOM     13  O   UNL     1       0.478  -2.283  -2.175  1.00  0.00    -0.212 OA
BRANCH  11  14
ATOM     14  C   UNL     1      -1.667  -3.620  -2.786  1.00  0.00     0.214 C 
BRANCH  14  15
ATOM     15  C   UNL     1      -1.263  -4.886  -2.101  1.00  0.00     0.100 A 
ATOM     16  C   UNL     1      -0.242  -5.128  -1.147  1.00  0.00     0.073 A 
ATOM     17  N   UNL     1      -1.925  -6.024  -2.372  1.00  0.00    -0.084 NA
ATOM     18  C   UNL     1      -0.367  -6.451  -0.819  1.00  0.00     0.133 A 
ATOM     19  O   UNL     1      -1.358  -7.001  -1.568  1.00  0.00    -0.361 OA
ATOM     20  C   UNL     1       0.322  -7.327   0.144  1.00  0.00     0.091 C 
ENDBRANCH  14  15
ENDBRANCH  11  14
ENDBRANCH   7  11
ENDBRANCH   6   7
ENDBRANCH   3   6
ENDBRANCH   1   2
BRANCH   1  21
ATOM     21  C   UNL     1      -1.878   1.494   0.734  1.00  0.00     0.042 C 
BRANCH  21  22
ATOM     22  C   UNL     1      -2.116   2.921   0.271  1.00  0.00     0.118 C 
BRANCH  22  23
ATOM     23  N   UNL     1      -2.547   3.793   1.353  1.00  0.00    -0.352 N 
ATOM     24  C   UNL     1      -1.902   4.832   1.982  1.00  0.00     0.251 C 
ATOM     25  H   UNL     1      -3.453   3.608   1.692  1.00  0.00     0.163 HD
ATOM     26  O   UNL     1      -2.397   5.295   3.008  1.00  0.00    -0.269 OA
BRANCH  24  27
ATOM     27  C   UNL     1      -0.624   5.385   1.466  1.00  0.00     0.039 A 
ATOM     28  C   UNL     1       0.328   5.845   2.383  1.00  0.00     0.014 A 
ATOM     29  C   UNL     1      -0.367   5.504   0.099  1.00  0.00     0.014 A 
ATOM     30  C   UNL     1       1.547   6.364   1.930  1.00  0.00     0.010 A 
ATOM     31  C   UNL     1       0.887   5.920  -0.348  1.00  0.00     0.010 A 
ATOM     32  C   UNL     1       1.853   6.374   0.560  1.00  0.00    -0.014 A 
BRANCH  32  33
ATOM     33  C   UNL     1       3.153   6.893   0.055  1.00  0.00     0.031 A 
ATOM     34  C   UNL     1       3.181   8.082  -0.874  1.00  0.00     0.074 A 
ATOM     35  C   UNL     1       4.304   6.278   0.396  1.00  0.00     0.049 A 
ATOM     36  N   UNL     1       4.204   8.640  -1.470  1.00  0.00    -0.248 NA
ATOM     37  C   UNL     1       1.889   8.714  -1.191  1.00  0.00     0.031 C 
ATOM     38  C   UNL     1       4.416   5.107   1.270  1.00  0.00     0.029 A 
ATOM     39  N   UNL     1       5.604   6.553   0.049  1.00  0.00    -0.354 N 
ATOM     40  C   UNL     1       3.679   9.679  -2.231  1.00  0.00     0.074 A 
ATOM     41  C   UNL     1       2.243   9.634  -2.076  1.00  0.00     0.031 C 
ATOM     42  C   UNL     1       5.712   4.788   1.417  1.00  0.00     0.029 A 
ATOM     43  C   UNL     1       6.522   5.694   0.610  1.00  0.00     0.049 A 
ATOM     44  H   UNL     1       5.857   7.295  -0.547  1.00  0.00     0.167 HD
ATOM     45  C   UNL     1       4.332  10.609  -2.969  1.00  0.00     0.031 A 
ATOM     46  C   UNL     1       7.863   5.636   0.481  1.00  0.00     0.031 A 
ATOM     47  C   UNL     1       5.762  10.659  -3.119  1.00  0.00     0.049 A 
ATOM     48  C   UNL     1       8.558   6.646  -0.395  1.00  0.00     0.074 A 
ATOM     49  C   UNL     1       6.520  11.574  -3.828  1.00  0.00     0.029 A 
ATOM     50  N   UNL     1       6.650   9.762  -2.546  1.00  0.00    -0.354 N 
ATOM     51  N   UNL     1       8.045   7.647  -1.069  1.00  0.00    -0.248 NA
ATOM     52  C   UNL     1      10.018   6.524  -0.517  1.00  0.00     0.031 C 
ATOM     53  C   UNL     1       7.863  11.200  -3.728  1.00  0.00     0.029 A 
ATOM     54  C   UNL     1       7.947  10.092  -2.900  1.00  0.00     0.049 A 
ATOM     55  H   UNL     1       6.396   9.002  -1.974  1.00  0.00     0.167 HD
ATOM     56  C   UNL     1       9.123   8.297  -1.661  1.00  0.00     0.074 A 
ATOM     57  C   UNL     1      10.316   7.586  -1.252  1.00  0.00     0.031 C 
ATOM     58  C   UNL     1       9.127   9.386  -2.468  1.00  0.00     0.031 A 
BRANCH  45  59
ATOM     59  C   UNL     1       3.505  11.663  -3.660  1.00  0.00    -0.014 A 
ATOM     60  C   UNL     1       2.838  12.656  -2.918  1.00  0.00     0.010 A 
ATOM     61  C   UNL     1       3.441  11.702  -5.065  1.00  0.00     0.010 A 
ATOM     62  C   UNL     1       2.098  13.648  -3.566  1.00  0.00     0.020 A 
ATOM     63  C   UNL     1       2.728  12.713  -5.718  1.00  0.00     0.020 A 
ATOM     64  C   UNL     1       2.051  13.672  -4.963  1.00  0.00     0.054 A 
BRANCH  64  65
ATOM     65  S   UNL     1       1.119  15.001  -5.773  1.00  0.00     0.124 S 
ATOM     66  O   UNL     1      -0.260  14.642  -5.452  1.00  0.00    -0.237 OA
ATOM     67  O   UNL     1       1.627  16.198  -5.107  1.00  0.00    -0.237 OA
ATOM     68  O   UNL     1       1.483  14.872  -7.182  1.00  0.00    -0.744 OA
ENDBRANCH  64  65
ENDBRANCH  45  59
BRANCH  46  69
ATOM     69  C   UNL     1       8.649   4.589   1.195  1.00  0.00    -0.014 A 
ATOM     70  C   UNL     1       9.562   4.945   2.205  1.00  0.00     0.010 A 
ATOM     71  C   UNL     1       8.520   3.233   0.843  1.00  0.00     0.010 A 
ATOM     72  C   UNL     1      10.361   3.973   2.815  1.00  0.00     0.020 A 
ATOM     73  C   UNL     1       9.291   2.254   1.475  1.00  0.00     0.020 A 
ATOM     74  C   UNL     1      10.223   2.634   2.442  1.00  0.00     0.054 A 
BRANCH  74  75
ATOM     75  S   UNL     1      11.268   1.389   3.249  1.00  0.00     0.124 S 
ATOM     76  O   UNL     1      12.575   1.663   2.660  1.00  0.00    -0.237 OA
ATOM     77  O   UNL     1      11.126   1.726   4.663  1.00  0.00    -0.237 OA
ATOM     78  O   UNL     1      10.657   0.122   2.854  1.00  0.00    -0.744 OA
ENDBRANCH  74  75
ENDBRANCH  46  69
BRANCH  58  79
ATOM     79  C   UNL     1      10.463   9.918  -2.918  1.00  0.00    -0.014 A 
ATOM     80  C   UNL     1      11.255   9.224  -3.848  1.00  0.00     0.010 A 
ATOM     81  C   UNL     1      10.900  11.169  -2.442  1.00  0.00     0.010 A 
ATOM     82  C   UNL     1      12.477   9.757  -4.271  1.00  0.00     0.020 A 
ATOM     83  C   UNL     1      12.104  11.720  -2.887  1.00  0.00     0.020 A 
ATOM     84  C   UNL     1      12.891  11.004  -3.790  1.00  0.00     0.054 A 
BRANCH  84  85
ATOM     85  S   UNL     1      14.454  11.695  -4.396  1.00  0.00     0.124 S 
ATOM     86  O   UNL     1      15.440  10.840  -3.741  1.00  0.00    -0.237 OA
ATOM     87  O   UNL     1      14.338  11.528  -5.842  1.00  0.00    -0.237 OA
ATOM     88  O   UNL     1      14.425  13.080  -3.931  1.00  0.00    -0.744 OA
ENDBRANCH  84  85
ENDBRANCH  58  79
ENDBRANCH  32  33
ENDBRANCH  24  27
ENDBRANCH  22  23
ENDBRANCH  21  22
ENDBRANCH   1  21
TORSDOF 19
