REMARK SMILES CC(C)CSc1cc2c(cc1Cl)C=C(C(=O)NCCCNC(=O)c1ccc(-c3c4nc(c(-c5ccc(S(=O)(=O)[O-])cc5)c5ccc([nH]5)c(-c5ccc(S(=O)(=O)[O-])cc5)c5nc(c(-c6ccc(S(=O)(=O)[O-])cc6)c6ccc3[nH]6)C=C5)C=C4)cc1)[C@@H](C(F)(F)F)O2
REMARK SMILES IDX 19 1 18 2 17 3 15 4 16 5 14 7 6 8 7 9 11 10 8 11 10 12 12 13
REMARK SMILES IDX 9 14 89 15 13 16 84 17 5 18 4 19 2 20 1 21 3 22 85 23 86 24
REMARK SMILES IDX 87 25 88 26 20 27 21 28 22 29 23 31 24 32 25 33 83 34 26 35
REMARK SMILES IDX 82 36 27 37 28 38 29 39 76 40 30 41 81 42 75 43 77 44 31 45
REMARK SMILES IDX 80 46 74 47 73 48 32 50 62 51 43 52 61 53 44 54 47 55 60 56
REMARK SMILES IDX 78 57 45 58 46 59 59 61 79 62 48 63 33 64 34 65 42 66 35 67
REMARK SMILES IDX 41 68 36 69 37 70 38 71 39 72 40 73 63 74 64 75 72 76 65 77
REMARK SMILES IDX 71 78 66 79 67 80 68 81 69 82 70 83 49 84 50 85 58 86 51 87
REMARK SMILES IDX 57 88 52 89 53 90 54 91 55 92 56 93
REMARK H PARENT 17 6 21 30 77 49 47 60
REMARK Flexibility Score: inf
ROOT
ATOM      1  C   UNL     1      -0.418   7.402  -4.450  1.00  0.00     0.042 C 
ENDROOT
BRANCH   1   2
ATOM      2  C   UNL     1      -1.350   6.411  -5.129  1.00  0.00     0.118 C 
BRANCH   2   3
ATOM      3  N   UNL     1      -0.622   5.440  -5.933  1.00  0.00    -0.352 N 
ATOM      4  C   UNL     1      -0.311   4.125  -5.864  1.00  0.00     0.251 C 
ATOM      5  O   UNL     1       0.346   3.691  -6.816  1.00  0.00    -0.270 OA
ATOM      6  H   UNL     1      -0.256   5.852  -6.748  1.00  0.00     0.163 HD
BRANCH   4   7
ATOM      7  C   UNL     1      -0.704   3.204  -4.759  1.00  0.00     0.067 C 
ATOM      8  C   UNL     1      -1.215  -0.807  -1.731  1.00  0.00     0.030 A 
ATOM      9  C   UNL     1      -1.526   0.554  -1.629  1.00  0.00     0.063 A 
ATOM     10  C   UNL     1      -0.633  -1.270  -2.927  1.00  0.00     0.055 A 
ATOM     11  C   UNL     1      -1.203   1.434  -2.658  1.00  0.00     0.129 A 
ATOM     12  C   UNL     1      -0.320  -0.379  -3.964  1.00  0.00     0.033 A 
ATOM     13  Cl  UNL     1      -0.238  -2.937  -3.186  1.00  0.00    -0.083 Cl
ATOM     14  C   UNL     1      -0.594   0.982  -3.825  1.00  0.00     0.019 A 
ATOM     15  O   UNL     1      -1.462   2.754  -2.427  1.00  0.00    -0.475 OA
ATOM     16  C   UNL     1      -0.231   1.946  -4.854  1.00  0.00     0.025 C 
ATOM     17  C   UNL     1      -1.590   3.591  -3.608  1.00  0.00     0.314 C 
BRANCH   8  18
ATOM     18  S   UNL     1      -1.556  -1.895  -0.348  1.00  0.00    -0.124 SA
BRANCH  18  19
ATOM     19  C   UNL     1      -0.936  -0.936   1.091  1.00  0.00     0.078 C 
BRANCH  19  20
ATOM     20  C   UNL     1       0.594  -0.924   1.268  1.00  0.00    -0.007 C 
ATOM     21  C   UNL     1       1.327  -0.043   0.255  1.00  0.00     0.008 C 
ATOM     22  C   UNL     1       0.927  -0.426   2.680  1.00  0.00     0.008 C 
ENDBRANCH  19  20
ENDBRANCH  18  19
ENDBRANCH   8  18
BRANCH  17  23
ATOM     23  C   UNL     1      -3.078   3.664  -4.001  1.00  0.00     0.429 C 
ATOM     24  F   UNL     1      -3.780   4.362  -3.074  1.00  0.00    -0.167 F 
ATOM     25  F   UNL     1      -3.279   4.287  -5.186  1.00  0.00    -0.167 F 
ATOM     26  F   UNL     1      -3.649   2.441  -4.103  1.00  0.00    -0.167 F 
ENDBRANCH  17  23
ENDBRANCH   4   7
ENDBRANCH   2   3
ENDBRANCH   1   2
BRANCH   1  27
ATOM     27  C   UNL     1       0.068   8.488  -5.401  1.00  0.00     0.118 C 
BRANCH  27  28
ATOM     28  N   UNL     1      -1.012   9.380  -5.821  1.00  0.00    -0.352 N 
ATOM     29  C   UNL     1      -1.216  10.714  -5.562  1.00  0.00     0.251 C 
ATOM     30  H   UNL     1      -1.704   8.956  -6.379  1.00  0.00     0.163 HD
ATOM     31  O   UNL     1      -2.299  11.228  -5.833  1.00  0.00    -0.269 OA
BRANCH  29  32
ATOM     32  C   UNL     1      -0.146  11.517  -4.936  1.00  0.00     0.039 A 
ATOM     33  C   UNL     1       1.180  11.345  -5.329  1.00  0.00     0.014 A 
ATOM     34  C   UNL     1      -0.466  12.437  -3.933  1.00  0.00     0.014 A 
ATOM     35  C   UNL     1       2.196  11.921  -4.581  1.00  0.00     0.010 A 
ATOM     36  C   UNL     1       0.557  13.109  -3.258  1.00  0.00     0.010 A 
ATOM     37  C   UNL     1       1.900  12.811  -3.535  1.00  0.00    -0.014 A 
BRANCH  37  38
ATOM     38  C   UNL     1       3.020  13.405  -2.760  1.00  0.00     0.031 A 
ATOM     39  C   UNL     1       3.177  13.125  -1.289  1.00  0.00     0.074 A 
ATOM     40  C   UNL     1       3.950  14.130  -3.412  1.00  0.00     0.049 A 
ATOM     41  N   UNL     1       4.137  13.502  -0.482  1.00  0.00    -0.248 NA
ATOM     42  C   UNL     1       2.127  12.328  -0.633  1.00  0.00     0.031 C 
ATOM     43  C   UNL     1       3.910  14.449  -4.842  1.00  0.00     0.029 A 
ATOM     44  N   UNL     1       5.130  14.682  -2.982  1.00  0.00    -0.354 N 
ATOM     45  C   UNL     1       3.795  13.015   0.774  1.00  0.00     0.074 A 
ATOM     46  C   UNL     1       2.527  12.335   0.632  1.00  0.00     0.031 C 
ATOM     47  C   UNL     1       5.053  15.056  -5.187  1.00  0.00     0.029 A 
ATOM     48  C   UNL     1       5.871  15.247  -3.994  1.00  0.00     0.049 A 
ATOM     49  H   UNL     1       5.418  14.675  -2.041  1.00  0.00     0.167 HD
ATOM     50  C   UNL     1       4.481  13.118   1.936  1.00  0.00     0.031 A 
ATOM     51  C   UNL     1       7.074  15.854  -3.975  1.00  0.00     0.031 A 
ATOM     52  C   UNL     1       5.755  13.777   2.062  1.00  0.00     0.049 A 
ATOM     53  C   UNL     1       7.808  15.973  -2.674  1.00  0.00     0.074 A 
ATOM     54  C   UNL     1       6.539  13.913   3.195  1.00  0.00     0.029 A 
ATOM     55  N   UNL     1       6.435  14.402   1.027  1.00  0.00    -0.354 N 
ATOM     56  N   UNL     1       7.464  15.509  -1.496  1.00  0.00    -0.248 NA
ATOM     57  C   UNL     1       9.083  16.701  -2.690  1.00  0.00     0.031 C 
ATOM     58  C   UNL     1       7.662  14.672   2.858  1.00  0.00     0.029 A 
ATOM     59  C   UNL     1       7.615  14.951   1.501  1.00  0.00     0.049 A 
ATOM     60  H   UNL     1       6.124  14.450   0.094  1.00  0.00     0.167 HD
ATOM     61  C   UNL     1       8.479  15.890  -0.628  1.00  0.00     0.074 A 
ATOM     62  C   UNL     1       9.462  16.602  -1.421  1.00  0.00     0.031 C 
ATOM     63  C   UNL     1       8.579  15.672   0.706  1.00  0.00     0.031 A 
BRANCH  50  64
ATOM     64  C   UNL     1       3.870  12.523   3.179  1.00  0.00    -0.014 A 
ATOM     65  C   UNL     1       3.429  13.373   4.211  1.00  0.00     0.010 A 
ATOM     66  C   UNL     1       3.806  11.131   3.368  1.00  0.00     0.010 A 
ATOM     67  C   UNL     1       2.950  12.846   5.413  1.00  0.00     0.020 A 
ATOM     68  C   UNL     1       3.302  10.599   4.559  1.00  0.00     0.020 A 
ATOM     69  C   UNL     1       2.894  11.460   5.581  1.00  0.00     0.054 A 
BRANCH  69  70
ATOM     70  S   UNL     1       2.255  10.788   7.141  1.00  0.00     0.124 S 
ATOM     71  O   UNL     1       3.402  10.934   8.032  1.00  0.00    -0.237 OA
ATOM     72  O   UNL     1       1.117  11.659   7.426  1.00  0.00    -0.237 OA
ATOM     73  O   UNL     1       1.900   9.412   6.797  1.00  0.00    -0.744 OA
ENDBRANCH  69  70
ENDBRANCH  50  64
BRANCH  51  74
ATOM     74  C   UNL     1       7.636  16.358  -5.257  1.00  0.00    -0.014 A 
ATOM     75  C   UNL     1       7.018  17.430  -5.928  1.00  0.00     0.010 A 
ATOM     76  C   UNL     1       8.690  15.673  -5.887  1.00  0.00     0.010 A 
ATOM     77  C   UNL     1       7.382  17.753  -7.237  1.00  0.00     0.020 A 
ATOM     78  C   UNL     1       9.078  16.014  -7.187  1.00  0.00     0.020 A 
ATOM     79  C   UNL     1       8.394  17.024  -7.867  1.00  0.00     0.054 A 
BRANCH  79  80
ATOM     80  S   UNL     1       8.775  17.385  -9.603  1.00  0.00     0.124 S 
ATOM     81  O   UNL     1       7.664  16.733 -10.292  1.00  0.00    -0.237 OA
ATOM     82  O   UNL     1       8.765  18.845  -9.637  1.00  0.00    -0.237 OA
ATOM     83  O   UNL     1      10.083  16.768  -9.801  1.00  0.00    -0.744 OA
ENDBRANCH  79  80
ENDBRANCH  51  74
BRANCH  63  84
ATOM     84  C   UNL     1       9.785  16.217   1.422  1.00  0.00    -0.014 A 
ATOM     85  C   UNL     1      10.746  15.332   1.944  1.00  0.00     0.010 A 
ATOM     86  C   UNL     1       9.895  17.592   1.695  1.00  0.00     0.010 A 
ATOM     87  C   UNL     1      11.775  15.806   2.760  1.00  0.00     0.020 A 
ATOM     88  C   UNL     1      10.940  18.073   2.489  1.00  0.00     0.020 A 
ATOM     89  C   UNL     1      11.858  17.173   3.038  1.00  0.00     0.054 A 
BRANCH  89  90
ATOM     90  S   UNL     1      13.178  17.766   4.130  1.00  0.00     0.124 S 
ATOM     91  O   UNL     1      12.669  17.407   5.450  1.00  0.00    -0.237 OA
ATOM     92  O   UNL     1      14.340  17.005   3.675  1.00  0.00    -0.237 OA
ATOM     93  O   UNL     1      13.235  19.199   3.850  1.00  0.00    -0.744 OA
ENDBRANCH  89  90
ENDBRANCH  63  84
ENDBRANCH  37  38
ENDBRANCH  29  32
ENDBRANCH  27  28
ENDBRANCH   1  27
TORSDOF 17
