REMARK SMILES C[NH2+][C@@]1(C(=O)NCCCNC(=O)c2ccc(-c3c4nc(c(-c5ccc(S(=O)(=O)[O-])cc5)c5ccc([nH]5)c(-c5ccc(S(=O)(=O)[O-])cc5)c5nc(c(-c6ccc(S(=O)(=O)[O-])cc6)c6ccc3[nH]6)C=C5)C=C4)cc2)CC[C@H](SC2CCOCC2)C1
REMARK SMILES IDX 8 1 7 2 6 3 4 4 5 5 3 7 73 8 83 9 74 10 75 11 2 12 1 13
REMARK SMILES IDX 76 16 77 17 78 18 82 19 79 20 81 21 80 22 9 23 10 24 11 25
REMARK SMILES IDX 12 27 13 28 14 29 72 30 15 31 71 32 16 33 17 34 18 35 65 36
REMARK SMILES IDX 19 37 70 38 64 39 66 40 20 41 69 42 63 43 62 44 21 46 51 47
REMARK SMILES IDX 32 48 50 49 33 50 36 51 49 52 67 53 34 54 35 55 48 57 68 58
REMARK SMILES IDX 37 59 22 60 23 61 31 62 24 63 30 64 25 65 26 66 27 67 28 68
REMARK SMILES IDX 29 69 52 70 53 71 61 72 54 73 60 74 55 75 56 76 57 77 58 78
REMARK SMILES IDX 59 79 38 80 39 81 47 82 40 83 46 84 41 85 42 86 43 87 44 88
REMARK SMILES IDX 45 89
REMARK H PARENT 6 6 2 14 2 15 10 26 66 45 36 56
REMARK Flexibility Score: inf
ROOT
ATOM      1  C   UNL     1      -4.520  -1.122   0.794  1.00  0.00     0.042 C 
ENDROOT
BRANCH   1   2
ATOM      2  C   UNL     1      -3.778   0.079   0.238  1.00  0.00     0.118 C 
BRANCH   2   3
ATOM      3  N   UNL     1      -2.453   0.279   0.769  1.00  0.00    -0.351 N 
ATOM      4  C   UNL     1      -1.250   0.469   0.155  1.00  0.00     0.281 C 
ATOM      5  O   UNL     1      -0.405   0.983   0.902  1.00  0.00    -0.268 OA
ATOM      6  H   UNL     1      -2.408   0.278   1.753  1.00  0.00     0.163 HD
BRANCH   4   7
ATOM      7  C   UNL     1      -0.943   0.140  -1.375  1.00  0.00     0.176 C 
ATOM      8  C   UNL     1      -1.473   1.261  -2.295  1.00  0.00     0.080 C 
ATOM      9  C   UNL     1      -1.612  -1.145  -1.912  1.00  0.00     0.093 C 
ATOM     10  C   UNL     1      -2.780   0.779  -2.905  1.00  0.00     0.022 C 
ATOM     11  C   UNL     1      -2.666  -0.738  -2.988  1.00  0.00     0.054 C 
BRANCH   7  12
ATOM     12  N   UNL     1       0.529   0.043  -1.672  1.00  0.00    -0.336 N 
ATOM     13  C   UNL     1       1.430  -0.321  -0.586  1.00  0.00     0.331 C 
ATOM     14  H   UNL     1       0.644  -0.656  -2.406  1.00  0.00     0.346 HD
ATOM     15  H   UNL     1       0.800   0.995  -1.915  1.00  0.00     0.346 HD
ENDBRANCH   7  12
BRANCH  11  16
ATOM     16  S   UNL     1      -4.099  -1.896  -2.819  1.00  0.00    -0.155 SA
BRANCH  16  17
ATOM     17  C   UNL     1      -5.723  -1.042  -3.061  1.00  0.00     0.051 C 
ATOM     18  C   UNL     1      -6.303  -1.403  -4.432  1.00  0.00     0.043 C 
ATOM     19  C   UNL     1      -5.905   0.445  -2.784  1.00  0.00     0.043 C 
ATOM     20  C   UNL     1      -7.731  -0.876  -4.553  1.00  0.00     0.161 C 
ATOM     21  C   UNL     1      -7.362   0.850  -2.982  1.00  0.00     0.161 C 
ATOM     22  O   UNL     1      -7.778   0.530  -4.307  1.00  0.00    -0.381 OA
ENDBRANCH  16  17
ENDBRANCH  11  16
ENDBRANCH   4   7
ENDBRANCH   2   3
ENDBRANCH   1   2
BRANCH   1  23
ATOM     23  C   UNL     1      -5.162  -0.842   2.140  1.00  0.00     0.118 C 
BRANCH  23  24
ATOM     24  N   UNL     1      -6.266   0.109   2.034  1.00  0.00    -0.352 N 
ATOM     25  C   UNL     1      -7.619  -0.050   1.845  1.00  0.00     0.251 C 
ATOM     26  H   UNL     1      -5.986   1.050   2.115  1.00  0.00     0.163 HD
ATOM     27  O   UNL     1      -8.273   0.937   1.509  1.00  0.00    -0.269 OA
BRANCH  25  28
ATOM     28  C   UNL     1      -8.301  -1.358   2.011  1.00  0.00     0.039 A 
ATOM     29  C   UNL     1      -9.492  -1.599   1.312  1.00  0.00     0.014 A 
ATOM     30  C   UNL     1      -7.840  -2.324   2.901  1.00  0.00     0.014 A 
ATOM     31  C   UNL     1     -10.170  -2.816   1.468  1.00  0.00     0.010 A 
ATOM     32  C   UNL     1      -8.434  -3.581   2.951  1.00  0.00     0.010 A 
ATOM     33  C   UNL     1      -9.626  -3.836   2.262  1.00  0.00    -0.014 A 
BRANCH  33  34
ATOM     34  C   UNL     1     -10.292  -5.155   2.444  1.00  0.00     0.031 A 
ATOM     35  C   UNL     1     -10.639  -5.637   3.834  1.00  0.00     0.074 A 
ATOM     36  C   UNL     1     -10.498  -5.961   1.383  1.00  0.00     0.049 A 
ATOM     37  N   UNL     1     -11.074  -6.810   4.219  1.00  0.00    -0.248 NA
ATOM     38  C   UNL     1     -10.426  -4.689   4.942  1.00  0.00     0.031 C 
ATOM     39  C   UNL     1     -10.167  -5.639  -0.008  1.00  0.00     0.029 A 
ATOM     40  N   UNL     1     -11.024  -7.227   1.312  1.00  0.00    -0.354 N 
ATOM     41  C   UNL     1     -11.136  -6.754   5.608  1.00  0.00     0.074 A 
ATOM     42  C   UNL     1     -10.645  -5.453   6.001  1.00  0.00     0.031 C 
ATOM     43  C   UNL     1     -10.528  -6.665  -0.795  1.00  0.00     0.029 A 
ATOM     44  C   UNL     1     -11.066  -7.737   0.035  1.00  0.00     0.049 A 
ATOM     45  H   UNL     1     -11.341  -7.723   2.100  1.00  0.00     0.167 HD
ATOM     46  C   UNL     1     -11.582  -7.690   6.480  1.00  0.00     0.031 A 
ATOM     47  C   UNL     1     -11.482  -8.936  -0.418  1.00  0.00     0.031 A 
ATOM     48  C   UNL     1     -12.120  -8.963   6.083  1.00  0.00     0.049 A 
ATOM     49  C   UNL     1     -12.007  -9.947   0.564  1.00  0.00     0.074 A 
ATOM     50  C   UNL     1     -12.672  -9.951   6.879  1.00  0.00     0.029 A 
ATOM     51  N   UNL     1     -12.184  -9.419   4.775  1.00  0.00    -0.354 N 
ATOM     52  N   UNL     1     -12.105  -9.854   1.869  1.00  0.00    -0.248 NA
ATOM     53  C   UNL     1     -12.488 -11.220   0.011  1.00  0.00     0.031 C 
ATOM     54  C   UNL     1     -13.034 -11.022   6.056  1.00  0.00     0.029 A 
ATOM     55  C   UNL     1     -12.756 -10.679   4.742  1.00  0.00     0.049 A 
ATOM     56  H   UNL     1     -11.871  -8.920   3.986  1.00  0.00     0.167 HD
ATOM     57  C   UNL     1     -12.687 -11.044   2.290  1.00  0.00     0.074 A 
ATOM     58  C   UNL     1     -12.930 -11.835   1.100  1.00  0.00     0.031 C 
ATOM     59  C   UNL     1     -12.996 -11.447   3.547  1.00  0.00     0.031 A 
BRANCH  46  60
ATOM     60  C   UNL     1     -11.511  -7.366   7.952  1.00  0.00    -0.014 A 
ATOM     61  C   UNL     1     -12.331  -6.374   8.521  1.00  0.00     0.010 A 
ATOM     62  C   UNL     1     -10.633  -8.084   8.784  1.00  0.00     0.010 A 
ATOM     63  C   UNL     1     -12.235  -6.069   9.882  1.00  0.00     0.020 A 
ATOM     64  C   UNL     1     -10.557  -7.805  10.152  1.00  0.00     0.020 A 
ATOM     65  C   UNL     1     -11.345  -6.784  10.688  1.00  0.00     0.054 A 
BRANCH  65  66
ATOM     66  S   UNL     1     -11.252  -6.376  12.453  1.00  0.00     0.124 S 
ATOM     67  O   UNL     1     -10.528  -5.108  12.430  1.00  0.00    -0.237 OA
ATOM     68  O   UNL     1     -12.658  -6.290  12.837  1.00  0.00    -0.237 OA
ATOM     69  O   UNL     1     -10.519  -7.501  13.031  1.00  0.00    -0.744 OA
ENDBRANCH  65  66
ENDBRANCH  46  60
BRANCH  47  70
ATOM     70  C   UNL     1     -11.444  -9.233  -1.876  1.00  0.00    -0.014 A 
ATOM     71  C   UNL     1     -12.638  -9.303  -2.615  1.00  0.00     0.010 A 
ATOM     72  C   UNL     1     -10.218  -9.425  -2.538  1.00  0.00     0.010 A 
ATOM     73  C   UNL     1     -12.609  -9.579  -3.985  1.00  0.00     0.020 A 
ATOM     74  C   UNL     1     -10.183  -9.673  -3.913  1.00  0.00     0.020 A 
ATOM     75  C   UNL     1     -11.380  -9.760  -4.626  1.00  0.00     0.054 A 
BRANCH  75  76
ATOM     76  S   UNL     1     -11.364 -10.062  -6.416  1.00  0.00     0.124 S 
ATOM     77  O   UNL     1     -11.826 -11.444  -6.494  1.00  0.00    -0.237 OA
ATOM     78  O   UNL     1     -12.296  -9.053  -6.914  1.00  0.00    -0.237 OA
ATOM     79  O   UNL     1      -9.967  -9.844  -6.786  1.00  0.00    -0.744 OA
ENDBRANCH  75  76
ENDBRANCH  47  70
BRANCH  59  80
ATOM     80  C   UNL     1     -13.670 -12.782   3.701  1.00  0.00    -0.014 A 
ATOM     81  C   UNL     1     -12.962 -13.983   3.523  1.00  0.00     0.010 A 
ATOM     82  C   UNL     1     -15.022 -12.832   4.088  1.00  0.00     0.010 A 
ATOM     83  C   UNL     1     -13.604 -15.212   3.699  1.00  0.00     0.020 A 
ATOM     84  C   UNL     1     -15.659 -14.058   4.293  1.00  0.00     0.020 A 
ATOM     85  C   UNL     1     -14.948 -15.241   4.083  1.00  0.00     0.054 A 
BRANCH  85  86
ATOM     86  S   UNL     1     -15.746 -16.848   4.350  1.00  0.00     0.124 S 
ATOM     87  O   UNL     1     -15.935 -17.323   2.983  1.00  0.00    -0.237 OA
ATOM     88  O   UNL     1     -14.751 -17.573   5.136  1.00  0.00    -0.237 OA
ATOM     89  O   UNL     1     -16.973 -16.510   5.069  1.00  0.00    -0.744 OA
ENDBRANCH  85  86
ENDBRANCH  59  80
ENDBRANCH  33  34
ENDBRANCH  25  28
ENDBRANCH  23  24
ENDBRANCH   1  23
TORSDOF 16
