REMARK SMILES CCc1ccc(S(=O)(=O)CC(=O)NCCCNC(=O)c2ccc(-c3c4nc(c(-c5ccc(S(=O)(=O)[O-])cc5)c5ccc([nH]5)c(-c5ccc(S(=O)(=O)[O-])cc5)c5nc(c(-c6ccc(S(=O)(=O)[O-])cc6)c6ccc3[nH]6)C=C5)C=C4)cc2)cc1
REMARK SMILES IDX 15 1 14 2 13 3 11 4 12 5 10 7 7 8 8 9 9 10 6 11 3 12 4 13
REMARK SMILES IDX 81 14 5 15 80 16 2 17 1 18 16 19 17 20 18 21 19 23 20 24
REMARK SMILES IDX 21 25 79 26 22 27 78 28 23 29 24 30 25 31 72 32 26 33 77 34
REMARK SMILES IDX 71 35 73 36 27 37 76 38 70 39 69 40 28 42 58 43 39 44 57 45
REMARK SMILES IDX 40 46 43 47 56 48 74 49 41 50 42 51 55 53 75 54 44 55 29 56
REMARK SMILES IDX 30 57 38 58 31 59 37 60 32 61 33 62 34 63 35 64 36 65 59 66
REMARK SMILES IDX 60 67 68 68 61 69 67 70 62 71 63 72 64 73 65 74 66 75 45 76
REMARK SMILES IDX 46 77 54 78 47 79 53 80 48 81 49 82 50 83 51 84 52 85
REMARK H PARENT 13 6 17 22 73 41 43 52
REMARK Flexibility Score: inf
ROOT
ATOM      1  C   UNL     1       5.087  -7.223   0.931  1.00  0.00     0.042 C 
ENDROOT
BRANCH   1   2
ATOM      2  C   UNL     1       4.956  -7.257   2.451  1.00  0.00     0.117 C 
BRANCH   2   3
ATOM      3  N   UNL     1       4.758  -5.925   3.000  1.00  0.00    -0.355 N 
ATOM      4  C   UNL     1       3.645  -5.346   3.519  1.00  0.00     0.235 C 
ATOM      5  O   UNL     1       3.733  -4.166   3.867  1.00  0.00    -0.274 OA
ATOM      6  H   UNL     1       5.558  -5.352   2.994  1.00  0.00     0.163 HD
BRANCH   4   7
ATOM      7  C   UNL     1       2.400  -6.124   3.787  1.00  0.00     0.241 C 
BRANCH   7   8
ATOM      8  S   UNL     1       1.326  -6.308   2.414  1.00  0.00     0.187 S 
ATOM      9  O   UNL     1       0.003  -6.570   2.955  1.00  0.00    -0.223 OA
ATOM     10  O   UNL     1       1.935  -7.279   1.522  1.00  0.00    -0.223 OA
BRANCH   8  11
ATOM     11  C   UNL     1       1.176  -4.795   1.504  1.00  0.00     0.067 A 
ATOM     12  C   UNL     1       0.808  -2.448  -0.004  1.00  0.00    -0.048 A 
ATOM     13  C   UNL     1       0.698  -3.712  -0.605  1.00  0.00     0.005 A 
ATOM     14  C   UNL     1       1.106  -2.385   1.364  1.00  0.00     0.005 A 
ATOM     15  C   UNL     1       0.891  -4.878   0.139  1.00  0.00     0.020 A 
ATOM     16  C   UNL     1       1.275  -3.550   2.122  1.00  0.00     0.020 A 
BRANCH  12  17
ATOM     17  C   UNL     1       0.528  -1.228  -0.854  1.00  0.00     0.032 C 
ATOM     18  C   UNL     1       0.945   0.120  -0.279  1.00  0.00     0.009 C 
ENDBRANCH  12  17
ENDBRANCH   8  11
ENDBRANCH   7   8
ENDBRANCH   4   7
ENDBRANCH   2   3
ENDBRANCH   1   2
BRANCH   1  19
ATOM     19  C   UNL     1       6.314  -6.472   0.423  1.00  0.00     0.118 C 
BRANCH  19  20
ATOM     20  N   UNL     1       7.564  -7.131   0.771  1.00  0.00    -0.352 N 
ATOM     21  C   UNL     1       8.537  -7.662  -0.041  1.00  0.00     0.251 C 
ATOM     22  H   UNL     1       7.740  -7.207   1.737  1.00  0.00     0.163 HD
ATOM     23  O   UNL     1       9.431  -8.341   0.457  1.00  0.00    -0.269 OA
BRANCH  21  24
ATOM     24  C   UNL     1       8.504  -7.441  -1.504  1.00  0.00     0.039 A 
ATOM     25  C   UNL     1       8.778  -8.516  -2.355  1.00  0.00     0.014 A 
ATOM     26  C   UNL     1       8.232  -6.180  -2.041  1.00  0.00     0.014 A 
ATOM     27  C   UNL     1       8.708  -8.343  -3.741  1.00  0.00     0.010 A 
ATOM     28  C   UNL     1       8.092  -6.026  -3.419  1.00  0.00     0.010 A 
ATOM     29  C   UNL     1       8.327  -7.105  -4.284  1.00  0.00    -0.014 A 
BRANCH  29  30
ATOM     30  C   UNL     1       8.158  -6.920  -5.749  1.00  0.00     0.031 A 
ATOM     31  C   UNL     1       9.041  -5.960  -6.500  1.00  0.00     0.074 A 
ATOM     32  C   UNL     1       7.159  -7.560  -6.391  1.00  0.00     0.049 A 
ATOM     33  N   UNL     1       8.983  -5.598  -7.757  1.00  0.00    -0.248 NA
ATOM     34  C   UNL     1      10.114  -5.305  -5.735  1.00  0.00     0.031 C 
ATOM     35  C   UNL     1       6.213  -8.492  -5.772  1.00  0.00     0.029 A 
ATOM     36  N   UNL     1       6.766  -7.514  -7.705  1.00  0.00    -0.354 N 
ATOM     37  C   UNL     1       9.996  -4.661  -7.928  1.00  0.00     0.074 A 
ATOM     38  C   UNL     1      10.624  -4.479  -6.637  1.00  0.00     0.031 C 
ATOM     39  C   UNL     1       5.364  -8.943  -6.709  1.00  0.00     0.029 A 
ATOM     40  C   UNL     1       5.673  -8.302  -7.983  1.00  0.00     0.049 A 
ATOM     41  H   UNL     1       7.222  -6.968  -8.385  1.00  0.00     0.167 HD
ATOM     42  C   UNL     1      10.378  -4.020  -9.059  1.00  0.00     0.031 A 
ATOM     43  C   UNL     1       4.987  -8.480  -9.129  1.00  0.00     0.031 A 
ATOM     44  C   UNL     1       9.760  -4.211 -10.344  1.00  0.00     0.049 A 
ATOM     45  C   UNL     1       5.418  -7.744 -10.367  1.00  0.00     0.074 A 
ATOM     46  C   UNL     1      10.112  -3.650 -11.559  1.00  0.00     0.029 A 
ATOM     47  N   UNL     1       8.662  -5.024 -10.582  1.00  0.00    -0.354 N 
ATOM     48  N   UNL     1       6.414  -6.904 -10.520  1.00  0.00    -0.248 NA
ATOM     49  C   UNL     1       4.636  -7.983 -11.588  1.00  0.00     0.031 C 
ATOM     50  C   UNL     1       9.197  -4.085 -12.523  1.00  0.00     0.029 A 
ATOM     51  C   UNL     1       8.307  -4.960 -11.919  1.00  0.00     0.049 A 
ATOM     52  H   UNL     1       8.202  -5.566  -9.901  1.00  0.00     0.167 HD
ATOM     53  C   UNL     1       6.393  -6.533 -11.860  1.00  0.00     0.074 A 
ATOM     54  C   UNL     1       5.294  -7.248 -12.476  1.00  0.00     0.031 C 
ATOM     55  C   UNL     1       7.211  -5.677 -12.519  1.00  0.00     0.031 A 
BRANCH  42  56
ATOM     56  C   UNL     1      11.518  -3.042  -8.953  1.00  0.00    -0.014 A 
ATOM     57  C   UNL     1      12.837  -3.485  -8.739  1.00  0.00     0.010 A 
ATOM     58  C   UNL     1      11.276  -1.665  -9.107  1.00  0.00     0.010 A 
ATOM     59  C   UNL     1      13.884  -2.566  -8.637  1.00  0.00     0.020 A 
ATOM     60  C   UNL     1      12.325  -0.744  -9.033  1.00  0.00     0.020 A 
ATOM     61  C   UNL     1      13.621  -1.200  -8.780  1.00  0.00     0.054 A 
BRANCH  61  62
ATOM     62  S   UNL     1      15.002  -0.030  -8.658  1.00  0.00     0.124 S 
ATOM     63  O   UNL     1      15.271  -0.034  -7.222  1.00  0.00    -0.237 OA
ATOM     64  O   UNL     1      16.027  -0.655  -9.490  1.00  0.00    -0.237 OA
ATOM     65  O   UNL     1      14.449   1.215  -9.184  1.00  0.00    -0.744 OA
ENDBRANCH  61  62
ENDBRANCH  42  56
BRANCH  43  66
ATOM     66  C   UNL     1       3.820  -9.403  -9.158  1.00  0.00    -0.014 A 
ATOM     67  C   UNL     1       3.905 -10.637  -9.827  1.00  0.00     0.010 A 
ATOM     68  C   UNL     1       2.622  -9.061  -8.504  1.00  0.00     0.010 A 
ATOM     69  C   UNL     1       2.810 -11.505  -9.854  1.00  0.00     0.020 A 
ATOM     70  C   UNL     1       1.534  -9.937  -8.507  1.00  0.00     0.020 A 
ATOM     71  C   UNL     1       1.631 -11.150  -9.192  1.00  0.00     0.054 A 
BRANCH  71  72
ATOM     72  S   UNL     1       0.240 -12.315  -9.197  1.00  0.00     0.124 S 
ATOM     73  O   UNL     1      -0.270 -12.173 -10.557  1.00  0.00    -0.237 OA
ATOM     74  O   UNL     1       0.891 -13.586  -8.894  1.00  0.00    -0.237 OA
ATOM     75  O   UNL     1      -0.635 -11.805  -8.142  1.00  0.00    -0.744 OA
ENDBRANCH  71  72
ENDBRANCH  43  66
BRANCH  55  76
ATOM     76  C   UNL     1       6.971  -5.482 -13.992  1.00  0.00    -0.014 A 
ATOM     77  C   UNL     1       5.882  -4.726 -14.457  1.00  0.00     0.010 A 
ATOM     78  C   UNL     1       7.890  -6.007 -14.920  1.00  0.00     0.010 A 
ATOM     79  C   UNL     1       5.704  -4.513 -15.827  1.00  0.00     0.020 A 
ATOM     80  C   UNL     1       7.729  -5.776 -16.288  1.00  0.00     0.020 A 
ATOM     81  C   UNL     1       6.630  -5.038 -16.734  1.00  0.00     0.054 A 
BRANCH  81  82
ATOM     82  S   UNL     1       6.411  -4.697 -18.502  1.00  0.00     0.124 S 
ATOM     83  O   UNL     1       5.299  -5.579 -18.846  1.00  0.00    -0.237 OA
ATOM     84  O   UNL     1       6.108  -3.268 -18.518  1.00  0.00    -0.237 OA
ATOM     85  O   UNL     1       7.699  -5.060 -19.087  1.00  0.00    -0.744 OA
ENDBRANCH  81  82
ENDBRANCH  55  76
ENDBRANCH  29  30
ENDBRANCH  21  24
ENDBRANCH  19  20
ENDBRANCH   1  19
TORSDOF 16
