REMARK SMILES O=C(NCCCNC(=O)c1ccccc1C(=O)Nc1ccc(N2C(=O)[C@H]3[C@@H]4CC[C@@H](C4)[C@@H]3C2=O)cc1)c1ccc(-c2c3nc(c(-c4ccc(S(=O)(=O)[O-])cc4)c4ccc([nH]4)c(-c4ccc(S(=O)(=O)[O-])cc4)c4nc(c(-c5ccc(S(=O)(=O)[O-])cc5)c5ccc2[nH]5)C=C4)C=C3)cc1
REMARK SMILES IDX 5 1 4 2 3 3 1 4 2 5 37 7 38 8 96 9 39 10 95 11 40 12 41 13
REMARK SMILES IDX 42 14 89 15 43 16 94 17 88 18 90 19 44 20 93 21 87 22 86 23
REMARK SMILES IDX 45 25 75 26 56 27 74 28 57 29 60 30 73 31 91 32 58 33 59 34
REMARK SMILES IDX 72 36 92 37 61 38 46 39 47 40 55 41 48 42 54 43 49 44 50 45
REMARK SMILES IDX 51 46 52 47 53 48 76 49 77 50 85 51 78 52 84 53 79 54 80 55
REMARK SMILES IDX 81 56 82 57 83 58 62 59 63 60 71 61 64 62 70 63 65 64 66 65
REMARK SMILES IDX 67 66 68 67 69 68 6 69 7 70 8 71 9 73 10 74 11 75 15 76
REMARK SMILES IDX 12 77 14 78 13 79 16 80 17 81 18 82 19 84 20 85 36 86 21 87
REMARK SMILES IDX 35 88 22 89 23 90 24 91 33 92 25 93 26 94 32 95 34 96 27 97
REMARK SMILES IDX 30 98 28 99 31 100 29 101
REMARK H PARENT 3 6 90 24 60 35 7 72 18 83
REMARK Flexibility Score: inf
ROOT
ATOM      1  C   UNL     1       5.376   0.604  -2.337  1.00  0.00     0.042 C 
ENDROOT
BRANCH   1   2
ATOM      2  C   UNL     1       4.827   0.578  -0.920  1.00  0.00     0.118 C 
BRANCH   2   3
ATOM      3  N   UNL     1       3.371   0.667  -0.833  1.00  0.00    -0.352 N 
ATOM      4  O   UNL     1       1.295   0.003  -0.194  1.00  0.00    -0.269 OA
ATOM      5  C   UNL     1       2.506  -0.179  -0.167  1.00  0.00     0.251 C 
ATOM      6  H   UNL     1       2.955   1.422  -1.308  1.00  0.00     0.163 HD
BRANCH   5   7
ATOM      7  C   UNL     1       3.085  -1.347   0.526  1.00  0.00     0.039 A 
ATOM      8  C   UNL     1       4.152  -1.155   1.401  1.00  0.00     0.014 A 
ATOM      9  C   UNL     1       2.688  -2.632   0.150  1.00  0.00     0.014 A 
ATOM     10  C   UNL     1       4.968  -2.233   1.703  1.00  0.00     0.010 A 
ATOM     11  C   UNL     1       3.432  -3.733   0.584  1.00  0.00     0.010 A 
ATOM     12  C   UNL     1       4.608  -3.540   1.323  1.00  0.00    -0.014 A 
BRANCH  12  13
ATOM     13  C   UNL     1       5.445  -4.672   1.798  1.00  0.00     0.031 A 
ATOM     14  C   UNL     1       6.136  -5.616   0.848  1.00  0.00     0.074 A 
ATOM     15  C   UNL     1       5.615  -4.801   3.130  1.00  0.00     0.049 A 
ATOM     16  N   UNL     1       6.919  -6.628   1.130  1.00  0.00    -0.248 NA
ATOM     17  C   UNL     1       5.923  -5.413  -0.594  1.00  0.00     0.031 C 
ATOM     18  C   UNL     1       4.985  -3.945   4.144  1.00  0.00     0.029 A 
ATOM     19  N   UNL     1       6.386  -5.662   3.862  1.00  0.00    -0.354 N 
ATOM     20  C   UNL     1       7.277  -7.192  -0.090  1.00  0.00     0.074 A 
ATOM     21  C   UNL     1       6.606  -6.424  -1.118  1.00  0.00     0.031 C 
ATOM     22  C   UNL     1       5.455  -4.273   5.353  1.00  0.00     0.029 A 
ATOM     23  C   UNL     1       6.332  -5.426   5.216  1.00  0.00     0.049 A 
ATOM     24  H   UNL     1       6.926  -6.380   3.460  1.00  0.00     0.167 HD
ATOM     25  C   UNL     1       8.092  -8.250  -0.326  1.00  0.00     0.031 A 
ATOM     26  C   UNL     1       6.893  -6.083   6.245  1.00  0.00     0.031 A 
ATOM     27  C   UNL     1       8.752  -9.008   0.710  1.00  0.00     0.049 A 
ATOM     28  C   UNL     1       7.752  -7.275   5.951  1.00  0.00     0.074 A 
ATOM     29  C   UNL     1       9.610 -10.086   0.573  1.00  0.00     0.029 A 
ATOM     30  N   UNL     1       8.630  -8.769   2.072  1.00  0.00    -0.354 N 
ATOM     31  N   UNL     1       8.091  -7.777   4.788  1.00  0.00    -0.248 NA
ATOM     32  C   UNL     1       8.302  -7.990   7.108  1.00  0.00     0.031 C 
ATOM     33  C   UNL     1       9.957 -10.537   1.851  1.00  0.00     0.029 A 
ATOM     34  C   UNL     1       9.374  -9.697   2.785  1.00  0.00     0.049 A 
ATOM     35  H   UNL     1       8.094  -8.048   2.473  1.00  0.00     0.167 HD
ATOM     36  C   UNL     1       8.908  -8.862   5.074  1.00  0.00     0.074 A 
ATOM     37  C   UNL     1       9.041  -8.916   6.516  1.00  0.00     0.031 C 
ATOM     38  C   UNL     1       9.488  -9.742   4.221  1.00  0.00     0.031 A 
BRANCH  25  39
ATOM     39  C   UNL     1       8.315  -8.677  -1.758  1.00  0.00    -0.014 A 
ATOM     40  C   UNL     1       9.093  -7.904  -2.637  1.00  0.00     0.010 A 
ATOM     41  C   UNL     1       7.823  -9.921  -2.200  1.00  0.00     0.010 A 
ATOM     42  C   UNL     1       9.359  -8.355  -3.935  1.00  0.00     0.020 A 
ATOM     43  C   UNL     1       8.109 -10.389  -3.487  1.00  0.00     0.020 A 
ATOM     44  C   UNL     1       8.869  -9.598  -4.350  1.00  0.00     0.054 A 
BRANCH  44  45
ATOM     45  S   UNL     1       9.280 -10.180  -6.020  1.00  0.00     0.124 S 
ATOM     46  O   UNL     1       8.502  -9.269  -6.857  1.00  0.00    -0.237 OA
ATOM     47  O   UNL     1      10.728  -9.998  -6.073  1.00  0.00    -0.237 OA
ATOM     48  O   UNL     1       8.828 -11.569  -6.026  1.00  0.00    -0.744 OA
ENDBRANCH  44  45
ENDBRANCH  25  39
BRANCH  26  49
ATOM     49  C   UNL     1       6.609  -5.655   7.642  1.00  0.00    -0.014 A 
ATOM     50  C   UNL     1       7.631  -5.161   8.469  1.00  0.00     0.010 A 
ATOM     51  C   UNL     1       5.299  -5.745   8.151  1.00  0.00     0.010 A 
ATOM     52  C   UNL     1       7.355  -4.801   9.791  1.00  0.00     0.020 A 
ATOM     53  C   UNL     1       5.011  -5.346   9.456  1.00  0.00     0.020 A 
ATOM     54  C   UNL     1       6.047  -4.898  10.276  1.00  0.00     0.054 A 
BRANCH  54  55
ATOM     55  S   UNL     1       5.709  -4.416  11.990  1.00  0.00     0.124 S 
ATOM     56  O   UNL     1       6.306  -5.519  12.736  1.00  0.00    -0.237 OA
ATOM     57  O   UNL     1       6.397  -3.132  12.098  1.00  0.00    -0.237 OA
ATOM     58  O   UNL     1       4.251  -4.340  12.043  1.00  0.00    -0.744 OA
ENDBRANCH  54  55
ENDBRANCH  26  49
BRANCH  38  59
ATOM     59  C   UNL     1      10.343 -10.818   4.837  1.00  0.00    -0.014 A 
ATOM     60  C   UNL     1       9.774 -11.852   5.602  1.00  0.00     0.010 A 
ATOM     61  C   UNL     1      11.736 -10.793   4.643  1.00  0.00     0.010 A 
ATOM     62  C   UNL     1      10.589 -12.812   6.207  1.00  0.00     0.020 A 
ATOM     63  C   UNL     1      12.550 -11.772   5.216  1.00  0.00     0.020 A 
ATOM     64  C   UNL     1      11.973 -12.763   6.012  1.00  0.00     0.054 A 
BRANCH  64  65
ATOM     65  S   UNL     1      13.007 -14.030   6.796  1.00  0.00     0.124 S 
ATOM     66  O   UNL     1      12.953 -13.637   8.202  1.00  0.00    -0.237 OA
ATOM     67  O   UNL     1      12.306 -15.267   6.461  1.00  0.00    -0.237 OA
ATOM     68  O   UNL     1      14.307 -13.863   6.152  1.00  0.00    -0.744 OA
ENDBRANCH  64  65
ENDBRANCH  38  59
ENDBRANCH  12  13
ENDBRANCH   5   7
ENDBRANCH   2   3
ENDBRANCH   1   2
BRANCH   1  69
ATOM     69  C   UNL     1       5.407   1.996  -2.927  1.00  0.00     0.118 C 
BRANCH  69  70
ATOM     70  N   UNL     1       6.308   2.881  -2.211  1.00  0.00    -0.352 N 
ATOM     71  C   UNL     1       6.823   4.083  -2.603  1.00  0.00     0.252 C 
ATOM     72  H   UNL     1       6.586   2.571  -1.319  1.00  0.00     0.163 HD
ATOM     73  O   UNL     1       7.656   4.657  -1.903  1.00  0.00    -0.269 OA
BRANCH  71  74
ATOM     74  C   UNL     1       6.511   4.639  -3.929  1.00  0.00     0.052 A 
ATOM     75  C   UNL     1       7.689   4.872  -4.680  1.00  0.00     0.014 A 
ATOM     76  C   UNL     1       5.248   4.846  -4.503  1.00  0.00     0.052 A 
ATOM     77  C   UNL     1       7.634   5.194  -6.029  1.00  0.00     0.001 A 
ATOM     78  C   UNL     1       5.229   5.136  -5.890  1.00  0.00     0.014 A 
ATOM     79  C   UNL     1       6.398   5.290  -6.645  1.00  0.00     0.001 A 
BRANCH  76  80
ATOM     80  C   UNL     1       3.881   4.675  -3.905  1.00  0.00     0.256 C 
ATOM     81  O   UNL     1       2.978   4.304  -4.667  1.00  0.00    -0.269 OA
ATOM     82  N   UNL     1       3.523   4.781  -2.580  1.00  0.00    -0.322 N 
ATOM     83  H   UNL     1       2.599   4.496  -2.393  1.00  0.00     0.170 HD
BRANCH  82  84
ATOM     84  C   UNL     1       4.218   5.213  -1.454  1.00  0.00     0.041 A 
ATOM     85  C   UNL     1       4.163   4.392  -0.321  1.00  0.00     0.028 A 
ATOM     86  C   UNL     1       4.998   6.361  -1.448  1.00  0.00     0.028 A 
ATOM     87  C   UNL     1       5.093   4.566   0.702  1.00  0.00     0.029 A 
ATOM     88  C   UNL     1       5.834   6.609  -0.358  1.00  0.00     0.029 A 
ATOM     89  C   UNL     1       5.961   5.656   0.666  1.00  0.00     0.052 A 
BRANCH  89  90
ATOM     90  N   UNL     1       7.073   5.726   1.525  1.00  0.00    -0.250 N 
ATOM     91  C   UNL     1       7.553   6.929   2.057  1.00  0.00     0.237 C 
ATOM     92  C   UNL     1       7.995   4.668   1.676  1.00  0.00     0.237 C 
ATOM     93  O   UNL     1       6.988   7.988   2.247  1.00  0.00    -0.274 OA
ATOM     94  C   UNL     1       9.014   6.675   2.161  1.00  0.00     0.095 C 
ATOM     95  C   UNL     1       9.005   5.231   2.634  1.00  0.00     0.095 C 
ATOM     96  O   UNL     1       7.971   3.532   1.237  1.00  0.00    -0.274 OA
ATOM     97  C   UNL     1      10.157   7.287   2.968  1.00  0.00     0.002 C 
ATOM     98  C   UNL     1      10.483   5.043   2.962  1.00  0.00     0.002 C 
ATOM     99  C   UNL     1      11.382   7.138   2.040  1.00  0.00     0.005 C 
ATOM    100  C   UNL     1      10.551   6.200   3.994  1.00  0.00     0.009 C 
ATOM    101  C   UNL     1      11.475   5.590   1.894  1.00  0.00     0.005 C 
ENDBRANCH  89  90
ENDBRANCH  82  84
ENDBRANCH  76  80
ENDBRANCH  71  74
ENDBRANCH  69  70
ENDBRANCH   1  69
TORSDOF 16
