REMARK SMILES CCC[N@H+]1CCC[C@H](CC(=O)NCCCNC(=O)c2ccc(-c3c4nc(c(-c5ccc(S(=O)(=O)[O-])cc5)c5ccc([nH]5)c(-c5ccc(S(=O)(=O)[O-])cc5)c5nc(c(-c6ccc(S(=O)(=O)[O-])cc6)c6ccc3[nH]6)C=C5)C=C4)cc2)C1
REMARK SMILES IDX 14 1 13 2 12 3 10 4 11 5 9 7 8 8 4 9 5 10 79 11 6 13 7 14
REMARK SMILES IDX 3 15 2 16 1 17 15 18 16 19 17 20 18 22 19 23 20 24 78 25
REMARK SMILES IDX 21 26 77 27 22 28 23 29 24 30 71 31 25 32 76 33 70 34 72 35
REMARK SMILES IDX 26 36 75 37 69 38 68 39 27 41 57 42 38 43 56 44 39 45 42 46
REMARK SMILES IDX 55 47 73 48 40 49 41 50 54 52 74 53 43 54 28 55 29 56 37 57
REMARK SMILES IDX 30 58 36 59 31 60 32 61 33 62 34 63 35 64 58 65 59 66 67 67
REMARK SMILES IDX 60 68 66 69 61 70 62 71 63 72 64 73 65 74 44 75 45 76 53 77
REMARK SMILES IDX 46 78 52 79 47 80 48 81 49 82 50 83 51 84
REMARK H PARENT 12 6 4 12 16 21 72 40 42 51
REMARK Flexibility Score: inf
ROOT
ATOM      1  C   UNL     1       0.351   1.308  -7.631  1.00  0.00     0.042 C 
ENDROOT
BRANCH   1   2
ATOM      2  C   UNL     1      -0.972   1.299  -6.872  1.00  0.00     0.117 C 
BRANCH   2   3
ATOM      3  N   UNL     1      -1.285  -0.037  -6.398  1.00  0.00    -0.356 N 
ATOM      4  C   UNL     1      -1.141  -0.581  -5.157  1.00  0.00     0.220 C 
ATOM      5  O   UNL     1      -1.352  -1.789  -5.027  1.00  0.00    -0.275 OA
ATOM      6  H   UNL     1      -1.659  -0.643  -7.078  1.00  0.00     0.163 HD
BRANCH   4   7
ATOM      7  C   UNL     1      -0.763   0.277  -3.963  1.00  0.00     0.109 C 
BRANCH   7   8
ATOM      8  C   UNL     1       0.733   0.193  -3.590  1.00  0.00     0.054 C 
ATOM      9  N   UNL     1       0.723   1.909  -1.733  1.00  0.00    -0.335 N 
ATOM     10  C   UNL     1       1.493   2.844  -2.585  1.00  0.00     0.262 C 
ATOM     11  C   UNL     1       0.958   0.504  -2.098  1.00  0.00     0.266 C 
ATOM     12  H   UNL     1      -0.279   2.049  -1.868  1.00  0.00     0.348 HD
ATOM     13  C   UNL     1       1.343   2.586  -4.079  1.00  0.00     0.062 C 
ATOM     14  C   UNL     1       1.644   1.128  -4.383  1.00  0.00     0.016 C 
BRANCH   9  15
ATOM     15  C   UNL     1       1.088   2.198  -0.328  1.00  0.00     0.261 C 
BRANCH  15  16
ATOM     16  C   UNL     1       0.459   1.338   0.780  1.00  0.00     0.058 C 
ATOM     17  C   UNL     1       1.146  -0.003   1.018  1.00  0.00     0.010 C 
ENDBRANCH  15  16
ENDBRANCH   9  15
ENDBRANCH   7   8
ENDBRANCH   4   7
ENDBRANCH   2   3
ENDBRANCH   1   2
BRANCH   1  18
ATOM     18  C   UNL     1       0.218   0.997  -9.109  1.00  0.00     0.118 C 
BRANCH  18  19
ATOM     19  N   UNL     1      -0.264   2.135  -9.871  1.00  0.00    -0.352 N 
ATOM     20  C   UNL     1       0.379   2.926 -10.794  1.00  0.00     0.251 C 
ATOM     21  H   UNL     1      -1.202   2.379  -9.700  1.00  0.00     0.163 HD
ATOM     22  O   UNL     1      -0.164   3.966 -11.160  1.00  0.00    -0.269 OA
BRANCH  20  23
ATOM     23  C   UNL     1       1.713   2.559 -11.333  1.00  0.00     0.039 A 
ATOM     24  C   UNL     1       2.623   3.581 -11.626  1.00  0.00     0.014 A 
ATOM     25  C   UNL     1       2.067   1.235 -11.597  1.00  0.00     0.014 A 
ATOM     26  C   UNL     1       3.890   3.269 -12.129  1.00  0.00     0.010 A 
ATOM     27  C   UNL     1       3.365   0.918 -11.991  1.00  0.00     0.010 A 
ATOM     28  C   UNL     1       4.286   1.932 -12.287  1.00  0.00    -0.014 A 
BRANCH  28  29
ATOM     29  C   UNL     1       5.636   1.574 -12.799  1.00  0.00     0.031 A 
ATOM     30  C   UNL     1       5.773   0.784 -14.078  1.00  0.00     0.074 A 
ATOM     31  C   UNL     1       6.735   1.905 -12.091  1.00  0.00     0.049 A 
ATOM     32  N   UNL     1       6.854   0.317 -14.648  1.00  0.00    -0.248 NA
ATOM     33  C   UNL     1       4.531   0.447 -14.796  1.00  0.00     0.031 C 
ATOM     34  C   UNL     1       6.738   2.623 -10.813  1.00  0.00     0.029 A 
ATOM     35  N   UNL     1       8.066   1.674 -12.339  1.00  0.00    -0.354 N 
ATOM     36  C   UNL     1       6.422  -0.390 -15.765  1.00  0.00     0.074 A 
ATOM     37  C   UNL     1       4.978  -0.331 -15.772  1.00  0.00     0.031 C 
ATOM     38  C   UNL     1       8.007   2.794 -10.405  1.00  0.00     0.029 A 
ATOM     39  C   UNL     1       8.906   2.164 -11.365  1.00  0.00     0.049 A 
ATOM     40  H   UNL     1       8.389   1.202 -13.141  1.00  0.00     0.167 HD
ATOM     41  C   UNL     1       7.160  -1.013 -16.713  1.00  0.00     0.031 A 
ATOM     42  C   UNL     1      10.247   2.103 -11.251  1.00  0.00     0.031 A 
ATOM     43  C   UNL     1       8.597  -1.032 -16.730  1.00  0.00     0.049 A 
ATOM     44  C   UNL     1      11.044   1.422 -12.332  1.00  0.00     0.074 A 
ATOM     45  C   UNL     1       9.437  -1.565 -17.693  1.00  0.00     0.029 A 
ATOM     46  N   UNL     1       9.408  -0.494 -15.744  1.00  0.00    -0.354 N 
ATOM     47  N   UNL     1      10.616   0.833 -13.423  1.00  0.00    -0.248 NA
ATOM     48  C   UNL     1      12.505   1.410 -12.175  1.00  0.00     0.031 C 
ATOM     49  C   UNL     1      10.755  -1.395 -17.263  1.00  0.00     0.029 A 
ATOM     50  C   UNL     1      10.738  -0.704 -16.062  1.00  0.00     0.049 A 
ATOM     51  H   UNL     1       9.086  -0.030 -14.937  1.00  0.00     0.167 HD
ATOM     52  C   UNL     1      11.757   0.405 -14.094  1.00  0.00     0.074 A 
ATOM     53  C   UNL     1      12.892   0.820 -13.297  1.00  0.00     0.031 C 
ATOM     54  C   UNL     1      11.856  -0.274 -15.263  1.00  0.00     0.031 A 
BRANCH  41  55
ATOM     55  C   UNL     1       6.433  -1.725 -17.825  1.00  0.00    -0.014 A 
ATOM     56  C   UNL     1       5.758  -1.008 -18.829  1.00  0.00     0.010 A 
ATOM     57  C   UNL     1       6.497  -3.128 -17.911  1.00  0.00     0.010 A 
ATOM     58  C   UNL     1       5.145  -1.682 -19.889  1.00  0.00     0.020 A 
ATOM     59  C   UNL     1       5.909  -3.804 -18.984  1.00  0.00     0.020 A 
ATOM     60  C   UNL     1       5.229  -3.076 -19.962  1.00  0.00     0.054 A 
BRANCH  60  61
ATOM     61  S   UNL     1       4.479  -3.917 -21.384  1.00  0.00     0.124 S 
ATOM     62  O   UNL     1       3.054  -3.781 -21.098  1.00  0.00    -0.237 OA
ATOM     63  O   UNL     1       4.971  -3.133 -22.514  1.00  0.00    -0.237 OA
ATOM     64  O   UNL     1       5.004  -5.278 -21.299  1.00  0.00    -0.744 OA
ENDBRANCH  60  61
ENDBRANCH  41  55
BRANCH  42  65
ATOM     65  C   UNL     1      10.929   2.696 -10.066  1.00  0.00    -0.014 A 
ATOM     66  C   UNL     1      11.750   3.830 -10.200  1.00  0.00     0.010 A 
ATOM     67  C   UNL     1      10.777   2.111  -8.795  1.00  0.00     0.010 A 
ATOM     68  C   UNL     1      12.434   4.345  -9.095  1.00  0.00     0.020 A 
ATOM     69  C   UNL     1      11.434   2.643  -7.681  1.00  0.00     0.020 A 
ATOM     70  C   UNL     1      12.275   3.745  -7.842  1.00  0.00     0.054 A 
BRANCH  70  71
ATOM     71  S   UNL     1      13.157   4.439  -6.417  1.00  0.00     0.124 S 
ATOM     72  O   UNL     1      14.524   3.989  -6.659  1.00  0.00    -0.237 OA
ATOM     73  O   UNL     1      12.925   5.873  -6.568  1.00  0.00    -0.237 OA
ATOM     74  O   UNL     1      12.489   3.826  -5.271  1.00  0.00    -0.744 OA
ENDBRANCH  70  71
ENDBRANCH  42  65
BRANCH  54  75
ATOM     75  C   UNL     1      13.238  -0.577 -15.776  1.00  0.00    -0.014 A 
ATOM     76  C   UNL     1      14.046  -1.550 -15.163  1.00  0.00     0.010 A 
ATOM     77  C   UNL     1      13.707   0.080 -16.928  1.00  0.00     0.010 A 
ATOM     78  C   UNL     1      15.313  -1.838 -15.676  1.00  0.00     0.020 A 
ATOM     79  C   UNL     1      14.961  -0.226 -17.461  1.00  0.00     0.020 A 
ATOM     80  C   UNL     1      15.762  -1.174 -16.822  1.00  0.00     0.054 A 
BRANCH  80  81
ATOM     81  S   UNL     1      17.392  -1.600 -17.495  1.00  0.00     0.124 S 
ATOM     82  O   UNL     1      18.291  -0.968 -16.533  1.00  0.00    -0.237 OA
ATOM     83  O   UNL     1      17.376  -3.060 -17.474  1.00  0.00    -0.237 OA
ATOM     84  O   UNL     1      17.384  -1.001 -18.828  1.00  0.00    -0.744 OA
ENDBRANCH  80  81
ENDBRANCH  54  75
ENDBRANCH  28  29
ENDBRANCH  20  23
ENDBRANCH  18  19
ENDBRANCH   1  18
TORSDOF 16
