REMARK SMILES CCc1ccc(S(=O)(=O)c2nnn(-c3ccc(C(=O)NCCCNC(=O)c4ccc(-c5c6nc(c(-c7ccc(S(=O)(=O)[O-])cc7)c7ccc([nH]7)c(-c7ccc(S(=O)(=O)[O-])cc7)c7nc(c(-c8ccc(S(=O)(=O)[O-])cc8)c8ccc5[nH]8)C=C7)C=C6)cc4)cc3)c2C)cc1
REMARK SMILES IDX 21 1 20 2 18 3 19 4 17 6 14 7 15 8 88 9 16 10 87 11 13 12
REMARK SMILES IDX 10 13 11 14 89 15 12 16 90 17 7 18 8 19 9 20 6 21 3 22 4 23
REMARK SMILES IDX 92 24 5 25 91 26 2 27 1 28 22 29 23 30 24 31 25 32 26 34
REMARK SMILES IDX 27 35 28 36 86 37 29 38 85 39 30 40 31 41 32 42 79 43 33 44
REMARK SMILES IDX 84 45 78 46 80 47 34 48 83 49 77 50 76 51 35 53 65 54 46 55
REMARK SMILES IDX 64 56 47 57 50 58 63 59 81 60 48 61 49 62 62 64 82 65 51 66
REMARK SMILES IDX 36 67 37 68 45 69 38 70 44 71 39 72 40 73 41 74 42 75 43 76
REMARK SMILES IDX 66 77 67 78 75 79 68 80 74 81 69 82 70 83 71 84 72 85 73 86
REMARK SMILES IDX 52 87 53 88 61 89 54 90 60 91 55 92 56 93 57 94 58 95 59 96
REMARK H PARENT 20 5 24 33 80 52 50 63
REMARK Flexibility Score: inf
ROOT
ATOM      1  C   UNL     1       4.668  12.687  -1.391  1.00  0.00     0.118 C 
ENDROOT
BRANCH   1   2
ATOM      2  N   UNL     1       3.357  13.314  -1.316  1.00  0.00    -0.352 N 
ATOM      3  C   UNL     1       2.110  12.915  -1.737  1.00  0.00     0.251 C 
ATOM      4  O   UNL     1       1.148  13.610  -1.415  1.00  0.00    -0.269 OA
ATOM      5  H   UNL     1       3.364  14.196  -0.878  1.00  0.00     0.163 HD
BRANCH   3   6
ATOM      6  C   UNL     1       1.863  11.664  -2.511  1.00  0.00     0.039 A 
ATOM      7  C   UNL     1       1.326   9.213  -3.756  1.00  0.00     0.067 A 
ATOM      8  C   UNL     1       0.287   9.898  -3.127  1.00  0.00     0.029 A 
ATOM      9  C   UNL     1       2.588   9.793  -3.870  1.00  0.00     0.029 A 
ATOM     10  C   UNL     1       0.570  11.109  -2.481  1.00  0.00     0.016 A 
ATOM     11  C   UNL     1       2.835  11.028  -3.282  1.00  0.00     0.016 A 
BRANCH   7  12
ATOM     12  N   UNL     1       1.136   7.913  -4.255  1.00  0.00    -0.216 N 
ATOM     13  C   UNL     1       1.402   5.861  -4.913  1.00  0.00     0.205 A 
ATOM     14  N   UNL     1       0.201   6.320  -5.384  1.00  0.00    -0.117 NA
ATOM     15  C   UNL     1       1.980   6.825  -4.105  1.00  0.00     0.081 A 
ATOM     16  N   UNL     1       0.009   7.540  -4.898  1.00  0.00    -0.061 NA
ATOM     17  C   UNL     1       3.098   6.761  -3.128  1.00  0.00     0.070 C 
BRANCH  13  18
ATOM     18  S   UNL     1       1.907   4.223  -5.114  1.00  0.00     0.227 S 
ATOM     19  O   UNL     1       3.350   4.291  -5.179  1.00  0.00    -0.217 OA
ATOM     20  O   UNL     1       1.105   3.683  -6.199  1.00  0.00    -0.217 OA
BRANCH  18  21
ATOM     21  C   UNL     1       1.468   3.364  -3.628  1.00  0.00     0.073 A 
ATOM     22  C   UNL     1       0.879   1.949  -1.277  1.00  0.00    -0.048 A 
ATOM     23  C   UNL     1       1.674   1.371  -2.277  1.00  0.00     0.005 A 
ATOM     24  C   UNL     1       0.394   3.252  -1.472  1.00  0.00     0.005 A 
ATOM     25  C   UNL     1       1.975   2.076  -3.446  1.00  0.00     0.021 A 
ATOM     26  C   UNL     1       0.674   3.955  -2.643  1.00  0.00     0.021 A 
BRANCH  22  27
ATOM     27  C   UNL     1       0.502   1.248   0.009  1.00  0.00     0.032 C 
ATOM     28  C   UNL     1       0.965  -0.193   0.166  1.00  0.00     0.009 C 
ENDBRANCH  22  27
ENDBRANCH  18  21
ENDBRANCH  13  18
ENDBRANCH   7  12
ENDBRANCH   3   6
ENDBRANCH   1   2
BRANCH   1  29
ATOM     29  C   UNL     1       5.462  13.151  -2.620  1.00  0.00     0.042 C 
BRANCH  29  30
ATOM     30  C   UNL     1       6.235  14.437  -2.375  1.00  0.00     0.118 C 
BRANCH  30  31
ATOM     31  N   UNL     1       7.384  14.219  -1.502  1.00  0.00    -0.352 N 
ATOM     32  C   UNL     1       8.206  15.163  -0.929  1.00  0.00     0.251 C 
ATOM     33  H   UNL     1       7.597  13.280  -1.297  1.00  0.00     0.163 HD
ATOM     34  O   UNL     1       9.317  14.845  -0.519  1.00  0.00    -0.269 OA
BRANCH  32  35
ATOM     35  C   UNL     1       7.742  16.558  -0.846  1.00  0.00     0.039 A 
ATOM     36  C   UNL     1       8.592  17.600  -1.223  1.00  0.00     0.014 A 
ATOM     37  C   UNL     1       6.434  16.815  -0.436  1.00  0.00     0.014 A 
ATOM     38  C   UNL     1       8.086  18.895  -1.281  1.00  0.00     0.010 A 
ATOM     39  C   UNL     1       5.907  18.081  -0.588  1.00  0.00     0.010 A 
ATOM     40  C   UNL     1       6.731  19.130  -0.996  1.00  0.00    -0.014 A 
BRANCH  40  41
ATOM     41  C   UNL     1       6.154  20.448  -1.265  1.00  0.00     0.031 A 
ATOM     42  C   UNL     1       6.341  20.955  -2.655  1.00  0.00     0.074 A 
ATOM     43  C   UNL     1       5.315  21.096  -0.431  1.00  0.00     0.049 A 
ATOM     44  N   UNL     1       7.058  21.957  -3.046  1.00  0.00    -0.248 NA
ATOM     45  C   UNL     1       5.740  20.188  -3.758  1.00  0.00     0.031 C 
ATOM     46  C   UNL     1       4.738  20.613   0.827  1.00  0.00     0.029 A 
ATOM     47  N   UNL     1       4.694  22.296  -0.610  1.00  0.00    -0.354 N 
ATOM     48  C   UNL     1       6.839  22.082  -4.416  1.00  0.00     0.074 A 
ATOM     49  C   UNL     1       6.162  20.875  -4.823  1.00  0.00     0.031 C 
ATOM     50  C   UNL     1       3.682  21.387   1.161  1.00  0.00     0.029 A 
ATOM     51  C   UNL     1       3.620  22.511   0.245  1.00  0.00     0.049 A 
ATOM     52  H   UNL     1       4.981  22.952  -1.285  1.00  0.00     0.167 HD
ATOM     53  C   UNL     1       7.027  23.262  -5.074  1.00  0.00     0.031 A 
ATOM     54  C   UNL     1       2.720  23.522   0.186  1.00  0.00     0.031 A 
ATOM     55  C   UNL     1       7.723  24.223  -4.259  1.00  0.00     0.049 A 
ATOM     56  C   UNL     1       3.333  24.616  -0.604  1.00  0.00     0.074 A 
ATOM     57  C   UNL     1       8.948  24.269  -3.625  1.00  0.00     0.029 A 
ATOM     58  N   UNL     1       6.960  25.216  -3.688  1.00  0.00    -0.354 N 
ATOM     59  N   UNL     1       4.364  25.304  -0.201  1.00  0.00    -0.248 NA
ATOM     60  C   UNL     1       3.056  24.689  -2.029  1.00  0.00     0.031 C 
ATOM     61  C   UNL     1       8.701  24.956  -2.400  1.00  0.00     0.029 A 
ATOM     62  C   UNL     1       7.359  25.343  -2.384  1.00  0.00     0.049 A 
ATOM     63  H   UNL     1       6.257  25.740  -4.136  1.00  0.00     0.167 HD
ATOM     64  C   UNL     1       5.108  25.535  -1.348  1.00  0.00     0.074 A 
ATOM     65  C   UNL     1       4.196  25.244  -2.451  1.00  0.00     0.031 C 
ATOM     66  C   UNL     1       6.466  25.671  -1.292  1.00  0.00     0.031 A 
BRANCH  53  67
ATOM     67  C   UNL     1       6.245  23.696  -6.294  1.00  0.00    -0.014 A 
ATOM     68  C   UNL     1       6.572  24.925  -6.908  1.00  0.00     0.010 A 
ATOM     69  C   UNL     1       5.030  23.096  -6.680  1.00  0.00     0.010 A 
ATOM     70  C   UNL     1       5.688  25.559  -7.793  1.00  0.00     0.020 A 
ATOM     71  C   UNL     1       4.163  23.697  -7.598  1.00  0.00     0.020 A 
ATOM     72  C   UNL     1       4.480  24.945  -8.117  1.00  0.00     0.054 A 
BRANCH  72  73
ATOM     73  S   UNL     1       3.291  25.821  -9.163  1.00  0.00     0.124 S 
ATOM     74  O   UNL     1       2.880  26.918  -8.293  1.00  0.00    -0.237 OA
ATOM     75  O   UNL     1       4.108  26.196 -10.314  1.00  0.00    -0.237 OA
ATOM     76  O   UNL     1       2.267  24.814  -9.432  1.00  0.00    -0.744 OA
ENDBRANCH  72  73
ENDBRANCH  53  67
BRANCH  54  77
ATOM     77  C   UNL     1       1.286  23.506   0.558  1.00  0.00    -0.014 A 
ATOM     78  C   UNL     1       0.563  24.706   0.687  1.00  0.00     0.010 A 
ATOM     79  C   UNL     1       0.556  22.301   0.509  1.00  0.00     0.010 A 
ATOM     80  C   UNL     1      -0.841  24.706   0.690  1.00  0.00     0.020 A 
ATOM     81  C   UNL     1      -0.844  22.292   0.522  1.00  0.00     0.020 A 
ATOM     82  C   UNL     1      -1.536  23.499   0.583  1.00  0.00     0.054 A 
BRANCH  82  83
ATOM     83  S   UNL     1      -3.342  23.525   0.380  1.00  0.00     0.124 S 
ATOM     84  O   UNL     1      -3.798  23.926   1.707  1.00  0.00    -0.237 OA
ATOM     85  O   UNL     1      -3.528  24.514  -0.678  1.00  0.00    -0.237 OA
ATOM     86  O   UNL     1      -3.666  22.150   0.001  1.00  0.00    -0.744 OA
ENDBRANCH  82  83
ENDBRANCH  54  77
BRANCH  66  87
ATOM     87  C   UNL     1       7.114  25.940   0.046  1.00  0.00    -0.014 A 
ATOM     88  C   UNL     1       7.003  25.091   1.163  1.00  0.00     0.010 A 
ATOM     89  C   UNL     1       7.985  27.042   0.126  1.00  0.00     0.010 A 
ATOM     90  C   UNL     1       7.718  25.360   2.340  1.00  0.00     0.020 A 
ATOM     91  C   UNL     1       8.716  27.303   1.286  1.00  0.00     0.020 A 
ATOM     92  C   UNL     1       8.570  26.468   2.393  1.00  0.00     0.054 A 
BRANCH  92  93
ATOM     93  S   UNL     1       9.520  26.794   3.904  1.00  0.00     0.124 S 
ATOM     94  O   UNL     1       8.483  27.197   4.850  1.00  0.00    -0.237 OA
ATOM     95  O   UNL     1      10.153  25.506   4.175  1.00  0.00    -0.237 OA
ATOM     96  O   UNL     1      10.444  27.858   3.512  1.00  0.00    -0.744 OA
ENDBRANCH  92  93
ENDBRANCH  66  87
ENDBRANCH  40  41
ENDBRANCH  32  35
ENDBRANCH  30  31
ENDBRANCH  29  30
ENDBRANCH   1  29
TORSDOF 17
