REMARK SMILES C[C@@H](C(=O)NCCCNC(=O)c1ccc(-c2c3nc(c(-c4ccc(S(=O)(=O)[O-])cc4)c4ccc([nH]4)c(-c4ccc(S(=O)(=O)[O-])cc4)c4nc(c(-c5ccc(S(=O)(=O)[O-])cc5)c5ccc2[nH]5)C=C4)C=C3)cc1)n1ccc(C(=O)N2CC[NH+](Cc3cccc(F)c3)CC2)n1
REMARK SMILES IDX 6 1 5 2 3 3 4 4 2 6 1 7 72 8 73 9 92 10 74 11 75 12 76 13
REMARK SMILES IDX 77 14 78 15 79 16 91 17 80 18 90 19 81 20 82 22 83 23 84 24
REMARK SMILES IDX 89 25 85 26 87 27 86 28 88 29 7 30 8 31 9 32 10 33 11 35
REMARK SMILES IDX 12 36 13 37 71 38 14 39 70 40 15 41 16 42 17 43 64 44 18 45
REMARK SMILES IDX 69 46 63 47 65 48 19 49 68 50 62 51 61 52 20 54 50 55 31 56
REMARK SMILES IDX 49 57 32 58 35 59 48 60 66 61 33 62 34 63 47 65 67 66 36 67
REMARK SMILES IDX 21 68 22 69 30 70 23 71 29 72 24 73 25 74 26 75 27 76 28 77
REMARK SMILES IDX 51 78 52 79 60 80 53 81 59 82 54 83 55 84 56 85 57 86 58 87
REMARK SMILES IDX 37 88 38 89 46 90 39 91 45 92 40 93 41 94 42 95 43 96 44 97
REMARK H PARENT 5 5 81 21 9 34 65 53 35 64
REMARK Flexibility Score: inf
ROOT
ATOM      1  C   UNL     1       3.320   1.387  -1.505  1.00  0.00     0.117 C 
ENDROOT
BRANCH   1   2
ATOM      2  N   UNL     1       2.289   0.890  -2.400  1.00  0.00    -0.354 N 
ATOM      3  C   UNL     1       0.990   0.536  -2.149  1.00  0.00     0.244 C 
ATOM      4  O   UNL     1       0.337   0.112  -3.105  1.00  0.00    -0.273 OA
ATOM      5  H   UNL     1       2.569   0.792  -3.338  1.00  0.00     0.163 HD
BRANCH   3   6
ATOM      6  C   UNL     1       0.424   0.650  -0.738  1.00  0.00     0.193 C 
ATOM      7  C   UNL     1       0.841  -0.532   0.133  1.00  0.00     0.044 C 
BRANCH   6   8
ATOM      8  N   UNL     1      -1.033   0.801  -0.761  1.00  0.00    -0.260 N 
ATOM      9  C   UNL     1      -1.968  -0.163  -1.012  1.00  0.00     0.110 A 
ATOM     10  N   UNL     1      -1.574   1.970  -0.354  1.00  0.00    -0.167 NA
ATOM     11  C   UNL     1      -3.185   0.402  -0.719  1.00  0.00     0.056 A 
ATOM     12  C   UNL     1      -2.901   1.738  -0.332  1.00  0.00     0.150 A 
BRANCH  12  13
ATOM     13  C   UNL     1      -3.884   2.730   0.133  1.00  0.00     0.274 C 
ATOM     14  O   UNL     1      -4.830   2.378   0.845  1.00  0.00    -0.267 OA
ATOM     15  N   UNL     1      -3.736   4.067  -0.266  1.00  0.00    -0.326 N 
ATOM     16  C   UNL     1      -4.695   5.022   0.274  1.00  0.00     0.181 C 
ATOM     17  C   UNL     1      -3.077   4.446  -1.519  1.00  0.00     0.181 C 
ATOM     18  C   UNL     1      -4.245   6.489   0.165  1.00  0.00     0.284 C 
ATOM     19  C   UNL     1      -2.677   5.931  -1.592  1.00  0.00     0.284 C 
ATOM     20  N   UNL     1      -3.674   6.897  -1.121  1.00  0.00    -0.328 N 
ATOM     21  H   UNL     1      -3.160   7.758  -0.935  1.00  0.00     0.348 HD
BRANCH  20  22
ATOM     22  C   UNL     1      -4.609   7.414  -2.120  1.00  0.00     0.299 C 
BRANCH  22  23
ATOM     23  C   UNL     1      -5.594   6.452  -2.740  1.00  0.00     0.009 A 
ATOM     24  C   UNL     1      -5.279   5.765  -3.924  1.00  0.00     0.010 A 
ATOM     25  C   UNL     1      -6.852   6.239  -2.158  1.00  0.00     0.048 A 
ATOM     26  C   UNL     1      -6.178   4.853  -4.485  1.00  0.00     0.004 A 
ATOM     27  C   UNL     1      -7.739   5.327  -2.721  1.00  0.00     0.123 A 
ATOM     28  C   UNL     1      -7.410   4.627  -3.875  1.00  0.00     0.039 A 
ATOM     29  F   UNL     1      -8.926   5.119  -2.138  1.00  0.00    -0.207 F 
ENDBRANCH  22  23
ENDBRANCH  20  22
ENDBRANCH  12  13
ENDBRANCH   6   8
ENDBRANCH   3   6
ENDBRANCH   1   2
BRANCH   1  30
ATOM     30  C   UNL     1       4.335   0.312  -1.123  1.00  0.00     0.042 C 
BRANCH  30  31
ATOM     31  C   UNL     1       5.115  -0.281  -2.294  1.00  0.00     0.118 C 
BRANCH  31  32
ATOM     32  N   UNL     1       6.025   0.671  -2.909  1.00  0.00    -0.352 N 
ATOM     33  C   UNL     1       7.341   0.507  -3.266  1.00  0.00     0.251 C 
ATOM     34  H   UNL     1       5.644   1.559  -3.096  1.00  0.00     0.163 HD
ATOM     35  O   UNL     1       7.986   1.482  -3.649  1.00  0.00    -0.269 OA
BRANCH  33  36
ATOM     36  C   UNL     1       7.994  -0.819  -3.168  1.00  0.00     0.039 A 
ATOM     37  C   UNL     1       9.274  -0.894  -2.607  1.00  0.00     0.014 A 
ATOM     38  C   UNL     1       7.374  -1.977  -3.649  1.00  0.00     0.014 A 
ATOM     39  C   UNL     1       9.907  -2.133  -2.475  1.00  0.00     0.010 A 
ATOM     40  C   UNL     1       7.990  -3.218  -3.480  1.00  0.00     0.010 A 
ATOM     41  C   UNL     1       9.260  -3.307  -2.889  1.00  0.00    -0.014 A 
BRANCH  41  42
ATOM     42  C   UNL     1       9.896  -4.635  -2.709  1.00  0.00     0.031 A 
ATOM     43  C   UNL     1      10.383  -5.413  -3.899  1.00  0.00     0.074 A 
ATOM     44  C   UNL     1       9.986  -5.170  -1.476  1.00  0.00     0.049 A 
ATOM     45  N   UNL     1      10.889  -6.619  -3.942  1.00  0.00    -0.248 NA
ATOM     46  C   UNL     1      10.269  -4.757  -5.210  1.00  0.00     0.031 C 
ATOM     47  C   UNL     1       9.524  -4.536  -0.239  1.00  0.00     0.029 A 
ATOM     48  N   UNL     1      10.488  -6.379  -1.063  1.00  0.00    -0.354 N 
ATOM     49  C   UNL     1      11.129  -6.880  -5.285  1.00  0.00     0.074 A 
ATOM     50  C   UNL     1      10.701  -5.710  -6.025  1.00  0.00     0.031 C 
ATOM     51  C   UNL     1       9.776  -5.356   0.794  1.00  0.00     0.029 A 
ATOM     52  C   UNL     1      10.393  -6.580   0.292  1.00  0.00     0.049 A 
ATOM     53  H   UNL     1      10.880  -7.038  -1.680  1.00  0.00     0.167 HD
ATOM     54  C   UNL     1      11.658  -7.989  -5.854  1.00  0.00     0.031 A 
ATOM     55  C   UNL     1      10.757  -7.633   1.048  1.00  0.00     0.031 A 
ATOM     56  C   UNL     1      12.108  -9.145  -5.128  1.00  0.00     0.049 A 
ATOM     57  C   UNL     1      11.383  -8.834   0.401  1.00  0.00     0.074 A 
ATOM     58  C   UNL     1      12.689 -10.301  -5.621  1.00  0.00     0.029 A 
ATOM     59  N   UNL     1      12.035  -9.289  -3.752  1.00  0.00    -0.354 N 
ATOM     60  N   UNL     1      11.621  -9.050  -0.870  1.00  0.00    -0.248 NA
ATOM     61  C   UNL     1      11.796  -9.928   1.292  1.00  0.00     0.031 C 
ATOM     62  C   UNL     1      12.957 -11.151  -4.540  1.00  0.00     0.029 A 
ATOM     63  C   UNL     1      12.559 -10.514  -3.376  1.00  0.00     0.049 A 
ATOM     64  H   UNL     1      11.665  -8.619  -3.133  1.00  0.00     0.167 HD
ATOM     65  C   UNL     1      12.221 -10.302  -0.931  1.00  0.00     0.074 A 
ATOM     66  C   UNL     1      12.318 -10.791   0.429  1.00  0.00     0.031 C 
ATOM     67  C   UNL     1      12.651 -10.985  -2.020  1.00  0.00     0.031 A 
BRANCH  54  68
ATOM     68  C   UNL     1      11.764  -7.998  -7.352  1.00  0.00    -0.014 A 
ATOM     69  C   UNL     1      12.800  -7.307  -8.004  1.00  0.00     0.010 A 
ATOM     70  C   UNL     1      10.817  -8.704  -8.115  1.00  0.00     0.010 A 
ATOM     71  C   UNL     1      12.863  -7.286  -9.400  1.00  0.00     0.020 A 
ATOM     72  C   UNL     1      10.886  -8.697  -9.510  1.00  0.00     0.020 A 
ATOM     73  C   UNL     1      11.896  -7.969 -10.144  1.00  0.00     0.054 A 
BRANCH  73  74
ATOM     74  S   UNL     1      11.981  -7.928 -11.956  1.00  0.00     0.124 S 
ATOM     75  O   UNL     1      11.278  -6.683 -12.258  1.00  0.00    -0.237 OA
ATOM     76  O   UNL     1      13.418  -7.916 -12.219  1.00  0.00    -0.237 OA
ATOM     77  O   UNL     1      11.289  -9.150 -12.357  1.00  0.00    -0.744 OA
ENDBRANCH  73  74
ENDBRANCH  54  68
BRANCH  55  78
ATOM     78  C   UNL     1      10.547  -7.586   2.516  1.00  0.00    -0.014 A 
ATOM     79  C   UNL     1      11.613  -7.258   3.371  1.00  0.00     0.010 A 
ATOM     80  C   UNL     1       9.275  -7.833   3.060  1.00  0.00     0.010 A 
ATOM     81  C   UNL     1      11.411  -7.177   4.751  1.00  0.00     0.020 A 
ATOM     82  C   UNL     1       9.067  -7.741   4.438  1.00  0.00     0.020 A 
ATOM     83  C   UNL     1      10.138  -7.419   5.276  1.00  0.00     0.054 A 
BRANCH  83  84
ATOM     84  S   UNL     1       9.861  -7.232   7.060  1.00  0.00     0.124 S 
ATOM     85  O   UNL     1      10.207  -8.558   7.560  1.00  0.00    -0.237 OA
ATOM     86  O   UNL     1      10.784  -6.158   7.422  1.00  0.00    -0.237 OA
ATOM     87  O   UNL     1       8.446  -6.875   7.140  1.00  0.00    -0.744 OA
ENDBRANCH  83  84
ENDBRANCH  55  78
BRANCH  67  88
ATOM     88  C   UNL     1      13.282 -12.325  -1.780  1.00  0.00    -0.014 A 
ATOM     89  C   UNL     1      12.487 -13.468  -1.587  1.00  0.00     0.010 A 
ATOM     90  C   UNL     1      14.682 -12.449  -1.787  1.00  0.00     0.010 A 
ATOM     91  C   UNL     1      13.085 -14.714  -1.384  1.00  0.00     0.020 A 
ATOM     92  C   UNL     1      15.282 -13.695  -1.595  1.00  0.00     0.020 A 
ATOM     93  C   UNL     1      14.479 -14.819  -1.382  1.00  0.00     0.054 A 
BRANCH  93  94
ATOM     94  S   UNL     1      15.246 -16.449  -1.159  1.00  0.00     0.124 S 
ATOM     95  O   UNL     1      15.286 -16.567   0.296  1.00  0.00    -0.237 OA
ATOM     96  O   UNL     1      14.314 -17.347  -1.837  1.00  0.00    -0.237 OA
ATOM     97  O   UNL     1      16.545 -16.305  -1.811  1.00  0.00    -0.744 OA
ENDBRANCH  93  94
ENDBRANCH  67  88
ENDBRANCH  41  42
ENDBRANCH  33  36
ENDBRANCH  31  32
ENDBRANCH  30  31
ENDBRANCH   1  30
TORSDOF 17
