REMARK SMILES CC[C@@H](C)S(=O)(=O)c1cc(C(=O)NCCCNC(=O)c2ccc(-c3c4nc(c(-c5ccc(S(=O)(=O)[O-])cc5)c5ccc([nH]5)c(-c5ccc(S(=O)(=O)[O-])cc5)c5nc(c(-c6ccc(S(=O)(=O)[O-])cc6)c6ccc3[nH]6)C=C5)C=C4)cc2)c(C)cc1C
REMARK SMILES IDX 15 1 14 2 13 3 11 4 12 5 10 7 8 8 9 9 83 10 82 11 84 12
REMARK SMILES IDX 80 13 81 14 5 15 6 16 7 17 3 18 4 19 2 20 1 21 16 22 17 23
REMARK SMILES IDX 18 24 19 26 20 27 21 28 79 29 22 30 78 31 23 32 24 33 25 34
REMARK SMILES IDX 72 35 26 36 77 37 71 38 73 39 27 40 76 41 70 42 69 43 28 45
REMARK SMILES IDX 58 46 39 47 57 48 40 49 43 50 56 51 74 52 41 53 42 54 55 56
REMARK SMILES IDX 75 57 44 58 29 59 30 60 38 61 31 62 37 63 32 64 33 65 34 66
REMARK SMILES IDX 35 67 36 68 59 69 60 70 68 71 61 72 67 73 62 74 63 75 64 76
REMARK SMILES IDX 65 77 66 78 45 79 46 80 54 81 47 82 53 83 48 84 49 85 50 86
REMARK SMILES IDX 51 87 52 88
REMARK H PARENT 13 6 17 25 73 44 43 55
REMARK Flexibility Score: inf
ROOT
ATOM      1  C   UNL     1      -7.377   1.338   4.647  1.00  0.00     0.042 C 
ENDROOT
BRANCH   1   2
ATOM      2  C   UNL     1      -6.436   1.620   3.477  1.00  0.00     0.118 C 
BRANCH   2   3
ATOM      3  N   UNL     1      -5.273   2.339   3.942  1.00  0.00    -0.352 N 
ATOM      4  C   UNL     1      -4.010   1.989   4.326  1.00  0.00     0.251 C 
ATOM      5  O   UNL     1      -3.317   2.940   4.705  1.00  0.00    -0.269 OA
ATOM      6  H   UNL     1      -5.427   3.310   3.994  1.00  0.00     0.163 HD
BRANCH   4   7
ATOM      7  C   UNL     1      -3.361   0.632   4.229  1.00  0.00     0.044 A 
ATOM      8  C   UNL     1      -1.109  -0.405   4.011  1.00  0.00     0.071 A 
ATOM      9  C   UNL     1      -1.953   0.718   4.110  1.00  0.00     0.034 A 
ATOM     10  C   UNL     1      -1.665  -1.683   3.964  1.00  0.00    -0.032 A 
ATOM     11  C   UNL     1      -3.056  -1.778   4.128  1.00  0.00     0.009 A 
ATOM     12  C   UNL     1      -0.934  -2.989   3.857  1.00  0.00     0.046 C 
ATOM     13  C   UNL     1      -3.900  -0.660   4.335  1.00  0.00    -0.038 A 
ATOM     14  C   UNL     1      -5.284  -1.020   4.776  1.00  0.00     0.045 C 
BRANCH   8  15
ATOM     15  S   UNL     1       0.650  -0.065   4.065  1.00  0.00     0.181 S 
ATOM     16  O   UNL     1       1.365  -1.295   4.332  1.00  0.00    -0.223 OA
ATOM     17  O   UNL     1       0.833   1.054   4.976  1.00  0.00    -0.223 OA
BRANCH  15  18
ATOM     18  C   UNL     1       1.090   0.481   2.404  1.00  0.00     0.110 C 
ATOM     19  C   UNL     1       0.633   1.914   2.130  1.00  0.00     0.025 C 
BRANCH  18  20
ATOM     20  C   UNL     1       0.601  -0.511   1.339  1.00  0.00     0.016 C 
ATOM     21  C   UNL     1       1.105  -0.193  -0.061  1.00  0.00     0.005 C 
ENDBRANCH  18  20
ENDBRANCH  15  18
ENDBRANCH   8  15
ENDBRANCH   4   7
ENDBRANCH   2   3
ENDBRANCH   1   2
BRANCH   1  22
ATOM     22  C   UNL     1      -8.351   2.466   4.950  1.00  0.00     0.118 C 
BRANCH  22  23
ATOM     23  N   UNL     1      -9.424   2.527   3.974  1.00  0.00    -0.352 N 
ATOM     24  C   UNL     1     -10.770   2.305   4.129  1.00  0.00     0.251 C 
ATOM     25  H   UNL     1      -9.143   2.766   3.061  1.00  0.00     0.163 HD
ATOM     26  O   UNL     1     -11.466   2.156   3.127  1.00  0.00    -0.269 OA
BRANCH  24  27
ATOM     27  C   UNL     1     -11.385   2.231   5.477  1.00  0.00     0.039 A 
ATOM     28  C   UNL     1     -12.445   1.342   5.683  1.00  0.00     0.014 A 
ATOM     29  C   UNL     1     -10.967   3.059   6.522  1.00  0.00     0.014 A 
ATOM     30  C   UNL     1     -13.051   1.257   6.940  1.00  0.00     0.010 A 
ATOM     31  C   UNL     1     -11.506   2.905   7.798  1.00  0.00     0.010 A 
ATOM     32  C   UNL     1     -12.569   2.018   8.017  1.00  0.00    -0.014 A 
BRANCH  32  33
ATOM     33  C   UNL     1     -13.178   1.915   9.369  1.00  0.00     0.031 A 
ATOM     34  C   UNL     1     -13.834   3.117   9.997  1.00  0.00     0.074 A 
ATOM     35  C   UNL     1     -13.097   0.754  10.050  1.00  0.00     0.049 A 
ATOM     36  N   UNL     1     -14.381   3.233  11.180  1.00  0.00    -0.248 NA
ATOM     37  C   UNL     1     -13.857   4.358   9.205  1.00  0.00     0.031 C 
ATOM     38  C   UNL     1     -12.454  -0.469   9.565  1.00  0.00     0.029 A 
ATOM     39  N   UNL     1     -13.556   0.414  11.298  1.00  0.00    -0.354 N 
ATOM     40  C   UNL     1     -14.794   4.557  11.280  1.00  0.00     0.074 A 
ATOM     41  C   UNL     1     -14.388   5.219  10.060  1.00  0.00     0.031 C 
ATOM     42  C   UNL     1     -12.586  -1.433  10.491  1.00  0.00     0.029 A 
ATOM     43  C   UNL     1     -13.279  -0.886  11.652  1.00  0.00     0.049 A 
ATOM     44  H   UNL     1     -14.038   1.041  11.885  1.00  0.00     0.167 HD
ATOM     45  C   UNL     1     -15.468   5.164  12.286  1.00  0.00     0.031 A 
ATOM     46  C   UNL     1     -13.544  -1.562  12.788  1.00  0.00     0.031 A 
ATOM     47  C   UNL     1     -15.877   4.497  13.494  1.00  0.00     0.049 A 
ATOM     48  C   UNL     1     -14.281  -0.863  13.898  1.00  0.00     0.074 A 
ATOM     49  C   UNL     1     -16.614   5.006  14.549  1.00  0.00     0.029 A 
ATOM     50  N   UNL     1     -15.580   3.180  13.812  1.00  0.00    -0.354 N 
ATOM     51  N   UNL     1     -14.725   0.371  13.942  1.00  0.00    -0.248 NA
ATOM     52  C   UNL     1     -14.565  -1.651  15.104  1.00  0.00     0.031 C 
ATOM     53  C   UNL     1     -16.707   4.016  15.533  1.00  0.00     0.029 A 
ATOM     54  C   UNL     1     -16.092   2.868  15.060  1.00  0.00     0.049 A 
ATOM     55  H   UNL     1     -15.079   2.559  13.235  1.00  0.00     0.167 HD
ATOM     56  C   UNL     1     -15.365   0.498  15.170  1.00  0.00     0.074 A 
ATOM     57  C   UNL     1     -15.265  -0.789  15.828  1.00  0.00     0.031 C 
ATOM     58  C   UNL     1     -15.982   1.582  15.703  1.00  0.00     0.031 A 
BRANCH  45  59
ATOM     59  C   UNL     1     -15.796   6.628  12.129  1.00  0.00    -0.014 A 
ATOM     60  C   UNL     1     -16.728   7.070  11.172  1.00  0.00     0.010 A 
ATOM     61  C   UNL     1     -15.198   7.572  12.984  1.00  0.00     0.010 A 
ATOM     62  C   UNL     1     -17.023   8.430  11.044  1.00  0.00     0.020 A 
ATOM     63  C   UNL     1     -15.515   8.930  12.881  1.00  0.00     0.020 A 
ATOM     64  C   UNL     1     -16.414   9.352  11.900  1.00  0.00     0.054 A 
BRANCH  64  65
ATOM     65  S   UNL     1     -16.838  11.107  11.728  1.00  0.00     0.124 S 
ATOM     66  O   UNL     1     -16.192  11.451  10.464  1.00  0.00    -0.237 OA
ATOM     67  O   UNL     1     -18.298  11.081  11.700  1.00  0.00    -0.237 OA
ATOM     68  O   UNL     1     -16.251  11.725  12.915  1.00  0.00    -0.744 OA
ENDBRANCH  64  65
ENDBRANCH  45  59
BRANCH  46  69
ATOM     69  C   UNL     1     -13.116  -2.982  12.924  1.00  0.00    -0.014 A 
ATOM     70  C   UNL     1     -14.065  -4.019  12.953  1.00  0.00     0.010 A 
ATOM     71  C   UNL     1     -11.749  -3.307  13.005  1.00  0.00     0.010 A 
ATOM     72  C   UNL     1     -13.658  -5.351  13.078  1.00  0.00     0.020 A 
ATOM     73  C   UNL     1     -11.336  -4.639  13.098  1.00  0.00     0.020 A 
ATOM     74  C   UNL     1     -12.294  -5.652  13.144  1.00  0.00     0.054 A 
BRANCH  74  75
ATOM     75  S   UNL     1     -11.788  -7.391  13.248  1.00  0.00     0.124 S 
ATOM     76  O   UNL     1     -12.182  -7.742  14.609  1.00  0.00    -0.237 OA
ATOM     77  O   UNL     1     -12.570  -8.011  12.181  1.00  0.00    -0.237 OA
ATOM     78  O   UNL     1     -10.347  -7.343  13.006  1.00  0.00    -0.744 OA
ENDBRANCH  74  75
ENDBRANCH  46  69
BRANCH  58  79
ATOM     79  C   UNL     1     -16.631   1.418  17.053  1.00  0.00    -0.014 A 
ATOM     80  C   UNL     1     -15.865   1.266  18.222  1.00  0.00     0.010 A 
ATOM     81  C   UNL     1     -18.034   1.474  17.155  1.00  0.00     0.010 A 
ATOM     82  C   UNL     1     -16.492   1.138  19.465  1.00  0.00     0.020 A 
ATOM     83  C   UNL     1     -18.662   1.381  18.399  1.00  0.00     0.020 A 
ATOM     84  C   UNL     1     -17.887   1.199  19.545  1.00  0.00     0.054 A 
BRANCH  84  85
ATOM     85  S   UNL     1     -18.672   1.075  21.175  1.00  0.00     0.124 S 
ATOM     86  O   UNL     1     -18.471  -0.334  21.503  1.00  0.00    -0.237 OA
ATOM     87  O   UNL     1     -17.900   2.023  21.974  1.00  0.00    -0.237 OA
ATOM     88  O   UNL     1     -20.058   1.465  20.924  1.00  0.00    -0.744 OA
ENDBRANCH  84  85
ENDBRANCH  58  79
ENDBRANCH  32  33
ENDBRANCH  24  27
ENDBRANCH  22  23
ENDBRANCH   1  22
TORSDOF 16
