REMARK SMILES C[C@H]1CN(C(=O)N2CC[NH+]([C@@H](C)C(=O)NCCCNC(=O)c3ccc(-c4c5nc(c(-c6ccc(S(=O)(=O)[O-])cc6)c6ccc([nH]6)c(-c6ccc(S(=O)(=O)[O-])cc6)c6nc(c(-c7ccc(S(=O)(=O)[O-])cc7)c7ccc4[nH]7)C=C6)C=C5)cc3)CC2)C[C@@H]1C
REMARK SMILES IDX 18 1 17 2 16 3 15 4 13 5 14 6 11 8 12 9 10 10 1 11 2 12 3 13
REMARK SMILES IDX 85 14 4 15 84 16 86 17 5 18 6 19 7 20 8 21 83 22 9 23 82 24
REMARK SMILES IDX 19 26 20 27 21 29 22 30 23 31 81 32 24 33 80 34 25 35 26 36
REMARK SMILES IDX 27 37 74 38 28 39 79 40 73 41 75 42 29 43 78 44 72 45 71 46
REMARK SMILES IDX 30 48 60 49 41 50 59 51 42 52 45 53 58 54 76 55 43 56 44 57
REMARK SMILES IDX 57 59 77 60 46 61 31 62 32 63 40 64 33 65 39 66 34 67 35 68
REMARK SMILES IDX 36 69 37 70 38 71 61 72 62 73 70 74 63 75 69 76 64 77 65 78
REMARK SMILES IDX 66 79 67 80 68 81 47 82 48 83 56 84 49 85 55 86 50 87 51 88
REMARK SMILES IDX 52 89 53 90 54 91
REMARK H PARENT 15 7 10 25 19 28 75 47 45 58
REMARK Flexibility Score: inf
ROOT
ATOM      1  C   UNL     1      -1.620  -2.541   8.809  1.00  0.00     0.118 C 
ENDROOT
BRANCH   1   2
ATOM      2  C   UNL     1      -1.946  -2.571   7.325  1.00  0.00     0.042 C 
BRANCH   2   3
ATOM      3  C   UNL     1      -3.432  -2.766   7.016  1.00  0.00     0.118 C 
BRANCH   3   4
ATOM      4  N   UNL     1      -4.172  -1.517   7.072  1.00  0.00    -0.351 N 
ATOM      5  C   UNL     1      -4.775  -0.745   6.122  1.00  0.00     0.278 C 
ATOM      6  O   UNL     1      -5.261   0.318   6.533  1.00  0.00    -0.268 OA
ATOM      7  H   UNL     1      -4.255  -1.152   7.983  1.00  0.00     0.163 HD
BRANCH   5   8
ATOM      8  C   UNL     1      -4.909  -1.130   4.619  1.00  0.00     0.271 C 
ATOM      9  C   UNL     1      -5.535  -2.502   4.380  1.00  0.00     0.086 C 
BRANCH   8  10
ATOM     10  N   UNL     1      -3.765  -0.685   3.788  1.00  0.00    -0.322 N 
ATOM     11  C   UNL     1       0.322  -1.369  -1.905  1.00  0.00     0.010 C 
ATOM     12  C   UNL     1       0.823  -1.438  -0.461  1.00  0.00     0.010 C 
ATOM     13  C   UNL     1      -0.347  -1.543   0.513  1.00  0.00     0.125 C 
ATOM     14  C   UNL     1       1.612  -2.732  -0.181  1.00  0.00     0.010 C 
ATOM     15  N   UNL     1      -0.564  -2.974   0.682  1.00  0.00    -0.324 N 
ATOM     16  C   UNL     1       0.502  -3.756   0.079  1.00  0.00     0.125 C 
ATOM     17  C   UNL     1       2.513  -2.585   1.053  1.00  0.00     0.010 C 
ATOM     18  C   UNL     1      -1.479  -3.538   1.539  1.00  0.00     0.320 C 
ATOM     19  O   UNL     1      -1.549  -4.738   1.780  1.00  0.00    -0.248 OA
ATOM     20  N   UNL     1      -2.225  -2.607   2.223  1.00  0.00    -0.313 N 
ATOM     21  C   UNL     1      -2.078  -2.559   3.661  1.00  0.00     0.183 C 
ATOM     22  C   UNL     1      -3.509  -2.160   1.703  1.00  0.00     0.183 C 
ATOM     23  C   UNL     1      -2.427  -1.152   4.156  1.00  0.00     0.284 C 
ATOM     24  C   UNL     1      -3.952  -0.816   2.328  1.00  0.00     0.284 C 
ATOM     25  H   UNL     1      -3.787   0.305   4.035  1.00  0.00     0.348 HD
ENDBRANCH   8  10
ENDBRANCH   5   8
ENDBRANCH   3   4
ENDBRANCH   2   3
ENDBRANCH   1   2
BRANCH   1  26
ATOM     26  N   UNL     1      -1.512  -3.875   9.372  1.00  0.00    -0.352 N 
ATOM     27  C   UNL     1      -0.414  -4.543   9.863  1.00  0.00     0.251 C 
ATOM     28  H   UNL     1      -2.356  -4.380   9.409  1.00  0.00     0.163 HD
ATOM     29  O   UNL     1      -0.507  -5.746  10.091  1.00  0.00    -0.269 OA
BRANCH  27  30
ATOM     30  C   UNL     1       0.874  -3.844  10.102  1.00  0.00     0.039 A 
ATOM     31  C   UNL     1       2.070  -4.530   9.863  1.00  0.00     0.014 A 
ATOM     32  C   UNL     1       0.923  -2.542  10.605  1.00  0.00     0.014 A 
ATOM     33  C   UNL     1       3.299  -3.899  10.084  1.00  0.00     0.010 A 
ATOM     34  C   UNL     1       2.143  -1.879  10.727  1.00  0.00     0.010 A 
ATOM     35  C   UNL     1       3.348  -2.557  10.493  1.00  0.00    -0.014 A 
BRANCH  35  36
ATOM     36  C   UNL     1       4.640  -1.859  10.731  1.00  0.00     0.031 A 
ATOM     37  C   UNL     1       4.968  -1.329  12.105  1.00  0.00     0.074 A 
ATOM     38  C   UNL     1       5.494  -1.649   9.709  1.00  0.00     0.049 A 
ATOM     39  N   UNL     1       6.007  -0.636  12.498  1.00  0.00    -0.248 NA
ATOM     40  C   UNL     1       3.986  -1.587  13.171  1.00  0.00     0.031 C 
ATOM     41  C   UNL     1       5.279  -2.074   8.323  1.00  0.00     0.029 A 
ATOM     42  N   UNL     1       6.714  -1.021   9.677  1.00  0.00    -0.354 N 
ATOM     43  C   UNL     1       5.787  -0.352  13.842  1.00  0.00     0.074 A 
ATOM     44  C   UNL     1       4.494  -0.900  14.183  1.00  0.00     0.031 C 
ATOM     45  C   UNL     1       6.345  -1.722   7.585  1.00  0.00     0.029 A 
ATOM     46  C   UNL     1       7.299  -1.012   8.432  1.00  0.00     0.049 A 
ATOM     47  H   UNL     1       7.131  -0.614  10.470  1.00  0.00     0.167 HD
ATOM     48  C   UNL     1       6.596   0.286  14.722  1.00  0.00     0.031 A 
ATOM     49  C   UNL     1       8.470  -0.490   8.016  1.00  0.00     0.031 A 
ATOM     50  C   UNL     1       7.894   0.807  14.388  1.00  0.00     0.049 A 
ATOM     51  C   UNL     1       9.358   0.205   9.011  1.00  0.00     0.074 A 
ATOM     52  C   UNL     1       8.818   1.415  15.219  1.00  0.00     0.029 A 
ATOM     53  N   UNL     1       8.456   0.777  13.120  1.00  0.00    -0.354 N 
ATOM     54  N   UNL     1       9.156   0.412  10.291  1.00  0.00    -0.248 NA
ATOM     55  C   UNL     1      10.637   0.726   8.509  1.00  0.00     0.031 C 
ATOM     56  C   UNL     1       9.919   1.794  14.444  1.00  0.00     0.029 A 
ATOM     57  C   UNL     1       9.705   1.372  13.142  1.00  0.00     0.049 A 
ATOM     58  H   UNL     1       8.028   0.389  12.322  1.00  0.00     0.167 HD
ATOM     59  C   UNL     1      10.295   1.064  10.752  1.00  0.00     0.074 A 
ATOM     60  C   UNL     1      11.185   1.204   9.618  1.00  0.00     0.031 C 
ATOM     61  C   UNL     1      10.579   1.504  12.003  1.00  0.00     0.031 A 
BRANCH  48  62
ATOM     62  C   UNL     1       6.092   0.457  16.132  1.00  0.00    -0.014 A 
ATOM     63  C   UNL     1       5.951  -0.647  16.993  1.00  0.00     0.010 A 
ATOM     64  C   UNL     1       5.776   1.741  16.612  1.00  0.00     0.010 A 
ATOM     65  C   UNL     1       5.453  -0.478  18.288  1.00  0.00     0.020 A 
ATOM     66  C   UNL     1       5.306   1.919  17.917  1.00  0.00     0.020 A 
ATOM     67  C   UNL     1       5.128   0.804  18.740  1.00  0.00     0.054 A 
BRANCH  67  68
ATOM     68  S   UNL     1       4.491   0.997  20.427  1.00  0.00     0.124 S 
ATOM     69  O   UNL     1       3.131   0.478  20.295  1.00  0.00    -0.237 OA
ATOM     70  O   UNL     1       5.404   0.170  21.212  1.00  0.00    -0.237 OA
ATOM     71  O   UNL     1       4.588   2.433  20.673  1.00  0.00    -0.744 OA
ENDBRANCH  67  68
ENDBRANCH  48  62
BRANCH  49  72
ATOM     72  C   UNL     1       8.878  -0.630   6.591  1.00  0.00    -0.014 A 
ATOM     73  C   UNL     1       9.920  -1.502   6.231  1.00  0.00     0.010 A 
ATOM     74  C   UNL     1       8.209   0.088   5.583  1.00  0.00     0.010 A 
ATOM     75  C   UNL     1      10.294  -1.646   4.891  1.00  0.00     0.020 A 
ATOM     76  C   UNL     1       8.562  -0.072   4.240  1.00  0.00     0.020 A 
ATOM     77  C   UNL     1       9.610  -0.932   3.903  1.00  0.00     0.054 A 
BRANCH  77  78
ATOM     78  S   UNL     1      10.068  -1.183   2.165  1.00  0.00     0.124 S 
ATOM     79  O   UNL     1      11.330  -0.457   2.075  1.00  0.00    -0.237 OA
ATOM     80  O   UNL     1      10.165  -2.638   2.070  1.00  0.00    -0.237 OA
ATOM     81  O   UNL     1       8.951  -0.593   1.429  1.00  0.00    -0.744 OA
ENDBRANCH  77  78
ENDBRANCH  49  72
BRANCH  61  82
ATOM     82  C   UNL     1      11.920   2.149  12.223  1.00  0.00    -0.014 A 
ATOM     83  C   UNL     1      12.198   3.438  11.737  1.00  0.00     0.010 A 
ATOM     84  C   UNL     1      12.896   1.475  12.981  1.00  0.00     0.010 A 
ATOM     85  C   UNL     1      13.441   4.030  11.979  1.00  0.00     0.020 A 
ATOM     86  C   UNL     1      14.129   2.075  13.248  1.00  0.00     0.020 A 
ATOM     87  C   UNL     1      14.399   3.344  12.733  1.00  0.00     0.054 A 
BRANCH  87  88
ATOM     88  S   UNL     1      15.986   4.152  13.072  1.00  0.00     0.124 S 
ATOM     89  O   UNL     1      16.660   4.051  11.781  1.00  0.00    -0.237 OA
ATOM     90  O   UNL     1      15.583   5.500  13.466  1.00  0.00    -0.237 OA
ATOM     91  O   UNL     1      16.565   3.344  14.143  1.00  0.00    -0.744 OA
ENDBRANCH  87  88
ENDBRANCH  61  82
ENDBRANCH  35  36
ENDBRANCH  27  30
ENDBRANCH   1  26
TORSDOF 14
