REMARK SMILES COCc1cccc(O[C@@H](C)c2ccc(C(=O)NCCCNC(=O)c3ccc(-c4c5nc(c(-c6ccc(S(=O)(=O)[O-])cc6)c6ccc([nH]6)c(-c6ccc(S(=O)(=O)[O-])cc6)c6nc(c(-c7ccc(S(=O)(=O)[O-])cc7)c7ccc4[nH]7)C=C6)C=C5)cc3)o2)c1
REMARK SMILES IDX 19 1 18 2 16 3 17 4 15 6 12 7 13 8 85 9 14 10 10 11 11 12
REMARK SMILES IDX 9 13 8 14 4 15 5 16 86 17 6 18 7 19 3 20 2 21 1 22 20 23
REMARK SMILES IDX 21 24 22 25 23 26 24 28 25 29 26 30 84 31 27 32 83 33 28 34
REMARK SMILES IDX 29 35 30 36 77 37 31 38 82 39 76 40 78 41 32 42 81 43 75 44
REMARK SMILES IDX 74 45 33 47 63 48 44 49 62 50 45 51 48 52 61 53 79 54 46 55
REMARK SMILES IDX 47 56 60 58 80 59 49 60 34 61 35 62 43 63 36 64 42 65 37 66
REMARK SMILES IDX 38 67 39 68 40 69 41 70 64 71 65 72 73 73 66 74 72 75 67 76
REMARK SMILES IDX 68 77 69 78 70 79 71 80 50 81 51 82 59 83 52 84 58 85 53 86
REMARK SMILES IDX 54 87 55 88 56 89 57 90
REMARK H PARENT 18 5 22 27 78 46 48 57
REMARK Flexibility Score: inf
ROOT
ATOM      1  C   UNL     1       5.982  -0.291  -0.177  1.00  0.00     0.118 C 
ENDROOT
BRANCH   1   2
ATOM      2  N   UNL     1       5.989  -1.731   0.010  1.00  0.00    -0.349 N 
ATOM      3  C   UNL     1       5.070  -2.535   0.649  1.00  0.00     0.286 C 
ATOM      4  O   UNL     1       5.118  -3.741   0.379  1.00  0.00    -0.266 OA
ATOM      5  H   UNL     1       6.763  -2.201  -0.376  1.00  0.00     0.163 HD
BRANCH   3   6
ATOM      6  C   UNL     1       4.118  -1.976   1.588  1.00  0.00     0.191 A 
ATOM      7  C   UNL     1       2.204  -1.975   2.722  1.00  0.00     0.145 A 
ATOM      8  C   UNL     1       2.974  -0.947   3.229  1.00  0.00     0.050 A 
ATOM      9  O   UNL     1       2.910  -2.615   1.738  1.00  0.00    -0.452 OA
ATOM     10  C   UNL     1       4.173  -0.925   2.483  1.00  0.00     0.057 A 
BRANCH   7  11
ATOM     11  C   UNL     1       0.857  -2.545   3.070  1.00  0.00     0.236 C 
ATOM     12  C   UNL     1       0.052  -3.095   1.896  1.00  0.00     0.062 C 
BRANCH  11  13
ATOM     13  O   UNL     1       0.055  -1.679   3.907  1.00  0.00    -0.483 OA
BRANCH  13  14
ATOM     14  C   UNL     1      -0.068  -0.341   3.662  1.00  0.00     0.120 A 
ATOM     15  C   UNL     1       0.081   1.668   2.294  1.00  0.00    -0.019 A 
ATOM     16  C   UNL     1      -0.069   2.444   3.454  1.00  0.00     0.006 A 
ATOM     17  C   UNL     1       0.050   0.271   2.416  1.00  0.00     0.052 A 
ATOM     18  C   UNL     1      -0.261   1.838   4.695  1.00  0.00     0.004 A 
ATOM     19  C   UNL     1      -0.263   0.448   4.796  1.00  0.00     0.046 A 
BRANCH  15  20
ATOM     20  C   UNL     1       0.384   2.355   0.981  1.00  0.00     0.195 C 
BRANCH  20  21
ATOM     21  O   UNL     1       0.006   1.606  -0.175  1.00  0.00    -0.380 OA
ATOM     22  C   UNL     1       1.086   0.917  -0.794  1.00  0.00     0.195 C 
ENDBRANCH  20  21
ENDBRANCH  15  20
ENDBRANCH  13  14
ENDBRANCH  11  13
ENDBRANCH   7  11
ENDBRANCH   3   6
ENDBRANCH   1   2
BRANCH   1  23
ATOM     23  C   UNL     1       6.987   0.450   0.701  1.00  0.00     0.042 C 
BRANCH  23  24
ATOM     24  C   UNL     1       8.455   0.226   0.345  1.00  0.00     0.118 C 
BRANCH  24  25
ATOM     25  N   UNL     1       8.829   0.836  -0.920  1.00  0.00    -0.352 N 
ATOM     26  C   UNL     1       9.749   1.812  -1.216  1.00  0.00     0.251 C 
ATOM     27  H   UNL     1       8.337   0.490  -1.700  1.00  0.00     0.163 HD
ATOM     28  O   UNL     1       9.754   2.280  -2.354  1.00  0.00    -0.269 OA
BRANCH  26  29
ATOM     29  C   UNL     1      10.718   2.325  -0.213  1.00  0.00     0.039 A 
ATOM     30  C   UNL     1      11.067   3.682  -0.265  1.00  0.00     0.014 A 
ATOM     31  C   UNL     1      11.352   1.494   0.715  1.00  0.00     0.014 A 
ATOM     32  C   UNL     1      12.006   4.207   0.630  1.00  0.00     0.010 A 
ATOM     33  C   UNL     1      12.244   2.031   1.648  1.00  0.00     0.010 A 
ATOM     34  C   UNL     1      12.589   3.391   1.610  1.00  0.00    -0.014 A 
BRANCH  34  35
ATOM     35  C   UNL     1      13.577   3.937   2.579  1.00  0.00     0.031 A 
ATOM     36  C   UNL     1      15.015   3.490   2.531  1.00  0.00     0.074 A 
ATOM     37  C   UNL     1      13.182   4.807   3.528  1.00  0.00     0.049 A 
ATOM     38  N   UNL     1      16.001   3.795   3.337  1.00  0.00    -0.248 NA
ATOM     39  C   UNL     1      15.388   2.566   1.448  1.00  0.00     0.031 C 
ATOM     40  C   UNL     1      11.819   5.313   3.703  1.00  0.00     0.029 A 
ATOM     41  N   UNL     1      13.893   5.418   4.532  1.00  0.00    -0.354 N 
ATOM     42  C   UNL     1      17.103   3.085   2.874  1.00  0.00     0.074 A 
ATOM     43  C   UNL     1      16.658   2.314   1.733  1.00  0.00     0.031 C 
ATOM     44  C   UNL     1      11.797   6.172   4.736  1.00  0.00     0.029 A 
ATOM     45  C   UNL     1      13.135   6.254   5.316  1.00  0.00     0.049 A 
ATOM     46  H   UNL     1      14.856   5.271   4.676  1.00  0.00     0.167 HD
ATOM     47  C   UNL     1      18.374   3.081   3.345  1.00  0.00     0.031 A 
ATOM     48  C   UNL     1      13.473   7.002   6.384  1.00  0.00     0.031 A 
ATOM     49  C   UNL     1      18.833   3.860   4.464  1.00  0.00     0.049 A 
ATOM     50  C   UNL     1      14.893   6.998   6.876  1.00  0.00     0.074 A 
ATOM     51  C   UNL     1      20.107   3.931   5.002  1.00  0.00     0.029 A 
ATOM     52  N   UNL     1      18.037   4.715   5.210  1.00  0.00    -0.354 N 
ATOM     53  N   UNL     1      15.920   6.324   6.418  1.00  0.00    -0.248 NA
ATOM     54  C   UNL     1      15.200   7.864   8.023  1.00  0.00     0.031 C 
ATOM     55  C   UNL     1      20.078   4.818   6.084  1.00  0.00     0.029 A 
ATOM     56  C   UNL     1      18.792   5.320   6.200  1.00  0.00     0.049 A 
ATOM     57  H   UNL     1      17.077   4.869   5.058  1.00  0.00     0.167 HD
ATOM     58  C   UNL     1      17.000   6.702   7.207  1.00  0.00     0.074 A 
ATOM     59  C   UNL     1      16.505   7.668   8.165  1.00  0.00     0.031 C 
ATOM     60  C   UNL     1      18.288   6.285   7.141  1.00  0.00     0.031 A 
BRANCH  47  61
ATOM     61  C   UNL     1      19.362   2.190   2.644  1.00  0.00    -0.014 A 
ATOM     62  C   UNL     1      19.887   2.546   1.389  1.00  0.00     0.010 A 
ATOM     63  C   UNL     1      19.783   0.995   3.252  1.00  0.00     0.010 A 
ATOM     64  C   UNL     1      20.784   1.698   0.733  1.00  0.00     0.020 A 
ATOM     65  C   UNL     1      20.695   0.154   2.608  1.00  0.00     0.020 A 
ATOM     66  C   UNL     1      21.174   0.501   1.343  1.00  0.00     0.054 A 
BRANCH  66  67
ATOM     67  S   UNL     1      22.340  -0.586   0.477  1.00  0.00     0.124 S 
ATOM     68  O   UNL     1      21.460  -1.279  -0.462  1.00  0.00    -0.237 OA
ATOM     69  O   UNL     1      23.281   0.356  -0.123  1.00  0.00    -0.237 OA
ATOM     70  O   UNL     1      22.891  -1.417   1.544  1.00  0.00    -0.744 OA
ENDBRANCH  66  67
ENDBRANCH  47  61
BRANCH  48  71
ATOM     71  C   UNL     1      12.446   7.841   7.054  1.00  0.00    -0.014 A 
ATOM     72  C   UNL     1      12.424   9.231   6.847  1.00  0.00     0.010 A 
ATOM     73  C   UNL     1      11.482   7.253   7.892  1.00  0.00     0.010 A 
ATOM     74  C   UNL     1      11.461  10.024   7.478  1.00  0.00     0.020 A 
ATOM     75  C   UNL     1      10.507   8.041   8.509  1.00  0.00     0.020 A 
ATOM     76  C   UNL     1      10.509   9.423   8.307  1.00  0.00     0.054 A 
BRANCH  76  77
ATOM     77  S   UNL     1       9.227  10.455   9.071  1.00  0.00     0.124 S 
ATOM     78  O   UNL     1       9.919  10.980  10.242  1.00  0.00    -0.237 OA
ATOM     79  O   UNL     1       8.928  11.427   8.022  1.00  0.00    -0.237 OA
ATOM     80  O   UNL     1       8.153   9.503   9.348  1.00  0.00    -0.744 OA
ENDBRANCH  76  77
ENDBRANCH  48  71
BRANCH  60  81
ATOM     81  C   UNL     1      19.259   6.900   8.109  1.00  0.00    -0.014 A 
ATOM     82  C   UNL     1      19.304   6.486   9.452  1.00  0.00     0.010 A 
ATOM     83  C   UNL     1      20.160   7.880   7.659  1.00  0.00     0.010 A 
ATOM     84  C   UNL     1      20.219   7.064  10.336  1.00  0.00     0.020 A 
ATOM     85  C   UNL     1      21.086   8.449   8.537  1.00  0.00     0.020 A 
ATOM     86  C   UNL     1      21.100   8.047   9.875  1.00  0.00     0.054 A 
BRANCH  86  87
ATOM     87  S   UNL     1      22.305   8.762  11.027  1.00  0.00     0.124 S 
ATOM     88  O   UNL     1      21.502   9.765  11.721  1.00  0.00    -0.237 OA
ATOM     89  O   UNL     1      22.710   7.613  11.833  1.00  0.00    -0.237 OA
ATOM     90  O   UNL     1      23.345   9.294  10.148  1.00  0.00    -0.744 OA
ENDBRANCH  86  87
ENDBRANCH  60  81
ENDBRANCH  34  35
ENDBRANCH  26  29
ENDBRANCH  24  25
ENDBRANCH  23  24
ENDBRANCH   1  23
TORSDOF 18
