REMARK SMILES O=C(NCCCNC(=O)c1ccc(N2C(=O)/C(=C/c3ccco3)SC2=S)cc1)c1ccc(-c2c3nc(c(-c4ccc(S(=O)(=O)[O-])cc4)c4ccc([nH]4)c(-c4ccc(S(=O)(=O)[O-])cc4)c4nc(c(-c5ccc(S(=O)(=O)[O-])cc5)c5ccc2[nH]5)C=C4)C=C3)cc1
REMARK SMILES IDX 4 1 3 2 1 3 2 4 29 6 30 7 88 8 31 9 87 10 32 11 33 12 34 13
REMARK SMILES IDX 81 14 35 15 86 16 80 17 82 18 36 19 85 20 79 21 78 22 37 24
REMARK SMILES IDX 67 25 48 26 66 27 49 28 52 29 65 30 83 31 50 32 51 33 64 35
REMARK SMILES IDX 84 36 53 37 38 38 39 39 47 40 40 41 46 42 41 43 42 44 43 45
REMARK SMILES IDX 44 46 45 47 68 48 69 49 77 50 70 51 76 52 71 53 72 54 73 55
REMARK SMILES IDX 74 56 75 57 54 58 55 59 63 60 56 61 62 62 57 63 58 64 59 65
REMARK SMILES IDX 60 66 61 67 5 68 6 69 7 70 8 71 9 73 10 74 11 75 28 76 12 77
REMARK SMILES IDX 27 78 13 79 14 80 15 81 25 82 16 83 17 84 24 85 26 86 18 87
REMARK SMILES IDX 19 88 20 89 23 90 21 91 22 92
REMARK H PARENT 3 5 82 23 52 34 7 72
REMARK Flexibility Score: inf
ROOT
ATOM      1  C   UNL     1       4.453   1.255  -0.817  1.00  0.00     0.118 C 
ENDROOT
BRANCH   1   2
ATOM      2  N   UNL     1       3.031   1.083  -0.540  1.00  0.00    -0.352 N 
ATOM      3  O   UNL     1       1.136   0.020   0.045  1.00  0.00    -0.269 OA
ATOM      4  C   UNL     1       2.365   0.051   0.078  1.00  0.00     0.251 C 
ATOM      5  H   UNL     1       2.458   1.823  -0.844  1.00  0.00     0.163 HD
BRANCH   4   6
ATOM      6  C   UNL     1       3.118  -1.023   0.762  1.00  0.00     0.039 A 
ATOM      7  C   UNL     1       4.249  -0.723   1.519  1.00  0.00     0.014 A 
ATOM      8  C   UNL     1       2.679  -2.348   0.663  1.00  0.00     0.014 A 
ATOM      9  C   UNL     1       5.039  -1.749   2.016  1.00  0.00     0.010 A 
ATOM     10  C   UNL     1       3.414  -3.375   1.268  1.00  0.00     0.010 A 
ATOM     11  C   UNL     1       4.620  -3.087   1.922  1.00  0.00    -0.014 A 
BRANCH  11  12
ATOM     12  C   UNL     1       5.438  -4.130   2.595  1.00  0.00     0.031 A 
ATOM     13  C   UNL     1       6.120  -5.223   1.818  1.00  0.00     0.074 A 
ATOM     14  C   UNL     1       5.626  -4.024   3.926  1.00  0.00     0.049 A 
ATOM     15  N   UNL     1       6.942  -6.144   2.255  1.00  0.00    -0.248 NA
ATOM     16  C   UNL     1       5.845  -5.304   0.375  1.00  0.00     0.031 C 
ATOM     17  C   UNL     1       4.997  -3.016   4.788  1.00  0.00     0.029 A 
ATOM     18  N   UNL     1       6.427  -4.734   4.782  1.00  0.00    -0.354 N 
ATOM     19  C   UNL     1       7.272  -6.920   1.150  1.00  0.00     0.074 A 
ATOM     20  C   UNL     1       6.542  -6.378   0.024  1.00  0.00     0.031 C 
ATOM     21  C   UNL     1       5.497  -3.120   6.027  1.00  0.00     0.029 A 
ATOM     22  C   UNL     1       6.423  -4.244   6.068  1.00  0.00     0.049 A 
ATOM     23  H   UNL     1       6.954  -5.517   4.504  1.00  0.00     0.167 HD
ATOM     24  C   UNL     1       8.112  -7.981   1.081  1.00  0.00     0.031 A 
ATOM     25  C   UNL     1       7.084  -4.655   7.165  1.00  0.00     0.031 A 
ATOM     26  C   UNL     1       8.838  -8.515   2.205  1.00  0.00     0.049 A 
ATOM     27  C   UNL     1       8.008  -5.830   7.056  1.00  0.00     0.074 A 
ATOM     28  C   UNL     1       9.715  -9.586   2.234  1.00  0.00     0.029 A 
ATOM     29  N   UNL     1       8.778  -8.016   3.498  1.00  0.00    -0.354 N 
ATOM     30  N   UNL     1       8.310  -6.541   5.996  1.00  0.00    -0.248 NA
ATOM     31  C   UNL     1       8.679  -6.260   8.289  1.00  0.00     0.031 C 
ATOM     32  C   UNL     1      10.155  -9.759   3.552  1.00  0.00     0.029 A 
ATOM     33  C   UNL     1       9.591  -8.765   4.334  1.00  0.00     0.049 A 
ATOM     34  H   UNL     1       8.237  -7.244   3.781  1.00  0.00     0.167 HD
ATOM     35  C   UNL     1       9.204  -7.508   6.437  1.00  0.00     0.074 A 
ATOM     36  C   UNL     1       9.425  -7.263   7.848  1.00  0.00     0.031 C 
ATOM     37  C   UNL     1       9.781  -8.517   5.739  1.00  0.00     0.031 A 
BRANCH  24  38
ATOM     38  C   UNL     1       8.288  -8.653  -0.256  1.00  0.00    -0.014 A 
ATOM     39  C   UNL     1       9.050  -8.053  -1.273  1.00  0.00     0.010 A 
ATOM     40  C   UNL     1       7.748  -9.935  -0.472  1.00  0.00     0.010 A 
ATOM     41  C   UNL     1       9.252  -8.712  -2.490  1.00  0.00     0.020 A 
ATOM     42  C   UNL     1       7.965 -10.607  -1.679  1.00  0.00     0.020 A 
ATOM     43  C   UNL     1       8.708  -9.986  -2.685  1.00  0.00     0.054 A 
BRANCH  43  44
ATOM     44  S   UNL     1       9.024 -10.837  -4.256  1.00  0.00     0.124 S 
ATOM     45  O   UNL     1       8.157 -10.104  -5.175  1.00  0.00    -0.237 OA
ATOM     46  O   UNL     1      10.458 -10.633  -4.449  1.00  0.00    -0.237 OA
ATOM     47  O   UNL     1       8.625 -12.217  -3.990  1.00  0.00    -0.744 OA
ENDBRANCH  43  44
ENDBRANCH  24  38
BRANCH  25  48
ATOM     48  C   UNL     1       6.862  -3.965   8.464  1.00  0.00    -0.014 A 
ATOM     49  C   UNL     1       7.878  -3.195   9.056  1.00  0.00     0.010 A 
ATOM     50  C   UNL     1       5.615  -4.067   9.107  1.00  0.00     0.010 A 
ATOM     51  C   UNL     1       7.656  -2.558  10.281  1.00  0.00     0.020 A 
ATOM     52  C   UNL     1       5.380  -3.407  10.315  1.00  0.00     0.020 A 
ATOM     53  C   UNL     1       6.409  -2.670  10.903  1.00  0.00     0.054 A 
BRANCH  53  54
ATOM     54  S   UNL     1       6.121  -1.805  12.471  1.00  0.00     0.124 S 
ATOM     55  O   UNL     1       6.768  -2.695  13.429  1.00  0.00    -0.237 OA
ATOM     56  O   UNL     1       6.782  -0.520  12.254  1.00  0.00    -0.237 OA
ATOM     57  O   UNL     1       4.664  -1.738  12.559  1.00  0.00    -0.744 OA
ENDBRANCH  53  54
ENDBRANCH  25  48
BRANCH  37  58
ATOM     58  C   UNL     1      10.706  -9.422   6.505  1.00  0.00    -0.014 A 
ATOM     59  C   UNL     1      10.201 -10.352   7.431  1.00  0.00     0.010 A 
ATOM     60  C   UNL     1      12.094  -9.342   6.295  1.00  0.00     0.010 A 
ATOM     61  C   UNL     1      11.073 -11.153   8.173  1.00  0.00     0.020 A 
ATOM     62  C   UNL     1      12.967 -10.159   7.017  1.00  0.00     0.020 A 
ATOM     63  C   UNL     1      12.451 -11.044   7.966  1.00  0.00     0.054 A 
BRANCH  63  64
ATOM     64  S   UNL     1      13.566 -12.096   8.936  1.00  0.00     0.124 S 
ATOM     65  O   UNL     1      13.577 -11.416  10.227  1.00  0.00    -0.237 OA
ATOM     66  O   UNL     1      12.890 -13.391   8.913  1.00  0.00    -0.237 OA
ATOM     67  O   UNL     1      14.823 -12.044   8.192  1.00  0.00    -0.744 OA
ENDBRANCH  63  64
ENDBRANCH  37  58
ENDBRANCH  11  12
ENDBRANCH   4   6
ENDBRANCH   1   2
BRANCH   1  68
ATOM     68  C   UNL     1       4.769   1.240  -2.305  1.00  0.00     0.042 C 
BRANCH  68  69
ATOM     69  C   UNL     1       4.169   2.412  -3.065  1.00  0.00     0.118 C 
BRANCH  69  70
ATOM     70  N   UNL     1       4.717   3.689  -2.626  1.00  0.00    -0.352 N 
ATOM     71  C   UNL     1       5.651   4.490  -3.231  1.00  0.00     0.251 C 
ATOM     72  H   UNL     1       4.365   4.026  -1.770  1.00  0.00     0.163 HD
ATOM     73  O   UNL     1       6.163   5.423  -2.621  1.00  0.00    -0.269 OA
BRANCH  71  74
ATOM     74  C   UNL     1       6.042   4.228  -4.629  1.00  0.00     0.039 A 
ATOM     75  C   UNL     1       7.393   4.136  -4.954  1.00  0.00     0.016 A 
ATOM     76  C   UNL     1       5.071   4.103  -5.623  1.00  0.00     0.016 A 
ATOM     77  C   UNL     1       7.768   3.859  -6.273  1.00  0.00     0.027 A 
ATOM     78  C   UNL     1       5.450   3.808  -6.933  1.00  0.00     0.027 A 
ATOM     79  C   UNL     1       6.803   3.694  -7.283  1.00  0.00     0.051 A 
BRANCH  79  80
ATOM     80  N   UNL     1       7.196   3.395  -8.627  1.00  0.00    -0.261 N 
ATOM     81  C   UNL     1       8.240   2.498  -8.859  1.00  0.00     0.270 C 
ATOM     82  C   UNL     1       6.614   3.956  -9.759  1.00  0.00     0.152 C 
ATOM     83  O   UNL     1       8.904   1.888  -8.031  1.00  0.00    -0.268 OA
ATOM     84  C   UNL     1       8.467   2.333 -10.319  1.00  0.00     0.084 C 
ATOM     85  S   UNL     1       7.340   3.269 -11.208  1.00  0.00    -0.054 SA
ATOM     86  S   UNL     1       5.493   5.192  -9.915  1.00  0.00    -0.051 S 
ATOM     87  C   UNL     1       9.426   1.525 -10.790  1.00  0.00     0.068 C 
BRANCH  87  88
ATOM     88  C   UNL     1       9.702   1.373 -12.174  1.00  0.00     0.127 A 
ATOM     89  C   UNL     1      10.055   2.327 -13.122  1.00  0.00     0.050 A 
ATOM     90  O   UNL     1       9.679   0.152 -12.805  1.00  0.00    -0.465 OA
ATOM     91  C   UNL     1      10.207   1.670 -14.364  1.00  0.00     0.042 A 
ATOM     92  C   UNL     1       9.961   0.345 -14.116  1.00  0.00     0.195 A 
ENDBRANCH  87  88
ENDBRANCH  79  80
ENDBRANCH  71  74
ENDBRANCH  69  70
ENDBRANCH  68  69
ENDBRANCH   1  68
TORSDOF 15
