REMARK SMILES Cc1nn(C)c(=O)c(C(=O)N2CCCC[C@H]2C(=O)NCCCNC(=O)c2ccc(-c3c4nc(c(-c5ccc(S(=O)(=O)[O-])cc5)c5ccc([nH]5)c(-c5ccc(S(=O)(=O)[O-])cc5)c5nc(c(-c6ccc(S(=O)(=O)[O-])cc6)c6ccc3[nH]6)C=C5)C=C4)cc2)c1C
REMARK SMILES IDX 21 1 20 2 19 3 17 4 18 5 16 7 11 8 12 9 13 10 15 11 14 12
REMARK SMILES IDX 9 13 10 14 8 15 1 16 2 17 3 18 86 19 4 20 87 21 5 22 6 23
REMARK SMILES IDX 7 24 22 25 23 26 24 27 25 29 26 30 27 31 85 32 28 33 84 34
REMARK SMILES IDX 29 35 30 36 31 37 78 38 32 39 83 40 77 41 79 42 33 43 82 44
REMARK SMILES IDX 76 45 75 46 34 48 64 49 45 50 63 51 46 52 49 53 62 54 80 55
REMARK SMILES IDX 47 56 48 57 61 59 81 60 50 61 35 62 36 63 44 64 37 65 43 66
REMARK SMILES IDX 38 67 39 68 40 69 41 70 42 71 65 72 66 73 74 74 67 75 73 76
REMARK SMILES IDX 68 77 69 78 70 79 71 80 72 81 51 82 52 83 60 84 53 85 59 86
REMARK SMILES IDX 54 87 55 88 56 89 57 90 58 91
REMARK H PARENT 19 6 23 28 79 47 49 58
REMARK Flexibility Score: inf
ROOT
ATOM      1  C   UNL     1       1.096   3.568   4.910  1.00  0.00     0.042 C 
ENDROOT
BRANCH   1   2
ATOM      2  C   UNL     1      -0.386   3.903   4.880  1.00  0.00     0.117 C 
BRANCH   2   3
ATOM      3  N   UNL     1      -1.061   3.612   3.636  1.00  0.00    -0.354 N 
ATOM      4  C   UNL     1      -2.026   2.706   3.322  1.00  0.00     0.242 C 
ATOM      5  O   UNL     1      -2.692   2.973   2.311  1.00  0.00    -0.273 OA
ATOM      6  H   UNL     1      -0.770   4.170   2.879  1.00  0.00     0.163 HD
BRANCH   4   7
ATOM      7  C   UNL     1      -2.385   1.440   4.150  1.00  0.00     0.174 C 
ATOM      8  N   UNL     1      -1.313   0.579   4.698  1.00  0.00    -0.326 N 
ATOM      9  C   UNL     1      -0.887   0.815   6.080  1.00  0.00     0.120 C 
ATOM     10  C   UNL     1      -1.925   1.384   7.059  1.00  0.00     0.022 C 
ATOM     11  C   UNL     1      -3.516   1.717   5.147  1.00  0.00     0.035 C 
ATOM     12  C   UNL     1      -3.020   2.265   6.469  1.00  0.00     0.004 C 
BRANCH   8  13
ATOM     13  C   UNL     1      -1.347  -0.772   4.324  1.00  0.00     0.260 C 
ATOM     14  O   UNL     1      -2.059  -1.528   4.986  1.00  0.00    -0.269 OA
BRANCH  13  15
ATOM     15  C   UNL     1      -0.538  -1.279   3.125  1.00  0.00     0.111 A 
ATOM     16  C   UNL     1       1.015  -0.471  -0.274  1.00  0.00     0.069 C 
ATOM     17  C   UNL     1       0.596  -1.250   0.962  1.00  0.00     0.062 A 
ATOM     18  N   UNL     1       0.773  -2.524   0.890  1.00  0.00    -0.175 NA
ATOM     19  C   UNL     1       0.019  -0.533   2.143  1.00  0.00    -0.010 A 
ATOM     20  N   UNL     1       0.367  -3.276   1.943  1.00  0.00    -0.232 N 
ATOM     21  C   UNL     1       0.145   0.948   2.076  1.00  0.00     0.047 C 
ATOM     22  C   UNL     1       0.683  -4.692   1.826  1.00  0.00     0.178 C 
ATOM     23  C   UNL     1      -0.325  -2.783   3.045  1.00  0.00     0.279 A 
ATOM     24  O   UNL     1      -0.700  -3.535   3.943  1.00  0.00    -0.267 OA
ENDBRANCH  13  15
ENDBRANCH   8  13
ENDBRANCH   4   7
ENDBRANCH   2   3
ENDBRANCH   1   2
BRANCH   1  25
ATOM     25  C   UNL     1       1.956   4.507   4.086  1.00  0.00     0.118 C 
BRANCH  25  26
ATOM     26  N   UNL     1       1.860   5.888   4.544  1.00  0.00    -0.352 N 
ATOM     27  C   UNL     1       2.664   6.619   5.387  1.00  0.00     0.251 C 
ATOM     28  H   UNL     1       1.086   6.381   4.189  1.00  0.00     0.163 HD
ATOM     29  O   UNL     1       2.237   7.671   5.851  1.00  0.00    -0.269 OA
BRANCH  27  30
ATOM     30  C   UNL     1       4.018   6.144   5.743  1.00  0.00     0.039 A 
ATOM     31  C   UNL     1       4.518   6.390   7.026  1.00  0.00     0.014 A 
ATOM     32  C   UNL     1       4.818   5.495   4.803  1.00  0.00     0.014 A 
ATOM     33  C   UNL     1       5.788   5.926   7.376  1.00  0.00     0.010 A 
ATOM     34  C   UNL     1       6.023   4.925   5.188  1.00  0.00     0.010 A 
ATOM     35  C   UNL     1       6.536   5.157   6.469  1.00  0.00    -0.014 A 
BRANCH  35  36
ATOM     36  C   UNL     1       7.879   4.629   6.813  1.00  0.00     0.031 A 
ATOM     37  C   UNL     1       9.081   5.065   6.016  1.00  0.00     0.074 A 
ATOM     38  C   UNL     1       8.011   3.727   7.804  1.00  0.00     0.049 A 
ATOM     39  N   UNL     1      10.328   4.688   6.130  1.00  0.00    -0.248 NA
ATOM     40  C   UNL     1       8.845   6.030   4.927  1.00  0.00     0.031 C 
ATOM     41  C   UNL     1       6.917   3.209   8.629  1.00  0.00     0.029 A 
ATOM     42  N   UNL     1       9.125   3.095   8.296  1.00  0.00    -0.354 N 
ATOM     43  C   UNL     1      11.018   5.365   5.131  1.00  0.00     0.074 A 
ATOM     44  C   UNL     1      10.041   6.104   4.365  1.00  0.00     0.031 C 
ATOM     45  C   UNL     1       7.423   2.387   9.563  1.00  0.00     0.029 A 
ATOM     46  C   UNL     1       8.866   2.282   9.374  1.00  0.00     0.049 A 
ATOM     47  H   UNL     1      10.024   3.213   7.913  1.00  0.00     0.167 HD
ATOM     48  C   UNL     1      12.351   5.404   4.895  1.00  0.00     0.031 A 
ATOM     49  C   UNL     1       9.700   1.545  10.132  1.00  0.00     0.031 A 
ATOM     50  C   UNL     1      13.318   4.669   5.660  1.00  0.00     0.049 A 
ATOM     51  C   UNL     1      11.171   1.557   9.820  1.00  0.00     0.074 A 
ATOM     52  C   UNL     1      14.693   4.647   5.519  1.00  0.00     0.029 A 
ATOM     53  N   UNL     1      13.009   3.824   6.717  1.00  0.00    -0.354 N 
ATOM     54  N   UNL     1      11.809   2.229   8.892  1.00  0.00    -0.248 NA
ATOM     55  C   UNL     1      12.033   0.715  10.660  1.00  0.00     0.031 C 
ATOM     56  C   UNL     1      15.211   3.748   6.457  1.00  0.00     0.029 A 
ATOM     57  C   UNL     1      14.165   3.259   7.224  1.00  0.00     0.049 A 
ATOM     58  H   UNL     1      12.100   3.653   7.056  1.00  0.00     0.167 HD
ATOM     59  C   UNL     1      13.153   1.911   9.050  1.00  0.00     0.074 A 
ATOM     60  C   UNL     1      13.235   0.995  10.171  1.00  0.00     0.031 C 
ATOM     61  C   UNL     1      14.223   2.340   8.335  1.00  0.00     0.031 A 
BRANCH  48  62
ATOM     62  C   UNL     1      12.822   6.284   3.765  1.00  0.00    -0.014 A 
ATOM     63  C   UNL     1      12.698   7.684   3.842  1.00  0.00     0.010 A 
ATOM     64  C   UNL     1      13.391   5.713   2.613  1.00  0.00     0.010 A 
ATOM     65  C   UNL     1      13.072   8.491   2.765  1.00  0.00     0.020 A 
ATOM     66  C   UNL     1      13.801   6.520   1.546  1.00  0.00     0.020 A 
ATOM     67  C   UNL     1      13.616   7.902   1.621  1.00  0.00     0.054 A 
BRANCH  67  68
ATOM     68  S   UNL     1      14.079   8.975   0.234  1.00  0.00     0.124 S 
ATOM     69  O   UNL     1      12.774   9.410  -0.258  1.00  0.00    -0.237 OA
ATOM     70  O   UNL     1      14.880  10.008   0.885  1.00  0.00    -0.237 OA
ATOM     71  O   UNL     1      14.817   8.088  -0.661  1.00  0.00    -0.744 OA
ENDBRANCH  67  68
ENDBRANCH  48  62
BRANCH  49  72
ATOM     72  C   UNL     1       9.159   0.793  11.298  1.00  0.00    -0.014 A 
ATOM     73  C   UNL     1       9.418   1.244  12.604  1.00  0.00     0.010 A 
ATOM     74  C   UNL     1       8.330  -0.329  11.113  1.00  0.00     0.010 A 
ATOM     75  C   UNL     1       8.851   0.595  13.704  1.00  0.00     0.020 A 
ATOM     76  C   UNL     1       7.741  -0.966  12.210  1.00  0.00     0.020 A 
ATOM     77  C   UNL     1       8.005  -0.499  13.499  1.00  0.00     0.054 A 
BRANCH  77  78
ATOM     78  S   UNL     1       7.210  -1.263  14.940  1.00  0.00     0.124 S 
ATOM     79  O   UNL     1       8.345  -1.870  15.629  1.00  0.00    -0.237 OA
ATOM     80  O   UNL     1       6.605  -0.113  15.607  1.00  0.00    -0.237 OA
ATOM     81  O   UNL     1       6.260  -2.203  14.349  1.00  0.00    -0.744 OA
ENDBRANCH  77  78
ENDBRANCH  49  72
BRANCH  61  82
ATOM     82  C   UNL     1      15.581   1.838   8.743  1.00  0.00    -0.014 A 
ATOM     83  C   UNL     1      15.972   0.513   8.485  1.00  0.00     0.010 A 
ATOM     84  C   UNL     1      16.511   2.731   9.308  1.00  0.00     0.010 A 
ATOM     85  C   UNL     1      17.264   0.086   8.797  1.00  0.00     0.020 A 
ATOM     86  C   UNL     1      17.813   2.315   9.594  1.00  0.00     0.020 A 
ATOM     87  C   UNL     1      18.179   0.992   9.343  1.00  0.00     0.054 A 
BRANCH  87  88
ATOM     88  S   UNL     1      19.869   0.425   9.673  1.00  0.00     0.124 S 
ATOM     89  O   UNL     1      19.670  -0.493  10.791  1.00  0.00    -0.237 OA
ATOM     90  O   UNL     1      20.248  -0.198   8.407  1.00  0.00    -0.237 OA
ATOM     91  O   UNL     1      20.591   1.653   9.997  1.00  0.00    -0.744 OA
ENDBRANCH  87  88
ENDBRANCH  61  82
ENDBRANCH  35  36
ENDBRANCH  27  30
ENDBRANCH  25  26
ENDBRANCH   1  25
TORSDOF 15
