REMARK SMILES NS(=O)(=O)c1ccc(-n2nc(C(=O)NCCCC(=O)NCCCNC(=O)c3ccc(-c4c5nc(c(-c6ccc(S(=O)(=O)[O-])cc6)c6ccc([nH]6)c(-c6ccc(S(=O)(=O)[O-])cc6)c6nc(c(-c7ccc(S(=O)(=O)[O-])cc7)c7ccc4[nH]7)C=C6)C=C5)cc3)cc2-c2ccccc2)cc1
REMARK SMILES IDX 18 1 19 2 20 3 17 5 16 6 15 7 14 8 12 9 13 10 11 12 9 13
REMARK SMILES IDX 10 14 88 15 87 16 8 17 5 18 6 19 96 20 7 21 95 22 2 23 3 24
REMARK SMILES IDX 4 25 1 26 89 29 90 30 94 31 91 32 93 33 92 34 21 35 22 36
REMARK SMILES IDX 23 37 24 38 25 39 26 41 27 42 28 43 86 44 29 45 85 46 30 47
REMARK SMILES IDX 31 48 32 49 79 50 33 51 84 52 78 53 80 54 34 55 83 56 77 57
REMARK SMILES IDX 76 58 35 60 65 61 46 62 64 63 47 64 50 65 63 66 81 67 48 68
REMARK SMILES IDX 49 69 62 71 82 72 51 73 36 74 37 75 45 76 38 77 44 78 39 79
REMARK SMILES IDX 40 80 41 81 42 82 43 83 66 84 67 85 75 86 68 87 74 88 69 89
REMARK SMILES IDX 70 90 71 91 72 92 73 93 52 94 53 95 61 96 54 97 60 98 55 99
REMARK SMILES IDX 56 100 57 101 58 102 59 103
REMARK H PARENT 20 4 14 11 1 27 1 28 24 40 80 59 50 70
REMARK Flexibility Score: inf
ROOT
ATOM      1  C   UNL     1       3.131 -10.583   9.196  1.00  0.00     0.220 C 
ATOM      2  O   UNL     1       3.909 -11.523   9.033  1.00  0.00    -0.275 OA
ATOM      3  N   UNL     1       1.883 -10.676   8.660  1.00  0.00    -0.356 N 
ATOM      4  H   UNL     1       1.698 -11.527   8.201  1.00  0.00     0.163 HD
ENDROOT
BRANCH   1   5
ATOM      5  C   UNL     1       3.558  -9.360   9.979  1.00  0.00     0.102 C 
BRANCH   5   6
ATOM      6  C   UNL     1       4.385  -8.362   9.166  1.00  0.00     0.031 C 
BRANCH   6   7
ATOM      7  C   UNL     1       3.605  -7.514   8.168  1.00  0.00     0.116 C 
BRANCH   7   8
ATOM      8  N   UNL     1       2.493  -6.787   8.754  1.00  0.00    -0.351 N 
ATOM      9  C   UNL     1       1.672  -5.816   8.218  1.00  0.00     0.271 C 
ATOM     10  O   UNL     1       0.808  -5.351   8.964  1.00  0.00    -0.267 OA
ATOM     11  H   UNL     1       2.290  -7.027   9.687  1.00  0.00     0.163 HD
BRANCH   9  12
ATOM     12  C   UNL     1       1.846  -5.370   6.822  1.00  0.00     0.151 A 
ATOM     13  N   UNL     1       1.762  -4.066   5.119  1.00  0.00    -0.232 N 
ATOM     14  N   UNL     1       1.560  -4.102   6.458  1.00  0.00    -0.162 NA
ATOM     15  C   UNL     1       2.433  -5.196   4.678  1.00  0.00     0.075 A 
ATOM     16  C   UNL     1       2.321  -6.103   5.707  1.00  0.00     0.065 A 
BRANCH  13  17
ATOM     17  C   UNL     1       1.337  -2.961   4.332  1.00  0.00     0.065 A 
ATOM     18  C   UNL     1       0.717  -0.800   2.690  1.00  0.00     0.082 A 
ATOM     19  C   UNL     1       0.636  -2.095   2.177  1.00  0.00     0.024 A 
ATOM     20  C   UNL     1       1.057  -0.579   4.030  1.00  0.00     0.024 A 
ATOM     21  C   UNL     1       0.952  -3.174   2.998  1.00  0.00     0.030 A 
ATOM     22  C   UNL     1       1.339  -1.667   4.865  1.00  0.00     0.030 A 
BRANCH  18  23
ATOM     23  S   UNL     1       0.444   0.568   1.604  1.00  0.00     0.238 S 
ATOM     24  O   UNL     1       1.229   1.700   2.071  1.00  0.00    -0.207 OA
ATOM     25  O   UNL     1      -0.955   0.660   1.310  1.00  0.00    -0.207 OA
BRANCH  23  26
ATOM     26  N   UNL     1       1.202   0.083   0.181  1.00  0.00    -0.225 NA
ATOM     27  H   UNL     1       1.101   0.814  -0.523  1.00  0.00     0.137 HD
ATOM     28  H   UNL     1       0.770  -0.777  -0.157  1.00  0.00     0.137 HD
ENDBRANCH  23  26
ENDBRANCH  18  23
ENDBRANCH  13  17
BRANCH  15  29
ATOM     29  C   UNL     1       3.205  -5.302   3.442  1.00  0.00     0.000 A 
ATOM     30  C   UNL     1       4.171  -4.328   3.143  1.00  0.00     0.010 A 
ATOM     31  C   UNL     1       3.024  -6.377   2.569  1.00  0.00     0.010 A 
ATOM     32  C   UNL     1       4.922  -4.411   1.972  1.00  0.00     0.001 A 
ATOM     33  C   UNL     1       3.777  -6.457   1.396  1.00  0.00     0.001 A 
ATOM     34  C   UNL     1       4.721  -5.474   1.097  1.00  0.00     0.000 A 
ENDBRANCH  15  29
ENDBRANCH   9  12
ENDBRANCH   7   8
ENDBRANCH   6   7
ENDBRANCH   5   6
ENDBRANCH   1   5
BRANCH   3  35
ATOM     35  C   UNL     1       0.775  -9.730   8.649  1.00  0.00     0.117 C 
BRANCH  35  36
ATOM     36  C   UNL     1       0.545  -9.126   7.260  1.00  0.00     0.042 C 
BRANCH  36  37
ATOM     37  C   UNL     1      -0.230 -10.035   6.327  1.00  0.00     0.118 C 
BRANCH  37  38
ATOM     38  N   UNL     1      -1.661 -10.060   6.616  1.00  0.00    -0.352 N 
ATOM     39  C   UNL     1      -2.639 -10.775   5.949  1.00  0.00     0.251 C 
ATOM     40  H   UNL     1      -1.964  -9.505   7.371  1.00  0.00     0.163 HD
ATOM     41  O   UNL     1      -3.814 -10.433   6.016  1.00  0.00    -0.269 OA
BRANCH  39  42
ATOM     42  C   UNL     1      -2.235 -11.943   5.143  1.00  0.00     0.039 A 
ATOM     43  C   UNL     1      -2.823 -12.216   3.907  1.00  0.00     0.014 A 
ATOM     44  C   UNL     1      -1.206 -12.745   5.630  1.00  0.00     0.014 A 
ATOM     45  C   UNL     1      -2.303 -13.251   3.131  1.00  0.00     0.010 A 
ATOM     46  C   UNL     1      -0.581 -13.633   4.794  1.00  0.00     0.010 A 
ATOM     47  C   UNL     1      -1.160 -13.940   3.571  1.00  0.00    -0.014 A 
BRANCH  47  48
ATOM     48  C   UNL     1      -0.505 -14.932   2.728  1.00  0.00     0.031 A 
ATOM     49  C   UNL     1      -0.130 -14.453   1.374  1.00  0.00     0.074 A 
ATOM     50  C   UNL     1      -0.069 -16.127   3.183  1.00  0.00     0.049 A 
ATOM     51  N   UNL     1      -0.715 -14.723   0.256  1.00  0.00    -0.248 NA
ATOM     52  C   UNL     1       0.924 -13.432   1.263  1.00  0.00     0.031 C 
ATOM     53  C   UNL     1      -0.052 -16.632   4.562  1.00  0.00     0.029 A 
ATOM     54  N   UNL     1       0.563 -17.116   2.498  1.00  0.00    -0.354 N 
ATOM     55  C   UNL     1       0.041 -14.102  -0.732  1.00  0.00     0.074 A 
ATOM     56  C   UNL     1       0.894 -13.165  -0.045  1.00  0.00     0.031 C 
ATOM     57  C   UNL     1       0.762 -17.708   4.642  1.00  0.00     0.029 A 
ATOM     58  C   UNL     1       1.161 -18.082   3.299  1.00  0.00     0.049 A 
ATOM     59  H   UNL     1       0.595 -17.146   1.515  1.00  0.00     0.167 HD
ATOM     60  C   UNL     1       0.088 -14.594  -2.004  1.00  0.00     0.031 A 
ATOM     61  C   UNL     1       1.937 -19.113   2.885  1.00  0.00     0.031 A 
ATOM     62  C   UNL     1      -0.915 -15.610  -2.211  1.00  0.00     0.049 A 
ATOM     63  C   UNL     1       1.621 -19.339   1.455  1.00  0.00     0.074 A 
ATOM     64  C   UNL     1      -2.293 -15.652  -2.137  1.00  0.00     0.029 A 
ATOM     65  N   UNL     1      -0.488 -16.916  -2.144  1.00  0.00    -0.354 N 
ATOM     66  N   UNL     1       0.458 -19.753   1.035  1.00  0.00    -0.248 NA
ATOM     67  C   UNL     1       2.448 -18.688   0.453  1.00  0.00     0.031 C 
ATOM     68  C   UNL     1      -2.591 -16.924  -1.564  1.00  0.00     0.029 A 
ATOM     69  C   UNL     1      -1.391 -17.619  -1.391  1.00  0.00     0.049 A 
ATOM     70  H   UNL     1       0.324 -17.282  -2.565  1.00  0.00     0.167 HD
ATOM     71  C   UNL     1       0.227 -19.041  -0.133  1.00  0.00     0.074 A 
ATOM     72  C   UNL     1       1.531 -18.491  -0.499  1.00  0.00     0.031 C 
ATOM     73  C   UNL     1      -1.043 -18.738  -0.536  1.00  0.00     0.031 A 
BRANCH  60  74
ATOM     74  C   UNL     1       1.284 -14.474  -2.922  1.00  0.00    -0.014 A 
ATOM     75  C   UNL     1       1.203 -15.041  -4.213  1.00  0.00     0.010 A 
ATOM     76  C   UNL     1       2.563 -14.075  -2.486  1.00  0.00     0.010 A 
ATOM     77  C   UNL     1       2.350 -15.273  -4.984  1.00  0.00     0.020 A 
ATOM     78  C   UNL     1       3.708 -14.260  -3.265  1.00  0.00     0.020 A 
ATOM     79  C   UNL     1       3.598 -14.893  -4.495  1.00  0.00     0.054 A 
BRANCH  79  80
ATOM     80  S   UNL     1       5.083 -15.288  -5.448  1.00  0.00     0.124 S 
ATOM     81  O   UNL     1       5.107 -16.745  -5.375  1.00  0.00    -0.237 OA
ATOM     82  O   UNL     1       4.770 -14.721  -6.756  1.00  0.00    -0.237 OA
ATOM     83  O   UNL     1       6.148 -14.605  -4.717  1.00  0.00    -0.744 OA
ENDBRANCH  79  80
ENDBRANCH  60  74
BRANCH  61  84
ATOM     84  C   UNL     1       3.110 -19.722   3.557  1.00  0.00    -0.014 A 
ATOM     85  C   UNL     1       3.645 -20.942   3.103  1.00  0.00     0.010 A 
ATOM     86  C   UNL     1       3.885 -18.957   4.453  1.00  0.00     0.010 A 
ATOM     87  C   UNL     1       4.942 -21.342   3.466  1.00  0.00     0.020 A 
ATOM     88  C   UNL     1       5.176 -19.354   4.824  1.00  0.00     0.020 A 
ATOM     89  C   UNL     1       5.710 -20.531   4.305  1.00  0.00     0.054 A 
BRANCH  89  90
ATOM     90  S   UNL     1       7.455 -20.951   4.600  1.00  0.00     0.124 S 
ATOM     91  O   UNL     1       7.350 -22.128   5.457  1.00  0.00    -0.237 OA
ATOM     92  O   UNL     1       7.955 -21.196   3.250  1.00  0.00    -0.237 OA
ATOM     93  O   UNL     1       7.992 -19.756   5.248  1.00  0.00    -0.744 OA
ENDBRANCH  89  90
ENDBRANCH  61  84
BRANCH  73  94
ATOM     94  C   UNL     1      -2.200 -19.467   0.113  1.00  0.00    -0.014 A 
ATOM     95  C   UNL     1      -2.505 -19.405   1.487  1.00  0.00     0.010 A 
ATOM     96  C   UNL     1      -3.103 -20.122  -0.744  1.00  0.00     0.010 A 
ATOM     97  C   UNL     1      -3.673 -20.004   1.989  1.00  0.00     0.020 A 
ATOM     98  C   UNL     1      -4.275 -20.702  -0.254  1.00  0.00     0.020 A 
ATOM     99  C   UNL     1      -4.551 -20.649   1.112  1.00  0.00     0.054 A 
BRANCH  99 100
ATOM    100  S   UNL     1      -6.084 -21.380   1.753  1.00  0.00     0.124 S 
ATOM    101  O   UNL     1      -5.594 -22.515   2.530  1.00  0.00    -0.237 OA
ATOM    102  O   UNL     1      -6.666 -20.288   2.530  1.00  0.00    -0.237 OA
ATOM    103  O   UNL     1      -6.832 -21.734   0.546  1.00  0.00    -0.744 OA
ENDBRANCH  99 100
ENDBRANCH  73  94
ENDBRANCH  47  48
ENDBRANCH  39  42
ENDBRANCH  37  38
ENDBRANCH  36  37
ENDBRANCH  35  36
ENDBRANCH   3  35
TORSDOF 21
