REMARK SMILES CCOc1ccc(Br)cc1/C=C/C(=O)NCCC(=O)NCCCNC(=O)c1ccc(-c2c3nc(c(-c4ccc(S(=O)(=O)[O-])cc4)c4ccc([nH]4)c(-c4ccc(S(=O)(=O)[O-])cc4)c4nc(c(-c5ccc(S(=O)(=O)[O-])cc5)c5ccc2[nH]5)C=C4)C=C3)cc1
REMARK SMILES IDX 18 1 19 2 20 3 17 5 16 6 15 7 13 8 14 9 12 11 11 12 10 13
REMARK SMILES IDX 4 14 5 15 6 16 9 17 7 18 8 19 3 20 2 21 1 22 21 23 22 24
REMARK SMILES IDX 23 25 24 26 25 27 26 29 27 30 28 31 86 32 29 33 85 34 30 35
REMARK SMILES IDX 31 36 32 37 79 38 33 39 84 40 78 41 80 42 34 43 83 44 77 45
REMARK SMILES IDX 76 46 35 48 65 49 46 50 64 51 47 52 50 53 63 54 81 55 48 56
REMARK SMILES IDX 49 57 62 59 82 60 51 61 36 62 37 63 45 64 38 65 44 66 39 67
REMARK SMILES IDX 40 68 41 69 42 70 43 71 66 72 67 73 75 74 68 75 74 76 69 77
REMARK SMILES IDX 70 78 71 79 72 80 73 81 52 82 53 83 61 84 54 85 60 86 55 87
REMARK SMILES IDX 56 88 57 89 58 90 59 91
REMARK H PARENT 20 4 15 10 24 28 80 47 50 58
REMARK Flexibility Score: inf
ROOT
ATOM      1  C   UNL     1      -2.069  -2.462   6.361  1.00  0.00     0.221 C 
ATOM      2  O   UNL     1      -3.233  -2.482   5.955  1.00  0.00    -0.275 OA
ATOM      3  N   UNL     1      -1.810  -2.972   7.595  1.00  0.00    -0.356 N 
ATOM      4  H   UNL     1      -2.596  -3.333   8.065  1.00  0.00     0.163 HD
ENDROOT
BRANCH   1   5
ATOM      5  C   UNL     1      -0.970  -1.867   5.506  1.00  0.00     0.121 C 
BRANCH   5   6
ATOM      6  C   UNL     1      -0.850  -0.363   5.732  1.00  0.00     0.126 C 
BRANCH   6   7
ATOM      7  N   UNL     1       0.081  -0.043   6.797  1.00  0.00    -0.352 N 
ATOM      8  C   UNL     1       1.427  -0.073   6.923  1.00  0.00     0.244 C 
ATOM      9  O   UNL     1       1.893  -0.047   8.064  1.00  0.00    -0.270 OA
ATOM     10  H   UNL     1      -0.370   0.266   7.615  1.00  0.00     0.163 HD
BRANCH   8  11
ATOM     11  C   UNL     1       2.379  -0.037   5.788  1.00  0.00     0.072 C 
ATOM     12  C   UNL     1       2.165  -0.167   4.472  1.00  0.00     0.017 C 
BRANCH  12  13
ATOM     13  C   UNL     1       3.159   0.144   3.422  1.00  0.00     0.018 A 
ATOM     14  C   UNL     1       2.717   0.528   2.139  1.00  0.00     0.126 A 
ATOM     15  C   UNL     1       3.620   0.942   1.155  1.00  0.00     0.048 A 
ATOM     16  C   UNL     1       4.986   0.935   1.417  1.00  0.00     0.019 A 
ATOM     17  C   UNL     1       4.543   0.118   3.659  1.00  0.00     0.027 A 
ATOM     18  C   UNL     1       5.441   0.519   2.665  1.00  0.00     0.018 A 
ATOM     19  Br  UNL     1       7.298   0.538   3.029  1.00  0.00    -0.051 Br
BRANCH  14  20
ATOM     20  O   UNL     1       1.377   0.649   1.866  1.00  0.00    -0.493 OA
BRANCH  20  21
ATOM     21  C   UNL     1       0.858  -0.496   1.179  1.00  0.00     0.226 C 
ATOM     22  C   UNL     1       0.715  -0.200  -0.303  1.00  0.00     0.049 C 
ENDBRANCH  20  21
ENDBRANCH  14  20
ENDBRANCH  12  13
ENDBRANCH   8  11
ENDBRANCH   6   7
ENDBRANCH   5   6
ENDBRANCH   1   5
BRANCH   3  23
ATOM     23  C   UNL     1      -0.559  -3.074   8.335  1.00  0.00     0.117 C 
BRANCH  23  24
ATOM     24  C   UNL     1      -0.470  -2.062   9.472  1.00  0.00     0.042 C 
BRANCH  24  25
ATOM     25  C   UNL     1      -1.472  -2.270  10.599  1.00  0.00     0.118 C 
BRANCH  25  26
ATOM     26  N   UNL     1      -1.109  -3.367  11.477  1.00  0.00    -0.352 N 
ATOM     27  C   UNL     1      -0.656  -3.356  12.775  1.00  0.00     0.251 C 
ATOM     28  H   UNL     1      -1.203  -4.263  11.079  1.00  0.00     0.163 HD
ATOM     29  O   UNL     1      -0.219  -4.398  13.257  1.00  0.00    -0.269 OA
BRANCH  27  30
ATOM     30  C   UNL     1      -0.671  -2.116  13.593  1.00  0.00     0.039 A 
ATOM     31  C   UNL     1       0.390  -1.883  14.474  1.00  0.00     0.014 A 
ATOM     32  C   UNL     1      -1.738  -1.215  13.554  1.00  0.00     0.014 A 
ATOM     33  C   UNL     1       0.403  -0.733  15.271  1.00  0.00     0.010 A 
ATOM     34  C   UNL     1      -1.681  -0.025  14.280  1.00  0.00     0.010 A 
ATOM     35  C   UNL     1      -0.620   0.222  15.164  1.00  0.00    -0.014 A 
BRANCH  35  36
ATOM     36  C   UNL     1      -0.613   1.462  15.989  1.00  0.00     0.031 A 
ATOM     37  C   UNL     1      -1.719   1.721  16.981  1.00  0.00     0.074 A 
ATOM     38  C   UNL     1       0.358   2.381  15.816  1.00  0.00     0.049 A 
ATOM     39  N   UNL     1      -1.910   2.762  17.752  1.00  0.00    -0.248 NA
ATOM     40  C   UNL     1      -2.762   0.689  17.103  1.00  0.00     0.031 C 
ATOM     41  C   UNL     1       1.462   2.279  14.859  1.00  0.00     0.029 A 
ATOM     42  N   UNL     1       0.570   3.588  16.437  1.00  0.00    -0.354 N 
ATOM     43  C   UNL     1      -3.103   2.522  18.426  1.00  0.00     0.074 A 
ATOM     44  C   UNL     1      -3.615   1.260  17.939  1.00  0.00     0.031 C 
ATOM     45  C   UNL     1       2.250   3.361  14.978  1.00  0.00     0.029 A 
ATOM     46  C   UNL     1       1.690   4.250  15.991  1.00  0.00     0.049 A 
ATOM     47  H   UNL     1      -0.024   3.945  17.137  1.00  0.00     0.167 HD
ATOM     48  C   UNL     1      -3.709   3.271  19.379  1.00  0.00     0.031 A 
ATOM     49  C   UNL     1       2.209   5.440  16.352  1.00  0.00     0.031 A 
ATOM     50  C   UNL     1      -3.187   4.511  19.886  1.00  0.00     0.049 A 
ATOM     51  C   UNL     1       1.532   6.245  17.428  1.00  0.00     0.074 A 
ATOM     52  C   UNL     1      -3.693   5.309  20.898  1.00  0.00     0.029 A 
ATOM     53  N   UNL     1      -2.037   5.133  19.424  1.00  0.00    -0.354 N 
ATOM     54  N   UNL     1       0.438   5.968  18.098  1.00  0.00    -0.248 NA
ATOM     55  C   UNL     1       2.166   7.515  17.806  1.00  0.00     0.031 C 
ATOM     56  C   UNL     1      -2.872   6.436  21.018  1.00  0.00     0.029 A 
ATOM     57  C   UNL     1      -1.826   6.313  20.117  1.00  0.00     0.049 A 
ATOM     58  H   UNL     1      -1.456   4.786  18.709  1.00  0.00     0.167 HD
ATOM     59  C   UNL     1       0.268   7.017  18.994  1.00  0.00     0.074 A 
ATOM     60  C   UNL     1       1.377   7.927  18.789  1.00  0.00     0.031 C 
ATOM     61  C   UNL     1      -0.718   7.208  19.905  1.00  0.00     0.031 A 
BRANCH  48  62
ATOM     62  C   UNL     1      -5.015   2.763  19.935  1.00  0.00    -0.014 A 
ATOM     63  C   UNL     1      -5.060   1.627  20.764  1.00  0.00     0.010 A 
ATOM     64  C   UNL     1      -6.210   3.448  19.649  1.00  0.00     0.010 A 
ATOM     65  C   UNL     1      -6.281   1.155  21.253  1.00  0.00     0.020 A 
ATOM     66  C   UNL     1      -7.431   2.996  20.161  1.00  0.00     0.020 A 
ATOM     67  C   UNL     1      -7.460   1.840  20.943  1.00  0.00     0.054 A 
BRANCH  67  68
ATOM     68  S   UNL     1      -9.030   1.212  21.599  1.00  0.00     0.124 S 
ATOM     69  O   UNL     1      -9.268   0.049  20.746  1.00  0.00    -0.237 OA
ATOM     70  O   UNL     1      -8.702   0.912  22.990  1.00  0.00    -0.237 OA
ATOM     71  O   UNL     1      -9.957   2.325  21.406  1.00  0.00    -0.744 OA
ENDBRANCH  67  68
ENDBRANCH  48  62
BRANCH  49  72
ATOM     72  C   UNL     1       3.457   5.930  15.705  1.00  0.00    -0.014 A 
ATOM     73  C   UNL     1       4.671   5.940  16.414  1.00  0.00     0.010 A 
ATOM     74  C   UNL     1       3.442   6.367  14.368  1.00  0.00     0.010 A 
ATOM     75  C   UNL     1       5.844   6.392  15.803  1.00  0.00     0.020 A 
ATOM     76  C   UNL     1       4.619   6.796  13.746  1.00  0.00     0.020 A 
ATOM     77  C   UNL     1       5.811   6.815  14.471  1.00  0.00     0.054 A 
BRANCH  77  78
ATOM     78  S   UNL     1       7.358   7.341  13.681  1.00  0.00     0.124 S 
ATOM     79  O   UNL     1       7.566   8.660  14.270  1.00  0.00    -0.237 OA
ATOM     80  O   UNL     1       8.298   6.305  14.101  1.00  0.00    -0.237 OA
ATOM     81  O   UNL     1       7.032   7.335  12.256  1.00  0.00    -0.744 OA
ENDBRANCH  77  78
ENDBRANCH  49  72
BRANCH  61  82
ATOM     82  C   UNL     1      -0.629   8.431  20.777  1.00  0.00    -0.014 A 
ATOM     83  C   UNL     1      -0.908   9.711  20.268  1.00  0.00     0.010 A 
ATOM     84  C   UNL     1      -0.319   8.288  22.142  1.00  0.00     0.010 A 
ATOM     85  C   UNL     1      -0.852  10.831  21.102  1.00  0.00     0.020 A 
ATOM     86  C   UNL     1      -0.285   9.402  22.985  1.00  0.00     0.020 A 
ATOM     87  C   UNL     1      -0.540  10.669  22.456  1.00  0.00     0.054 A 
BRANCH  87  88
ATOM     88  S   UNL     1      -0.519  12.130  23.531  1.00  0.00     0.124 S 
ATOM     89  O   UNL     1       0.738  12.768  23.151  1.00  0.00    -0.237 OA
ATOM     90  O   UNL     1      -1.731  12.841  23.130  1.00  0.00    -0.237 OA
ATOM     91  O   UNL     1      -0.551  11.569  24.879  1.00  0.00    -0.744 OA
ENDBRANCH  87  88
ENDBRANCH  61  82
ENDBRANCH  35  36
ENDBRANCH  27  30
ENDBRANCH  25  26
ENDBRANCH  24  25
ENDBRANCH  23  24
ENDBRANCH   3  23
TORSDOF 19
