REMARK SMILES CCCCc1ncc(C[N@H+]2C[C@@H]3c4ccccc4OC[C@]3(C(=O)NCCCNC(=O)c3ccc(-c4c5nc(c(-c6ccc(S(=O)(=O)[O-])cc6)c6ccc([nH]6)c(-c6ccc(S(=O)(=O)[O-])cc6)c6nc(c(-c7ccc(S(=O)(=O)[O-])cc7)c7ccc4[nH]7)C=C6)C=C5)cc3)C2)[nH]1
REMARK SMILES IDX 25 1 24 2 22 3 23 4 21 6 10 7 11 8 91 9 12 11 13 12 20 13
REMARK SMILES IDX 14 14 18 15 19 16 15 17 17 18 16 19 9 20 8 21 5 22 6 23
REMARK SMILES IDX 92 24 7 25 4 27 3 28 2 29 1 30 26 31 27 32 28 33 29 34 30 36
REMARK SMILES IDX 31 37 32 38 90 39 33 40 89 41 34 42 35 43 36 44 83 45 37 46
REMARK SMILES IDX 88 47 82 48 84 49 38 50 87 51 81 52 80 53 39 55 69 56 50 57
REMARK SMILES IDX 68 58 51 59 54 60 67 61 85 62 52 63 53 64 66 66 86 67 55 68
REMARK SMILES IDX 40 69 41 70 49 71 42 72 48 73 43 74 44 75 45 76 46 77 47 78
REMARK SMILES IDX 70 79 71 80 79 81 72 82 78 83 73 84 74 85 75 86 76 87 77 88
REMARK SMILES IDX 56 89 57 90 65 91 58 92 64 93 59 94 60 95 61 96 62 97 63 98
REMARK H PARENT 24 5 10 10 92 26 28 35 84 54 54 65
REMARK Flexibility Score: inf
ROOT
ATOM      1  C   UNL     1      -3.635  -7.488   1.849  1.00  0.00     0.117 C 
ENDROOT
BRANCH   1   2
ATOM      2  N   UNL     1      -2.368  -7.384   1.123  1.00  0.00    -0.355 N 
ATOM      3  C   UNL     1      -1.909  -6.288   0.404  1.00  0.00     0.236 C 
ATOM      4  O   UNL     1      -0.690  -6.120   0.314  1.00  0.00    -0.274 OA
ATOM      5  H   UNL     1      -1.779  -8.173   1.148  1.00  0.00     0.163 HD
BRANCH   3   6
ATOM      6  C   UNL     1      -3.001  -5.362  -0.269  1.00  0.00     0.144 C 
ATOM      7  N   UNL     1      -4.025  -3.829   1.265  1.00  0.00    -0.328 N 
ATOM      8  C   UNL     1      -4.162  -3.171  -0.019  1.00  0.00     0.272 C 
ATOM      9  C   UNL     1      -2.804  -4.615   1.132  1.00  0.00     0.284 C 
ATOM     10  H   UNL     1      -4.829  -4.424   1.463  1.00  0.00     0.348 HD
ATOM     11  C   UNL     1      -3.118  -3.890  -0.906  1.00  0.00     0.103 C 
ATOM     12  C   UNL     1      -3.493  -3.704  -2.357  1.00  0.00     0.004 A 
ATOM     13  C   UNL     1      -2.449  -6.050  -1.594  1.00  0.00     0.253 C 
ATOM     14  C   UNL     1      -3.692  -2.430  -2.912  1.00  0.00     0.008 A 
ATOM     15  C   UNL     1      -3.579  -4.811  -3.184  1.00  0.00     0.123 A 
ATOM     16  O   UNL     1      -3.412  -6.059  -2.670  1.00  0.00    -0.492 OA
ATOM     17  C   UNL     1      -3.967  -2.283  -4.273  1.00  0.00     0.001 A 
ATOM     18  C   UNL     1      -3.847  -4.677  -4.545  1.00  0.00     0.047 A 
ATOM     19  C   UNL     1      -4.031  -3.407  -5.093  1.00  0.00     0.004 A 
BRANCH   7  20
ATOM     20  C   UNL     1      -4.134  -2.983   2.452  1.00  0.00     0.319 C 
BRANCH  20  21
ATOM     21  C   UNL     1      -3.015  -2.021   2.603  1.00  0.00     0.090 A 
ATOM     22  C   UNL     1      -0.911  -1.362   2.686  1.00  0.00     0.106 A 
ATOM     23  N   UNL     1      -1.598  -0.271   2.418  1.00  0.00    -0.241 NA
ATOM     24  N   UNL     1      -1.756  -2.391   3.010  1.00  0.00    -0.341 N 
ATOM     25  C   UNL     1      -2.909  -0.670   2.365  1.00  0.00     0.140 A 
ATOM     26  H   UNL     1      -1.508  -3.236   3.451  1.00  0.00     0.168 HD
BRANCH  22  27
ATOM     27  C   UNL     1       0.559  -1.559   2.556  1.00  0.00     0.075 C 
BRANCH  27  28
ATOM     28  C   UNL     1       0.936  -2.181   1.202  1.00  0.00     0.008 C 
BRANCH  28  29
ATOM     29  C   UNL     1       0.498  -1.393  -0.040  1.00  0.00    -0.003 C 
ATOM     30  C   UNL     1       1.038   0.028  -0.082  1.00  0.00     0.004 C 
ENDBRANCH  28  29
ENDBRANCH  27  28
ENDBRANCH  22  27
ENDBRANCH  20  21
ENDBRANCH   7  20
ENDBRANCH   3   6
ENDBRANCH   1   2
BRANCH   1  31
ATOM     31  C   UNL     1      -4.405  -8.773   1.630  1.00  0.00     0.042 C 
BRANCH  31  32
ATOM     32  C   UNL     1      -3.572 -10.034   1.777  1.00  0.00     0.118 C 
BRANCH  32  33
ATOM     33  N   UNL     1      -3.079 -10.265   3.133  1.00  0.00    -0.352 N 
ATOM     34  C   UNL     1      -3.570 -11.025   4.170  1.00  0.00     0.251 C 
ATOM     35  H   UNL     1      -2.242  -9.790   3.344  1.00  0.00     0.163 HD
ATOM     36  O   UNL     1      -3.024 -10.959   5.271  1.00  0.00    -0.269 OA
BRANCH  34  37
ATOM     37  C   UNL     1      -4.771 -11.870   3.993  1.00  0.00     0.039 A 
ATOM     38  C   UNL     1      -4.971 -12.593   2.822  1.00  0.00     0.014 A 
ATOM     39  C   UNL     1      -5.729 -11.933   5.011  1.00  0.00     0.014 A 
ATOM     40  C   UNL     1      -6.217 -13.142   2.556  1.00  0.00     0.010 A 
ATOM     41  C   UNL     1      -6.933 -12.616   4.797  1.00  0.00     0.010 A 
ATOM     42  C   UNL     1      -7.218 -13.167   3.539  1.00  0.00    -0.014 A 
BRANCH  42  43
ATOM     43  C   UNL     1      -8.541 -13.767   3.212  1.00  0.00     0.031 A 
ATOM     44  C   UNL     1      -9.800 -12.940   3.274  1.00  0.00     0.074 A 
ATOM     45  C   UNL     1      -8.593 -15.037   2.759  1.00  0.00     0.049 A 
ATOM     46  N   UNL     1     -11.028 -13.295   2.990  1.00  0.00    -0.248 NA
ATOM     47  C   UNL     1      -9.674 -11.539   3.709  1.00  0.00     0.031 C 
ATOM     48  C   UNL     1      -7.435 -15.925   2.616  1.00  0.00     0.029 A 
ATOM     49  N   UNL     1      -9.640 -15.785   2.281  1.00  0.00    -0.354 N 
ATOM     50  C   UNL     1     -11.817 -12.175   3.233  1.00  0.00     0.074 A 
ATOM     51  C   UNL     1     -10.937 -11.135   3.716  1.00  0.00     0.031 C 
ATOM     52  C   UNL     1      -7.815 -17.048   1.993  1.00  0.00     0.029 A 
ATOM     53  C   UNL     1      -9.258 -17.011   1.784  1.00  0.00     0.049 A 
ATOM     54  H   UNL     1     -10.574 -15.475   2.293  1.00  0.00     0.167 HD
ATOM     55  C   UNL     1     -13.151 -12.025   3.055  1.00  0.00     0.031 A 
ATOM     56  C   UNL     1      -9.980 -18.005   1.230  1.00  0.00     0.031 A 
ATOM     57  C   UNL     1     -14.017 -13.059   2.552  1.00  0.00     0.049 A 
ATOM     58  C   UNL     1     -11.464 -17.836   1.097  1.00  0.00     0.074 A 
ATOM     59  C   UNL     1     -15.386 -13.008   2.353  1.00  0.00     0.029 A 
ATOM     60  N   UNL     1     -13.602 -14.321   2.154  1.00  0.00    -0.354 N 
ATOM     61  N   UNL     1     -12.196 -16.786   1.381  1.00  0.00    -0.248 NA
ATOM     62  C   UNL     1     -12.224 -18.985   0.587  1.00  0.00     0.031 C 
ATOM     63  C   UNL     1     -15.806 -14.255   1.887  1.00  0.00     0.029 A 
ATOM     64  C   UNL     1     -14.691 -15.063   1.729  1.00  0.00     0.049 A 
ATOM     65  H   UNL     1     -12.671 -14.642   2.170  1.00  0.00     0.167 HD
ATOM     66  C   UNL     1     -13.504 -17.145   1.084  1.00  0.00     0.074 A 
ATOM     67  C   UNL     1     -13.461 -18.501   0.576  1.00  0.00     0.031 C 
ATOM     68  C   UNL     1     -14.636 -16.416   1.231  1.00  0.00     0.031 A 
BRANCH  55  69
ATOM     69  C   UNL     1     -13.776 -10.698   3.408  1.00  0.00    -0.014 A 
ATOM     70  C   UNL     1     -14.663 -10.612   4.497  1.00  0.00     0.010 A 
ATOM     71  C   UNL     1     -13.572  -9.562   2.604  1.00  0.00     0.010 A 
ATOM     72  C   UNL     1     -15.354  -9.426   4.761  1.00  0.00     0.020 A 
ATOM     73  C   UNL     1     -14.240  -8.365   2.882  1.00  0.00     0.020 A 
ATOM     74  C   UNL     1     -15.143  -8.311   3.946  1.00  0.00     0.054 A 
BRANCH  74  75
ATOM     75  S   UNL     1     -16.055  -6.782   4.297  1.00  0.00     0.124 S 
ATOM     76  O   UNL     1     -17.382  -7.086   3.774  1.00  0.00    -0.237 OA
ATOM     77  O   UNL     1     -15.956  -6.677   5.752  1.00  0.00    -0.237 OA
ATOM     78  O   UNL     1     -15.308  -5.764   3.559  1.00  0.00    -0.744 OA
ENDBRANCH  74  75
ENDBRANCH  55  69
BRANCH  56  79
ATOM     79  C   UNL     1      -9.279 -19.232   0.760  1.00  0.00    -0.014 A 
ATOM     80  C   UNL     1      -8.637 -20.082   1.682  1.00  0.00     0.010 A 
ATOM     81  C   UNL     1      -9.149 -19.494  -0.615  1.00  0.00     0.010 A 
ATOM     82  C   UNL     1      -7.815 -21.119   1.238  1.00  0.00     0.020 A 
ATOM     83  C   UNL     1      -8.353 -20.554  -1.062  1.00  0.00     0.020 A 
ATOM     84  C   UNL     1      -7.662 -21.336  -0.133  1.00  0.00     0.054 A 
BRANCH  84  85
ATOM     85  S   UNL     1      -6.526 -22.637  -0.688  1.00  0.00     0.124 S 
ATOM     86  O   UNL     1      -5.226 -22.002  -0.491  1.00  0.00    -0.237 OA
ATOM     87  O   UNL     1      -6.832 -23.739   0.221  1.00  0.00    -0.237 OA
ATOM     88  O   UNL     1      -6.912 -22.856  -2.079  1.00  0.00    -0.744 OA
ENDBRANCH  84  85
ENDBRANCH  56  79
BRANCH  68  89
ATOM     89  C   UNL     1     -15.944 -17.054   0.847  1.00  0.00    -0.014 A 
ATOM     90  C   UNL     1     -16.652 -16.574  -0.270  1.00  0.00     0.010 A 
ATOM     91  C   UNL     1     -16.535 -18.027   1.671  1.00  0.00     0.010 A 
ATOM     92  C   UNL     1     -17.948 -17.025  -0.533  1.00  0.00     0.020 A 
ATOM     93  C   UNL     1     -17.821 -18.500   1.395  1.00  0.00     0.020 A 
ATOM     94  C   UNL     1     -18.529 -17.975   0.311  1.00  0.00     0.054 A 
BRANCH  94  95
ATOM     95  S   UNL     1     -20.230 -18.511  -0.017  1.00  0.00     0.124 S 
ATOM     96  O   UNL     1     -21.009 -17.380   0.476  1.00  0.00    -0.237 OA
ATOM     97  O   UNL     1     -20.235 -18.696  -1.466  1.00  0.00    -0.237 OA
ATOM     98  O   UNL     1     -20.356 -19.743   0.759  1.00  0.00    -0.744 OA
ENDBRANCH  94  95
ENDBRANCH  68  89
ENDBRANCH  42  43
ENDBRANCH  34  37
ENDBRANCH  32  33
ENDBRANCH  31  32
ENDBRANCH   1  31
TORSDOF 18
