REMARK SMILES CC(C)(C)c1cc(Nc2ccccc2C(=O)NCCCNC(=O)c2ccc(-c3c4nc(c(-c5ccc(S(=O)(=O)[O-])cc5)c5ccc([nH]5)c(-c5ccc(S(=O)(=O)[O-])cc5)c5nc(c(-c6ccc(S(=O)(=O)[O-])cc6)c6ccc3[nH]6)C=C5)C=C4)cc2)cc2c1OCC2(C)C
REMARK SMILES IDX 19 1 18 2 17 3 15 4 16 5 14 7 9 8 10 9 11 10 13 11 12 12
REMARK SMILES IDX 8 13 7 15 5 16 6 17 86 18 85 19 87 20 84 21 89 22 88 23
REMARK SMILES IDX 90 24 91 25 2 26 1 27 3 28 4 29 20 30 21 31 22 32 23 34
REMARK SMILES IDX 24 35 25 36 83 37 26 38 82 39 27 40 28 41 29 42 76 43 30 44
REMARK SMILES IDX 81 45 75 46 77 47 31 48 80 49 74 50 73 51 32 53 62 54 43 55
REMARK SMILES IDX 61 56 44 57 47 58 60 59 78 60 45 61 46 62 59 64 79 65 48 66
REMARK SMILES IDX 33 67 34 68 42 69 35 70 41 71 36 72 37 73 38 74 39 75 40 76
REMARK SMILES IDX 63 77 64 78 72 79 65 80 71 81 66 82 67 83 68 84 69 85 70 86
REMARK SMILES IDX 49 87 50 88 58 89 51 90 57 91 52 92 53 93 54 94 55 95 56 96
REMARK H PARENT 17 6 8 14 21 33 77 52 47 63
REMARK Flexibility Score: inf
ROOT
ATOM      1  C   UNL     1      -1.275   3.639   4.330  1.00  0.00     0.042 C 
ENDROOT
BRANCH   1   2
ATOM      2  C   UNL     1       0.164   3.952   4.744  1.00  0.00     0.118 C 
BRANCH   2   3
ATOM      3  N   UNL     1       0.311   4.976   5.756  1.00  0.00    -0.352 N 
ATOM      4  C   UNL     1       1.215   5.148   6.771  1.00  0.00     0.253 C 
ATOM      5  O   UNL     1       1.050   6.158   7.466  1.00  0.00    -0.269 OA
ATOM      6  H   UNL     1      -0.370   5.686   5.705  1.00  0.00     0.163 HD
BRANCH   4   7
ATOM      7  C   UNL     1       2.335   4.229   7.149  1.00  0.00     0.063 A 
ATOM      8  C   UNL     1       3.264   3.580   6.311  1.00  0.00     0.051 A 
ATOM      9  C   UNL     1       4.359   2.909   6.908  1.00  0.00     0.027 A 
ATOM     10  C   UNL     1       4.516   2.820   8.288  1.00  0.00     0.002 A 
ATOM     11  C   UNL     1       2.515   4.123   8.550  1.00  0.00     0.016 A 
ATOM     12  C   UNL     1       3.579   3.416   9.115  1.00  0.00     0.001 A 
BRANCH   8  13
ATOM     13  N   UNL     1       3.137   3.446   4.912  1.00  0.00    -0.355 N 
ATOM     14  H   UNL     1       3.257   4.258   4.369  1.00  0.00     0.167 HD
BRANCH  13  15
ATOM     15  C   UNL     1       2.850   2.237   4.222  1.00  0.00     0.039 A 
ATOM     16  C   UNL     1       1.922   1.174   2.190  1.00  0.00     0.002 A 
ATOM     17  C   UNL     1       2.463   2.291   2.866  1.00  0.00     0.034 A 
ATOM     18  C   UNL     1       1.868  -0.016   2.918  1.00  0.00     0.127 A 
ATOM     19  C   UNL     1       2.332  -0.116   4.216  1.00  0.00     0.006 A 
ATOM     20  O   UNL     1       1.280  -1.173   2.478  1.00  0.00    -0.492 OA
ATOM     21  C   UNL     1       2.817   0.998   4.877  1.00  0.00     0.034 A 
ATOM     22  C   UNL     1       2.128  -1.497   4.744  1.00  0.00     0.028 C 
ATOM     23  C   UNL     1       1.585  -2.178   3.471  1.00  0.00     0.240 C 
ATOM     24  C   UNL     1       3.446  -2.131   5.197  1.00  0.00     0.020 C 
ATOM     25  C   UNL     1       1.102  -1.526   5.883  1.00  0.00     0.020 C 
BRANCH  16  26
ATOM     26  C   UNL     1       1.292   1.291   0.798  1.00  0.00    -0.009 C 
ATOM     27  C   UNL     1       1.723   0.152  -0.152  1.00  0.00     0.016 C 
ATOM     28  C   UNL     1       1.613   2.619   0.070  1.00  0.00     0.016 C 
ATOM     29  C   UNL     1      -0.229   1.242   0.986  1.00  0.00     0.016 C 
ENDBRANCH  16  26
ENDBRANCH  13  15
ENDBRANCH   8  13
ENDBRANCH   4   7
ENDBRANCH   2   3
ENDBRANCH   1   2
BRANCH   1  30
ATOM     30  C   UNL     1      -2.067   4.802   3.736  1.00  0.00     0.118 C 
BRANCH  30  31
ATOM     31  N   UNL     1      -1.643   5.250   2.416  1.00  0.00    -0.352 N 
ATOM     32  C   UNL     1      -1.945   4.909   1.118  1.00  0.00     0.251 C 
ATOM     33  H   UNL     1      -0.977   5.973   2.465  1.00  0.00     0.163 HD
ATOM     34  O   UNL     1      -1.433   5.609   0.239  1.00  0.00    -0.269 OA
BRANCH  32  35
ATOM     35  C   UNL     1      -2.762   3.730   0.702  1.00  0.00     0.039 A 
ATOM     36  C   UNL     1      -3.659   3.059   1.524  1.00  0.00     0.014 A 
ATOM     37  C   UNL     1      -2.580   3.237  -0.607  1.00  0.00     0.014 A 
ATOM     38  C   UNL     1      -4.211   1.839   1.127  1.00  0.00     0.010 A 
ATOM     39  C   UNL     1      -3.194   2.046  -1.036  1.00  0.00     0.010 A 
ATOM     40  C   UNL     1      -3.969   1.299  -0.146  1.00  0.00    -0.014 A 
BRANCH  40  41
ATOM     41  C   UNL     1      -4.571  -0.021  -0.488  1.00  0.00     0.031 A 
ATOM     42  C   UNL     1      -3.727  -1.259  -0.651  1.00  0.00     0.074 A 
ATOM     43  C   UNL     1      -5.914  -0.132  -0.501  1.00  0.00     0.049 A 
ATOM     44  N   UNL     1      -4.098  -2.515  -0.623  1.00  0.00    -0.248 NA
ATOM     45  C   UNL     1      -2.283  -1.077  -0.841  1.00  0.00     0.031 C 
ATOM     46  C   UNL     1      -6.847   0.984  -0.335  1.00  0.00     0.029 A 
ATOM     47  N   UNL     1      -6.726  -1.234  -0.606  1.00  0.00    -0.354 N 
ATOM     48  C   UNL     1      -2.928  -3.262  -0.721  1.00  0.00     0.074 A 
ATOM     49  C   UNL     1      -1.837  -2.325  -0.848  1.00  0.00     0.031 C 
ATOM     50  C   UNL     1      -8.096   0.504  -0.274  1.00  0.00     0.029 A 
ATOM     51  C   UNL     1      -8.062  -0.945  -0.459  1.00  0.00     0.049 A 
ATOM     52  H   UNL     1      -6.385  -2.143  -0.770  1.00  0.00     0.167 HD
ATOM     53  C   UNL     1      -2.775  -4.607  -0.716  1.00  0.00     0.031 A 
ATOM     54  C   UNL     1      -9.146  -1.746  -0.471  1.00  0.00     0.031 A 
ATOM     55  C   UNL     1      -3.870  -5.541  -0.721  1.00  0.00     0.049 A 
ATOM     56  C   UNL     1      -8.962  -3.226  -0.633  1.00  0.00     0.074 A 
ATOM     57  C   UNL     1      -3.816  -6.923  -0.762  1.00  0.00     0.029 A 
ATOM     58  N   UNL     1      -5.210  -5.191  -0.734  1.00  0.00    -0.354 N 
ATOM     59  N   UNL     1      -7.845  -3.914  -0.656  1.00  0.00    -0.248 NA
ATOM     60  C   UNL     1     -10.176  -4.039  -0.780  1.00  0.00     0.031 C 
ATOM     61  C   UNL     1      -5.121  -7.404  -0.893  1.00  0.00     0.029 A 
ATOM     62  C   UNL     1      -5.992  -6.327  -0.851  1.00  0.00     0.049 A 
ATOM     63  H   UNL     1      -5.556  -4.271  -0.671  1.00  0.00     0.167 HD
ATOM     64  C   UNL     1      -8.221  -5.241  -0.824  1.00  0.00     0.074 A 
ATOM     65  C   UNL     1      -9.669  -5.263  -0.874  1.00  0.00     0.031 C 
ATOM     66  C   UNL     1      -7.432  -6.338  -0.929  1.00  0.00     0.031 A 
BRANCH  53  67
ATOM     67  C   UNL     1      -1.377  -5.167  -0.742  1.00  0.00    -0.014 A 
ATOM     68  C   UNL     1      -0.896  -5.812  -1.896  1.00  0.00     0.010 A 
ATOM     69  C   UNL     1      -0.583  -5.160   0.420  1.00  0.00     0.010 A 
ATOM     70  C   UNL     1       0.339  -6.467  -1.881  1.00  0.00     0.020 A 
ATOM     71  C   UNL     1       0.660  -5.801   0.434  1.00  0.00     0.020 A 
ATOM     72  C   UNL     1       1.104  -6.468  -0.711  1.00  0.00     0.054 A 
BRANCH  72  73
ATOM     73  S   UNL     1       2.687  -7.355  -0.700  1.00  0.00     0.124 S 
ATOM     74  O   UNL     1       2.260  -8.750  -0.674  1.00  0.00    -0.237 OA
ATOM     75  O   UNL     1       3.311  -6.908  -1.944  1.00  0.00    -0.237 OA
ATOM     76  O   UNL     1       3.338  -6.878   0.519  1.00  0.00    -0.744 OA
ENDBRANCH  72  73
ENDBRANCH  53  67
BRANCH  54  77
ATOM     77  C   UNL     1     -10.493  -1.129  -0.331  1.00  0.00    -0.014 A 
ATOM     78  C   UNL     1     -10.978  -0.272  -1.337  1.00  0.00     0.010 A 
ATOM     79  C   UNL     1     -11.243  -1.296   0.845  1.00  0.00     0.010 A 
ATOM     80  C   UNL     1     -12.146   0.466  -1.141  1.00  0.00     0.020 A 
ATOM     81  C   UNL     1     -12.432  -0.582   1.032  1.00  0.00     0.020 A 
ATOM     82  C   UNL     1     -12.855   0.321   0.053  1.00  0.00     0.054 A 
BRANCH  82  83
ATOM     83  S   UNL     1     -14.328   1.345   0.320  1.00  0.00     0.124 S 
ATOM     84  O   UNL     1     -13.736   2.622   0.710  1.00  0.00    -0.237 OA
ATOM     85  O   UNL     1     -14.976   1.326  -0.989  1.00  0.00    -0.237 OA
ATOM     86  O   UNL     1     -15.046   0.639   1.377  1.00  0.00    -0.744 OA
ENDBRANCH  82  83
ENDBRANCH  54  77
BRANCH  66  87
ATOM     87  C   UNL     1      -8.096  -7.672  -1.144  1.00  0.00    -0.014 A 
ATOM     88  C   UNL     1      -8.050  -8.647  -0.131  1.00  0.00     0.010 A 
ATOM     89  C   UNL     1      -8.640  -8.007  -2.396  1.00  0.00     0.010 A 
ATOM     90  C   UNL     1      -8.499  -9.946  -0.378  1.00  0.00     0.020 A 
ATOM     91  C   UNL     1      -9.116  -9.298  -2.638  1.00  0.00     0.020 A 
ATOM     92  C   UNL     1      -9.017 -10.267  -1.635  1.00  0.00     0.054 A 
BRANCH  92  93
ATOM     93  S   UNL     1      -9.561 -11.968  -1.952  1.00  0.00     0.124 S 
ATOM     94  O   UNL     1      -8.294 -12.656  -2.183  1.00  0.00    -0.237 OA
ATOM     95  O   UNL     1     -10.252 -12.321  -0.714  1.00  0.00    -0.237 OA
ATOM     96  O   UNL     1     -10.425 -11.837  -3.123  1.00  0.00    -0.744 OA
ENDBRANCH  92  93
ENDBRANCH  66  87
ENDBRANCH  40  41
ENDBRANCH  32  35
ENDBRANCH  30  31
ENDBRANCH   1  30
TORSDOF 16
