REMARK SMILES O=C(NCCCNC(=O)[C@H]1CCCCN1C(=O)c1cn2ccccc2n1)c1ccc(-c2c3nc(c(-c4ccc(S(=O)(=O)[O-])cc4)c4ccc([nH]4)c(-c4ccc(S(=O)(=O)[O-])cc4)c4nc(c(-c5ccc(S(=O)(=O)[O-])cc5)c5ccc2[nH]5)C=C4)C=C3)cc1
REMARK SMILES IDX 4 1 3 2 1 3 2 4 27 6 28 7 86 8 29 9 85 10 30 11 31 12 32 13
REMARK SMILES IDX 79 14 33 15 84 16 78 17 80 18 34 19 83 20 77 21 76 22 35 24
REMARK SMILES IDX 65 25 46 26 64 27 47 28 50 29 63 30 81 31 48 32 49 33 62 35
REMARK SMILES IDX 82 36 51 37 36 38 37 39 45 40 38 41 44 42 39 43 40 44 41 45
REMARK SMILES IDX 42 46 43 47 66 48 67 49 75 50 68 51 74 52 69 53 70 54 71 55
REMARK SMILES IDX 72 56 73 57 52 58 53 59 61 60 54 61 60 62 55 63 56 64 57 65
REMARK SMILES IDX 58 66 59 67 5 68 6 69 7 70 8 71 9 73 10 74 11 75 15 76 12 77
REMARK SMILES IDX 14 78 13 79 16 80 17 81 18 82 19 83 26 84 20 85 25 86 21 87
REMARK SMILES IDX 24 88 22 89 23 90
REMARK H PARENT 3 5 80 23 50 34 7 72
REMARK Flexibility Score: inf
ROOT
ATOM      1  C   UNL     1       8.835   3.861  -2.276  1.00  0.00     0.118 C 
ENDROOT
BRANCH   1   2
ATOM      2  N   UNL     1       9.518   4.845  -3.111  1.00  0.00    -0.352 N 
ATOM      3  O   UNL     1      11.267   5.792  -4.166  1.00  0.00    -0.269 OA
ATOM      4  C   UNL     1      10.737   4.771  -3.746  1.00  0.00     0.251 C 
ATOM      5  H   UNL     1       9.032   5.691  -3.240  1.00  0.00     0.163 HD
BRANCH   4   6
ATOM      6  C   UNL     1      11.397   3.459  -3.909  1.00  0.00     0.039 A 
ATOM      7  C   UNL     1      10.632   2.333  -4.206  1.00  0.00     0.014 A 
ATOM      8  C   UNL     1      12.787   3.351  -3.804  1.00  0.00     0.014 A 
ATOM      9  C   UNL     1      11.216   1.080  -4.212  1.00  0.00     0.010 A 
ATOM     10  C   UNL     1      13.397   2.101  -3.959  1.00  0.00     0.010 A 
ATOM     11  C   UNL     1      12.611   0.955  -4.151  1.00  0.00    -0.014 A 
BRANCH  11  12
ATOM     12  C   UNL     1      13.198  -0.371  -4.454  1.00  0.00     0.031 A 
ATOM     13  C   UNL     1      14.003  -1.129  -3.441  1.00  0.00     0.074 A 
ATOM     14  C   UNL     1      12.938  -0.899  -5.670  1.00  0.00     0.049 A 
ATOM     15  N   UNL     1      14.549  -2.311  -3.558  1.00  0.00    -0.248 NA
ATOM     16  C   UNL     1      14.235  -0.487  -2.137  1.00  0.00     0.031 C 
ATOM     17  C   UNL     1      12.172  -0.230  -6.731  1.00  0.00     0.029 A 
ATOM     18  N   UNL     1      13.249  -2.116  -6.212  1.00  0.00    -0.354 N 
ATOM     19  C   UNL     1      15.215  -2.544  -2.361  1.00  0.00     0.074 A 
ATOM     20  C   UNL     1      15.008  -1.379  -1.529  1.00  0.00     0.031 C 
ATOM     21  C   UNL     1      12.016  -1.069  -7.763  1.00  0.00     0.029 A 
ATOM     22  C   UNL     1      12.749  -2.294  -7.481  1.00  0.00     0.049 A 
ATOM     23  H   UNL     1      13.779  -2.798  -5.740  1.00  0.00     0.167 HD
ATOM     24  C   UNL     1      15.937  -3.633  -2.003  1.00  0.00     0.031 A 
ATOM     25  C   UNL     1      12.894  -3.314  -8.345  1.00  0.00     0.031 A 
ATOM     26  C   UNL     1      16.117  -4.789  -2.844  1.00  0.00     0.049 A 
ATOM     27  C   UNL     1      13.718  -4.491  -7.922  1.00  0.00     0.074 A 
ATOM     28  C   UNL     1      16.788  -5.964  -2.554  1.00  0.00     0.029 A 
ATOM     29  N   UNL     1      15.635  -4.914  -4.139  1.00  0.00    -0.354 N 
ATOM     30  N   UNL     1      14.302  -4.710  -6.768  1.00  0.00    -0.248 NA
ATOM     31  C   UNL     1      13.917  -5.551  -8.917  1.00  0.00     0.031 C 
ATOM     32  C   UNL     1      16.763  -6.775  -3.693  1.00  0.00     0.029 A 
ATOM     33  C   UNL     1      16.028  -6.129  -4.674  1.00  0.00     0.049 A 
ATOM     34  H   UNL     1      15.093  -4.238  -4.607  1.00  0.00     0.167 HD
ATOM     35  C   UNL     1      14.943  -5.933  -6.899  1.00  0.00     0.074 A 
ATOM     36  C   UNL     1      14.641  -6.423  -8.230  1.00  0.00     0.031 C 
ATOM     37  C   UNL     1      15.723  -6.586  -6.005  1.00  0.00     0.031 A 
BRANCH  24  38
ATOM     38  C   UNL     1      16.622  -3.629  -0.662  1.00  0.00    -0.014 A 
ATOM     39  C   UNL     1      15.902  -3.827   0.528  1.00  0.00     0.010 A 
ATOM     40  C   UNL     1      18.025  -3.535  -0.607  1.00  0.00     0.010 A 
ATOM     41  C   UNL     1      16.574  -3.925   1.752  1.00  0.00     0.020 A 
ATOM     42  C   UNL     1      18.702  -3.652   0.611  1.00  0.00     0.020 A 
ATOM     43  C   UNL     1      17.971  -3.842   1.784  1.00  0.00     0.054 A 
BRANCH  43  44
ATOM     44  S   UNL     1      18.820  -4.045   3.375  1.00  0.00     0.124 S 
ATOM     45  O   UNL     1      18.497  -2.791   4.051  1.00  0.00    -0.237 OA
ATOM     46  O   UNL     1      18.183  -5.238   3.928  1.00  0.00    -0.237 OA
ATOM     47  O   UNL     1      20.223  -4.208   3.003  1.00  0.00    -0.744 OA
ENDBRANCH  43  44
ENDBRANCH  24  38
BRANCH  25  48
ATOM     48  C   UNL     1      12.310  -3.222  -9.710  1.00  0.00    -0.014 A 
ATOM     49  C   UNL     1      11.272  -4.078 -10.115  1.00  0.00     0.010 A 
ATOM     50  C   UNL     1      12.797  -2.260 -10.617  1.00  0.00     0.010 A 
ATOM     51  C   UNL     1      10.753  -3.992 -11.411  1.00  0.00     0.020 A 
ATOM     52  C   UNL     1      12.257  -2.148 -11.899  1.00  0.00     0.020 A 
ATOM     53  C   UNL     1      11.252  -3.030 -12.295  1.00  0.00     0.054 A 
BRANCH  53  54
ATOM     54  S   UNL     1      10.553  -2.919 -13.964  1.00  0.00     0.124 S 
ATOM     55  O   UNL     1      11.184  -4.054 -14.630  1.00  0.00    -0.237 OA
ATOM     56  O   UNL     1       9.119  -3.046 -13.719  1.00  0.00    -0.237 OA
ATOM     57  O   UNL     1      10.983  -1.601 -14.427  1.00  0.00    -0.744 OA
ENDBRANCH  53  54
ENDBRANCH  25  48
BRANCH  37  58
ATOM     58  C   UNL     1      16.297  -7.903  -6.446  1.00  0.00    -0.014 A 
ATOM     59  C   UNL     1      17.345  -7.954  -7.382  1.00  0.00     0.010 A 
ATOM     60  C   UNL     1      15.804  -9.098  -5.894  1.00  0.00     0.010 A 
ATOM     61  C   UNL     1      17.870  -9.183  -7.783  1.00  0.00     0.020 A 
ATOM     62  C   UNL     1      16.346 -10.328  -6.273  1.00  0.00     0.020 A 
ATOM     63  C   UNL     1      17.366 -10.362  -7.227  1.00  0.00     0.054 A 
BRANCH  63  64
ATOM     64  S   UNL     1      18.091 -11.944  -7.735  1.00  0.00     0.124 S 
ATOM     65  O   UNL     1      17.530 -12.119  -9.072  1.00  0.00    -0.237 OA
ATOM     66  O   UNL     1      19.525 -11.670  -7.685  1.00  0.00    -0.237 OA
ATOM     67  O   UNL     1      17.607 -12.886  -6.728  1.00  0.00    -0.744 OA
ENDBRANCH  63  64
ENDBRANCH  37  58
ENDBRANCH  11  12
ENDBRANCH   4   6
ENDBRANCH   1   2
BRANCH   1  68
ATOM     68  C   UNL     1       9.066   4.117  -0.798  1.00  0.00     0.042 C 
BRANCH  68  69
ATOM     69  C   UNL     1       8.393   5.389  -0.328  1.00  0.00     0.117 C 
BRANCH  69  70
ATOM     70  N   UNL     1       6.949   5.265  -0.288  1.00  0.00    -0.354 N 
ATOM     71  C   UNL     1       6.003   5.553   0.636  1.00  0.00     0.242 C 
ATOM     72  H   UNL     1       6.573   4.889  -1.117  1.00  0.00     0.163 HD
ATOM     73  O   UNL     1       4.838   5.413   0.235  1.00  0.00    -0.273 OA
BRANCH  71  74
ATOM     74  C   UNL     1       6.273   5.990   2.101  1.00  0.00     0.174 C 
ATOM     75  C   UNL     1       7.634   6.509   2.572  1.00  0.00     0.035 C 
ATOM     76  N   UNL     1       5.307   7.054   2.443  1.00  0.00    -0.325 N 
ATOM     77  C   UNL     1       8.000   7.851   1.923  1.00  0.00     0.004 C 
ATOM     78  C   UNL     1       5.530   8.323   1.746  1.00  0.00     0.121 C 
ATOM     79  C   UNL     1       6.895   8.888   2.127  1.00  0.00     0.022 C 
BRANCH  76  80
ATOM     80  C   UNL     1       4.518   6.872   3.582  1.00  0.00     0.274 C 
ATOM     81  O   UNL     1       4.480   5.804   4.192  1.00  0.00    -0.267 OA
BRANCH  80  82
ATOM     82  C   UNL     1       3.804   8.039   4.094  1.00  0.00     0.147 A 
ATOM     83  C   UNL     1       2.780   8.738   3.481  1.00  0.00     0.127 A 
ATOM     84  N   UNL     1       4.106   8.608   5.321  1.00  0.00    -0.223 NA
ATOM     85  N   UNL     1       2.486   9.777   4.322  1.00  0.00    -0.306 N 
ATOM     86  C   UNL     1       3.302   9.640   5.439  1.00  0.00     0.137 A 
ATOM     87  C   UNL     1       1.577  10.820   4.160  1.00  0.00     0.093 A 
ATOM     88  C   UNL     1       3.158  10.604   6.475  1.00  0.00     0.048 A 
ATOM     89  C   UNL     1       1.459  11.742   5.131  1.00  0.00     0.018 A 
ATOM     90  C   UNL     1       2.277  11.612   6.330  1.00  0.00     0.005 A 
ENDBRANCH  80  82
ENDBRANCH  76  80
ENDBRANCH  71  74
ENDBRANCH  69  70
ENDBRANCH  68  69
ENDBRANCH   1  68
TORSDOF 15
