REMARK SMILES O=C(NCCCNC(=O)[C@H]1[NH2+][C@@H]2CC[C@H]1CC2(F)F)c1ccc(-c2c3nc(c(-c4ccc(S(=O)(=O)[O-])cc4)c4ccc([nH]4)c(-c4ccc(S(=O)(=O)[O-])cc4)c4nc(c(-c5ccc(S(=O)(=O)[O-])cc5)c5ccc2[nH]5)C=C4)C=C3)cc1
REMARK SMILES IDX 1 1 2 2 3 3 20 5 21 6 79 7 22 8 78 9 23 10 24 11 25 12 72 13
REMARK SMILES IDX 26 14 77 15 71 16 73 17 27 18 76 19 70 20 69 21 28 23 58 24
REMARK SMILES IDX 39 25 57 26 40 27 43 28 56 29 74 30 41 31 42 32 55 34 75 35
REMARK SMILES IDX 44 36 29 37 30 38 38 39 31 40 37 41 32 42 33 43 34 44 35 45
REMARK SMILES IDX 36 46 59 47 60 48 68 49 61 50 67 51 62 52 63 53 64 54 65 55
REMARK SMILES IDX 66 56 45 57 46 58 54 59 47 60 53 61 48 62 49 63 50 64 51 65
REMARK SMILES IDX 52 66 4 67 5 68 6 69 7 70 8 71 9 73 10 74 11 75 15 76 12 77
REMARK SMILES IDX 14 80 16 81 13 82 17 83 18 84 19 85
REMARK H PARENT 3 4 73 22 43 33 7 72 11 78 11 79
REMARK Flexibility Score: inf
ROOT
ATOM      1  O   UNL     1       7.469   1.675   5.558  1.00  0.00    -0.269 OA
ATOM      2  C   UNL     1       7.468   0.539   6.032  1.00  0.00     0.251 C 
ATOM      3  N   UNL     1       7.528  -0.542   5.188  1.00  0.00    -0.352 N 
ATOM      4  H   UNL     1       7.771  -0.336   4.256  1.00  0.00     0.163 HD
ENDROOT
BRANCH   2   5
ATOM      5  C   UNL     1       7.392   0.344   7.497  1.00  0.00     0.039 A 
ATOM      6  C   UNL     1       8.180  -0.618   8.131  1.00  0.00     0.014 A 
ATOM      7  C   UNL     1       6.552   1.167   8.254  1.00  0.00     0.014 A 
ATOM      8  C   UNL     1       8.036  -0.845   9.496  1.00  0.00     0.010 A 
ATOM      9  C   UNL     1       6.474   0.997   9.640  1.00  0.00     0.010 A 
ATOM     10  C   UNL     1       7.200  -0.025  10.271  1.00  0.00    -0.014 A 
BRANCH  10  11
ATOM     11  C   UNL     1       7.169  -0.202  11.746  1.00  0.00     0.031 A 
ATOM     12  C   UNL     1       5.912  -0.622  12.458  1.00  0.00     0.074 A 
ATOM     13  C   UNL     1       8.305   0.005  12.444  1.00  0.00     0.049 A 
ATOM     14  N   UNL     1       5.727  -0.838  13.736  1.00  0.00    -0.248 NA
ATOM     15  C   UNL     1       4.708  -0.820  11.636  1.00  0.00     0.031 C 
ATOM     16  C   UNL     1       9.585   0.423  11.864  1.00  0.00     0.029 A 
ATOM     17  N   UNL     1       8.575  -0.123  13.782  1.00  0.00    -0.354 N 
ATOM     18  C   UNL     1       4.386  -1.180  13.877  1.00  0.00     0.074 A 
ATOM     19  C   UNL     1       3.798  -1.116  12.555  1.00  0.00     0.031 C 
ATOM     20  C   UNL     1      10.513   0.469  12.830  1.00  0.00     0.029 A 
ATOM     21  C   UNL     1       9.882   0.155  14.107  1.00  0.00     0.049 A 
ATOM     22  H   UNL     1       7.899  -0.388  14.447  1.00  0.00     0.167 HD
ATOM     23  C   UNL     1       3.712  -1.519  15.002  1.00  0.00     0.031 A 
ATOM     24  C   UNL     1      10.507   0.176  15.299  1.00  0.00     0.031 A 
ATOM     25  C   UNL     1       4.304  -1.571  16.315  1.00  0.00     0.049 A 
ATOM     26  C   UNL     1       9.725  -0.163  16.535  1.00  0.00     0.074 A 
ATOM     27  C   UNL     1       3.710  -1.932  17.513  1.00  0.00     0.029 A 
ATOM     28  N   UNL     1       5.621  -1.245  16.607  1.00  0.00    -0.354 N 
ATOM     29  N   UNL     1       8.467  -0.521  16.639  1.00  0.00    -0.248 NA
ATOM     30  C   UNL     1      10.445  -0.097  17.812  1.00  0.00     0.031 C 
ATOM     31  C   UNL     1       4.650  -1.766  18.536  1.00  0.00     0.029 A 
ATOM     32  C   UNL     1       5.849  -1.367  17.968  1.00  0.00     0.049 A 
ATOM     33  H   UNL     1       6.294  -0.968  15.944  1.00  0.00     0.167 HD
ATOM     34  C   UNL     1       8.250  -0.742  17.994  1.00  0.00     0.074 A 
ATOM     35  C   UNL     1       9.511  -0.498  18.664  1.00  0.00     0.031 C 
ATOM     36  C   UNL     1       7.108  -1.112  18.624  1.00  0.00     0.031 A 
BRANCH  23  37
ATOM     37  C   UNL     1       2.242  -1.833  14.872  1.00  0.00    -0.014 A 
ATOM     38  C   UNL     1       1.798  -3.010  14.241  1.00  0.00     0.010 A 
ATOM     39  C   UNL     1       1.291  -0.964  15.438  1.00  0.00     0.010 A 
ATOM     40  C   UNL     1       0.432  -3.289  14.142  1.00  0.00     0.020 A 
ATOM     41  C   UNL     1      -0.075  -1.253  15.366  1.00  0.00     0.020 A 
ATOM     42  C   UNL     1      -0.497  -2.407  14.703  1.00  0.00     0.054 A 
BRANCH  42  43
ATOM     43  S   UNL     1      -2.263  -2.803  14.573  1.00  0.00     0.124 S 
ATOM     44  O   UNL     1      -2.519  -2.569  13.154  1.00  0.00    -0.237 OA
ATOM     45  O   UNL     1      -2.309  -4.201  14.996  1.00  0.00    -0.237 OA
ATOM     46  O   UNL     1      -2.901  -1.857  15.485  1.00  0.00    -0.744 OA
ENDBRANCH  42  43
ENDBRANCH  23  37
BRANCH  24  47
ATOM     47  C   UNL     1      11.945   0.553  15.373  1.00  0.00    -0.014 A 
ATOM     48  C   UNL     1      12.920  -0.398  15.719  1.00  0.00     0.010 A 
ATOM     49  C   UNL     1      12.348   1.867  15.068  1.00  0.00     0.010 A 
ATOM     50  C   UNL     1      14.270  -0.038  15.774  1.00  0.00     0.020 A 
ATOM     51  C   UNL     1      13.698   2.222  15.089  1.00  0.00     0.020 A 
ATOM     52  C   UNL     1      14.650   1.269  15.454  1.00  0.00     0.054 A 
BRANCH  52  53
ATOM     53  S   UNL     1      16.412   1.700  15.481  1.00  0.00     0.124 S 
ATOM     54  O   UNL     1      16.692   1.739  16.913  1.00  0.00    -0.237 OA
ATOM     55  O   UNL     1      17.018   0.592  14.746  1.00  0.00    -0.237 OA
ATOM     56  O   UNL     1      16.459   2.990  14.797  1.00  0.00    -0.744 OA
ENDBRANCH  52  53
ENDBRANCH  24  47
BRANCH  36  57
ATOM     57  C   UNL     1       7.178  -1.305  20.116  1.00  0.00    -0.014 A 
ATOM     58  C   UNL     1       7.311  -0.210  20.988  1.00  0.00     0.010 A 
ATOM     59  C   UNL     1       7.068  -2.600  20.654  1.00  0.00     0.010 A 
ATOM     60  C   UNL     1       7.367  -0.411  22.370  1.00  0.00     0.020 A 
ATOM     61  C   UNL     1       7.093  -2.803  22.035  1.00  0.00     0.020 A 
ATOM     62  C   UNL     1       7.257  -1.707  22.885  1.00  0.00     0.054 A 
BRANCH  62  63
ATOM     63  S   UNL     1       7.292  -1.937  24.683  1.00  0.00     0.124 S 
ATOM     64  O   UNL     1       8.699  -1.699  24.993  1.00  0.00    -0.237 OA
ATOM     65  O   UNL     1       6.362  -0.913  25.155  1.00  0.00    -0.237 OA
ATOM     66  O   UNL     1       6.838  -3.314  24.866  1.00  0.00    -0.744 OA
ENDBRANCH  62  63
ENDBRANCH  36  57
ENDBRANCH  10  11
ENDBRANCH   2   5
BRANCH   3  67
ATOM     67  C   UNL     1       7.286  -1.950   5.470  1.00  0.00     0.118 C 
BRANCH  67  68
ATOM     68  C   UNL     1       6.084  -2.490   4.696  1.00  0.00     0.042 C 
BRANCH  68  69
ATOM     69  C   UNL     1       6.346  -2.653   3.199  1.00  0.00     0.118 C 
BRANCH  69  70
ATOM     70  N   UNL     1       7.374  -3.644   2.950  1.00  0.00    -0.351 N 
ATOM     71  C   UNL     1       7.323  -4.944   2.575  1.00  0.00     0.278 C 
ATOM     72  H   UNL     1       8.290  -3.305   3.078  1.00  0.00     0.163 HD
ATOM     73  O   UNL     1       8.405  -5.546   2.545  1.00  0.00    -0.268 OA
BRANCH  71  74
ATOM     74  C   UNL     1       6.019  -5.658   2.111  1.00  0.00     0.276 C 
ATOM     75  N   UNL     1       6.367  -7.097   1.837  1.00  0.00    -0.328 N 
ATOM     76  C   UNL     1       4.788  -5.602   3.046  1.00  0.00     0.064 C 
ATOM     77  C   UNL     1       5.586  -8.012   2.712  1.00  0.00     0.253 C 
ATOM     78  H   UNL     1       7.362  -7.239   2.010  1.00  0.00     0.347 HD
ATOM     79  H   UNL     1       6.139  -7.306   0.864  1.00  0.00     0.347 HD
ATOM     80  C   UNL     1       3.662  -6.444   2.396  1.00  0.00     0.017 C 
ATOM     81  C   UNL     1       5.127  -6.217   4.415  1.00  0.00     0.094 C 
ATOM     82  C   UNL     1       4.127  -7.900   2.247  1.00  0.00     0.072 C 
ATOM     83  C   UNL     1       5.651  -7.633   4.212  1.00  0.00     0.298 C 
ATOM     84  F   UNL     1       4.922  -8.502   4.953  1.00  0.00    -0.200 F 
ATOM     85  F   UNL     1       6.928  -7.717   4.660  1.00  0.00    -0.200 F 
ENDBRANCH  71  74
ENDBRANCH  69  70
ENDBRANCH  68  69
ENDBRANCH  67  68
ENDBRANCH   3  67
TORSDOF 13
