REMARK SMILES O=C(NCCCNC(=O)[C@H]1CCC[C@@H]1C[NH2+][C@@H]1CCOC2(CCC2)C1)c1ccc(-c2c3nc(c(-c4ccc(S(=O)(=O)[O-])cc4)c4ccc([nH]4)c(-c4ccc(S(=O)(=O)[O-])cc4)c4nc(c(-c5ccc(S(=O)(=O)[O-])cc5)c5ccc2[nH]5)C=C4)C=C3)cc1
REMARK SMILES IDX 5 1 4 2 3 3 1 4 2 5 26 7 27 8 85 9 28 10 84 11 29 12 30 13
REMARK SMILES IDX 31 14 78 15 32 16 83 17 77 18 79 19 33 20 82 21 76 22 75 23
REMARK SMILES IDX 34 25 64 26 45 27 63 28 46 29 49 30 62 31 80 32 47 33 48 34
REMARK SMILES IDX 61 36 81 37 50 38 35 39 36 40 44 41 37 42 43 43 38 44 39 45
REMARK SMILES IDX 40 46 41 47 42 48 65 49 66 50 74 51 67 52 73 53 68 54 69 55
REMARK SMILES IDX 70 56 71 57 72 58 51 59 52 60 60 61 53 62 59 63 54 64 55 65
REMARK SMILES IDX 56 66 57 67 58 68 6 69 7 70 8 71 9 73 10 74 11 75 14 76
REMARK SMILES IDX 12 77 13 78 15 79 16 80 17 83 18 84 25 85 19 86 21 87 20 88
REMARK SMILES IDX 22 89 24 90 23 91
REMARK H PARENT 3 6 79 24 49 35 7 72 16 81 16 82
REMARK Flexibility Score: inf
ROOT
ATOM      1  C   UNL     1       8.360  -2.152  -1.484  1.00  0.00     0.042 C 
ENDROOT
BRANCH   1   2
ATOM      2  C   UNL     1       8.374  -1.783  -0.008  1.00  0.00     0.118 C 
BRANCH   2   3
ATOM      3  N   UNL     1       9.633  -2.116   0.648  1.00  0.00    -0.352 N 
ATOM      4  O   UNL     1      11.728  -1.823   1.415  1.00  0.00    -0.269 OA
ATOM      5  C   UNL     1      10.673  -1.313   1.059  1.00  0.00     0.251 C 
ATOM      6  H   UNL     1       9.761  -3.076   0.827  1.00  0.00     0.163 HD
BRANCH   5   7
ATOM      7  C   UNL     1      10.525   0.159   1.040  1.00  0.00     0.039 A 
ATOM      8  C   UNL     1       9.335   0.758   1.446  1.00  0.00     0.014 A 
ATOM      9  C   UNL     1      11.592   0.953   0.610  1.00  0.00     0.014 A 
ATOM     10  C   UNL     1       9.132   2.111   1.216  1.00  0.00     0.010 A 
ATOM     11  C   UNL     1      11.428   2.339   0.501  1.00  0.00     0.010 A 
ATOM     12  C   UNL     1      10.178   2.924   0.750  1.00  0.00    -0.014 A 
BRANCH  12  13
ATOM     13  C   UNL     1       9.927   4.379   0.567  1.00  0.00     0.031 A 
ATOM     14  C   UNL     1      10.047   5.029  -0.786  1.00  0.00     0.074 A 
ATOM     15  C   UNL     1       9.517   5.103   1.629  1.00  0.00     0.049 A 
ATOM     16  N   UNL     1       9.790   6.267  -1.127  1.00  0.00    -0.248 NA
ATOM     17  C   UNL     1      10.525   4.193  -1.899  1.00  0.00     0.031 C 
ATOM     18  C   UNL     1       9.368   4.588   2.994  1.00  0.00     0.029 A 
ATOM     19  N   UNL     1       9.108   6.408   1.724  1.00  0.00    -0.354 N 
ATOM     20  C   UNL     1      10.108   6.369  -2.477  1.00  0.00     0.074 A 
ATOM     21  C   UNL     1      10.593   5.070  -2.892  1.00  0.00     0.031 C 
ATOM     22  C   UNL     1       8.823   5.538   3.767  1.00  0.00     0.029 A 
ATOM     23  C   UNL     1       8.654   6.750   2.976  1.00  0.00     0.049 A 
ATOM     24  H   UNL     1       9.136   7.039   0.969  1.00  0.00     0.167 HD
ATOM     25  C   UNL     1      10.004   7.443  -3.296  1.00  0.00     0.031 A 
ATOM     26  C   UNL     1       8.159   7.910   3.445  1.00  0.00     0.031 A 
ATOM     27  C   UNL     1       9.500   8.728  -2.885  1.00  0.00     0.049 A 
ATOM     28  C   UNL     1       8.045   9.081   2.514  1.00  0.00     0.074 A 
ATOM     29  C   UNL     1       9.325   9.869  -3.651  1.00  0.00     0.029 A 
ATOM     30  N   UNL     1       9.087   9.043  -1.600  1.00  0.00    -0.354 N 
ATOM     31  N   UNL     1       8.336   9.146   1.237  1.00  0.00    -0.248 NA
ATOM     32  C   UNL     1       7.536  10.333   3.087  1.00  0.00     0.031 C 
ATOM     33  C   UNL     1       8.845  10.886  -2.817  1.00  0.00     0.029 A 
ATOM     34  C   UNL     1       8.674  10.364  -1.545  1.00  0.00     0.049 A 
ATOM     35  H   UNL     1       9.088   8.420  -0.838  1.00  0.00     0.167 HD
ATOM     36  C   UNL     1       8.030  10.445   0.849  1.00  0.00     0.074 A 
ATOM     37  C   UNL     1       7.514  11.122   2.022  1.00  0.00     0.031 C 
ATOM     38  C   UNL     1       8.168  11.024  -0.369  1.00  0.00     0.031 A 
BRANCH  25  39
ATOM     39  C   UNL     1      10.477   7.286  -4.718  1.00  0.00    -0.014 A 
ATOM     40  C   UNL     1       9.745   6.537  -5.657  1.00  0.00     0.010 A 
ATOM     41  C   UNL     1      11.657   7.933  -5.131  1.00  0.00     0.010 A 
ATOM     42  C   UNL     1      10.206   6.404  -6.971  1.00  0.00     0.020 A 
ATOM     43  C   UNL     1      12.108   7.823  -6.450  1.00  0.00     0.020 A 
ATOM     44  C   UNL     1      11.389   7.043  -7.357  1.00  0.00     0.054 A 
BRANCH  44  45
ATOM     45  S   UNL     1      11.959   6.864  -9.070  1.00  0.00     0.124 S 
ATOM     46  O   UNL     1      12.490   5.503  -9.069  1.00  0.00    -0.237 OA
ATOM     47  O   UNL     1      10.734   7.058  -9.841  1.00  0.00    -0.237 OA
ATOM     48  O   UNL     1      12.957   7.921  -9.216  1.00  0.00    -0.744 OA
ENDBRANCH  44  45
ENDBRANCH  25  39
BRANCH  26  49
ATOM     49  C   UNL     1       7.737   8.011   4.867  1.00  0.00    -0.014 A 
ATOM     50  C   UNL     1       6.376   8.115   5.203  1.00  0.00     0.010 A 
ATOM     51  C   UNL     1       8.696   7.967   5.896  1.00  0.00     0.010 A 
ATOM     52  C   UNL     1       5.983   8.185   6.543  1.00  0.00     0.020 A 
ATOM     53  C   UNL     1       8.305   8.008   7.236  1.00  0.00     0.020 A 
ATOM     54  C   UNL     1       6.951   8.129   7.551  1.00  0.00     0.054 A 
BRANCH  54  55
ATOM     55  S   UNL     1       6.417   8.159   9.284  1.00  0.00     0.124 S 
ATOM     56  O   UNL     1       6.111   9.572   9.482  1.00  0.00    -0.237 OA
ATOM     57  O   UNL     1       5.268   7.256   9.279  1.00  0.00    -0.237 OA
ATOM     58  O   UNL     1       7.585   7.661  10.008  1.00  0.00    -0.744 OA
ENDBRANCH  54  55
ENDBRANCH  26  49
BRANCH  38  59
ATOM     59  C   UNL     1       7.720  12.454  -0.497  1.00  0.00    -0.014 A 
ATOM     60  C   UNL     1       8.469  13.504   0.064  1.00  0.00     0.010 A 
ATOM     61  C   UNL     1       6.543  12.749  -1.207  1.00  0.00     0.010 A 
ATOM     62  C   UNL     1       8.023  14.824  -0.048  1.00  0.00     0.020 A 
ATOM     63  C   UNL     1       6.108  14.070  -1.342  1.00  0.00     0.020 A 
ATOM     64  C   UNL     1       6.842  15.097  -0.745  1.00  0.00     0.054 A 
BRANCH  64  65
ATOM     65  S   UNL     1       6.292  16.819  -0.896  1.00  0.00     0.124 S 
ATOM     66  O   UNL     1       5.723  17.071   0.425  1.00  0.00    -0.237 OA
ATOM     67  O   UNL     1       7.533  17.530  -1.193  1.00  0.00    -0.237 OA
ATOM     68  O   UNL     1       5.328  16.777  -1.993  1.00  0.00    -0.744 OA
ENDBRANCH  64  65
ENDBRANCH  38  59
ENDBRANCH  12  13
ENDBRANCH   5   7
ENDBRANCH   2   3
ENDBRANCH   1   2
BRANCH   1  69
ATOM     69  C   UNL     1       8.514  -3.642  -1.737  1.00  0.00     0.117 C 
BRANCH  69  70
ATOM     70  N   UNL     1       7.439  -4.411  -1.131  1.00  0.00    -0.356 N 
ATOM     71  C   UNL     1       6.581  -5.293  -1.718  1.00  0.00     0.223 C 
ATOM     72  H   UNL     1       7.314  -4.277  -0.164  1.00  0.00     0.163 HD
ATOM     73  O   UNL     1       5.715  -5.817  -1.019  1.00  0.00    -0.275 OA
BRANCH  71  74
ATOM     74  C   UNL     1       6.743  -5.573  -3.205  1.00  0.00     0.087 C 
ATOM     75  C   UNL     1       8.028  -6.354  -3.494  1.00  0.00     0.014 C 
ATOM     76  C   UNL     1       5.634  -6.481  -3.758  1.00  0.00     0.056 C 
ATOM     77  C   UNL     1       7.643  -7.831  -3.482  1.00  0.00     0.001 C 
ATOM     78  C   UNL     1       6.122  -7.888  -3.402  1.00  0.00     0.010 C 
BRANCH  76  79
ATOM     79  C   UNL     1       5.444  -6.323  -5.278  1.00  0.00     0.265 C 
BRANCH  79  80
ATOM     80  N   UNL     1       5.025  -4.957  -5.583  1.00  0.00    -0.343 N 
ATOM     81  H   UNL     1       5.812  -4.335  -5.397  1.00  0.00     0.346 HD
ATOM     82  H   UNL     1       4.214  -4.767  -4.995  1.00  0.00     0.346 HD
BRANCH  80  83
ATOM     83  C   UNL     1       4.591  -4.743  -6.969  1.00  0.00     0.187 C 
ATOM     84  C   UNL     1       4.324  -3.243  -7.186  1.00  0.00     0.093 C 
ATOM     85  C   UNL     1       3.337  -5.532  -7.381  1.00  0.00     0.100 C 
ATOM     86  C   UNL     1       3.046  -2.780  -6.496  1.00  0.00     0.167 C 
ATOM     87  C   UNL     1       2.102  -5.034  -6.632  1.00  0.00     0.074 C 
ATOM     88  O   UNL     1       1.944  -3.610  -6.867  1.00  0.00    -0.375 OA
ATOM     89  C   UNL     1       0.831  -5.875  -6.959  1.00  0.00     0.036 C 
ATOM     90  C   UNL     1       1.909  -5.509  -5.156  1.00  0.00     0.036 C 
ATOM     91  C   UNL     1       0.426  -5.744  -5.480  1.00  0.00     0.006 C 
ENDBRANCH  80  83
ENDBRANCH  79  80
ENDBRANCH  76  79
ENDBRANCH  71  74
ENDBRANCH  69  70
ENDBRANCH   1  69
TORSDOF 16
