REMARK SMILES Cc1ccc(NC(=O)COc2ccc(Cl)cc2/C=C2\SC(=S)N(CC(=O)NCCCNC(=O)c3ccc(-c4c5nc(c(-c6ccc(S(=O)(=O)[O-])cc6)c6ccc([nH]6)c(-c6ccc(S(=O)(=O)[O-])cc6)c6nc(c(-c7ccc(S(=O)(=O)[O-])cc7)c7ccc4[nH]7)C=C6)C=C5)cc3)C2=O)cc1
REMARK SMILES IDX 25 1 26 2 27 3 24 5 23 6 18 7 19 8 20 9 94 10 21 11 95 12
REMARK SMILES IDX 22 13 17 14 11 15 12 16 13 17 16 18 14 19 15 20 10 21 9 22
REMARK SMILES IDX 7 23 6 24 8 26 5 27 1 28 2 29 3 30 97 31 4 32 96 33 28 34
REMARK SMILES IDX 29 35 30 36 31 37 32 38 33 40 34 41 35 42 93 43 36 44 92 45
REMARK SMILES IDX 37 46 38 47 39 48 86 49 40 50 91 51 85 52 87 53 41 54 90 55
REMARK SMILES IDX 84 56 83 57 42 59 72 60 53 61 71 62 54 63 57 64 70 65 88 66
REMARK SMILES IDX 55 67 56 68 69 70 89 71 58 72 43 73 44 74 52 75 45 76 51 77
REMARK SMILES IDX 46 78 47 79 48 80 49 81 50 82 73 83 74 84 82 85 75 86 81 87
REMARK SMILES IDX 76 88 77 89 78 90 79 91 80 92 59 93 60 94 68 95 61 96 67 97
REMARK SMILES IDX 62 98 63 99 64 100 65 101 66 102
REMARK H PARENT 27 4 6 25 31 39 87 58 57 69
REMARK Flexibility Score: inf
ROOT
ATOM      1  C   UNL     1      -0.127  -1.196   4.340  1.00  0.00     0.240 C 
ATOM      2  O   UNL     1      -0.607  -0.415   5.163  1.00  0.00    -0.273 OA
ATOM      3  N   UNL     1       1.206  -1.110   4.026  1.00  0.00    -0.354 N 
ATOM      4  H   UNL     1       1.641  -0.262   4.273  1.00  0.00     0.163 HD
ENDROOT
BRANCH   1   5
ATOM      5  C   UNL     1      -0.994  -2.267   3.696  1.00  0.00     0.227 C 
BRANCH   5   6
ATOM      6  N   UNL     1      -1.193  -2.196   2.255  1.00  0.00    -0.283 N 
ATOM      7  C   UNL     1      -2.929  -3.226  -0.591  1.00  0.00     0.033 C 
ATOM      8  C   UNL     1      -1.873  -3.013   0.185  1.00  0.00     0.081 C 
ATOM      9  S   UNL     1      -0.372  -2.306  -0.145  1.00  0.00    -0.054 SA
ATOM     10  C   UNL     1      -2.052  -3.086   1.665  1.00  0.00     0.266 C 
ATOM     11  C   UNL     1      -0.590  -1.367   1.346  1.00  0.00     0.148 C 
ATOM     12  O   UNL     1      -2.868  -3.805   2.231  1.00  0.00    -0.268 OA
ATOM     13  S   UNL     1      -0.370   0.281   1.456  1.00  0.00    -0.052 S 
BRANCH   7  14
ATOM     14  C   UNL     1      -3.298  -3.253  -2.023  1.00  0.00     0.019 A 
ATOM     15  C   UNL     1      -4.661  -3.432  -2.200  1.00  0.00     0.127 A 
ATOM     16  C   UNL     1      -5.135  -4.143  -3.292  1.00  0.00     0.048 A 
ATOM     17  C   UNL     1      -4.341  -4.192  -4.430  1.00  0.00     0.024 A 
ATOM     18  C   UNL     1      -2.535  -3.175  -3.189  1.00  0.00     0.032 A 
ATOM     19  C   UNL     1      -3.114  -3.536  -4.412  1.00  0.00     0.041 A 
ATOM     20  Cl  UNL     1      -2.351  -3.141  -5.902  1.00  0.00    -0.084 Cl
BRANCH  15  21
ATOM     21  O   UNL     1      -5.500  -2.968  -1.233  1.00  0.00    -0.483 OA
BRANCH  21  22
ATOM     22  C   UNL     1      -5.651  -1.548  -1.219  1.00  0.00     0.329 C 
BRANCH  22  23
ATOM     23  C   UNL     1      -5.121  -0.095  -0.683  1.00  0.00     0.262 C 
ATOM     24  N   UNL     1      -4.082   0.747  -0.923  1.00  0.00    -0.323 N 
ATOM     25  H   UNL     1      -4.317   1.618  -0.530  1.00  0.00     0.170 HD
ATOM     26  O   UNL     1      -5.957   0.489   0.051  1.00  0.00    -0.271 OA
BRANCH  24  27
ATOM     27  C   UNL     1      -2.804   0.883  -1.506  1.00  0.00     0.041 A 
ATOM     28  C   UNL     1       1.285   1.296  -3.020  1.00  0.00     0.044 C 
ATOM     29  C   UNL     1      -0.118   1.214  -2.489  1.00  0.00    -0.051 A 
ATOM     30  C   UNL     1      -0.769  -0.011  -2.519  1.00  0.00     0.005 A 
ATOM     31  C   UNL     1      -0.819   2.293  -1.954  1.00  0.00     0.005 A 
ATOM     32  C   UNL     1      -2.087  -0.148  -2.042  1.00  0.00     0.026 A 
ATOM     33  C   UNL     1      -2.142   2.126  -1.467  1.00  0.00     0.026 A 
ENDBRANCH  24  27
ENDBRANCH  22  23
ENDBRANCH  21  22
ENDBRANCH  15  21
ENDBRANCH   7  14
ENDBRANCH   5   6
ENDBRANCH   1   5
BRANCH   3  34
ATOM     34  C   UNL     1       2.070  -2.085   3.381  1.00  0.00     0.117 C 
BRANCH  34  35
ATOM     35  C   UNL     1       2.678  -1.707   2.031  1.00  0.00     0.042 C 
BRANCH  35  36
ATOM     36  C   UNL     1       3.694  -0.568   1.995  1.00  0.00     0.118 C 
BRANCH  36  37
ATOM     37  N   UNL     1       4.571  -0.823   0.849  1.00  0.00    -0.352 N 
ATOM     38  C   UNL     1       4.650  -0.257  -0.396  1.00  0.00     0.251 C 
ATOM     39  H   UNL     1       5.229  -1.538   1.003  1.00  0.00     0.163 HD
ATOM     40  O   UNL     1       5.069  -0.848  -1.383  1.00  0.00    -0.269 OA
BRANCH  38  41
ATOM     41  C   UNL     1       4.343   1.168  -0.489  1.00  0.00     0.039 A 
ATOM     42  C   UNL     1       5.422   2.058  -0.562  1.00  0.00     0.014 A 
ATOM     43  C   UNL     1       3.038   1.600  -0.304  1.00  0.00     0.014 A 
ATOM     44  C   UNL     1       5.213   3.397  -0.270  1.00  0.00     0.010 A 
ATOM     45  C   UNL     1       2.820   2.932  -0.055  1.00  0.00     0.010 A 
ATOM     46  C   UNL     1       3.918   3.796   0.056  1.00  0.00    -0.014 A 
BRANCH  46  47
ATOM     47  C   UNL     1       3.617   5.006   0.792  1.00  0.00     0.031 A 
ATOM     48  C   UNL     1       3.195   6.234   0.118  1.00  0.00     0.074 A 
ATOM     49  C   UNL     1       3.539   4.867   2.131  1.00  0.00     0.049 A 
ATOM     50  N   UNL     1       3.080   7.368   0.716  1.00  0.00    -0.248 NA
ATOM     51  C   UNL     1       2.925   6.304  -1.314  1.00  0.00     0.031 C 
ATOM     52  C   UNL     1       2.858   5.710   3.103  1.00  0.00     0.029 A 
ATOM     53  N   UNL     1       4.197   3.942   2.921  1.00  0.00    -0.354 N 
ATOM     54  C   UNL     1       2.402   8.204  -0.134  1.00  0.00     0.074 A 
ATOM     55  C   UNL     1       2.485   7.562  -1.425  1.00  0.00     0.031 C 
ATOM     56  C   UNL     1       3.315   5.403   4.331  1.00  0.00     0.029 A 
ATOM     57  C   UNL     1       4.453   4.508   4.166  1.00  0.00     0.049 A 
ATOM     58  H   UNL     1       4.444   3.030   2.646  1.00  0.00     0.167 HD
ATOM     59  C   UNL     1       1.716   9.255   0.399  1.00  0.00     0.031 A 
ATOM     60  C   UNL     1       5.743   4.844   4.488  1.00  0.00     0.031 A 
ATOM     61  C   UNL     1       2.053   9.450   1.817  1.00  0.00     0.049 A 
ATOM     62  C   UNL     1       5.997   6.351   4.529  1.00  0.00     0.074 A 
ATOM     63  C   UNL     1       1.391   9.267   3.019  1.00  0.00     0.029 A 
ATOM     64  N   UNL     1       3.389   9.628   2.150  1.00  0.00    -0.354 N 
ATOM     65  N   UNL     1       5.095   7.266   4.288  1.00  0.00    -0.248 NA
ATOM     66  C   UNL     1       7.311   6.943   4.789  1.00  0.00     0.031 C 
ATOM     67  C   UNL     1       2.365   9.276   4.069  1.00  0.00     0.029 A 
ATOM     68  C   UNL     1       3.608   9.510   3.509  1.00  0.00     0.049 A 
ATOM     69  H   UNL     1       4.099   9.818   1.493  1.00  0.00     0.167 HD
ATOM     70  C   UNL     1       5.665   8.509   4.299  1.00  0.00     0.074 A 
ATOM     71  C   UNL     1       7.057   8.256   4.635  1.00  0.00     0.031 C 
ATOM     72  C   UNL     1       4.976   9.651   3.995  1.00  0.00     0.031 A 
BRANCH  59  73
ATOM     73  C   UNL     1       0.594   9.987  -0.312  1.00  0.00    -0.014 A 
ATOM     74  C   UNL     1      -0.135  10.986   0.364  1.00  0.00     0.010 A 
ATOM     75  C   UNL     1       0.143   9.677  -1.612  1.00  0.00     0.010 A 
ATOM     76  C   UNL     1      -1.256  11.613  -0.214  1.00  0.00     0.020 A 
ATOM     77  C   UNL     1      -0.955  10.308  -2.211  1.00  0.00     0.020 A 
ATOM     78  C   UNL     1      -1.662  11.265  -1.501  1.00  0.00     0.054 A 
BRANCH  78  79
ATOM     79  S   UNL     1      -3.124  12.043  -2.233  1.00  0.00     0.124 S 
ATOM     80  O   UNL     1      -4.197  11.572  -1.362  1.00  0.00    -0.237 OA
ATOM     81  O   UNL     1      -2.808  13.465  -2.139  1.00  0.00    -0.237 OA
ATOM     82  O   UNL     1      -3.156  11.509  -3.594  1.00  0.00    -0.744 OA
ENDBRANCH  78  79
ENDBRANCH  59  73
BRANCH  60  83
ATOM     83  C   UNL     1       6.736   3.798   4.074  1.00  0.00    -0.014 A 
ATOM     84  C   UNL     1       6.694   2.554   4.746  1.00  0.00     0.010 A 
ATOM     85  C   UNL     1       7.395   3.861   2.834  1.00  0.00     0.010 A 
ATOM     86  C   UNL     1       7.174   1.386   4.139  1.00  0.00     0.020 A 
ATOM     87  C   UNL     1       7.885   2.691   2.226  1.00  0.00     0.020 A 
ATOM     88  C   UNL     1       7.734   1.454   2.864  1.00  0.00     0.054 A 
BRANCH  88  89
ATOM     89  S   UNL     1       8.095  -0.101   1.985  1.00  0.00     0.124 S 
ATOM     90  O   UNL     1       9.352  -0.517   2.595  1.00  0.00    -0.237 OA
ATOM     91  O   UNL     1       6.940  -0.941   2.310  1.00  0.00    -0.237 OA
ATOM     92  O   UNL     1       8.174   0.314   0.589  1.00  0.00    -0.744 OA
ENDBRANCH  88  89
ENDBRANCH  60  83
BRANCH  72  93
ATOM     93  C   UNL     1       5.581  11.032   4.062  1.00  0.00    -0.014 A 
ATOM     94  C   UNL     1       6.482  11.418   5.068  1.00  0.00     0.010 A 
ATOM     95  C   UNL     1       5.159  12.034   3.159  1.00  0.00     0.010 A 
ATOM     96  C   UNL     1       7.008  12.717   5.109  1.00  0.00     0.020 A 
ATOM     97  C   UNL     1       5.659  13.337   3.204  1.00  0.00     0.020 A 
ATOM     98  C   UNL     1       6.606  13.663   4.164  1.00  0.00     0.054 A 
BRANCH  98  99
ATOM     99  S   UNL     1       7.295  15.335   4.229  1.00  0.00     0.124 S 
ATOM    100  O   UNL     1       7.240  15.649   5.655  1.00  0.00    -0.237 OA
ATOM    101  O   UNL     1       8.633  15.128   3.683  1.00  0.00    -0.237 OA
ATOM    102  O   UNL     1       6.391  16.118   3.390  1.00  0.00    -0.744 OA
ENDBRANCH  98  99
ENDBRANCH  72  93
ENDBRANCH  46  47
ENDBRANCH  38  41
ENDBRANCH  36  37
ENDBRANCH  35  36
ENDBRANCH  34  35
ENDBRANCH   3  34
TORSDOF 19
