REMARK SMILES O=C(Cc1cn2ccsc2n1)N[C@@H]1C=C[C@H](C(=O)NCCCNC(=O)c2ccc(-c3c4nc(c(-c5ccc(S(=O)(=O)[O-])cc5)c5ccc([nH]5)c(-c5ccc(S(=O)(=O)[O-])cc5)c5nc(c(-c6ccc(S(=O)(=O)[O-])cc6)c6ccc3[nH]6)C=C5)C=C4)cc2)C1
REMARK SMILES IDX 21 1 20 2 19 3 17 4 18 5 16 7 13 8 14 9 86 10 15 11 12 12
REMARK SMILES IDX 1 13 2 14 3 16 4 17 5 18 11 19 6 20 10 21 7 22 9 23 8 24
REMARK SMILES IDX 22 25 23 26 24 27 25 29 26 30 27 31 85 32 28 33 84 34 29 35
REMARK SMILES IDX 30 36 31 37 78 38 32 39 83 40 77 41 79 42 33 43 82 44 76 45
REMARK SMILES IDX 75 46 34 48 64 49 45 50 63 51 46 52 49 53 62 54 80 55 47 56
REMARK SMILES IDX 48 57 61 59 81 60 50 61 35 62 36 63 44 64 37 65 43 66 38 67
REMARK SMILES IDX 39 68 40 69 41 70 42 71 65 72 66 73 74 74 67 75 73 76 68 77
REMARK SMILES IDX 69 78 70 79 71 80 72 81 51 82 52 83 60 84 53 85 59 86 54 87
REMARK SMILES IDX 55 88 56 89 57 90 58 91
REMARK H PARENT 19 6 12 15 23 28 79 47 49 58
REMARK Flexibility Score: inf
ROOT
ATOM      1  C   UNL     1      -3.865  -0.902  -3.687  1.00  0.00     0.042 C 
ENDROOT
BRANCH   1   2
ATOM      2  C   UNL     1      -2.685  -1.844  -3.914  1.00  0.00     0.117 C 
BRANCH   2   3
ATOM      3  N   UNL     1      -1.618  -1.224  -4.683  1.00  0.00    -0.356 N 
ATOM      4  C   UNL     1      -0.399  -0.767  -4.261  1.00  0.00     0.227 C 
ATOM      5  O   UNL     1       0.381  -0.303  -5.095  1.00  0.00    -0.274 OA
ATOM      6  H   UNL     1      -1.798  -1.117  -5.645  1.00  0.00     0.163 HD
BRANCH   4   7
ATOM      7  C   UNL     1      -0.027  -0.908  -2.786  1.00  0.00     0.103 C 
ATOM      8  C   UNL     1       2.348  -0.539  -2.227  1.00  0.00     0.106 C 
ATOM      9  C   UNL     1       2.013  -1.990  -2.325  1.00  0.00    -0.006 C 
ATOM     10  C   UNL     1       0.985   0.155  -2.328  1.00  0.00     0.047 C 
ATOM     11  C   UNL     1       0.722  -2.196  -2.607  1.00  0.00    -0.016 C 
BRANCH   8  12
ATOM     12  N   UNL     1       3.225  -0.196  -3.317  1.00  0.00    -0.350 N 
ATOM     13  O   UNL     1       5.134  -0.173  -2.042  1.00  0.00    -0.275 OA
ATOM     14  C   UNL     1       4.581  -0.028  -3.131  1.00  0.00     0.226 C 
ATOM     15  H   UNL     1       2.847  -0.078  -4.218  1.00  0.00     0.164 HD
BRANCH  14  16
ATOM     16  C   UNL     1       5.355   0.367  -4.372  1.00  0.00     0.157 C 
BRANCH  16  17
ATOM     17  C   UNL     1       5.503  -0.757  -5.337  1.00  0.00     0.070 A 
ATOM     18  C   UNL     1       5.568  -2.128  -5.102  1.00  0.00     0.118 A 
ATOM     19  N   UNL     1       5.609  -0.482  -6.696  1.00  0.00    -0.223 NA
ATOM     20  N   UNL     1       5.674  -2.683  -6.340  1.00  0.00    -0.297 N 
ATOM     21  C   UNL     1       5.703  -1.663  -7.239  1.00  0.00     0.193 A 
ATOM     22  C   UNL     1       5.749  -3.949  -6.870  1.00  0.00     0.104 A 
ATOM     23  S   UNL     1       5.843  -2.264  -8.862  1.00  0.00    -0.105 S 
ATOM     24  C   UNL     1       5.840  -3.914  -8.211  1.00  0.00     0.087 A 
ENDBRANCH  16  17
ENDBRANCH  14  16
ENDBRANCH   8  12
ENDBRANCH   4   7
ENDBRANCH   2   3
ENDBRANCH   1   2
BRANCH   1  25
ATOM     25  C   UNL     1      -4.636  -0.532  -4.955  1.00  0.00     0.118 C 
BRANCH  25  26
ATOM     26  N   UNL     1      -5.239  -1.686  -5.605  1.00  0.00    -0.352 N 
ATOM     27  C   UNL     1      -6.528  -1.919  -6.008  1.00  0.00     0.251 C 
ATOM     28  H   UNL     1      -4.615  -2.426  -5.785  1.00  0.00     0.163 HD
ATOM     29  O   UNL     1      -6.826  -3.054  -6.389  1.00  0.00    -0.269 OA
BRANCH  27  30
ATOM     30  C   UNL     1      -7.563  -0.860  -5.984  1.00  0.00     0.039 A 
ATOM     31  C   UNL     1      -8.873  -1.220  -5.650  1.00  0.00     0.014 A 
ATOM     32  C   UNL     1      -7.285   0.460  -6.351  1.00  0.00     0.014 A 
ATOM     33  C   UNL     1      -9.887  -0.257  -5.640  1.00  0.00     0.010 A 
ATOM     34  C   UNL     1      -8.284   1.434  -6.278  1.00  0.00     0.010 A 
ATOM     35  C   UNL     1      -9.597   1.085  -5.930  1.00  0.00    -0.014 A 
BRANCH  35  36
ATOM     36  C   UNL     1     -10.662   2.122  -5.876  1.00  0.00     0.031 A 
ATOM     37  C   UNL     1     -11.096   2.844  -7.124  1.00  0.00     0.074 A 
ATOM     38  C   UNL     1     -11.219   2.442  -4.691  1.00  0.00     0.049 A 
ATOM     39  N   UNL     1     -12.001   3.781  -7.263  1.00  0.00    -0.248 NA
ATOM     40  C   UNL     1     -10.412   2.482  -8.376  1.00  0.00     0.031 C 
ATOM     41  C   UNL     1     -10.861   1.850  -3.399  1.00  0.00     0.029 A 
ATOM     42  N   UNL     1     -12.205   3.345  -4.379  1.00  0.00    -0.354 N 
ATOM     43  C   UNL     1     -11.986   4.130  -8.608  1.00  0.00     0.074 A 
ATOM     44  C   UNL     1     -10.951   3.336  -9.236  1.00  0.00     0.031 C 
ATOM     45  C   UNL     1     -11.636   2.384  -2.441  1.00  0.00     0.029 A 
ATOM     46  C   UNL     1     -12.522   3.376  -3.041  1.00  0.00     0.049 A 
ATOM     47  H   UNL     1     -12.644   3.916  -5.050  1.00  0.00     0.167 HD
ATOM     48  C   UNL     1     -12.772   5.015  -9.268  1.00  0.00     0.031 A 
ATOM     49  C   UNL     1     -13.424   4.118  -2.370  1.00  0.00     0.031 A 
ATOM     50  C   UNL     1     -13.810   5.797  -8.650  1.00  0.00     0.049 A 
ATOM     51  C   UNL     1     -14.291   5.087  -3.125  1.00  0.00     0.074 A 
ATOM     52  C   UNL     1     -14.696   6.679  -9.246  1.00  0.00     0.029 A 
ATOM     53  N   UNL     1     -14.104   5.793  -7.295  1.00  0.00    -0.354 N 
ATOM     54  N   UNL     1     -14.302   5.355  -4.409  1.00  0.00    -0.248 NA
ATOM     55  C   UNL     1     -15.276   5.843  -2.340  1.00  0.00     0.031 C 
ATOM     56  C   UNL     1     -15.497   7.240  -8.245  1.00  0.00     0.029 A 
ATOM     57  C   UNL     1     -15.143   6.671  -7.032  1.00  0.00     0.049 A 
ATOM     58  H   UNL     1     -13.642   5.246  -6.619  1.00  0.00     0.167 HD
ATOM     59  C   UNL     1     -15.309   6.297  -4.588  1.00  0.00     0.074 A 
ATOM     60  C   UNL     1     -15.897   6.535  -3.286  1.00  0.00     0.031 C 
ATOM     61  C   UNL     1     -15.711   6.909  -5.730  1.00  0.00     0.031 A 
BRANCH  48  62
ATOM     62  C   UNL     1     -12.532   5.187 -10.746  1.00  0.00    -0.014 A 
ATOM     63  C   UNL     1     -12.880   4.176 -11.659  1.00  0.00     0.010 A 
ATOM     64  C   UNL     1     -11.982   6.388 -11.231  1.00  0.00     0.010 A 
ATOM     65  C   UNL     1     -12.641   4.343 -13.026  1.00  0.00     0.020 A 
ATOM     66  C   UNL     1     -11.766   6.569 -12.601  1.00  0.00     0.020 A 
ATOM     67  C   UNL     1     -12.079   5.537 -13.488  1.00  0.00     0.054 A 
BRANCH  67  68
ATOM     68  S   UNL     1     -11.790   5.732 -15.268  1.00  0.00     0.124 S 
ATOM     69  O   UNL     1     -10.616   4.888 -15.475  1.00  0.00    -0.237 OA
ATOM     70  O   UNL     1     -13.033   5.234 -15.852  1.00  0.00    -0.237 OA
ATOM     71  O   UNL     1     -11.562   7.166 -15.426  1.00  0.00    -0.744 OA
ENDBRANCH  67  68
ENDBRANCH  48  62
BRANCH  49  72
ATOM     72  C   UNL     1     -13.569   3.954  -0.899  1.00  0.00    -0.014 A 
ATOM     73  C   UNL     1     -14.699   3.313  -0.361  1.00  0.00     0.010 A 
ATOM     74  C   UNL     1     -12.571   4.426  -0.028  1.00  0.00     0.010 A 
ATOM     75  C   UNL     1     -14.836   3.161   1.021  1.00  0.00     0.020 A 
ATOM     76  C   UNL     1     -12.692   4.254   1.353  1.00  0.00     0.020 A 
ATOM     77  C   UNL     1     -13.830   3.632   1.870  1.00  0.00     0.054 A 
BRANCH  77  78
ATOM     78  S   UNL     1     -13.999   3.373   3.658  1.00  0.00     0.124 S 
ATOM     79  O   UNL     1     -14.982   4.390   4.020  1.00  0.00    -0.237 OA
ATOM     80  O   UNL     1     -14.461   1.990   3.736  1.00  0.00    -0.237 OA
ATOM     81  O   UNL     1     -12.647   3.599   4.163  1.00  0.00    -0.744 OA
ENDBRANCH  77  78
ENDBRANCH  49  72
BRANCH  61  82
ATOM     82  C   UNL     1     -16.854   7.882  -5.620  1.00  0.00    -0.014 A 
ATOM     83  C   UNL     1     -16.683   9.139  -5.014  1.00  0.00     0.010 A 
ATOM     84  C   UNL     1     -18.112   7.541  -6.150  1.00  0.00     0.010 A 
ATOM     85  C   UNL     1     -17.761  10.021  -4.900  1.00  0.00     0.020 A 
ATOM     86  C   UNL     1     -19.186   8.431  -6.061  1.00  0.00     0.020 A 
ATOM     87  C   UNL     1     -19.008   9.658  -5.418  1.00  0.00     0.054 A 
BRANCH  87  88
ATOM     88  S   UNL     1     -20.390  10.824  -5.274  1.00  0.00     0.124 S 
ATOM     89  O   UNL     1     -20.773  10.668  -3.874  1.00  0.00    -0.237 OA
ATOM     90  O   UNL     1     -19.772  12.102  -5.618  1.00  0.00    -0.237 OA
ATOM     91  O   UNL     1     -21.363  10.329  -6.246  1.00  0.00    -0.744 OA
ENDBRANCH  87  88
ENDBRANCH  61  82
ENDBRANCH  35  36
ENDBRANCH  27  30
ENDBRANCH  25  26
ENDBRANCH   1  25
TORSDOF 16
