REMARK SMILES O=C1C[C@H](c2cn[nH]c2C(=O)NCCCNC(=O)c2ccc(-c3c4nc(c(-c5ccc(S(=O)(=O)[O-])cc5)c5ccc([nH]5)c(-c5ccc(S(=O)(=O)[O-])cc5)c5nc(c(-c6ccc(S(=O)(=O)[O-])cc6)c6ccc3[nH]6)C=C5)C=C4)cc2)c2c(-c3cccs3)n[nH]c2N1
REMARK SMILES IDX 14 1 13 2 12 3 10 4 11 5 9 7 5 8 6 9 7 10 8 11 4 13 1 14
REMARK SMILES IDX 2 15 3 16 89 17 88 18 79 20 87 21 80 22 86 23 81 25 82 26
REMARK SMILES IDX 85 27 83 28 84 29 15 30 16 31 17 32 18 34 19 35 20 36 78 37
REMARK SMILES IDX 21 38 77 39 22 40 23 41 24 42 71 43 25 44 76 45 70 46 72 47
REMARK SMILES IDX 26 48 75 49 69 50 68 51 27 53 57 54 38 55 56 56 39 57 42 58
REMARK SMILES IDX 55 59 73 60 40 61 41 62 54 64 74 65 43 66 28 67 29 68 37 69
REMARK SMILES IDX 30 70 36 71 31 72 32 73 33 74 34 75 35 76 58 77 59 78 67 79
REMARK SMILES IDX 60 80 66 81 61 82 62 83 63 84 64 85 65 86 44 87 45 88 53 89
REMARK SMILES IDX 46 90 52 91 47 92 48 93 49 94 50 95 51 96
REMARK H PARENT 12 6 8 12 89 19 87 24 16 33 72 52 42 63
REMARK Flexibility Score: inf
ROOT
ATOM      1  C   UNL     1       3.877  -1.571   1.328  1.00  0.00     0.042 C 
ENDROOT
BRANCH   1   2
ATOM      2  C   UNL     1       5.294  -0.929   0.548  1.00  0.00     0.118 C 
BRANCH   2   3
ATOM      3  N   UNL     1       5.715  -0.466  -1.521  1.00  0.00    -0.351 N 
ATOM      4  C   UNL     1       5.732   0.320  -2.714  1.00  0.00     0.269 C 
ATOM      5  O   UNL     1       6.352  -0.164  -3.665  1.00  0.00    -0.268 OA
ATOM      6  H   UNL     1       6.163  -1.290  -1.821  1.00  0.00     0.163 HD
BRANCH   4   7
ATOM      7  C   UNL     1       5.166   1.645  -2.820  1.00  0.00     0.126 A 
ATOM      8  C   UNL     1       4.498   2.442  -1.906  1.00  0.00     0.011 A 
ATOM      9  C   UNL     1       4.284   3.662  -2.571  1.00  0.00     0.140 A 
ATOM     10  N   UNL     1       4.752   3.646  -3.820  1.00  0.00    -0.183 NA
ATOM     11  N   UNL     1       5.268   2.407  -3.951  1.00  0.00    -0.273 N 
ATOM     12  H   UNL     1       5.680   2.082  -4.784  1.00  0.00     0.190 HD
BRANCH   8  13
ATOM     13  C   UNL     1       4.155   2.034  -0.523  1.00  0.00     0.069 C 
ATOM     14  O   UNL     1       0.699   0.424  -0.737  1.00  0.00    -0.275 OA
ATOM     15  C   UNL     1       1.929   0.511  -0.830  1.00  0.00     0.226 C 
ATOM     16  C   UNL     1       2.635   1.807  -0.335  1.00  0.00     0.114 C 
ATOM     17  N   UNL     1       2.626  -0.599  -1.248  1.00  0.00    -0.311 N 
ATOM     18  C   UNL     1       3.946  -0.664  -0.906  1.00  0.00     0.132 A 
ATOM     19  H   UNL     1       2.192  -1.313  -1.768  1.00  0.00     0.171 HD
ATOM     20  C   UNL     1       4.832   0.750  -0.329  1.00  0.00     0.031 A 
ATOM     21  N   UNL     1       5.122  -2.088  -0.950  1.00  0.00    -0.262 N 
ATOM     22  C   UNL     1       6.707   0.223  -0.113  1.00  0.00     0.108 A 
ATOM     23  N   UNL     1       6.854  -1.485  -0.504  1.00  0.00    -0.173 NA
ATOM     24  H   UNL     1       4.882  -3.017  -1.171  1.00  0.00     0.192 HD
BRANCH  22  25
ATOM     25  C   UNL     1       7.820   1.190   0.023  1.00  0.00     0.055 A 
ATOM     26  C   UNL     1       8.917   1.193  -0.803  1.00  0.00     0.022 A 
ATOM     27  S   UNL     1       7.812   2.475   1.132  1.00  0.00    -0.142 S 
ATOM     28  C   UNL     1       9.741   2.330  -0.558  1.00  0.00     0.012 A 
ATOM     29  C   UNL     1       9.294   3.071   0.516  1.00  0.00     0.065 A 
ENDBRANCH  22  25
ENDBRANCH   8  13
ENDBRANCH   4   7
ENDBRANCH   2   3
ENDBRANCH   1   2
BRANCH   1  30
ATOM     30  C   UNL     1       4.042  -3.009   1.762  1.00  0.00     0.118 C 
BRANCH  30  31
ATOM     31  N   UNL     1       5.109  -3.219   2.729  1.00  0.00    -0.352 N 
ATOM     32  C   UNL     1       5.405  -4.435   3.316  1.00  0.00     0.251 C 
ATOM     33  H   UNL     1       5.658  -2.442   2.982  1.00  0.00     0.163 HD
ATOM     34  O   UNL     1       5.942  -4.524   4.409  1.00  0.00    -0.269 OA
BRANCH  32  35
ATOM     35  C   UNL     1       5.156  -5.611   2.465  1.00  0.00     0.039 A 
ATOM     36  C   UNL     1       4.409  -6.716   2.851  1.00  0.00     0.014 A 
ATOM     37  C   UNL     1       5.574  -5.455   1.146  1.00  0.00     0.014 A 
ATOM     38  C   UNL     1       4.149  -7.685   1.873  1.00  0.00     0.010 A 
ATOM     39  C   UNL     1       4.901  -6.172   0.202  1.00  0.00     0.010 A 
ATOM     40  C   UNL     1       4.447  -7.423   0.513  1.00  0.00    -0.014 A 
BRANCH  40  41
ATOM     41  C   UNL     1       3.958  -8.201  -0.634  1.00  0.00     0.031 A 
ATOM     42  C   UNL     1       2.540  -8.560  -0.395  1.00  0.00     0.074 A 
ATOM     43  C   UNL     1       4.647  -8.508  -1.777  1.00  0.00     0.049 A 
ATOM     44  N   UNL     1       2.198  -9.612   0.265  1.00  0.00    -0.248 NA
ATOM     45  C   UNL     1       1.443  -7.582  -0.516  1.00  0.00     0.031 C 
ATOM     46  C   UNL     1       5.990  -8.118  -2.239  1.00  0.00     0.029 A 
ATOM     47  N   UNL     1       4.254  -9.337  -2.807  1.00  0.00    -0.354 N 
ATOM     48  C   UNL     1       0.821  -9.613   0.309  1.00  0.00     0.074 A 
ATOM     49  C   UNL     1       0.421  -8.259   0.029  1.00  0.00     0.031 C 
ATOM     50  C   UNL     1       6.203  -8.532  -3.522  1.00  0.00     0.029 A 
ATOM     51  C   UNL     1       5.077  -9.347  -3.960  1.00  0.00     0.049 A 
ATOM     52  H   UNL     1       3.444  -9.893  -2.744  1.00  0.00     0.167 HD
ATOM     53  C   UNL     1       0.185 -10.813   0.255  1.00  0.00     0.031 A 
ATOM     54  C   UNL     1       4.992 -10.166  -5.069  1.00  0.00     0.031 A 
ATOM     55  C   UNL     1       1.128 -11.890   0.490  1.00  0.00     0.049 A 
ATOM     56  C   UNL     1       4.214 -11.358  -4.633  1.00  0.00     0.074 A 
ATOM     57  C   UNL     1       1.958 -12.236   1.540  1.00  0.00     0.029 A 
ATOM     58  N   UNL     1       1.685 -12.440  -0.643  1.00  0.00    -0.354 N 
ATOM     59  N   UNL     1       4.707 -12.217  -3.784  1.00  0.00    -0.248 NA
ATOM     60  C   UNL     1       2.763 -11.231  -4.654  1.00  0.00     0.031 C 
ATOM     61  C   UNL     1       3.202 -12.581   0.930  1.00  0.00     0.029 A 
ATOM     62  C   UNL     1       3.037 -12.587  -0.455  1.00  0.00     0.049 A 
ATOM     63  H   UNL     1       1.192 -12.689  -1.458  1.00  0.00     0.167 HD
ATOM     64  C   UNL     1       3.701 -12.382  -2.846  1.00  0.00     0.074 A 
ATOM     65  C   UNL     1       2.516 -11.747  -3.445  1.00  0.00     0.031 C 
ATOM     66  C   UNL     1       3.986 -12.687  -1.546  1.00  0.00     0.031 A 
BRANCH  53  67
ATOM     67  C   UNL     1      -1.094 -11.035  -0.501  1.00  0.00    -0.014 A 
ATOM     68  C   UNL     1      -1.648 -12.330  -0.487  1.00  0.00     0.010 A 
ATOM     69  C   UNL     1      -1.610 -10.120  -1.442  1.00  0.00     0.010 A 
ATOM     70  C   UNL     1      -2.644 -12.703  -1.393  1.00  0.00     0.020 A 
ATOM     71  C   UNL     1      -2.627 -10.475  -2.333  1.00  0.00     0.020 A 
ATOM     72  C   UNL     1      -3.131 -11.770  -2.308  1.00  0.00     0.054 A 
BRANCH  72  73
ATOM     73  S   UNL     1      -4.432 -12.278  -3.457  1.00  0.00     0.124 S 
ATOM     74  O   UNL     1      -3.762 -13.311  -4.242  1.00  0.00    -0.237 OA
ATOM     75  O   UNL     1      -5.471 -12.750  -2.545  1.00  0.00    -0.237 OA
ATOM     76  O   UNL     1      -4.753 -11.048  -4.176  1.00  0.00    -0.744 OA
ENDBRANCH  72  73
ENDBRANCH  53  67
BRANCH  54  77
ATOM     77  C   UNL     1       5.003  -9.800  -6.540  1.00  0.00    -0.014 A 
ATOM     78  C   UNL     1       4.859 -10.763  -7.581  1.00  0.00     0.010 A 
ATOM     79  C   UNL     1       4.842  -8.458  -6.914  1.00  0.00     0.010 A 
ATOM     80  C   UNL     1       4.482 -10.396  -8.900  1.00  0.00     0.020 A 
ATOM     81  C   UNL     1       4.459  -8.086  -8.217  1.00  0.00     0.020 A 
ATOM     82  C   UNL     1       4.247  -9.053  -9.199  1.00  0.00     0.054 A 
BRANCH  82  83
ATOM     83  S   UNL     1       3.526  -8.564 -10.809  1.00  0.00     0.124 S 
ATOM     84  O   UNL     1       4.617  -8.824 -11.743  1.00  0.00    -0.237 OA
ATOM     85  O   UNL     1       2.370  -9.448 -10.928  1.00  0.00    -0.237 OA
ATOM     86  O   UNL     1       3.200  -7.151 -10.620  1.00  0.00    -0.744 OA
ENDBRANCH  82  83
ENDBRANCH  54  77
BRANCH  66  87
ATOM     87  C   UNL     1       5.406 -13.077  -1.182  1.00  0.00    -0.014 A 
ATOM     88  C   UNL     1       6.544 -12.243  -1.264  1.00  0.00     0.010 A 
ATOM     89  C   UNL     1       5.557 -14.342  -0.594  1.00  0.00     0.010 A 
ATOM     90  C   UNL     1       7.799 -12.692  -0.803  1.00  0.00     0.020 A 
ATOM     91  C   UNL     1       6.790 -14.785  -0.119  1.00  0.00     0.020 A 
ATOM     92  C   UNL     1       7.912 -13.969  -0.242  1.00  0.00     0.054 A 
BRANCH  92  93
ATOM     93  S   UNL     1       9.524 -14.578   0.336  1.00  0.00     0.124 S 
ATOM     94  O   UNL     1      10.287 -14.681  -0.904  1.00  0.00    -0.237 OA
ATOM     95  O   UNL     1       9.957 -13.529   1.256  1.00  0.00    -0.237 OA
ATOM     96  O   UNL     1       9.206 -15.856   0.972  1.00  0.00    -0.744 OA
ENDBRANCH  92  93
ENDBRANCH  66  87
ENDBRANCH  40  41
ENDBRANCH  32  35
ENDBRANCH  30  31
ENDBRANCH   1  30
TORSDOF 15
