REMARK SMILES Cc1cc(C)cc(Nc2nc(C)cc(C(=O)NCCCNC(=O)c3ccc(-c4c5nc(c(-c6ccc(S(=O)(=O)[O-])cc6)c6ccc([nH]6)c(-c6ccc(S(=O)(=O)[O-])cc6)c6nc(c(-c7ccc(S(=O)(=O)[O-])cc7)c7ccc4[nH]7)C=C6)C=C5)cc3)n2)c1
REMARK SMILES IDX 19 1 18 2 17 3 15 4 16 5 14 7 9 8 10 9 84 10 11 11 12 12
REMARK SMILES IDX 13 13 8 14 7 16 1 17 2 18 3 19 85 20 4 21 5 22 6 23 20 24
REMARK SMILES IDX 21 25 22 26 23 28 24 29 25 30 83 31 26 32 82 33 27 34 28 35
REMARK SMILES IDX 29 36 76 37 30 38 81 39 75 40 77 41 31 42 80 43 74 44 73 45
REMARK SMILES IDX 32 47 62 48 43 49 61 50 44 51 47 52 60 53 78 54 45 55 46 56
REMARK SMILES IDX 59 58 79 59 48 60 33 61 34 62 42 63 35 64 41 65 36 66 37 67
REMARK SMILES IDX 38 68 39 69 40 70 63 71 64 72 72 73 65 74 71 75 66 76 67 77
REMARK SMILES IDX 68 78 69 79 70 80 49 81 50 82 58 83 51 84 57 85 52 86 53 87
REMARK SMILES IDX 54 88 55 89 56 90
REMARK H PARENT 17 6 8 15 21 27 77 46 47 57
REMARK Flexibility Score: inf
ROOT
ATOM      1  C   UNL     1      -7.004  -5.704  -0.572  1.00  0.00     0.042 C 
ENDROOT
BRANCH   1   2
ATOM      2  C   UNL     1      -5.864  -6.054  -1.528  1.00  0.00     0.118 C 
BRANCH   2   3
ATOM      3  N   UNL     1      -5.302  -4.858  -2.122  1.00  0.00    -0.351 N 
ATOM      4  C   UNL     1      -4.206  -4.083  -1.830  1.00  0.00     0.270 C 
ATOM      5  O   UNL     1      -4.032  -3.104  -2.561  1.00  0.00    -0.268 OA
ATOM      6  H   UNL     1      -5.814  -4.531  -2.898  1.00  0.00     0.163 HD
BRANCH   4   7
ATOM      7  C   UNL     1      -3.224  -4.376  -0.728  1.00  0.00     0.134 A 
ATOM      8  C   UNL     1      -1.101  -3.924   0.041  1.00  0.00     0.228 A 
ATOM      9  N   UNL     1      -1.227  -4.779   1.063  1.00  0.00    -0.218 NA
ATOM     10  N   UNL     1      -2.038  -3.756  -0.894  1.00  0.00    -0.208 NA
ATOM     11  C   UNL     1      -2.432  -5.353   1.242  1.00  0.00     0.044 A 
ATOM     12  C   UNL     1      -2.604  -6.179   2.482  1.00  0.00     0.067 C 
ATOM     13  C   UNL     1      -3.491  -5.134   0.386  1.00  0.00     0.058 A 
BRANCH   8  14
ATOM     14  N   UNL     1       0.021  -3.098   0.060  1.00  0.00    -0.324 N 
ATOM     15  H   UNL     1       0.895  -3.546   0.128  1.00  0.00     0.170 HD
BRANCH  14  16
ATOM     16  C   UNL     1       0.037  -1.690  -0.008  1.00  0.00     0.041 A 
ATOM     17  C   UNL     1       2.631   1.111  -0.014  1.00  0.00     0.044 C 
ATOM     18  C   UNL     1       1.318   0.388  -0.032  1.00  0.00    -0.049 A 
ATOM     19  C   UNL     1       0.125   1.123  -0.054  1.00  0.00     0.007 A 
ATOM     20  C   UNL     1       1.263  -1.014  -0.013  1.00  0.00     0.029 A 
ATOM     21  C   UNL     1      -1.110   0.472  -0.078  1.00  0.00    -0.049 A 
ATOM     22  C   UNL     1      -2.388   1.257  -0.093  1.00  0.00     0.044 C 
ATOM     23  C   UNL     1      -1.138  -0.927  -0.079  1.00  0.00     0.029 A 
ENDBRANCH  14  16
ENDBRANCH   8  14
ENDBRANCH   4   7
ENDBRANCH   2   3
ENDBRANCH   1   2
BRANCH   1  24
ATOM     24  C   UNL     1      -8.289  -5.290  -1.292  1.00  0.00     0.118 C 
BRANCH  24  25
ATOM     25  N   UNL     1      -8.889  -6.409  -2.003  1.00  0.00    -0.352 N 
ATOM     26  C   UNL     1     -10.126  -6.985  -1.871  1.00  0.00     0.251 C 
ATOM     27  H   UNL     1      -8.313  -6.819  -2.689  1.00  0.00     0.163 HD
ATOM     28  O   UNL     1     -10.328  -8.081  -2.387  1.00  0.00    -0.269 OA
BRANCH  26  29
ATOM     29  C   UNL     1     -11.210  -6.311  -1.122  1.00  0.00     0.039 A 
ATOM     30  C   UNL     1     -12.073  -7.093  -0.348  1.00  0.00     0.014 A 
ATOM     31  C   UNL     1     -11.431  -4.934  -1.234  1.00  0.00     0.014 A 
ATOM     32  C   UNL     1     -13.129  -6.494   0.342  1.00  0.00     0.010 A 
ATOM     33  C   UNL     1     -12.450  -4.329  -0.498  1.00  0.00     0.010 A 
ATOM     34  C   UNL     1     -13.314  -5.103   0.290  1.00  0.00    -0.014 A 
BRANCH  34  35
ATOM     35  C   UNL     1     -14.406  -4.451   1.059  1.00  0.00     0.031 A 
ATOM     36  C   UNL     1     -15.548  -3.779   0.346  1.00  0.00     0.074 A 
ATOM     37  C   UNL     1     -14.345  -4.432   2.405  1.00  0.00     0.049 A 
ATOM     38  N   UNL     1     -16.570  -3.137   0.852  1.00  0.00    -0.248 NA
ATOM     39  C   UNL     1     -15.532  -3.817  -1.125  1.00  0.00     0.031 C 
ATOM     40  C   UNL     1     -13.271  -5.016   3.213  1.00  0.00     0.029 A 
ATOM     41  N   UNL     1     -15.205  -3.900   3.333  1.00  0.00    -0.354 N 
ATOM     42  C   UNL     1     -17.311  -2.684  -0.235  1.00  0.00     0.074 A 
ATOM     43  C   UNL     1     -16.599  -3.090  -1.428  1.00  0.00     0.031 C 
ATOM     44  C   UNL     1     -13.549  -4.830   4.514  1.00  0.00     0.029 A 
ATOM     45  C   UNL     1     -14.799  -4.088   4.633  1.00  0.00     0.049 A 
ATOM     46  H   UNL     1     -16.033  -3.427   3.090  1.00  0.00     0.167 HD
ATOM     47  C   UNL     1     -18.485  -2.008  -0.240  1.00  0.00     0.031 A 
ATOM     48  C   UNL     1     -15.368  -3.706   5.792  1.00  0.00     0.031 A 
ATOM     49  C   UNL     1     -19.199  -1.616   0.947  1.00  0.00     0.049 A 
ATOM     50  C   UNL     1     -16.672  -2.959   5.759  1.00  0.00     0.074 A 
ATOM     51  C   UNL     1     -20.419  -0.968   1.043  1.00  0.00     0.029 A 
ATOM     52  N   UNL     1     -18.760  -1.837   2.243  1.00  0.00    -0.354 N 
ATOM     53  N   UNL     1     -17.382  -2.588   4.720  1.00  0.00    -0.248 NA
ATOM     54  C   UNL     1     -17.259  -2.592   7.055  1.00  0.00     0.031 C 
ATOM     55  C   UNL     1     -20.699  -0.763   2.399  1.00  0.00     0.029 A 
ATOM     56  C   UNL     1     -19.677  -1.325   3.146  1.00  0.00     0.049 A 
ATOM     57  H   UNL     1     -17.921  -2.290   2.486  1.00  0.00     0.167 HD
ATOM     58  C   UNL     1     -18.510  -1.963   5.238  1.00  0.00     0.074 A 
ATOM     59  C   UNL     1     -18.396  -2.022   6.682  1.00  0.00     0.031 C 
ATOM     60  C   UNL     1     -19.547  -1.390   4.579  1.00  0.00     0.031 A 
BRANCH  47  61
ATOM     61  C   UNL     1     -19.076  -1.648  -1.578  1.00  0.00    -0.014 A 
ATOM     62  C   UNL     1     -19.646  -2.634  -2.405  1.00  0.00     0.010 A 
ATOM     63  C   UNL     1     -19.109  -0.304  -1.993  1.00  0.00     0.010 A 
ATOM     64  C   UNL     1     -20.206  -2.287  -3.637  1.00  0.00     0.020 A 
ATOM     65  C   UNL     1     -19.690   0.050  -3.215  1.00  0.00     0.020 A 
ATOM     66  C   UNL     1     -20.221  -0.947  -4.036  1.00  0.00     0.054 A 
BRANCH  66  67
ATOM     67  S   UNL     1     -20.981  -0.522  -5.628  1.00  0.00     0.124 S 
ATOM     68  O   UNL     1     -19.971  -0.985  -6.576  1.00  0.00    -0.237 OA
ATOM     69  O   UNL     1     -22.222  -1.292  -5.608  1.00  0.00    -0.237 OA
ATOM     70  O   UNL     1     -21.149   0.927  -5.555  1.00  0.00    -0.744 OA
ENDBRANCH  66  67
ENDBRANCH  47  61
BRANCH  48  71
ATOM     71  C   UNL     1     -14.713  -4.035   7.087  1.00  0.00    -0.014 A 
ATOM     72  C   UNL     1     -15.264  -5.012   7.935  1.00  0.00     0.010 A 
ATOM     73  C   UNL     1     -13.533  -3.376   7.475  1.00  0.00     0.010 A 
ATOM     74  C   UNL     1     -14.658  -5.307   9.160  1.00  0.00     0.020 A 
ATOM     75  C   UNL     1     -12.911  -3.687   8.687  1.00  0.00     0.020 A 
ATOM     76  C   UNL     1     -13.486  -4.642   9.528  1.00  0.00     0.054 A 
BRANCH  76  77
ATOM     77  S   UNL     1     -12.689  -5.071  11.101  1.00  0.00     0.124 S 
ATOM     78  O   UNL     1     -13.532  -4.374  12.067  1.00  0.00    -0.237 OA
ATOM     79  O   UNL     1     -12.779  -6.529  11.116  1.00  0.00    -0.237 OA
ATOM     80  O   UNL     1     -11.335  -4.542  10.951  1.00  0.00    -0.744 OA
ENDBRANCH  76  77
ENDBRANCH  48  71
BRANCH  60  81
ATOM     81  C   UNL     1     -20.652  -0.806   5.415  1.00  0.00    -0.014 A 
ATOM     82  C   UNL     1     -20.471   0.397   6.121  1.00  0.00     0.010 A 
ATOM     83  C   UNL     1     -21.899  -1.454   5.469  1.00  0.00     0.010 A 
ATOM     84  C   UNL     1     -21.508   0.921   6.898  1.00  0.00     0.020 A 
ATOM     85  C   UNL     1     -22.946  -0.919   6.225  1.00  0.00     0.020 A 
ATOM     86  C   UNL     1     -22.737   0.257   6.949  1.00  0.00     0.054 A 
BRANCH  86  87
ATOM     87  S   UNL     1     -24.077   0.970   7.941  1.00  0.00     0.124 S 
ATOM     88  O   UNL     1     -23.674   0.610   9.298  1.00  0.00    -0.237 OA
ATOM     89  O   UNL     1     -23.997   2.392   7.618  1.00  0.00    -0.237 OA
ATOM     90  O   UNL     1     -25.273   0.291   7.446  1.00  0.00    -0.744 OA
ENDBRANCH  86  87
ENDBRANCH  60  81
ENDBRANCH  34  35
ENDBRANCH  26  29
ENDBRANCH  24  25
ENDBRANCH   1  24
TORSDOF 15
