REMARK SMILES Cc1ccnc(N[C@@H]2CCCCC[C@H]2C(=O)NCCCNC(=O)c2ccc(-c3c4nc(c(-c5ccc(S(=O)(=O)[O-])cc5)c5ccc([nH]5)c(-c5ccc(S(=O)(=O)[O-])cc5)c5nc(c(-c6ccc(S(=O)(=O)[O-])cc6)c6ccc3[nH]6)C=C5)C=C4)cc2)n1
REMARK SMILES IDX 19 1 18 2 17 3 15 4 16 5 14 7 8 8 7 9 6 11 1 12 2 13 3 14
REMARK SMILES IDX 84 15 4 16 5 17 9 18 10 19 13 21 12 22 11 23 20 25 21 26
REMARK SMILES IDX 22 27 23 29 24 30 25 31 83 32 26 33 82 34 27 35 28 36 29 37
REMARK SMILES IDX 76 38 30 39 81 40 75 41 77 42 31 43 80 44 74 45 73 46 32 48
REMARK SMILES IDX 62 49 43 50 61 51 44 52 47 53 60 54 78 55 45 56 46 57 59 59
REMARK SMILES IDX 79 60 48 61 33 62 34 63 42 64 35 65 41 66 36 67 37 68 38 69
REMARK SMILES IDX 39 70 40 71 63 72 64 73 72 74 65 75 71 76 66 77 67 78 68 79
REMARK SMILES IDX 69 80 70 81 49 82 50 83 58 84 51 85 57 86 52 87 53 88 54 89
REMARK SMILES IDX 55 90 56 91
REMARK H PARENT 17 6 7 10 21 28 77 47 47 58
REMARK Flexibility Score: 100.00
ROOT
ATOM      1  C   UNL     1      -0.723   7.309  -0.261  1.00  0.00     0.042 C 
ENDROOT
BRANCH   1   2
ATOM      2  C   UNL     1      -1.198   6.318  -1.298  1.00  0.00     0.117 C 
BRANCH   2   3
ATOM      3  N   UNL     1      -0.150   5.809  -2.134  1.00  0.00    -0.356 N 
ATOM      4  C   UNL     1       0.294   4.537  -2.284  1.00  0.00     0.225 C 
ATOM      5  O   UNL     1       1.149   4.370  -3.163  1.00  0.00    -0.275 OA
ATOM      6  H   UNL     1       0.317   6.483  -2.679  1.00  0.00     0.163 HD
BRANCH   4   7
ATOM      7  C   UNL     1      -0.181   3.345  -1.427  1.00  0.00     0.101 C 
BRANCH   7   8
ATOM      8  C   UNL     1       0.488   3.298  -0.025  1.00  0.00     0.094 C 
BRANCH   8   9
ATOM      9  N   UNL     1       1.409   2.147   0.049  1.00  0.00    -0.351 N 
ATOM     10  H   UNL     1       2.378   2.316   0.103  1.00  0.00     0.164 HD
BRANCH   9  11
ATOM     11  C   UNL     1       0.962   0.850   0.044  1.00  0.00     0.223 A 
ATOM     12  C   UNL     1      -2.313  -0.752   0.150  1.00  0.00     0.067 C 
ATOM     13  C   UNL     1      -0.825  -0.626   0.099  1.00  0.00     0.043 A 
ATOM     14  C   UNL     1       0.021  -1.700   0.003  1.00  0.00     0.044 A 
ATOM     15  N   UNL     1      -0.356   0.629   0.111  1.00  0.00    -0.218 NA
ATOM     16  C   UNL     1       1.363  -1.391  -0.062  1.00  0.00     0.117 A 
ATOM     17  N   UNL     1       1.857  -0.134  -0.045  1.00  0.00    -0.222 NA
ENDBRANCH   9  11
ENDBRANCH   8   9
BRANCH   8  18
ATOM     18  C   UNL     1      -0.331   3.318   1.286  1.00  0.00     0.026 C 
BRANCH  18  19
ATOM     19  C   UNL     1      -1.607   4.120   1.376  1.00  0.00     0.002 CG0
ATOM     20  G   UNL     1      -2.812   3.563   0.630  1.00  0.00     0.000 G0
ENDBRANCH  18  19
ENDBRANCH   8  18
ENDBRANCH   7   8
BRANCH   7  21
ATOM     21  C   UNL     1      -1.632   2.889  -1.634  1.00  0.00     0.015 C 
BRANCH  21  22
ATOM     22  C   UNL     1      -2.822   3.480  -0.894  1.00  0.00     0.001 C 
BRANCH  22  23
ATOM     23  C   UNL     1      -2.812   3.563   0.630  1.00  0.00     0.000 CG0
ATOM     24  G   UNL     1      -1.607   4.120   1.376  1.00  0.00     0.000 G0
ENDBRANCH  22  23
ENDBRANCH  21  22
ENDBRANCH   7  21
ENDBRANCH   4   7
ENDBRANCH   2   3
ENDBRANCH   1   2
BRANCH   1  25
ATOM     25  C   UNL     1      -1.139   8.719  -0.604  1.00  0.00     0.118 C 
BRANCH  25  26
ATOM     26  N   UNL     1      -2.590   8.902  -0.516  1.00  0.00    -0.352 N 
ATOM     27  C   UNL     1      -3.353   9.664   0.335  1.00  0.00     0.251 C 
ATOM     28  H   UNL     1      -3.106   8.392  -1.181  1.00  0.00     0.163 HD
ATOM     29  O   UNL     1      -4.576   9.503   0.349  1.00  0.00    -0.269 OA
BRANCH  27  30
ATOM     30  C   UNL     1      -2.724  10.654   1.234  1.00  0.00     0.039 A 
ATOM     31  C   UNL     1      -3.315  10.964   2.462  1.00  0.00     0.014 A 
ATOM     32  C   UNL     1      -1.548  11.299   0.859  1.00  0.00     0.014 A 
ATOM     33  C   UNL     1      -2.695  11.883   3.314  1.00  0.00     0.010 A 
ATOM     34  C   UNL     1      -0.839  12.048   1.778  1.00  0.00     0.010 A 
ATOM     35  C   UNL     1      -1.437  12.414   2.986  1.00  0.00    -0.014 A 
BRANCH  35  36
ATOM     36  C   UNL     1      -0.761  13.445   3.808  1.00  0.00     0.031 A 
ATOM     37  C   UNL     1      -0.402  14.770   3.173  1.00  0.00     0.074 A 
ATOM     38  C   UNL     1      -0.407  13.174   5.078  1.00  0.00     0.049 A 
ATOM     39  N   UNL     1       0.284  15.766   3.668  1.00  0.00    -0.248 NA
ATOM     40  C   UNL     1      -0.822  14.982   1.774  1.00  0.00     0.031 C 
ATOM     41  C   UNL     1      -0.648  11.910   5.780  1.00  0.00     0.029 A 
ATOM     42  N   UNL     1       0.235  13.951   6.006  1.00  0.00    -0.354 N 
ATOM     43  C   UNL     1       0.409  16.689   2.634  1.00  0.00     0.074 A 
ATOM     44  C   UNL     1      -0.191  16.101   1.462  1.00  0.00     0.031 C 
ATOM     45  C   UNL     1      -0.206  12.018   7.043  1.00  0.00     0.029 A 
ATOM     46  C   UNL     1       0.391  13.337   7.226  1.00  0.00     0.049 A 
ATOM     47  H   UNL     1       0.554  14.863   5.818  1.00  0.00     0.167 HD
ATOM     48  C   UNL     1       0.936  17.935   2.663  1.00  0.00     0.031 A 
ATOM     49  C   UNL     1       0.948  13.793   8.364  1.00  0.00     0.031 A 
ATOM     50  C   UNL     1       1.482  18.531   3.850  1.00  0.00     0.049 A 
ATOM     51  C   UNL     1       1.496  15.195   8.386  1.00  0.00     0.074 A 
ATOM     52  C   UNL     1       1.980  19.809   4.022  1.00  0.00     0.029 A 
ATOM     53  N   UNL     1       1.582  17.889   5.076  1.00  0.00    -0.354 N 
ATOM     54  N   UNL     1       1.555  16.075   7.413  1.00  0.00    -0.248 NA
ATOM     55  C   UNL     1       2.029  15.674   9.667  1.00  0.00     0.031 C 
ATOM     56  C   UNL     1       2.429  19.924   5.341  1.00  0.00     0.029 A 
ATOM     57  C   UNL     1       2.145  18.741   6.008  1.00  0.00     0.049 A 
ATOM     58  H   UNL     1       1.296  16.965   5.255  1.00  0.00     0.167 HD
ATOM     59  C   UNL     1       2.093  17.226   7.977  1.00  0.00     0.074 A 
ATOM     60  C   UNL     1       2.329  16.931   9.377  1.00  0.00     0.031 C 
ATOM     61  C   UNL     1       2.362  18.422   7.396  1.00  0.00     0.031 A 
BRANCH  48  62
ATOM     62  C   UNL     1       0.930  18.728   1.381  1.00  0.00    -0.014 A 
ATOM     63  C   UNL     1      -0.274  19.158   0.791  1.00  0.00     0.010 A 
ATOM     64  C   UNL     1       2.148  19.067   0.764  1.00  0.00     0.010 A 
ATOM     65  C   UNL     1      -0.263  19.864  -0.415  1.00  0.00     0.020 A 
ATOM     66  C   UNL     1       2.166  19.806  -0.423  1.00  0.00     0.020 A 
ATOM     67  C   UNL     1       0.958  20.183  -1.015  1.00  0.00     0.054 A 
BRANCH  67  68
ATOM     68  S   UNL     1       0.943  21.125  -2.564  1.00  0.00     0.124 S 
ATOM     69  O   UNL     1       0.456  20.131  -3.517  1.00  0.00    -0.237 OA
ATOM     70  O   UNL     1       0.017  22.215  -2.266  1.00  0.00    -0.237 OA
ATOM     71  O   UNL     1       2.337  21.526  -2.741  1.00  0.00    -0.744 OA
ENDBRANCH  67  68
ENDBRANCH  48  62
BRANCH  49  72
ATOM     72  C   UNL     1       0.968  12.936   9.581  1.00  0.00    -0.014 A 
ATOM     73  C   UNL     1       0.164  13.254  10.690  1.00  0.00     0.010 A 
ATOM     74  C   UNL     1       1.780  11.789   9.635  1.00  0.00     0.010 A 
ATOM     75  C   UNL     1       0.193  12.459  11.840  1.00  0.00     0.020 A 
ATOM     76  C   UNL     1       1.788  10.973  10.770  1.00  0.00     0.020 A 
ATOM     77  C   UNL     1       1.004  11.322  11.872  1.00  0.00     0.054 A 
BRANCH  77  78
ATOM     78  S   UNL     1       0.995  10.284  13.360  1.00  0.00     0.124 S 
ATOM     79  O   UNL     1       1.713  11.120  14.317  1.00  0.00    -0.237 OA
ATOM     80  O   UNL     1      -0.433  10.112  13.615  1.00  0.00    -0.237 OA
ATOM     81  O   UNL     1       1.695   9.073  12.937  1.00  0.00    -0.744 OA
ENDBRANCH  77  78
ENDBRANCH  49  72
BRANCH  61  82
ATOM     82  C   UNL     1       2.879  19.520   8.287  1.00  0.00    -0.014 A 
ATOM     83  C   UNL     1       4.170  19.475   8.840  1.00  0.00     0.010 A 
ATOM     84  C   UNL     1       2.059  20.635   8.542  1.00  0.00     0.010 A 
ATOM     85  C   UNL     1       4.612  20.502   9.678  1.00  0.00     0.020 A 
ATOM     86  C   UNL     1       2.511  21.680   9.349  1.00  0.00     0.020 A 
ATOM     87  C   UNL     1       3.777  21.595   9.930  1.00  0.00     0.054 A 
BRANCH  87  88
ATOM     88  S   UNL     1       4.378  22.921  11.010  1.00  0.00     0.124 S 
ATOM     89  O   UNL     1       4.310  22.292  12.326  1.00  0.00    -0.237 OA
ATOM     90  O   UNL     1       5.724  23.166  10.498  1.00  0.00    -0.237 OA
ATOM     91  O   UNL     1       3.426  24.007  10.789  1.00  0.00    -0.744 OA
ENDBRANCH  87  88
ENDBRANCH  61  82
ENDBRANCH  35  36
ENDBRANCH  27  30
ENDBRANCH  25  26
ENDBRANCH   1  25
TORSDOF 15
