REMARK SMILES C[NH2+]CCC(=O)N1Cc2nc[nH]c2C[C@H]1C(=O)NCCCNC(=O)c1ccc(-c2c3nc(c(-c4ccc(S(=O)(=O)[O-])cc4)c4ccc([nH]4)c(-c4ccc(S(=O)(=O)[O-])cc4)c4nc(c(-c5ccc(S(=O)(=O)[O-])cc5)c5ccc2[nH]5)C=C4)C=C3)cc1
REMARK SMILES IDX 19 1 18 2 16 3 17 4 15 6 7 7 8 8 9 9 14 10 10 11 13 12 11 13
REMARK SMILES IDX 12 14 5 16 6 17 4 18 3 19 2 20 1 21 20 24 21 25 22 26 23 27
REMARK SMILES IDX 24 29 25 30 26 31 84 32 27 33 83 34 28 35 29 36 30 37 77 38
REMARK SMILES IDX 31 39 82 40 76 41 78 42 32 43 81 44 75 45 74 46 33 48 63 49
REMARK SMILES IDX 44 50 62 51 45 52 48 53 61 54 79 55 46 56 47 57 60 59 80 60
REMARK SMILES IDX 49 61 34 62 35 63 43 64 36 65 42 66 37 67 38 68 39 69 40 70
REMARK SMILES IDX 41 71 64 72 65 73 73 74 66 75 72 76 67 77 68 78 69 79 70 80
REMARK SMILES IDX 71 81 50 82 51 83 59 84 52 85 58 86 53 87 54 88 55 89 56 90
REMARK SMILES IDX 57 91
REMARK H PARENT 18 5 12 15 2 22 2 23 22 28 78 47 48 58
REMARK Flexibility Score: inf
ROOT
ATOM      1  C   UNL     1       3.849   2.151   3.592  1.00  0.00     0.117 C 
ENDROOT
BRANCH   1   2
ATOM      2  N   UNL     1       3.415   1.292   2.504  1.00  0.00    -0.354 N 
ATOM      3  C   UNL     1       2.606   1.522   1.438  1.00  0.00     0.243 C 
ATOM      4  O   UNL     1       2.895   0.871   0.423  1.00  0.00    -0.273 OA
ATOM      5  H   UNL     1       3.773   0.376   2.548  1.00  0.00     0.163 HD
BRANCH   3   6
ATOM      6  C   UNL     1       1.480   2.589   1.340  1.00  0.00     0.180 C 
ATOM      7  N   UNL     1       0.281   2.546   2.240  1.00  0.00    -0.324 N 
ATOM      8  C   UNL     1       0.338   3.207   3.555  1.00  0.00     0.178 C 
ATOM      9  C   UNL     1       1.291   4.347   3.544  1.00  0.00     0.081 A 
ATOM     10  C   UNL     1       2.063   4.022   1.159  1.00  0.00     0.091 C 
ATOM     11  N   UNL     1       1.696   5.029   4.663  1.00  0.00    -0.240 NA
ATOM     12  C   UNL     1       2.055   4.715   2.463  1.00  0.00     0.042 A 
ATOM     13  C   UNL     1       2.682   5.802   4.259  1.00  0.00     0.197 A 
ATOM     14  N   UNL     1       2.903   5.686   2.912  1.00  0.00    -0.348 N 
ATOM     15  H   UNL     1       3.547   6.200   2.373  1.00  0.00     0.167 HD
BRANCH   7  16
ATOM     16  C   UNL     1      -0.990   2.188   1.805  1.00  0.00     0.229 C 
ATOM     17  O   UNL     1      -1.990   2.813   2.170  1.00  0.00    -0.275 OA
BRANCH  16  18
ATOM     18  C   UNL     1      -1.180   0.901   1.022  1.00  0.00     0.161 C 
BRANCH  18  19
ATOM     19  C   UNL     1      -1.165   0.988  -0.505  1.00  0.00     0.270 C 
BRANCH  19  20
ATOM     20  N   UNL     1       0.041   0.576  -1.224  1.00  0.00    -0.348 N 
ATOM     21  C   UNL     1       0.625  -0.683  -0.777  1.00  0.00     0.330 C 
ATOM     22  H   UNL     1      -0.195   0.483  -2.211  1.00  0.00     0.346 HD
ATOM     23  H   UNL     1       0.742   1.295  -1.042  1.00  0.00     0.346 HD
ENDBRANCH  19  20
ENDBRANCH  18  19
ENDBRANCH  16  18
ENDBRANCH   7  16
ENDBRANCH   3   6
ENDBRANCH   1   2
BRANCH   1  24
ATOM     24  C   UNL     1       3.133   1.893   4.915  1.00  0.00     0.042 C 
BRANCH  24  25
ATOM     25  C   UNL     1       4.011   1.202   5.934  1.00  0.00     0.118 C 
BRANCH  25  26
ATOM     26  N   UNL     1       5.133   2.031   6.414  1.00  0.00    -0.352 N 
ATOM     27  C   UNL     1       6.220   1.625   7.178  1.00  0.00     0.251 C 
ATOM     28  H   UNL     1       5.109   2.982   6.162  1.00  0.00     0.163 HD
ATOM     29  O   UNL     1       6.883   2.437   7.828  1.00  0.00    -0.269 OA
BRANCH  27  30
ATOM     30  C   UNL     1       6.562   0.194   7.173  1.00  0.00     0.039 A 
ATOM     31  C   UNL     1       6.851  -0.551   8.318  1.00  0.00     0.014 A 
ATOM     32  C   UNL     1       6.376  -0.427   5.951  1.00  0.00     0.014 A 
ATOM     33  C   UNL     1       6.852  -1.943   8.205  1.00  0.00     0.010 A 
ATOM     34  C   UNL     1       5.966  -1.722   5.973  1.00  0.00     0.010 A 
ATOM     35  C   UNL     1       6.370  -2.521   7.019  1.00  0.00    -0.014 A 
BRANCH  35  36
ATOM     36  C   UNL     1       6.151  -3.944   6.822  1.00  0.00     0.031 A 
ATOM     37  C   UNL     1       5.355  -4.567   7.896  1.00  0.00     0.074 A 
ATOM     38  C   UNL     1       6.444  -4.592   5.669  1.00  0.00     0.049 A 
ATOM     39  N   UNL     1       5.825  -5.181   8.927  1.00  0.00    -0.248 NA
ATOM     40  C   UNL     1       3.912  -4.290   7.970  1.00  0.00     0.031 C 
ATOM     41  C   UNL     1       6.934  -4.054   4.388  1.00  0.00     0.029 A 
ATOM     42  N   UNL     1       6.277  -5.906   5.374  1.00  0.00    -0.354 N 
ATOM     43  C   UNL     1       4.716  -5.629   9.626  1.00  0.00     0.074 A 
ATOM     44  C   UNL     1       3.607  -4.841   9.149  1.00  0.00     0.031 C 
ATOM     45  C   UNL     1       6.806  -4.985   3.415  1.00  0.00     0.029 A 
ATOM     46  C   UNL     1       6.407  -6.237   4.028  1.00  0.00     0.049 A 
ATOM     47  H   UNL     1       6.077  -6.579   6.064  1.00  0.00     0.167 HD
ATOM     48  C   UNL     1       4.756  -6.812  10.300  1.00  0.00     0.031 A 
ATOM     49  C   UNL     1       6.208  -7.460   3.467  1.00  0.00     0.031 A 
ATOM     50  C   UNL     1       6.104  -7.336  10.350  1.00  0.00     0.049 A 
ATOM     51  C   UNL     1       6.354  -8.450   4.565  1.00  0.00     0.074 A 
ATOM     52  C   UNL     1       7.311  -6.864  10.828  1.00  0.00     0.029 A 
ATOM     53  N   UNL     1       6.414  -8.319   9.434  1.00  0.00    -0.354 N 
ATOM     54  N   UNL     1       7.483  -8.655   5.187  1.00  0.00    -0.248 NA
ATOM     55  C   UNL     1       5.160  -8.827   5.305  1.00  0.00     0.031 C 
ATOM     56  C   UNL     1       8.268  -7.238   9.838  1.00  0.00     0.029 A 
ATOM     57  C   UNL     1       7.622  -8.005   8.864  1.00  0.00     0.049 A 
ATOM     58  H   UNL     1       5.865  -9.109   9.225  1.00  0.00     0.167 HD
ATOM     59  C   UNL     1       7.137  -8.746   6.529  1.00  0.00     0.074 A 
ATOM     60  C   UNL     1       5.685  -8.937   6.530  1.00  0.00     0.031 C 
ATOM     61  C   UNL     1       8.007  -8.365   7.513  1.00  0.00     0.031 A 
BRANCH  48  62
ATOM     62  C   UNL     1       3.560  -7.700  10.518  1.00  0.00    -0.014 A 
ATOM     63  C   UNL     1       3.732  -8.874  11.278  1.00  0.00     0.010 A 
ATOM     64  C   UNL     1       2.354  -7.572   9.799  1.00  0.00     0.010 A 
ATOM     65  C   UNL     1       2.781  -9.900  11.255  1.00  0.00     0.020 A 
ATOM     66  C   UNL     1       1.379  -8.570   9.804  1.00  0.00     0.020 A 
ATOM     67  C   UNL     1       1.615  -9.743  10.506  1.00  0.00     0.054 A 
BRANCH  67  68
ATOM     68  S   UNL     1       0.438 -11.111  10.412  1.00  0.00     0.124 S 
ATOM     69  O   UNL     1       1.212 -12.124   9.703  1.00  0.00    -0.237 OA
ATOM     70  O   UNL     1       0.172 -11.384  11.822  1.00  0.00    -0.237 OA
ATOM     71  O   UNL     1      -0.685 -10.544   9.669  1.00  0.00    -0.744 OA
ENDBRANCH  67  68
ENDBRANCH  48  62
BRANCH  49  72
ATOM     72  C   UNL     1       5.598  -7.793   2.152  1.00  0.00    -0.014 A 
ATOM     73  C   UNL     1       5.633  -9.105   1.639  1.00  0.00     0.010 A 
ATOM     74  C   UNL     1       4.715  -6.881   1.538  1.00  0.00     0.010 A 
ATOM     75  C   UNL     1       4.763  -9.508   0.607  1.00  0.00     0.020 A 
ATOM     76  C   UNL     1       3.849  -7.274   0.508  1.00  0.00     0.020 A 
ATOM     77  C   UNL     1       3.857  -8.594   0.065  1.00  0.00     0.054 A 
BRANCH  77  78
ATOM     78  S   UNL     1       2.599  -9.165  -1.122  1.00  0.00     0.124 S 
ATOM     79  O   UNL     1       3.395  -9.432  -2.316  1.00  0.00    -0.237 OA
ATOM     80  O   UNL     1       2.043 -10.340  -0.457  1.00  0.00    -0.237 OA
ATOM     81  O   UNL     1       1.685  -8.028  -1.227  1.00  0.00    -0.744 OA
ENDBRANCH  77  78
ENDBRANCH  49  72
BRANCH  61  82
ATOM     82  C   UNL     1       9.453  -8.105   7.140  1.00  0.00    -0.014 A 
ATOM     83  C   UNL     1       9.877  -7.106   6.240  1.00  0.00     0.010 A 
ATOM     84  C   UNL     1      10.433  -8.811   7.859  1.00  0.00     0.010 A 
ATOM     85  C   UNL     1      11.245  -6.844   6.049  1.00  0.00     0.020 A 
ATOM     86  C   UNL     1      11.792  -8.543   7.688  1.00  0.00     0.020 A 
ATOM     87  C   UNL     1      12.195  -7.569   6.776  1.00  0.00     0.054 A 
BRANCH  87  88
ATOM     88  S   UNL     1      13.962  -7.215   6.554  1.00  0.00     0.124 S 
ATOM     89  O   UNL     1      14.210  -7.677   5.192  1.00  0.00    -0.237 OA
ATOM     90  O   UNL     1      14.032  -5.768   6.750  1.00  0.00    -0.237 OA
ATOM     91  O   UNL     1      14.610  -8.004   7.602  1.00  0.00    -0.744 OA
ENDBRANCH  87  88
ENDBRANCH  61  82
ENDBRANCH  35  36
ENDBRANCH  27  30
ENDBRANCH  25  26
ENDBRANCH  24  25
ENDBRANCH   1  24
TORSDOF 17
