REMARK SMILES O=C(CCNC(=O)CCc1nc2ccccc2[nH]1)NCCCNC(=O)c1ccc(-c2c3nc(c(-c4ccc(S(=O)(=O)[O-])cc4)c4ccc([nH]4)c(-c4ccc(S(=O)(=O)[O-])cc4)c4nc(c(-c5ccc(S(=O)(=O)[O-])cc5)c5ccc2[nH]5)C=C4)C=C3)cc1
REMARK SMILES IDX 20 1 19 2 1 3 2 4 3 6 4 7 5 8 6 9 7 11 8 12 9 13 10 14 11 15
REMARK SMILES IDX 18 16 12 17 17 18 13 20 16 21 14 22 15 23 21 24 22 25 23 26
REMARK SMILES IDX 24 27 25 29 26 30 27 31 85 32 28 33 84 34 29 35 30 36 31 37
REMARK SMILES IDX 78 38 32 39 83 40 77 41 79 42 33 43 82 44 76 45 75 46 34 48
REMARK SMILES IDX 64 49 45 50 63 51 46 52 49 53 62 54 80 55 47 56 48 57 61 59
REMARK SMILES IDX 81 60 50 61 35 62 36 63 44 64 37 65 43 66 38 67 39 68 40 69
REMARK SMILES IDX 41 70 42 71 65 72 66 73 74 74 67 75 73 76 68 77 69 78 70 79
REMARK SMILES IDX 71 80 72 81 51 82 52 83 60 84 53 85 59 86 54 87 55 88 56 89
REMARK SMILES IDX 57 90 58 91
REMARK H PARENT 19 5 5 10 18 19 23 28 79 47 49 58
REMARK Flexibility Score: inf
ROOT
ATOM      1  C   UNL     1       1.875   0.098   3.078  1.00  0.00     0.117 C 
ENDROOT
BRANCH   1   2
ATOM      2  N   UNL     1       2.597   0.323   1.847  1.00  0.00    -0.356 N 
ATOM      3  O   UNL     1       0.765   0.285   0.474  1.00  0.00    -0.275 OA
ATOM      4  C   UNL     1       1.979   0.359   0.629  1.00  0.00     0.221 C 
ATOM      5  H   UNL     1       3.572   0.455   1.887  1.00  0.00     0.163 HD
BRANCH   4   6
ATOM      6  C   UNL     1       2.933   0.449  -0.530  1.00  0.00     0.121 C 
BRANCH   6   7
ATOM      7  C   UNL     1       3.800   1.701  -0.528  1.00  0.00     0.125 C 
BRANCH   7   8
ATOM      8  N   UNL     1       5.140   1.435  -0.027  1.00  0.00    -0.356 N 
ATOM      9  C   UNL     1       6.291   1.142  -0.691  1.00  0.00     0.220 C 
ATOM     10  H   UNL     1       5.229   1.473   0.953  1.00  0.00     0.163 HD
ATOM     11  O   UNL     1       7.265   0.793  -0.021  1.00  0.00    -0.275 OA
BRANCH   9  12
ATOM     12  C   UNL     1       6.409   1.314  -2.193  1.00  0.00     0.108 C 
BRANCH  12  13
ATOM     13  C   UNL     1       6.120   0.055  -3.010  1.00  0.00     0.085 C 
BRANCH  13  14
ATOM     14  C   UNL     1       4.710  -0.056  -3.496  1.00  0.00     0.107 A 
ATOM     15  N   UNL     1       3.969  -1.144  -3.471  1.00  0.00    -0.233 NA
ATOM     16  N   UNL     1       3.982   1.000  -3.999  1.00  0.00    -0.342 N 
ATOM     17  C   UNL     1       2.681  -0.715  -3.671  1.00  0.00     0.089 A 
ATOM     18  C   UNL     1       2.655   0.652  -3.929  1.00  0.00     0.065 A 
ATOM     19  H   UNL     1       4.345   1.848  -4.345  1.00  0.00     0.168 HD
ATOM     20  C   UNL     1       1.475  -1.407  -3.495  1.00  0.00     0.030 A 
ATOM     21  C   UNL     1       1.479   1.406  -3.957  1.00  0.00     0.028 A 
ATOM     22  C   UNL     1       0.286  -0.667  -3.466  1.00  0.00     0.002 A 
ATOM     23  C   UNL     1       0.293   0.715  -3.675  1.00  0.00     0.002 A 
ENDBRANCH  13  14
ENDBRANCH  12  13
ENDBRANCH   9  12
ENDBRANCH   7   8
ENDBRANCH   6   7
ENDBRANCH   4   6
ENDBRANCH   1   2
BRANCH   1  24
ATOM     24  C   UNL     1       2.283  -1.225   3.710  1.00  0.00     0.042 C 
BRANCH  24  25
ATOM     25  C   UNL     1       3.791  -1.394   3.870  1.00  0.00     0.118 C 
BRANCH  25  26
ATOM     26  N   UNL     1       4.418  -0.260   4.539  1.00  0.00    -0.352 N 
ATOM     27  C   UNL     1       5.188  -0.229   5.672  1.00  0.00     0.251 C 
ATOM     28  H   UNL     1       4.266   0.614   4.113  1.00  0.00     0.163 HD
ATOM     29  O   UNL     1       5.465   0.852   6.187  1.00  0.00    -0.269 OA
BRANCH  27  30
ATOM     30  C   UNL     1       5.649  -1.490   6.281  1.00  0.00     0.039 A 
ATOM     31  C   UNL     1       5.543  -1.645   7.663  1.00  0.00     0.014 A 
ATOM     32  C   UNL     1       6.165  -2.522   5.490  1.00  0.00     0.014 A 
ATOM     33  C   UNL     1       5.898  -2.861   8.245  1.00  0.00     0.010 A 
ATOM     34  C   UNL     1       6.430  -3.762   6.061  1.00  0.00     0.010 A 
ATOM     35  C   UNL     1       6.305  -3.944   7.446  1.00  0.00    -0.014 A 
BRANCH  35  36
ATOM     36  C   UNL     1       6.581  -5.269   8.055  1.00  0.00     0.031 A 
ATOM     37  C   UNL     1       7.956  -5.875   7.984  1.00  0.00     0.074 A 
ATOM     38  C   UNL     1       5.574  -5.939   8.652  1.00  0.00     0.049 A 
ATOM     39  N   UNL     1       8.384  -7.001   8.496  1.00  0.00    -0.248 NA
ATOM     40  C   UNL     1       8.977  -5.138   7.222  1.00  0.00     0.031 C 
ATOM     41  C   UNL     1       4.183  -5.482   8.732  1.00  0.00     0.029 A 
ATOM     42  N   UNL     1       5.565  -7.139   9.315  1.00  0.00    -0.354 N 
ATOM     43  C   UNL     1       9.717  -7.108   8.115  1.00  0.00     0.074 A 
ATOM     44  C   UNL     1      10.010  -5.966   7.278  1.00  0.00     0.031 C 
ATOM     45  C   UNL     1       3.470  -6.365   9.447  1.00  0.00     0.029 A 
ATOM     46  C   UNL     1       4.338  -7.470   9.841  1.00  0.00     0.049 A 
ATOM     47  H   UNL     1       6.362  -7.711   9.406  1.00  0.00     0.167 HD
ATOM     48  C   UNL     1      10.622  -8.059   8.450  1.00  0.00     0.031 A 
ATOM     49  C   UNL     1       3.954  -8.538  10.566  1.00  0.00     0.031 A 
ATOM     50  C   UNL     1      10.323  -9.196   9.281  1.00  0.00     0.049 A 
ATOM     51  C   UNL     1       4.978  -9.578  10.926  1.00  0.00     0.074 A 
ATOM     52  C   UNL     1      11.181 -10.189   9.722  1.00  0.00     0.029 A 
ATOM     53  N   UNL     1       9.069  -9.497   9.793  1.00  0.00    -0.354 N 
ATOM     54  N   UNL     1       6.253  -9.622  10.621  1.00  0.00    -0.248 NA
ATOM     55  C   UNL     1       4.513 -10.704  11.747  1.00  0.00     0.031 C 
ATOM     56  C   UNL     1      10.433 -11.122  10.449  1.00  0.00     0.029 A 
ATOM     57  C   UNL     1       9.124 -10.673  10.524  1.00  0.00     0.049 A 
ATOM     58  H   UNL     1       8.259  -8.954   9.657  1.00  0.00     0.167 HD
ATOM     59  C   UNL     1       6.750 -10.765  11.237  1.00  0.00     0.074 A 
ATOM     60  C   UNL     1       5.642 -11.367  11.951  1.00  0.00     0.031 C 
ATOM     61  C   UNL     1       8.010 -11.270  11.217  1.00  0.00     0.031 A 
BRANCH  48  62
ATOM     62  C   UNL     1      12.022  -7.912   7.909  1.00  0.00    -0.014 A 
ATOM     63  C   UNL     1      12.866  -6.873   8.342  1.00  0.00     0.010 A 
ATOM     64  C   UNL     1      12.518  -8.851   6.986  1.00  0.00     0.010 A 
ATOM     65  C   UNL     1      14.162  -6.752   7.834  1.00  0.00     0.020 A 
ATOM     66  C   UNL     1      13.825  -8.753   6.500  1.00  0.00     0.020 A 
ATOM     67  C   UNL     1      14.634  -7.694   6.915  1.00  0.00     0.054 A 
BRANCH  67  68
ATOM     68  S   UNL     1      16.331  -7.529   6.298  1.00  0.00     0.124 S 
ATOM     69  O   UNL     1      16.227  -6.354   5.436  1.00  0.00    -0.237 OA
ATOM     70  O   UNL     1      17.101  -7.341   7.525  1.00  0.00    -0.237 OA
ATOM     71  O   UNL     1      16.573  -8.791   5.602  1.00  0.00    -0.744 OA
ENDBRANCH  67  68
ENDBRANCH  48  62
BRANCH  49  72
ATOM     72  C   UNL     1       2.541  -8.660  11.020  1.00  0.00    -0.014 A 
ATOM     73  C   UNL     1       2.211  -8.543  12.382  1.00  0.00     0.010 A 
ATOM     74  C   UNL     1       1.512  -8.882  10.086  1.00  0.00     0.010 A 
ATOM     75  C   UNL     1       0.884  -8.670  12.805  1.00  0.00     0.020 A 
ATOM     76  C   UNL     1       0.181  -8.977  10.501  1.00  0.00     0.020 A 
ATOM     77  C   UNL     1      -0.123  -8.883  11.860  1.00  0.00     0.054 A 
BRANCH  77  78
ATOM     78  S   UNL     1      -1.844  -8.996  12.425  1.00  0.00     0.124 S 
ATOM     79  O   UNL     1      -1.862 -10.298  13.084  1.00  0.00    -0.237 OA
ATOM     80  O   UNL     1      -1.962  -7.837  13.306  1.00  0.00    -0.237 OA
ATOM     81  O   UNL     1      -2.616  -8.909  11.188  1.00  0.00    -0.744 OA
ENDBRANCH  77  78
ENDBRANCH  49  72
BRANCH  61  82
ATOM     82  C   UNL     1       8.261 -12.519  12.023  1.00  0.00    -0.014 A 
ATOM     83  C   UNL     1       7.700 -13.756  11.657  1.00  0.00     0.010 A 
ATOM     84  C   UNL     1       9.082 -12.451  13.164  1.00  0.00     0.010 A 
ATOM     85  C   UNL     1       7.904 -14.887  12.452  1.00  0.00     0.020 A 
ATOM     86  C   UNL     1       9.318 -13.588  13.941  1.00  0.00     0.020 A 
ATOM     87  C   UNL     1       8.706 -14.793  13.594  1.00  0.00     0.054 A 
BRANCH  87  88
ATOM     88  S   UNL     1       8.952 -16.273  14.612  1.00  0.00     0.124 S 
ATOM     89  O   UNL     1       7.655 -16.408  15.268  1.00  0.00    -0.237 OA
ATOM     90  O   UNL     1       9.264 -17.298  13.618  1.00  0.00    -0.237 OA
ATOM     91  O   UNL     1      10.061 -15.908  15.492  1.00  0.00    -0.744 OA
ENDBRANCH  87  88
ENDBRANCH  61  82
ENDBRANCH  35  36
ENDBRANCH  27  30
ENDBRANCH  25  26
ENDBRANCH  24  25
ENDBRANCH   1  24
TORSDOF 18
