REMARK SMILES CO[C@@H]1C[NH2+][C@@H](O[C@@H]2C[C@@H](C(=O)NCCCNC(=O)c3ccc(-c4c5nc(c(-c6ccc(S(=O)(=O)[O-])cc6)c6ccc([nH]6)c(-c6ccc(S(=O)(=O)[O-])cc6)c6nc(c(-c7ccc(S(=O)(=O)[O-])cc7)c7ccc4[nH]7)C=C6)C=C5)cc3)N(C(=O)OC(C)(C)C)C2)c2cc(Cl)ccc21
REMARK SMILES IDX 15 1 14 2 13 3 11 4 12 5 10 7 8 8 9 9 88 10 80 11 7 12 6 13
REMARK SMILES IDX 3 14 4 15 95 16 5 17 89 18 94 19 90 22 93 23 91 24 92 25
REMARK SMILES IDX 2 26 1 27 81 28 82 29 83 30 84 31 85 32 86 33 87 34 16 35
REMARK SMILES IDX 17 36 18 37 19 39 20 40 21 41 79 42 22 43 78 44 23 45 24 46
REMARK SMILES IDX 25 47 72 48 26 49 77 50 71 51 73 52 27 53 76 54 70 55 69 56
REMARK SMILES IDX 28 58 58 59 39 60 57 61 40 62 43 63 56 64 74 65 41 66 42 67
REMARK SMILES IDX 55 69 75 70 44 71 29 72 30 73 38 74 31 75 37 76 32 77 33 78
REMARK SMILES IDX 34 79 35 80 36 81 59 82 60 83 68 84 61 85 67 86 62 87 63 88
REMARK SMILES IDX 64 89 65 90 66 91 45 92 46 93 54 94 47 95 53 96 48 97 49 98
REMARK SMILES IDX 50 99 51 100 52 101
REMARK H PARENT 13 6 5 20 5 21 17 38 73 57 43 68
REMARK Flexibility Score: inf
ROOT
ATOM      1  C   UNL     1       0.949   2.276  -5.219  1.00  0.00     0.042 C 
ENDROOT
BRANCH   1   2
ATOM      2  C   UNL     1       1.289   0.801  -5.364  1.00  0.00     0.117 C 
BRANCH   2   3
ATOM      3  N   UNL     1       2.376   0.418  -4.500  1.00  0.00    -0.354 N 
ATOM      4  C   UNL     1       2.746  -0.811  -4.105  1.00  0.00     0.243 C 
ATOM      5  O   UNL     1       3.966  -0.951  -3.939  1.00  0.00    -0.273 OA
ATOM      6  H   UNL     1       2.922   1.159  -4.152  1.00  0.00     0.163 HD
BRANCH   4   7
ATOM      7  C   UNL     1       1.776  -1.908  -3.642  1.00  0.00     0.180 C 
ATOM      8  C   UNL     1       1.420  -4.296  -3.776  1.00  0.00     0.147 C 
ATOM      9  C   UNL     1       2.435  -3.227  -4.095  1.00  0.00     0.069 C 
ATOM     10  C   UNL     1       0.091  -3.581  -4.021  1.00  0.00     0.156 C 
ATOM     11  N   UNL     1       0.349  -2.150  -3.861  1.00  0.00    -0.293 N 
BRANCH   8  12
ATOM     12  O   UNL     1       1.569  -5.048  -2.581  1.00  0.00    -0.320 OA
BRANCH  12  13
ATOM     13  C   UNL     1       1.854  -4.617  -1.255  1.00  0.00     0.354 C 
ATOM     14  C   UNL     1       1.149  -1.967  -0.105  1.00  0.00     0.203 C 
ATOM     15  C   UNL     1       0.137  -3.121  -0.362  1.00  0.00     0.300 C 
ATOM     16  C   UNL     1       2.598  -2.329  -0.408  1.00  0.00    -0.002 A 
ATOM     17  N   UNL     1       0.658  -4.479  -0.448  1.00  0.00    -0.315 N 
ATOM     18  C   UNL     1       2.922  -3.580  -0.975  1.00  0.00     0.046 A 
ATOM     19  C   UNL     1       3.616  -1.369  -0.249  1.00  0.00     0.009 A 
ATOM     20  H   UNL     1      -0.067  -5.073  -0.850  1.00  0.00     0.349 HD
ATOM     21  H   UNL     1       0.917  -4.750   0.501  1.00  0.00     0.349 HD
ATOM     22  C   UNL     1       4.269  -3.871  -1.273  1.00  0.00     0.033 A 
ATOM     23  C   UNL     1       4.938  -1.655  -0.591  1.00  0.00     0.021 A 
ATOM     24  C   UNL     1       5.262  -2.911  -1.087  1.00  0.00     0.041 A 
ATOM     25  Cl  UNL     1       6.893  -3.275  -1.497  1.00  0.00    -0.084 Cl
BRANCH  14  26
ATOM     26  O   UNL     1       1.006  -1.502   1.242  1.00  0.00    -0.371 OA
ATOM     27  C   UNL     1       0.999  -0.082   1.363  1.00  0.00     0.196 C 
ENDBRANCH  14  26
ENDBRANCH  12  13
ENDBRANCH   8  12
BRANCH  11  28
ATOM     28  C   UNL     1      -0.740  -1.388  -3.477  1.00  0.00     0.411 C 
ATOM     29  O   UNL     1      -1.887  -1.781  -3.668  1.00  0.00    -0.224 OA
BRANCH  28  30
ATOM     30  O   UNL     1      -0.433  -0.225  -2.840  1.00  0.00    -0.444 OA
BRANCH  30  31
ATOM     31  C   UNL     1      -1.526   0.645  -2.396  1.00  0.00     0.106 C 
ATOM     32  C   UNL     1      -2.349   1.155  -3.590  1.00  0.00     0.056 C 
ATOM     33  C   UNL     1      -2.428  -0.039  -1.355  1.00  0.00     0.056 C 
ATOM     34  C   UNL     1      -0.870   1.854  -1.702  1.00  0.00     0.056 C 
ENDBRANCH  30  31
ENDBRANCH  28  30
ENDBRANCH  11  28
ENDBRANCH   4   7
ENDBRANCH   2   3
ENDBRANCH   1   2
BRANCH   1  35
ATOM     35  C   UNL     1       2.148   3.214  -5.184  1.00  0.00     0.118 C 
BRANCH  35  36
ATOM     36  N   UNL     1       3.001   3.096  -6.359  1.00  0.00    -0.352 N 
ATOM     37  C   UNL     1       3.415   4.098  -7.208  1.00  0.00     0.251 C 
ATOM     38  H   UNL     1       3.321   2.190  -6.572  1.00  0.00     0.163 HD
ATOM     39  O   UNL     1       4.002   3.839  -8.251  1.00  0.00    -0.269 OA
BRANCH  37  40
ATOM     40  C   UNL     1       3.089   5.489  -6.842  1.00  0.00     0.039 A 
ATOM     41  C   UNL     1       3.396   5.949  -5.560  1.00  0.00     0.014 A 
ATOM     42  C   UNL     1       2.354   6.274  -7.729  1.00  0.00     0.014 A 
ATOM     43  C   UNL     1       2.800   7.114  -5.100  1.00  0.00     0.010 A 
ATOM     44  C   UNL     1       1.843   7.498  -7.293  1.00  0.00     0.010 A 
ATOM     45  C   UNL     1       2.013   7.901  -5.959  1.00  0.00    -0.014 A 
BRANCH  45  46
ATOM     46  C   UNL     1       1.373   9.136  -5.435  1.00  0.00     0.031 A 
ATOM     47  C   UNL     1      -0.127   9.276  -5.401  1.00  0.00     0.074 A 
ATOM     48  C   UNL     1       2.154  10.114  -4.936  1.00  0.00     0.049 A 
ATOM     49  N   UNL     1      -0.846  10.286  -4.981  1.00  0.00    -0.248 NA
ATOM     50  C   UNL     1      -0.927   8.144  -5.900  1.00  0.00     0.031 C 
ATOM     51  C   UNL     1       3.618  10.073  -4.884  1.00  0.00     0.029 A 
ATOM     52  N   UNL     1       1.835  11.311  -4.348  1.00  0.00    -0.354 N 
ATOM     53  C   UNL     1      -2.173   9.923  -5.183  1.00  0.00     0.074 A 
ATOM     54  C   UNL     1      -2.164   8.611  -5.790  1.00  0.00     0.031 C 
ATOM     55  C   UNL     1       4.065  11.157  -4.237  1.00  0.00     0.029 A 
ATOM     56  C   UNL     1       2.932  12.015  -3.907  1.00  0.00     0.049 A 
ATOM     57  H   UNL     1       0.911  11.636  -4.250  1.00  0.00     0.167 HD
ATOM     58  C   UNL     1      -3.294  10.619  -4.878  1.00  0.00     0.031 A 
ATOM     59  C   UNL     1       3.027  13.224  -3.319  1.00  0.00     0.031 A 
ATOM     60  C   UNL     1      -3.290  11.917  -4.254  1.00  0.00     0.049 A 
ATOM     61  C   UNL     1       1.773  13.998  -3.043  1.00  0.00     0.074 A 
ATOM     62  C   UNL     1      -4.377  12.695  -3.894  1.00  0.00     0.029 A 
ATOM     63  N   UNL     1      -2.154  12.625  -3.890  1.00  0.00    -0.354 N 
ATOM     64  N   UNL     1       0.528  13.641  -3.251  1.00  0.00    -0.248 NA
ATOM     65  C   UNL     1       1.929  15.337  -2.459  1.00  0.00     0.031 C 
ATOM     66  C   UNL     1      -3.899  13.899  -3.374  1.00  0.00     0.029 A 
ATOM     67  C   UNL     1      -2.515  13.842  -3.336  1.00  0.00     0.049 A 
ATOM     68  H   UNL     1      -1.229  12.310  -4.008  1.00  0.00     0.167 HD
ATOM     69  C   UNL     1      -0.249  14.707  -2.814  1.00  0.00     0.074 A 
ATOM     70  C   UNL     1       0.664  15.712  -2.310  1.00  0.00     0.031 C 
ATOM     71  C   UNL     1      -1.597  14.838  -2.837  1.00  0.00     0.031 A 
BRANCH  58  72
ATOM     72  C   UNL     1      -4.634  10.009  -5.205  1.00  0.00    -0.014 A 
ATOM     73  C   UNL     1      -5.457  10.612  -6.176  1.00  0.00     0.010 A 
ATOM     74  C   UNL     1      -5.137   8.923  -4.466  1.00  0.00     0.010 A 
ATOM     75  C   UNL     1      -6.767  10.166  -6.377  1.00  0.00     0.020 A 
ATOM     76  C   UNL     1      -6.437   8.455  -4.684  1.00  0.00     0.020 A 
ATOM     77  C   UNL     1      -7.251   9.096  -5.621  1.00  0.00     0.054 A 
BRANCH  77  78
ATOM     78  S   UNL     1      -8.963   8.550  -5.873  1.00  0.00     0.124 S 
ATOM     79  O   UNL     1      -9.724   9.601  -5.204  1.00  0.00    -0.237 OA
ATOM     80  O   UNL     1      -9.077   8.515  -7.329  1.00  0.00    -0.237 OA
ATOM     81  O   UNL     1      -9.002   7.240  -5.224  1.00  0.00    -0.744 OA
ENDBRANCH  77  78
ENDBRANCH  58  72
BRANCH  59  82
ATOM     82  C   UNL     1       4.374  13.742  -2.953  1.00  0.00    -0.014 A 
ATOM     83  C   UNL     1       5.317  14.041  -3.955  1.00  0.00     0.010 A 
ATOM     84  C   UNL     1       4.758  13.834  -1.604  1.00  0.00     0.010 A 
ATOM     85  C   UNL     1       6.637  14.350  -3.618  1.00  0.00     0.020 A 
ATOM     86  C   UNL     1       6.070  14.178  -1.262  1.00  0.00     0.020 A 
ATOM     87  C   UNL     1       7.008  14.399  -2.273  1.00  0.00     0.054 A 
BRANCH  87  88
ATOM     88  S   UNL     1       8.743  14.732  -1.862  1.00  0.00     0.124 S 
ATOM     89  O   UNL     1       9.374  13.452  -2.171  1.00  0.00    -0.237 OA
ATOM     90  O   UNL     1       9.078  15.833  -2.761  1.00  0.00    -0.237 OA
ATOM     91  O   UNL     1       8.697  15.081  -0.445  1.00  0.00    -0.744 OA
ENDBRANCH  87  88
ENDBRANCH  59  82
BRANCH  71  92
ATOM     92  C   UNL     1      -2.197  16.112  -2.303  1.00  0.00    -0.014 A 
ATOM     93  C   UNL     1      -2.985  16.076  -1.137  1.00  0.00     0.010 A 
ATOM     94  C   UNL     1      -2.104  17.311  -3.032  1.00  0.00     0.010 A 
ATOM     95  C   UNL     1      -3.706  17.202  -0.734  1.00  0.00     0.020 A 
ATOM     96  C   UNL     1      -2.800  18.448  -2.614  1.00  0.00     0.020 A 
ATOM     97  C   UNL     1      -3.620  18.378  -1.485  1.00  0.00     0.054 A 
BRANCH  97  98
ATOM     98  S   UNL     1      -4.605  19.812  -0.976  1.00  0.00     0.124 S 
ATOM     99  O   UNL     1      -5.948  19.430  -1.403  1.00  0.00    -0.237 OA
ATOM    100  O   UNL     1      -4.392  19.852   0.469  1.00  0.00    -0.237 OA
ATOM    101  O   UNL     1      -4.006  20.920  -1.716  1.00  0.00    -0.744 OA
ENDBRANCH  97  98
ENDBRANCH  71  92
ENDBRANCH  45  46
ENDBRANCH  37  40
ENDBRANCH  35  36
ENDBRANCH   1  35
TORSDOF 19
