REMARK SMILES O=C(COc1ccccc1/C=C1/SC(=S)N(c2ccc(F)c(Cl)c2)C1=O)NCCCNC(=O)c1ccc(-c2c3nc(c(-c4ccc(S(=O)(=O)[O-])cc4)c4ccc([nH]4)c(-c4ccc(S(=O)(=O)[O-])cc4)c4nc(c(-c5ccc(S(=O)(=O)[O-])cc5)c5ccc2[nH]5)C=C4)C=C3)cc1
REMARK SMILES IDX 28 1 27 2 1 3 2 4 3 6 4 7 5 8 6 9 10 10 7 11 9 12 8 13 11 14
REMARK SMILES IDX 12 15 13 16 25 17 14 18 16 19 26 20 15 21 17 22 18 23 24 24
REMARK SMILES IDX 19 25 22 26 20 27 23 28 21 29 29 30 30 31 31 32 32 33 33 35
REMARK SMILES IDX 34 36 35 37 93 38 36 39 92 40 37 41 38 42 39 43 86 44 40 45
REMARK SMILES IDX 91 46 85 47 87 48 41 49 90 50 84 51 83 52 42 54 72 55 53 56
REMARK SMILES IDX 71 57 54 58 57 59 70 60 88 61 55 62 56 63 69 65 89 66 58 67
REMARK SMILES IDX 43 68 44 69 52 70 45 71 51 72 46 73 47 74 48 75 49 76 50 77
REMARK SMILES IDX 73 78 74 79 82 80 75 81 81 82 76 83 77 84 78 85 79 86 80 87
REMARK SMILES IDX 59 88 60 89 68 90 61 91 67 92 62 93 63 94 64 95 65 96 66 97
REMARK H PARENT 27 5 31 34 87 53 57 64
REMARK Flexibility Score: inf
ROOT
ATOM      1  C   UNL     1       1.262   1.375   1.997  1.00  0.00     0.117 C 
ENDROOT
BRANCH   1   2
ATOM      2  N   UNL     1       2.122   0.534   1.178  1.00  0.00    -0.353 N 
ATOM      3  O   UNL     1       0.430  -0.136  -0.232  1.00  0.00    -0.271 OA
ATOM      4  C   UNL     1       1.622  -0.131   0.069  1.00  0.00     0.257 C 
ATOM      5  H   UNL     1       3.072   0.436   1.415  1.00  0.00     0.163 HD
BRANCH   4   6
ATOM      6  C   UNL     1       2.671  -0.866  -0.775  1.00  0.00     0.329 C 
BRANCH   6   7
ATOM      7  O   UNL     1       3.566   0.007  -1.466  1.00  0.00    -0.483 OA
BRANCH   7   8
ATOM      8  C   UNL     1       3.019   0.454  -2.648  1.00  0.00     0.127 A 
ATOM      9  C   UNL     1       3.138  -0.328  -3.797  1.00  0.00     0.047 A 
ATOM     10  C   UNL     1       2.463   1.742  -2.726  1.00  0.00     0.018 A 
ATOM     11  C   UNL     1       2.634   0.143  -5.012  1.00  0.00     0.004 A 
ATOM     12  C   UNL     1       1.915   2.184  -3.935  1.00  0.00     0.012 A 
ATOM     13  C   UNL     1       2.002   1.386  -5.076  1.00  0.00     0.001 A 
BRANCH  10  14
ATOM     14  C   UNL     1       2.492   2.663  -1.589  1.00  0.00     0.033 C 
ATOM     15  C   UNL     1       3.628   3.127  -1.049  1.00  0.00     0.081 C 
ATOM     16  S   UNL     1       3.656   4.058   0.399  1.00  0.00    -0.054 SA
ATOM     17  C   UNL     1       5.030   2.868  -1.507  1.00  0.00     0.270 C 
ATOM     18  C   UNL     1       5.386   3.843   0.614  1.00  0.00     0.152 C 
ATOM     19  N   UNL     1       5.899   3.142  -0.464  1.00  0.00    -0.261 N 
ATOM     20  O   UNL     1       5.342   2.538  -2.642  1.00  0.00    -0.268 OA
ATOM     21  S   UNL     1       6.227   4.461   1.919  1.00  0.00    -0.051 S 
BRANCH  19  22
ATOM     22  C   UNL     1       7.290   2.933  -0.603  1.00  0.00     0.052 A 
ATOM     23  C   UNL     1       8.047   3.878  -1.303  1.00  0.00     0.030 A 
ATOM     24  C   UNL     1       7.919   1.942   0.165  1.00  0.00     0.050 A 
ATOM     25  C   UNL     1       9.435   3.878  -1.176  1.00  0.00     0.043 A 
ATOM     26  C   UNL     1       9.308   1.941   0.274  1.00  0.00     0.078 A 
ATOM     27  C   UNL     1      10.056   2.921  -0.377  1.00  0.00     0.141 A 
ATOM     28  Cl  UNL     1      10.072   0.760   1.264  1.00  0.00    -0.081 Cl
ATOM     29  F   UNL     1      11.387   2.977  -0.230  1.00  0.00    -0.205 F 
ENDBRANCH  19  22
ENDBRANCH  10  14
ENDBRANCH   7   8
ENDBRANCH   6   7
ENDBRANCH   4   6
ENDBRANCH   1   2
BRANCH   1  30
ATOM     30  C   UNL     1       1.590   1.364   3.489  1.00  0.00     0.042 C 
BRANCH  30  31
ATOM     31  C   UNL     1       2.904   2.027   3.897  1.00  0.00     0.118 C 
BRANCH  31  32
ATOM     32  N   UNL     1       2.939   3.460   3.672  1.00  0.00    -0.352 N 
ATOM     33  C   UNL     1       3.676   4.464   4.260  1.00  0.00     0.251 C 
ATOM     34  H   UNL     1       2.324   3.772   2.969  1.00  0.00     0.163 HD
ATOM     35  O   UNL     1       3.454   5.615   3.881  1.00  0.00    -0.269 OA
BRANCH  33  36
ATOM     36  C   UNL     1       4.671   4.228   5.350  1.00  0.00     0.039 A 
ATOM     37  C   UNL     1       4.959   5.308   6.197  1.00  0.00     0.014 A 
ATOM     38  C   UNL     1       5.298   3.004   5.596  1.00  0.00     0.014 A 
ATOM     39  C   UNL     1       5.715   5.121   7.357  1.00  0.00     0.010 A 
ATOM     40  C   UNL     1       5.995   2.793   6.790  1.00  0.00     0.010 A 
ATOM     41  C   UNL     1       6.149   3.835   7.710  1.00  0.00    -0.014 A 
BRANCH  41  42
ATOM     42  C   UNL     1       6.536   3.536   9.111  1.00  0.00     0.031 A 
ATOM     43  C   UNL     1       7.924   3.118   9.491  1.00  0.00     0.074 A 
ATOM     44  C   UNL     1       5.556   3.560  10.040  1.00  0.00     0.049 A 
ATOM     45  N   UNL     1       8.396   2.840  10.681  1.00  0.00    -0.248 NA
ATOM     46  C   UNL     1       8.901   2.969   8.404  1.00  0.00     0.031 C 
ATOM     47  C   UNL     1       4.146   3.865   9.769  1.00  0.00     0.029 A 
ATOM     48  N   UNL     1       5.586   3.322  11.390  1.00  0.00    -0.354 N 
ATOM     49  C   UNL     1       9.725   2.485  10.490  1.00  0.00     0.074 A 
ATOM     50  C   UNL     1       9.972   2.543   9.064  1.00  0.00     0.031 C 
ATOM     51  C   UNL     1       3.457   3.830  10.918  1.00  0.00     0.029 A 
ATOM     52  C   UNL     1       4.363   3.473  12.001  1.00  0.00     0.049 A 
ATOM     53  H   UNL     1       6.404   3.069  11.875  1.00  0.00     0.167 HD
ATOM     54  C   UNL     1      10.652   2.153  11.422  1.00  0.00     0.031 A 
ATOM     55  C   UNL     1       4.004   3.345  13.291  1.00  0.00     0.031 A 
ATOM     56  C   UNL     1      10.389   2.083  12.838  1.00  0.00     0.049 A 
ATOM     57  C   UNL     1       5.056   3.010  14.306  1.00  0.00     0.074 A 
ATOM     58  C   UNL     1      11.274   1.814  13.868  1.00  0.00     0.029 A 
ATOM     59  N   UNL     1       9.146   2.276  13.425  1.00  0.00    -0.354 N 
ATOM     60  N   UNL     1       6.331   2.772  14.116  1.00  0.00    -0.248 NA
ATOM     61  C   UNL     1       4.626   2.946  15.708  1.00  0.00     0.031 C 
ATOM     62  C   UNL     1      10.559   1.804  15.072  1.00  0.00     0.029 A 
ATOM     63  C   UNL     1       9.236   2.113  14.798  1.00  0.00     0.049 A 
ATOM     64  H   UNL     1       8.320   2.496  12.936  1.00  0.00     0.167 HD
ATOM     65  C   UNL     1       6.864   2.549  15.378  1.00  0.00     0.074 A 
ATOM     66  C   UNL     1       5.774   2.697  16.324  1.00  0.00     0.031 C 
ATOM     67  C   UNL     1       8.140   2.251  15.723  1.00  0.00     0.031 A 
BRANCH  54  68
ATOM     68  C   UNL     1      12.044   1.839  10.938  1.00  0.00    -0.014 A 
ATOM     69  C   UNL     1      12.885   2.856  10.452  1.00  0.00     0.010 A 
ATOM     70  C   UNL     1      12.536   0.523  11.013  1.00  0.00     0.010 A 
ATOM     71  C   UNL     1      14.177   2.557  10.010  1.00  0.00     0.020 A 
ATOM     72  C   UNL     1      13.837   0.224  10.594  1.00  0.00     0.020 A 
ATOM     73  C   UNL     1      14.643   1.241  10.078  1.00  0.00     0.054 A 
BRANCH  73  74
ATOM     74  S   UNL     1      16.330   0.882   9.513  1.00  0.00     0.124 S 
ATOM     75  O   UNL     1      16.177   0.930   8.061  1.00  0.00    -0.237 OA
ATOM     76  O   UNL     1      17.105   1.973  10.098  1.00  0.00    -0.237 OA
ATOM     77  O   UNL     1      16.607  -0.441  10.068  1.00  0.00    -0.744 OA
ENDBRANCH  73  74
ENDBRANCH  54  68
BRANCH  55  78
ATOM     78  C   UNL     1       2.592   3.583  13.688  1.00  0.00    -0.014 A 
ATOM     79  C   UNL     1       2.231   4.766  14.354  1.00  0.00     0.010 A 
ATOM     80  C   UNL     1       1.593   2.649  13.358  1.00  0.00     0.010 A 
ATOM     81  C   UNL     1       0.898   5.008  14.695  1.00  0.00     0.020 A 
ATOM     82  C   UNL     1       0.255   2.898  13.676  1.00  0.00     0.020 A 
ATOM     83  C   UNL     1      -0.083   4.072  14.353  1.00  0.00     0.054 A 
BRANCH  83  84
ATOM     84  S   UNL     1      -1.817   4.434  14.746  1.00  0.00     0.124 S 
ATOM     85  O   UNL     1      -1.870   4.142  16.174  1.00  0.00    -0.237 OA
ATOM     86  O   UNL     1      -1.939   5.844  14.383  1.00  0.00    -0.237 OA
ATOM     87  O   UNL     1      -2.559   3.512  13.888  1.00  0.00    -0.744 OA
ENDBRANCH  83  84
ENDBRANCH  55  78
BRANCH  67  88
ATOM     88  C   UNL     1       8.424   2.083  17.190  1.00  0.00    -0.014 A 
ATOM     89  C   UNL     1       8.002   0.934  17.883  1.00  0.00     0.010 A 
ATOM     90  C   UNL     1       9.142   3.077  17.877  1.00  0.00     0.010 A 
ATOM     91  C   UNL     1       8.260   0.801  19.249  1.00  0.00     0.020 A 
ATOM     92  C   UNL     1       9.422   2.937  19.239  1.00  0.00     0.020 A 
ATOM     93  C   UNL     1       8.964   1.806  19.920  1.00  0.00     0.054 A 
BRANCH  93  94
ATOM     94  S   UNL     1       9.314   1.601  21.688  1.00  0.00     0.124 S 
ATOM     95  O   UNL     1       8.029   1.941  22.292  1.00  0.00    -0.237 OA
ATOM     96  O   UNL     1       9.699   0.195  21.780  1.00  0.00    -0.237 OA
ATOM     97  O   UNL     1      10.393   2.554  21.938  1.00  0.00    -0.744 OA
ENDBRANCH  93  94
ENDBRANCH  67  88
ENDBRANCH  41  42
ENDBRANCH  33  36
ENDBRANCH  31  32
ENDBRANCH  30  31
ENDBRANCH   1  30
TORSDOF 17
