REMARK SMILES CC[C@@H]1CCC[C@@](C[C@@H]2CSc3ccccc32)(C(=O)NCCCNC(=O)c2ccc(-c3c4nc(c(-c5ccc(S(=O)(=O)[O-])cc5)c5ccc([nH]5)c(-c5ccc(S(=O)(=O)[O-])cc5)c5nc(c(-c6ccc(S(=O)(=O)[O-])cc6)c6ccc3[nH]6)C=C5)C=C4)cc2)C1
REMARK SMILES IDX 22 1 21 2 20 3 18 4 19 5 7 7 3 8 4 9 87 10 5 11 6 12 2 13
REMARK SMILES IDX 1 14 8 15 9 16 10 17 17 18 11 19 12 20 16 21 13 22 15 23
REMARK SMILES IDX 14 24 23 25 24 26 25 27 26 29 27 30 28 31 86 32 29 33 85 34
REMARK SMILES IDX 30 35 31 36 32 37 79 38 33 39 84 40 78 41 80 42 34 43 83 44
REMARK SMILES IDX 77 45 76 46 35 48 65 49 46 50 64 51 47 52 50 53 63 54 81 55
REMARK SMILES IDX 48 56 49 57 62 59 82 60 51 61 36 62 37 63 45 64 38 65 44 66
REMARK SMILES IDX 39 67 40 68 41 69 42 70 43 71 66 72 67 73 75 74 68 75 74 76
REMARK SMILES IDX 69 77 70 78 71 79 72 80 73 81 52 82 53 83 61 84 54 85 60 86
REMARK SMILES IDX 55 87 56 88 57 89 58 90 59 91
REMARK H PARENT 20 6 24 28 80 47 50 58
REMARK Flexibility Score: inf
ROOT
ATOM      1  C   UNL     1       2.879   0.901   9.868  1.00  0.00     0.042 C 
ENDROOT
BRANCH   1   2
ATOM      2  C   UNL     1       1.720   1.259   8.968  1.00  0.00     0.117 C 
BRANCH   2   3
ATOM      3  N   UNL     1       0.600   1.895   9.611  1.00  0.00    -0.356 N 
ATOM      4  C   UNL     1      -0.195   2.889   9.129  1.00  0.00     0.226 C 
ATOM      5  O   UNL     1      -1.365   2.872   9.528  1.00  0.00    -0.274 OA
ATOM      6  H   UNL     1       0.380   1.569  10.514  1.00  0.00     0.163 HD
BRANCH   4   7
ATOM      7  C   UNL     1       0.300   3.979   8.134  1.00  0.00     0.050 C 
ATOM      8  C   UNL     1      -0.394   5.889   9.817  1.00  0.00    -0.010 C 
ATOM      9  C   UNL     1       1.083   6.231  10.043  1.00  0.00     0.003 C 
ATOM     10  C   UNL     1      -0.603   5.252   8.427  1.00  0.00     0.020 C 
ATOM     11  C   UNL     1       1.991   5.045   9.761  1.00  0.00     0.001 C 
ATOM     12  C   UNL     1       1.748   4.477   8.362  1.00  0.00     0.017 C 
BRANCH   8  13
ATOM     13  C   UNL     1      -1.243   7.162  10.007  1.00  0.00     0.000 C 
ATOM     14  C   UNL     1      -2.742   6.926   9.899  1.00  0.00     0.004 C 
ENDBRANCH   8  13
BRANCH   7  15
ATOM     15  C   UNL     1      -0.036   3.623   6.632  1.00  0.00     0.026 C 
BRANCH  15  16
ATOM     16  C   UNL     1       0.547   2.458   5.788  1.00  0.00     0.032 C 
ATOM     17  C   UNL     1      -0.074   1.082   6.113  1.00  0.00     0.083 C 
ATOM     18  C   UNL     1       2.042   2.302   5.699  1.00  0.00    -0.030 A 
ATOM     19  S   UNL     1       1.164  -0.194   5.723  1.00  0.00    -0.125 SA
ATOM     20  C   UNL     1       2.490   0.976   5.717  1.00  0.00     0.011 A 
ATOM     21  C   UNL     1       2.967   3.334   5.565  1.00  0.00     0.005 A 
ATOM     22  C   UNL     1       3.844   0.672   5.757  1.00  0.00     0.015 A 
ATOM     23  C   UNL     1       4.332   3.039   5.593  1.00  0.00     0.000 A 
ATOM     24  C   UNL     1       4.769   1.716   5.716  1.00  0.00     0.001 A 
ENDBRANCH  15  16
ENDBRANCH   7  15
ENDBRANCH   4   7
ENDBRANCH   2   3
ENDBRANCH   1   2
BRANCH   1  25
ATOM     25  C   UNL     1       2.650  -0.406  10.614  1.00  0.00     0.118 C 
BRANCH  25  26
ATOM     26  N   UNL     1       2.482  -1.566   9.732  1.00  0.00    -0.352 N 
ATOM     27  C   UNL     1       3.285  -2.647   9.451  1.00  0.00     0.251 C 
ATOM     28  H   UNL     1       1.626  -1.573   9.247  1.00  0.00     0.163 HD
ATOM     29  O   UNL     1       2.954  -3.425   8.559  1.00  0.00    -0.269 OA
BRANCH  27  30
ATOM     30  C   UNL     1       4.553  -2.864  10.176  1.00  0.00     0.039 A 
ATOM     31  C   UNL     1       4.664  -2.543  11.523  1.00  0.00     0.014 A 
ATOM     32  C   UNL     1       5.660  -3.386   9.497  1.00  0.00     0.014 A 
ATOM     33  C   UNL     1       5.917  -2.473  12.109  1.00  0.00     0.010 A 
ATOM     34  C   UNL     1       6.898  -3.468  10.143  1.00  0.00     0.010 A 
ATOM     35  C   UNL     1       7.054  -2.943  11.433  1.00  0.00    -0.014 A 
BRANCH  35  36
ATOM     36  C   UNL     1       8.375  -2.862  12.113  1.00  0.00     0.031 A 
ATOM     37  C   UNL     1       9.504  -2.062  11.515  1.00  0.00     0.074 A 
ATOM     38  C   UNL     1       8.516  -3.429  13.329  1.00  0.00     0.049 A 
ATOM     39  N   UNL     1      10.698  -1.844  12.004  1.00  0.00    -0.248 NA
ATOM     40  C   UNL     1       9.276  -1.430  10.204  1.00  0.00     0.031 C 
ATOM     41  C   UNL     1       7.481  -4.208  14.016  1.00  0.00     0.029 A 
ATOM     42  N   UNL     1       9.550  -3.393  14.230  1.00  0.00    -0.354 N 
ATOM     43  C   UNL     1      11.368  -1.081  11.054  1.00  0.00     0.074 A 
ATOM     44  C   UNL     1      10.460  -0.892   9.946  1.00  0.00     0.031 C 
ATOM     45  C   UNL     1       7.887  -4.477  15.264  1.00  0.00     0.029 A 
ATOM     46  C   UNL     1       9.249  -3.986  15.435  1.00  0.00     0.049 A 
ATOM     47  H   UNL     1      10.423  -2.983  14.034  1.00  0.00     0.167 HD
ATOM     48  C   UNL     1      12.622  -0.574  11.110  1.00  0.00     0.031 A 
ATOM     49  C   UNL     1       9.982  -4.133  16.556  1.00  0.00     0.031 A 
ATOM     50  C   UNL     1      13.506  -0.741  12.234  1.00  0.00     0.049 A 
ATOM     51  C   UNL     1      11.377  -3.586  16.582  1.00  0.00     0.074 A 
ATOM     52  C   UNL     1      14.796  -0.266  12.385  1.00  0.00     0.029 A 
ATOM     53  N   UNL     1      13.189  -1.419  13.402  1.00  0.00    -0.354 N 
ATOM     54  N   UNL     1      12.001  -2.895  15.658  1.00  0.00    -0.248 NA
ATOM     55  C   UNL     1      12.174  -3.844  17.787  1.00  0.00     0.031 C 
ATOM     56  C   UNL     1      15.280  -0.702  13.620  1.00  0.00     0.029 A 
ATOM     57  C   UNL     1      14.267  -1.391  14.270  1.00  0.00     0.049 A 
ATOM     58  H   UNL     1      12.326  -1.855  13.586  1.00  0.00     0.167 HD
ATOM     59  C   UNL     1      13.265  -2.635  16.169  1.00  0.00     0.074 A 
ATOM     60  C   UNL     1      13.309  -3.220  17.494  1.00  0.00     0.031 C 
ATOM     61  C   UNL     1      14.297  -1.980  15.585  1.00  0.00     0.031 A 
BRANCH  48  62
ATOM     62  C   UNL     1      13.134   0.209   9.928  1.00  0.00    -0.014 A 
ATOM     63  C   UNL     1      14.181  -0.315   9.146  1.00  0.00     0.010 A 
ATOM     64  C   UNL     1      12.667   1.508   9.659  1.00  0.00     0.010 A 
ATOM     65  C   UNL     1      14.772   0.453   8.139  1.00  0.00     0.020 A 
ATOM     66  C   UNL     1      13.236   2.269   8.633  1.00  0.00     0.020 A 
ATOM     67  C   UNL     1      14.301   1.745   7.895  1.00  0.00     0.054 A 
BRANCH  67  68
ATOM     68  S   UNL     1      15.092   2.737   6.597  1.00  0.00     0.124 S 
ATOM     69  O   UNL     1      16.330   3.160   7.244  1.00  0.00    -0.237 OA
ATOM     70  O   UNL     1      15.243   1.777   5.507  1.00  0.00    -0.237 OA
ATOM     71  O   UNL     1      14.121   3.801   6.345  1.00  0.00    -0.744 OA
ENDBRANCH  67  68
ENDBRANCH  48  62
BRANCH  49  72
ATOM     72  C   UNL     1       9.379  -4.825  17.729  1.00  0.00    -0.014 A 
ATOM     73  C   UNL     1       9.041  -6.190  17.651  1.00  0.00     0.010 A 
ATOM     74  C   UNL     1       9.034  -4.103  18.884  1.00  0.00     0.010 A 
ATOM     75  C   UNL     1       8.305  -6.800  18.668  1.00  0.00     0.020 A 
ATOM     76  C   UNL     1       8.326  -4.720  19.921  1.00  0.00     0.020 A 
ATOM     77  C   UNL     1       7.936  -6.055  19.790  1.00  0.00     0.054 A 
BRANCH  77  78
ATOM     78  S   UNL     1       6.921  -6.847  21.068  1.00  0.00     0.124 S 
ATOM     79  O   UNL     1       5.595  -6.815  20.457  1.00  0.00    -0.237 OA
ATOM     80  O   UNL     1       7.529  -8.170  21.185  1.00  0.00    -0.237 OA
ATOM     81  O   UNL     1       7.097  -5.979  22.229  1.00  0.00    -0.744 OA
ENDBRANCH  77  78
ENDBRANCH  49  72
BRANCH  61  82
ATOM     82  C   UNL     1      15.579  -1.849  16.360  1.00  0.00    -0.014 A 
ATOM     83  C   UNL     1      15.989  -0.584  16.818  1.00  0.00     0.010 A 
ATOM     84  C   UNL     1      16.442  -2.949  16.509  1.00  0.00     0.010 A 
ATOM     85  C   UNL     1      17.258  -0.411  17.375  1.00  0.00     0.020 A 
ATOM     86  C   UNL     1      17.701  -2.784  17.091  1.00  0.00     0.020 A 
ATOM     87  C   UNL     1      18.111  -1.511  17.495  1.00  0.00     0.054 A 
BRANCH  87  88
ATOM     88  S   UNL     1      19.771  -1.259  18.179  1.00  0.00     0.124 S 
ATOM     89  O   UNL     1      20.480  -0.663  17.051  1.00  0.00    -0.237 OA
ATOM     90  O   UNL     1      19.522  -0.367  19.309  1.00  0.00    -0.237 OA
ATOM     91  O   UNL     1      20.199  -2.608  18.543  1.00  0.00    -0.744 OA
ENDBRANCH  87  88
ENDBRANCH  61  82
ENDBRANCH  35  36
ENDBRANCH  27  30
ENDBRANCH  25  26
ENDBRANCH   1  25
TORSDOF 16
