REMARK SMILES COc1ccc(Nc2c(C(=O)NCCCNC(=O)c3ccc(-c4c5nc(c(-c6ccc(S(=O)(=O)[O-])cc6)c6ccc([nH]6)c(-c6ccc(S(=O)(=O)[O-])cc6)c6nc(c(-c7ccc(S(=O)(=O)[O-])cc7)c7ccc4[nH]7)C=C6)C=C5)cc3)[nH]c(=O)[nH]c2=O)cc1
REMARK SMILES IDX 14 1 13 2 12 3 10 4 11 5 9 7 8 8 83 9 79 10 82 11 84 12
REMARK SMILES IDX 80 13 81 16 7 17 6 19 3 20 4 21 86 22 5 23 85 24 2 25 1 26
REMARK SMILES IDX 15 27 16 28 17 29 18 31 19 32 20 33 78 34 21 35 77 36 22 37
REMARK SMILES IDX 23 38 24 39 71 40 25 41 76 42 70 43 72 44 26 45 75 46 69 47
REMARK SMILES IDX 68 48 27 50 57 51 38 52 56 53 39 54 42 55 55 56 73 57 40 58
REMARK SMILES IDX 41 59 54 61 74 62 43 63 28 64 29 65 37 66 30 67 36 68 31 69
REMARK SMILES IDX 32 70 33 71 34 72 35 73 58 74 59 75 67 76 60 77 66 78 61 79
REMARK SMILES IDX 62 80 63 81 64 82 65 83 44 84 45 85 53 86 46 87 52 88 47 89
REMARK SMILES IDX 48 90 49 91 50 92 51 93
REMARK H PARENT 12 6 79 14 82 15 7 18 16 30 72 49 42 60
REMARK Flexibility Score: inf
ROOT
ATOM      1  C   UNL     1       3.534  -1.117  -5.702  1.00  0.00     0.042 C 
ENDROOT
BRANCH   1   2
ATOM      2  C   UNL     1       3.130   0.204  -6.313  1.00  0.00     0.118 C 
BRANCH   2   3
ATOM      3  N   UNL     1       3.281   0.357  -7.733  1.00  0.00    -0.351 N 
ATOM      4  C   UNL     1       2.506   1.075  -8.585  1.00  0.00     0.270 C 
ATOM      5  O   UNL     1       2.813   1.035  -9.785  1.00  0.00    -0.268 OA
ATOM      6  H   UNL     1       4.042  -0.117  -8.139  1.00  0.00     0.163 HD
BRANCH   4   7
ATOM      7  C   UNL     1       1.226   1.822  -8.219  1.00  0.00     0.137 A 
ATOM      8  C   UNL     1       0.866   2.450  -7.072  1.00  0.00     0.134 A 
ATOM      9  C   UNL     1      -0.462   3.192  -7.114  1.00  0.00     0.278 A 
ATOM     10  N   UNL     1       0.382   1.858  -9.320  1.00  0.00    -0.301 N 
ATOM     11  N   UNL     1      -1.235   3.051  -8.228  1.00  0.00    -0.272 N 
ATOM     12  O   UNL     1      -0.833   3.922  -6.199  1.00  0.00    -0.267 OA
ATOM     13  C   UNL     1      -0.839   2.436  -9.364  1.00  0.00     0.326 A 
ATOM     14  H   UNL     1       0.701   1.422 -10.143  1.00  0.00     0.172 HD
ATOM     15  H   UNL     1      -2.146   3.425  -8.203  1.00  0.00     0.175 HD
ATOM     16  O   UNL     1      -1.536   2.424 -10.379  1.00  0.00    -0.248 OA
BRANCH   8  17
ATOM     17  N   UNL     1       1.555   2.563  -5.872  1.00  0.00    -0.349 N 
ATOM     18  H   UNL     1       2.378   3.103  -5.884  1.00  0.00     0.167 HD
BRANCH  17  19
ATOM     19  C   UNL     1       1.194   1.979  -4.630  1.00  0.00     0.039 A 
ATOM     20  C   UNL     1       0.802   0.421  -2.296  1.00  0.00     0.119 A 
ATOM     21  C   UNL     1      -0.138   0.406  -3.323  1.00  0.00     0.048 A 
ATOM     22  C   UNL     1       1.946   1.203  -2.430  1.00  0.00     0.048 A 
ATOM     23  C   UNL     1       0.054   1.175  -4.476  1.00  0.00     0.030 A 
ATOM     24  C   UNL     1       2.133   1.982  -3.583  1.00  0.00     0.030 A 
BRANCH  20  25
ATOM     25  O   UNL     1       0.536  -0.414  -1.248  1.00  0.00    -0.497 OA
ATOM     26  C   UNL     1       1.013   0.024   0.020  1.00  0.00     0.278 C 
ENDBRANCH  20  25
ENDBRANCH  17  19
ENDBRANCH   8  17
ENDBRANCH   4   7
ENDBRANCH   2   3
ENDBRANCH   1   2
BRANCH   1  27
ATOM     27  C   UNL     1       5.011  -1.439  -5.753  1.00  0.00     0.118 C 
BRANCH  27  28
ATOM     28  N   UNL     1       5.857  -0.500  -5.026  1.00  0.00    -0.352 N 
ATOM     29  C   UNL     1       6.445  -0.515  -3.782  1.00  0.00     0.251 C 
ATOM     30  H   UNL     1       6.049   0.321  -5.535  1.00  0.00     0.163 HD
ATOM     31  O   UNL     1       7.024   0.507  -3.411  1.00  0.00    -0.269 OA
BRANCH  29  32
ATOM     32  C   UNL     1       6.375  -1.682  -2.865  1.00  0.00     0.039 A 
ATOM     33  C   UNL     1       6.467  -1.467  -1.483  1.00  0.00     0.014 A 
ATOM     34  C   UNL     1       6.265  -2.990  -3.324  1.00  0.00     0.014 A 
ATOM     35  C   UNL     1       6.379  -2.544  -0.591  1.00  0.00     0.010 A 
ATOM     36  C   UNL     1       6.007  -4.033  -2.442  1.00  0.00     0.010 A 
ATOM     37  C   UNL     1       6.101  -3.837  -1.062  1.00  0.00    -0.014 A 
BRANCH  37  38
ATOM     38  C   UNL     1       5.969  -5.007  -0.151  1.00  0.00     0.031 A 
ATOM     39  C   UNL     1       6.854  -6.219  -0.343  1.00  0.00     0.074 A 
ATOM     40  C   UNL     1       5.018  -5.012   0.805  1.00  0.00     0.049 A 
ATOM     41  N   UNL     1       6.839  -7.363   0.293  1.00  0.00    -0.248 NA
ATOM     42  C   UNL     1       7.862  -6.155  -1.418  1.00  0.00     0.031 C 
ATOM     43  C   UNL     1       4.059  -3.933   1.058  1.00  0.00     0.029 A 
ATOM     44  N   UNL     1       4.701  -5.960   1.746  1.00  0.00    -0.354 N 
ATOM     45  C   UNL     1       7.806  -8.152  -0.322  1.00  0.00     0.074 A 
ATOM     46  C   UNL     1       8.335  -7.391  -1.429  1.00  0.00     0.031 C 
ATOM     47  C   UNL     1       3.300  -4.256   2.118  1.00  0.00     0.029 A 
ATOM     48  C   UNL     1       3.679  -5.584   2.588  1.00  0.00     0.049 A 
ATOM     49  H   UNL     1       5.161  -6.827   1.813  1.00  0.00     0.167 HD
ATOM     50  C   UNL     1       8.249  -9.385   0.023  1.00  0.00     0.031 A 
ATOM     51  C   UNL     1       3.112  -6.235   3.622  1.00  0.00     0.031 A 
ATOM     52  C   UNL     1       7.751 -10.126   1.150  1.00  0.00     0.049 A 
ATOM     53  C   UNL     1       3.622  -7.603   3.989  1.00  0.00     0.074 A 
ATOM     54  C   UNL     1       8.172 -11.354   1.626  1.00  0.00     0.029 A 
ATOM     55  N   UNL     1       6.729  -9.700   1.983  1.00  0.00    -0.354 N 
ATOM     56  N   UNL     1       4.585  -8.301   3.434  1.00  0.00    -0.248 NA
ATOM     57  C   UNL     1       2.977  -8.265   5.130  1.00  0.00     0.031 C 
ATOM     58  C   UNL     1       7.369 -11.695   2.718  1.00  0.00     0.029 A 
ATOM     59  C   UNL     1       6.490 -10.651   2.960  1.00  0.00     0.049 A 
ATOM     60  H   UNL     1       6.244  -8.848   1.894  1.00  0.00     0.167 HD
ATOM     61  C   UNL     1       4.679  -9.472   4.178  1.00  0.00     0.074 A 
ATOM     62  C   UNL     1       3.692  -9.377   5.234  1.00  0.00     0.031 C 
ATOM     63  C   UNL     1       5.505 -10.533   4.004  1.00  0.00     0.031 A 
BRANCH  50  64
ATOM     64  C   UNL     1       9.341  -9.999  -0.817  1.00  0.00    -0.014 A 
ATOM     65  C   UNL     1      10.643  -9.464  -0.818  1.00  0.00     0.010 A 
ATOM     66  C   UNL     1       9.078 -11.150  -1.581  1.00  0.00     0.010 A 
ATOM     67  C   UNL     1      11.648 -10.040  -1.598  1.00  0.00     0.020 A 
ATOM     68  C   UNL     1      10.090 -11.751  -2.338  1.00  0.00     0.020 A 
ATOM     69  C   UNL     1      11.365 -11.182  -2.353  1.00  0.00     0.054 A 
BRANCH  69  70
ATOM     70  S   UNL     1      12.700 -11.928  -3.327  1.00  0.00     0.124 S 
ATOM     71  O   UNL     1      12.874 -10.950  -4.398  1.00  0.00    -0.237 OA
ATOM     72  O   UNL     1      13.794 -12.004  -2.363  1.00  0.00    -0.237 OA
ATOM     73  O   UNL     1      12.149 -13.215  -3.744  1.00  0.00    -0.744 OA
ENDBRANCH  69  70
ENDBRANCH  50  64
BRANCH  51  74
ATOM     74  C   UNL     1       2.014  -5.596   4.402  1.00  0.00    -0.014 A 
ATOM     75  C   UNL     1       2.223  -5.204   5.736  1.00  0.00     0.010 A 
ATOM     76  C   UNL     1       0.752  -5.382   3.819  1.00  0.00     0.010 A 
ATOM     77  C   UNL     1       1.184  -4.642   6.483  1.00  0.00     0.020 A 
ATOM     78  C   UNL     1      -0.281  -4.789   4.552  1.00  0.00     0.020 A 
ATOM     79  C   UNL     1      -0.062  -4.438   5.885  1.00  0.00     0.054 A 
BRANCH  79  80
ATOM     80  S   UNL     1      -1.387  -3.679   6.865  1.00  0.00     0.124 S 
ATOM     81  O   UNL     1      -1.744  -4.758   7.780  1.00  0.00    -0.237 OA
ATOM     82  O   UNL     1      -0.714  -2.532   7.469  1.00  0.00    -0.237 OA
ATOM     83  O   UNL     1      -2.400  -3.341   5.867  1.00  0.00    -0.744 OA
ENDBRANCH  79  80
ENDBRANCH  51  74
BRANCH  63  84
ATOM     84  C   UNL     1       5.402 -11.660   4.996  1.00  0.00    -0.014 A 
ATOM     85  C   UNL     1       4.288 -12.518   5.013  1.00  0.00     0.010 A 
ATOM     86  C   UNL     1       6.462 -11.894   5.891  1.00  0.00     0.010 A 
ATOM     87  C   UNL     1       4.219 -13.566   5.934  1.00  0.00     0.020 A 
ATOM     88  C   UNL     1       6.412 -12.961   6.791  1.00  0.00     0.020 A 
ATOM     89  C   UNL     1       5.283 -13.780   6.817  1.00  0.00     0.054 A 
BRANCH  89  90
ATOM     90  S   UNL     1       5.185 -15.172   7.975  1.00  0.00     0.124 S 
ATOM     91  O   UNL     1       4.188 -14.700   8.932  1.00  0.00    -0.237 OA
ATOM     92  O   UNL     1       4.760 -16.274   7.115  1.00  0.00    -0.237 OA
ATOM     93  O   UNL     1       6.545 -15.285   8.497  1.00  0.00    -0.744 OA
ENDBRANCH  89  90
ENDBRANCH  63  84
ENDBRANCH  37  38
ENDBRANCH  29  32
ENDBRANCH  27  28
ENDBRANCH   1  27
TORSDOF 16
