REMARK SMILES C[C@H](C(=O)NCCCNC(=O)c1ccc(-c2c3nc(c(-c4ccc(S(=O)(=O)[O-])cc4)c4ccc([nH]4)c(-c4ccc(S(=O)(=O)[O-])cc4)c4nc(c(-c5ccc(S(=O)(=O)[O-])cc5)c5ccc2[nH]5)C=C4)C=C3)cc1)[C@H](C)c1ccoc1
REMARK SMILES IDX 7 1 6 2 5 3 3 4 4 5 2 7 1 8 72 9 73 10 74 11 75 12 78 13
REMARK SMILES IDX 76 14 77 15 8 16 9 17 10 18 11 20 12 21 13 22 71 23 14 24
REMARK SMILES IDX 70 25 15 26 16 27 17 28 64 29 18 30 69 31 63 32 65 33 19 34
REMARK SMILES IDX 68 35 62 36 61 37 20 39 50 40 31 41 49 42 32 43 35 44 48 45
REMARK SMILES IDX 66 46 33 47 34 48 47 50 67 51 36 52 21 53 22 54 30 55 23 56
REMARK SMILES IDX 29 57 24 58 25 59 26 60 27 61 28 62 51 63 52 64 60 65 53 66
REMARK SMILES IDX 59 67 54 68 55 69 56 70 57 71 58 72 37 73 38 74 46 75 39 76
REMARK SMILES IDX 45 77 40 78 41 79 42 80 43 81 44 82
REMARK H PARENT 5 6 9 19 65 38 35 49
REMARK Flexibility Score: inf
ROOT
ATOM      1  C   UNL     1      -0.811  -0.853  -3.618  1.00  0.00     0.042 C 
ENDROOT
BRANCH   1   2
ATOM      2  C   UNL     1      -1.365  -2.017  -2.807  1.00  0.00     0.117 C 
BRANCH   2   3
ATOM      3  N   UNL     1      -0.431  -2.528  -1.816  1.00  0.00    -0.356 N 
ATOM      4  C   UNL     1      -0.403  -2.334  -0.460  1.00  0.00     0.223 C 
ATOM      5  O   UNL     1       0.426  -2.958   0.199  1.00  0.00    -0.275 OA
ATOM      6  H   UNL     1       0.288  -3.098  -2.172  1.00  0.00     0.163 HD
BRANCH   4   7
ATOM      7  C   UNL     1      -1.428  -1.390   0.162  1.00  0.00     0.082 C 
ATOM      8  C   UNL     1      -2.751  -2.145   0.347  1.00  0.00     0.019 C 
BRANCH   7   9
ATOM      9  C   UNL     1      -0.954  -0.638   1.439  1.00  0.00     0.031 C 
ATOM     10  C   UNL     1       0.512  -0.188   1.393  1.00  0.00     0.014 C 
BRANCH   9  11
ATOM     11  C   UNL     1      -1.283  -1.290   2.756  1.00  0.00    -0.006 A 
ATOM     12  C   UNL     1      -0.928  -2.586   3.228  1.00  0.00     0.046 A 
ATOM     13  C   UNL     1      -2.016  -0.722   3.782  1.00  0.00     0.198 A 
ATOM     14  C   UNL     1      -1.496  -2.718   4.474  1.00  0.00     0.195 A 
ATOM     15  O   UNL     1      -2.155  -1.584   4.819  1.00  0.00    -0.472 OA
ENDBRANCH   9  11
ENDBRANCH   7   9
ENDBRANCH   4   7
ENDBRANCH   2   3
ENDBRANCH   1   2
BRANCH   1  16
ATOM     16  C   UNL     1       0.390  -1.208  -4.487  1.00  0.00     0.118 C 
BRANCH  16  17
ATOM     17  N   UNL     1       0.096  -2.247  -5.468  1.00  0.00    -0.352 N 
ATOM     18  C   UNL     1       0.199  -2.228  -6.837  1.00  0.00     0.251 C 
ATOM     19  H   UNL     1      -0.228  -3.095  -5.088  1.00  0.00     0.163 HD
ATOM     20  O   UNL     1      -0.258  -3.162  -7.492  1.00  0.00    -0.269 OA
BRANCH  18  21
ATOM     21  C   UNL     1       0.837  -1.084  -7.523  1.00  0.00     0.039 A 
ATOM     22  C   UNL     1       0.238  -0.558  -8.672  1.00  0.00     0.014 A 
ATOM     23  C   UNL     1       2.029  -0.540  -7.042  1.00  0.00     0.014 A 
ATOM     24  C   UNL     1       0.794   0.563  -9.294  1.00  0.00     0.010 A 
ATOM     25  C   UNL     1       2.540   0.618  -7.617  1.00  0.00     0.010 A 
ATOM     26  C   UNL     1       1.929   1.181  -8.749  1.00  0.00    -0.014 A 
BRANCH  26  27
ATOM     27  C   UNL     1       2.520   2.411  -9.334  1.00  0.00     0.031 A 
ATOM     28  C   UNL     1       3.926   2.378  -9.864  1.00  0.00     0.074 A 
ATOM     29  C   UNL     1       1.846   3.576  -9.277  1.00  0.00     0.049 A 
ATOM     30  N   UNL     1       4.695   3.370 -10.233  1.00  0.00    -0.248 NA
ATOM     31  C   UNL     1       4.562   1.054  -9.957  1.00  0.00     0.031 C 
ATOM     32  C   UNL     1       0.486   3.745  -8.762  1.00  0.00     0.029 A 
ATOM     33  N   UNL     1       2.230   4.846  -9.628  1.00  0.00    -0.354 N 
ATOM     34  C   UNL     1       5.917   2.795 -10.562  1.00  0.00     0.074 A 
ATOM     35  C   UNL     1       5.796   1.374 -10.315  1.00  0.00     0.031 C 
ATOM     36  C   UNL     1       0.149   5.043  -8.832  1.00  0.00     0.029 A 
ATOM     37  C   UNL     1       1.284   5.804  -9.349  1.00  0.00     0.049 A 
ATOM     38  H   UNL     1       3.100   5.052 -10.041  1.00  0.00     0.167 HD
ATOM     39  C   UNL     1       7.036   3.395 -11.035  1.00  0.00     0.031 A 
ATOM     40  C   UNL     1       1.329   7.145  -9.470  1.00  0.00     0.031 A 
ATOM     41  C   UNL     1       7.144   4.805 -11.291  1.00  0.00     0.049 A 
ATOM     42  C   UNL     1       2.576   7.794 -10.003  1.00  0.00     0.074 A 
ATOM     43  C   UNL     1       8.216   5.505 -11.817  1.00  0.00     0.029 A 
ATOM     44  N   UNL     1       6.143   5.732 -11.041  1.00  0.00    -0.354 N 
ATOM     45  N   UNL     1       3.710   7.232 -10.348  1.00  0.00    -0.248 NA
ATOM     46  C   UNL     1       2.548   9.253 -10.174  1.00  0.00     0.031 C 
ATOM     47  C   UNL     1       7.877   6.862 -11.847  1.00  0.00     0.029 A 
ATOM     48  C   UNL     1       6.575   7.000 -11.391  1.00  0.00     0.049 A 
ATOM     49  H   UNL     1       5.256   5.520 -10.671  1.00  0.00     0.167 HD
ATOM     50  C   UNL     1       4.521   8.265 -10.807  1.00  0.00     0.074 A 
ATOM     51  C   UNL     1       3.747   9.485 -10.695  1.00  0.00     0.031 C 
ATOM     52  C   UNL     1       5.787   8.204 -11.284  1.00  0.00     0.031 A 
BRANCH  39  53
ATOM     53  C   UNL     1       8.235   2.516 -11.278  1.00  0.00    -0.014 A 
ATOM     54  C   UNL     1       8.244   1.563 -12.313  1.00  0.00     0.010 A 
ATOM     55  C   UNL     1       9.367   2.638 -10.451  1.00  0.00     0.010 A 
ATOM     56  C   UNL     1       9.332   0.700 -12.471  1.00  0.00     0.020 A 
ATOM     57  C   UNL     1      10.470   1.798 -10.626  1.00  0.00     0.020 A 
ATOM     58  C   UNL     1      10.433   0.815 -11.617  1.00  0.00     0.054 A 
BRANCH  58  59
ATOM     59  S   UNL     1      11.820  -0.335 -11.824  1.00  0.00     0.124 S 
ATOM     60  O   UNL     1      11.285  -1.557 -11.229  1.00  0.00    -0.237 OA
ATOM     61  O   UNL     1      11.999  -0.368 -13.273  1.00  0.00    -0.237 OA
ATOM     62  O   UNL     1      12.906   0.297 -11.079  1.00  0.00    -0.744 OA
ENDBRANCH  58  59
ENDBRANCH  39  53
BRANCH  40  63
ATOM     63  C   UNL     1       0.141   7.952  -9.086  1.00  0.00    -0.014 A 
ATOM     64  C   UNL     1      -0.686   8.513 -10.074  1.00  0.00     0.010 A 
ATOM     65  C   UNL     1      -0.208   8.108  -7.731  1.00  0.00     0.010 A 
ATOM     66  C   UNL     1      -1.843   9.212  -9.716  1.00  0.00     0.020 A 
ATOM     67  C   UNL     1      -1.376   8.786  -7.371  1.00  0.00     0.020 A 
ATOM     68  C   UNL     1      -2.185   9.336  -8.366  1.00  0.00     0.054 A 
BRANCH  68  69
ATOM     69  S   UNL     1      -3.741  10.162  -7.931  1.00  0.00     0.124 S 
ATOM     70  O   UNL     1      -3.416  11.566  -8.164  1.00  0.00    -0.237 OA
ATOM     71  O   UNL     1      -4.688   9.567  -8.871  1.00  0.00    -0.237 OA
ATOM     72  O   UNL     1      -3.947   9.789  -6.534  1.00  0.00    -0.744 OA
ENDBRANCH  68  69
ENDBRANCH  40  63
BRANCH  52  73
ATOM     73  C   UNL     1       6.414   9.480 -11.777  1.00  0.00    -0.014 A 
ATOM     74  C   UNL     1       6.894  10.451 -10.882  1.00  0.00     0.010 A 
ATOM     75  C   UNL     1       6.613   9.658 -13.159  1.00  0.00     0.010 A 
ATOM     76  C   UNL     1       7.559  11.584 -11.364  1.00  0.00     0.020 A 
ATOM     77  C   UNL     1       7.296  10.776 -13.641  1.00  0.00     0.020 A 
ATOM     78  C   UNL     1       7.760  11.736 -12.740  1.00  0.00     0.054 A 
BRANCH  78  79
ATOM     79  S   UNL     1       8.698  13.171 -13.334  1.00  0.00     0.124 S 
ATOM     80  O   UNL     1       7.731  14.253 -13.177  1.00  0.00    -0.237 OA
ATOM     81  O   UNL     1       9.838  13.209 -12.421  1.00  0.00    -0.237 OA
ATOM     82  O   UNL     1       9.026  12.822 -14.714  1.00  0.00    -0.744 OA
ENDBRANCH  78  79
ENDBRANCH  52  73
ENDBRANCH  26  27
ENDBRANCH  18  21
ENDBRANCH  16  17
ENDBRANCH   1  16
TORSDOF 15
