REMARK SMILES O=C(NCCCNC(=O)c1nnn(Cc2ccccc2Cl)c1-c1ccc(Cl)cc1)c1ccc(-c2c3nc(c(-c4ccc(S(=O)(=O)[O-])cc4)c4ccc([nH]4)c(-c4ccc(S(=O)(=O)[O-])cc4)c4nc(c(-c5ccc(S(=O)(=O)[O-])cc5)c5ccc2[nH]5)C=C4)C=C3)cc1
REMARK SMILES IDX 4 1 3 2 1 3 2 4 30 6 31 7 89 8 32 9 88 10 33 11 34 12 35 13
REMARK SMILES IDX 82 14 36 15 87 16 81 17 83 18 37 19 86 20 80 21 79 22 38 24
REMARK SMILES IDX 68 25 49 26 67 27 50 28 53 29 66 30 84 31 51 32 52 33 65 35
REMARK SMILES IDX 85 36 54 37 39 38 40 39 48 40 41 41 47 42 42 43 43 44 44 45
REMARK SMILES IDX 45 46 46 47 69 48 70 49 78 50 71 51 77 52 72 53 73 54 74 55
REMARK SMILES IDX 75 56 76 57 55 58 56 59 64 60 57 61 63 62 58 63 59 64 60 65
REMARK SMILES IDX 61 66 62 67 5 68 6 69 7 70 8 71 9 73 10 74 11 75 22 76 12 77
REMARK SMILES IDX 13 78 23 79 24 80 29 81 25 82 28 83 26 84 27 85 14 86 15 87
REMARK SMILES IDX 16 88 20 89 17 90 19 91 21 92 18 93
REMARK H PARENT 3 5 83 23 53 34 7 72
REMARK Flexibility Score: inf
ROOT
ATOM      1  C   UNL     1       4.634  -0.266   0.802  1.00  0.00     0.118 C 
ENDROOT
BRANCH   1   2
ATOM      2  N   UNL     1       3.200  -0.432   0.674  1.00  0.00    -0.352 N 
ATOM      3  O   UNL     1       1.138  -0.400  -0.081  1.00  0.00    -0.269 OA
ATOM      4  C   UNL     1       2.197   0.229   0.019  1.00  0.00     0.251 C 
ATOM      5  H   UNL     1       2.867  -1.207   1.181  1.00  0.00     0.163 HD
BRANCH   4   6
ATOM      6  C   UNL     1       2.243   1.630  -0.491  1.00  0.00     0.039 A 
ATOM      7  C   UNL     1       3.371   2.442  -0.605  1.00  0.00     0.014 A 
ATOM      8  C   UNL     1       0.992   2.179  -0.849  1.00  0.00     0.014 A 
ATOM      9  C   UNL     1       3.234   3.785  -0.988  1.00  0.00     0.010 A 
ATOM     10  C   UNL     1       0.851   3.514  -1.224  1.00  0.00     0.010 A 
ATOM     11  C   UNL     1       1.971   4.333  -1.265  1.00  0.00    -0.014 A 
BRANCH  11  12
ATOM     12  C   UNL     1       1.875   5.691  -1.816  1.00  0.00     0.031 A 
ATOM     13  C   UNL     1       2.464   5.812  -3.179  1.00  0.00     0.074 A 
ATOM     14  C   UNL     1       1.212   6.740  -1.277  1.00  0.00     0.049 A 
ATOM     15  N   UNL     1       3.574   6.388  -3.498  1.00  0.00    -0.248 NA
ATOM     16  C   UNL     1       1.827   5.088  -4.291  1.00  0.00     0.031 C 
ATOM     17  C   UNL     1       0.337   6.756  -0.103  1.00  0.00     0.029 A 
ATOM     18  N   UNL     1       1.123   8.030  -1.731  1.00  0.00    -0.354 N 
ATOM     19  C   UNL     1       3.673   6.297  -4.883  1.00  0.00     0.074 A 
ATOM     20  C   UNL     1       2.669   5.347  -5.294  1.00  0.00     0.031 C 
ATOM     21  C   UNL     1      -0.353   7.924  -0.067  1.00  0.00     0.029 A 
ATOM     22  C   UNL     1       0.128   8.799  -1.125  1.00  0.00     0.049 A 
ATOM     23  H   UNL     1       1.716   8.387  -2.431  1.00  0.00     0.167 HD
ATOM     24  C   UNL     1       4.418   7.181  -5.602  1.00  0.00     0.031 A 
ATOM     25  C   UNL     1      -0.281  10.051  -1.475  1.00  0.00     0.031 A 
ATOM     26  C   UNL     1       5.273   7.969  -4.752  1.00  0.00     0.049 A 
ATOM     27  C   UNL     1       0.823  10.674  -2.241  1.00  0.00     0.074 A 
ATOM     28  C   UNL     1       6.292   7.697  -3.862  1.00  0.00     0.029 A 
ATOM     29  N   UNL     1       4.848   9.245  -4.469  1.00  0.00    -0.354 N 
ATOM     30  N   UNL     1       1.967  10.997  -1.712  1.00  0.00    -0.248 NA
ATOM     31  C   UNL     1       0.816  10.538  -3.687  1.00  0.00     0.031 C 
ATOM     32  C   UNL     1       6.098   8.619  -2.794  1.00  0.00     0.029 A 
ATOM     33  C   UNL     1       5.029   9.452  -3.128  1.00  0.00     0.049 A 
ATOM     34  H   UNL     1       4.481   9.893  -5.113  1.00  0.00     0.167 HD
ATOM     35  C   UNL     1       2.903  10.655  -2.674  1.00  0.00     0.074 A 
ATOM     36  C   UNL     1       2.132  10.466  -3.902  1.00  0.00     0.031 C 
ATOM     37  C   UNL     1       4.170  10.290  -2.321  1.00  0.00     0.031 A 
BRANCH  24  38
ATOM     38  C   UNL     1       4.088   7.629  -7.005  1.00  0.00    -0.014 A 
ATOM     39  C   UNL     1       4.970   8.522  -7.652  1.00  0.00     0.010 A 
ATOM     40  C   UNL     1       2.822   7.441  -7.594  1.00  0.00     0.010 A 
ATOM     41  C   UNL     1       4.576   9.242  -8.786  1.00  0.00     0.020 A 
ATOM     42  C   UNL     1       2.435   8.123  -8.751  1.00  0.00     0.020 A 
ATOM     43  C   UNL     1       3.305   9.043  -9.323  1.00  0.00     0.054 A 
BRANCH  43  44
ATOM     44  S   UNL     1       2.784  10.033 -10.744  1.00  0.00     0.124 S 
ATOM     45  O   UNL     1       2.745  11.377 -10.178  1.00  0.00    -0.237 OA
ATOM     46  O   UNL     1       3.856   9.779 -11.704  1.00  0.00    -0.237 OA
ATOM     47  O   UNL     1       1.487   9.463 -11.101  1.00  0.00    -0.744 OA
ENDBRANCH  43  44
ENDBRANCH  24  38
BRANCH  25  48
ATOM     48  C   UNL     1      -1.641  10.663  -1.449  1.00  0.00    -0.014 A 
ATOM     49  C   UNL     1      -1.829  12.046  -1.668  1.00  0.00     0.010 A 
ATOM     50  C   UNL     1      -2.777   9.836  -1.533  1.00  0.00     0.010 A 
ATOM     51  C   UNL     1      -3.087  12.566  -2.031  1.00  0.00     0.020 A 
ATOM     52  C   UNL     1      -4.034  10.348  -1.891  1.00  0.00     0.020 A 
ATOM     53  C   UNL     1      -4.179  11.706  -2.165  1.00  0.00     0.054 A 
BRANCH  53  54
ATOM     54  S   UNL     1      -5.752  12.341  -2.829  1.00  0.00     0.124 S 
ATOM     55  O   UNL     1      -6.247  13.164  -1.730  1.00  0.00    -0.237 OA
ATOM     56  O   UNL     1      -5.327  13.069  -4.021  1.00  0.00    -0.237 OA
ATOM     57  O   UNL     1      -6.527  11.129  -3.094  1.00  0.00    -0.744 OA
ENDBRANCH  53  54
ENDBRANCH  25  48
BRANCH  37  58
ATOM     58  C   UNL     1       4.651  10.594  -0.922  1.00  0.00    -0.014 A 
ATOM     59  C   UNL     1       4.042  10.119   0.255  1.00  0.00     0.010 A 
ATOM     60  C   UNL     1       5.865  11.295  -0.813  1.00  0.00     0.010 A 
ATOM     61  C   UNL     1       4.621  10.369   1.510  1.00  0.00     0.020 A 
ATOM     62  C   UNL     1       6.458  11.528   0.428  1.00  0.00     0.020 A 
ATOM     63  C   UNL     1       5.827  11.075   1.586  1.00  0.00     0.054 A 
BRANCH  63  64
ATOM     64  S   UNL     1       6.591  11.372   3.204  1.00  0.00     0.124 S 
ATOM     65  O   UNL     1       5.658  12.305   3.828  1.00  0.00    -0.237 OA
ATOM     66  O   UNL     1       6.632  10.035   3.793  1.00  0.00    -0.237 OA
ATOM     67  O   UNL     1       7.900  11.934   2.873  1.00  0.00    -0.744 OA
ENDBRANCH  63  64
ENDBRANCH  37  58
ENDBRANCH  11  12
ENDBRANCH   4   6
ENDBRANCH   1   2
BRANCH   1  68
ATOM     68  C   UNL     1       5.088   0.608   1.964  1.00  0.00     0.042 C 
BRANCH  68  69
ATOM     69  C   UNL     1       4.596   0.185   3.344  1.00  0.00     0.118 C 
BRANCH  69  70
ATOM     70  N   UNL     1       5.140  -1.071   3.829  1.00  0.00    -0.351 N 
ATOM     71  C   UNL     1       5.813  -1.337   5.009  1.00  0.00     0.274 C 
ATOM     72  H   UNL     1       5.013  -1.844   3.233  1.00  0.00     0.163 HD
ATOM     73  O   UNL     1       6.196  -2.483   5.211  1.00  0.00    -0.267 OA
BRANCH  71  74
ATOM     74  C   UNL     1       6.066  -0.253   5.951  1.00  0.00     0.178 A 
ATOM     75  N   UNL     1       7.339   0.049   6.356  1.00  0.00    -0.124 NA
ATOM     76  C   UNL     1       5.165   0.601   6.585  1.00  0.00     0.102 A 
ATOM     77  N   UNL     1       7.283   1.115   7.134  1.00  0.00    -0.066 NA
ATOM     78  N   UNL     1       5.991   1.476   7.264  1.00  0.00    -0.239 N 
BRANCH  76  79
ATOM     79  C   UNL     1       3.708   0.633   6.542  1.00  0.00     0.002 A 
ATOM     80  C   UNL     1       2.975  -0.474   6.988  1.00  0.00     0.012 A 
ATOM     81  C   UNL     1       3.028   1.711   5.957  1.00  0.00     0.012 A 
ATOM     82  C   UNL     1       1.585  -0.505   6.847  1.00  0.00     0.021 A 
ATOM     83  C   UNL     1       1.639   1.677   5.809  1.00  0.00     0.021 A 
ATOM     84  C   UNL     1       0.924   0.568   6.253  1.00  0.00     0.041 A 
ATOM     85  Cl  UNL     1      -0.783   0.514   6.052  1.00  0.00    -0.084 Cl
ENDBRANCH  76  79
BRANCH  78  86
ATOM     86  C   UNL     1       5.669   2.727   7.938  1.00  0.00     0.183 C 
BRANCH  86  87
ATOM     87  C   UNL     1       5.871   2.666   9.433  1.00  0.00    -0.008 A 
ATOM     88  C   UNL     1       4.771   2.361  10.258  1.00  0.00     0.007 A 
ATOM     89  C   UNL     1       7.111   2.917  10.044  1.00  0.00     0.046 A 
ATOM     90  C   UNL     1       4.909   2.306  11.647  1.00  0.00     0.000 A 
ATOM     91  C   UNL     1       7.248   2.839  11.434  1.00  0.00     0.021 A 
ATOM     92  Cl  UNL     1       8.512   3.381   9.147  1.00  0.00    -0.084 Cl
ATOM     93  C   UNL     1       6.149   2.536  12.234  1.00  0.00     0.002 A 
ENDBRANCH  86  87
ENDBRANCH  78  86
ENDBRANCH  71  74
ENDBRANCH  69  70
ENDBRANCH  68  69
ENDBRANCH   1  68
TORSDOF 16
