REMARK SMILES O=C(NCCCNC(=O)c1cnc2c(C(F)(F)F)cccc2c1NCc1cccnc1)c1ccc(-c2c3nc(c(-c4ccc(S(=O)(=O)[O-])cc4)c4ccc([nH]4)c(-c4ccc(S(=O)(=O)[O-])cc4)c4nc(c(-c5ccc(S(=O)(=O)[O-])cc5)c5ccc2[nH]5)C=C4)C=C3)cc1
REMARK SMILES IDX 5 1 4 2 3 3 1 4 2 5 32 7 33 8 91 9 34 10 90 11 35 12 36 13
REMARK SMILES IDX 37 14 84 15 38 16 89 17 83 18 85 19 39 20 88 21 82 22 81 23
REMARK SMILES IDX 40 25 70 26 51 27 69 28 52 29 55 30 68 31 86 32 53 33 54 34
REMARK SMILES IDX 67 36 87 37 56 38 41 39 42 40 50 41 43 42 49 43 44 44 45 45
REMARK SMILES IDX 46 46 47 47 48 48 71 49 72 50 80 51 73 52 79 53 74 54 75 55
REMARK SMILES IDX 76 56 77 57 78 58 57 59 58 60 66 61 59 62 65 63 60 64 61 65
REMARK SMILES IDX 62 66 63 67 64 68 6 69 7 70 8 71 9 73 10 74 11 75 23 76
REMARK SMILES IDX 12 77 22 78 13 79 21 80 14 81 20 82 19 83 24 84 25 86 26 87
REMARK SMILES IDX 27 88 31 89 28 90 30 91 29 92 15 93 16 94 17 95 18 96
REMARK H PARENT 3 6 85 24 55 35 7 72 24 85
REMARK Flexibility Score: inf
ROOT
ATOM      1  C   UNL     1       5.039   2.295   0.611  1.00  0.00     0.042 C 
ENDROOT
BRANCH   1   2
ATOM      2  C   UNL     1       4.576   0.912   1.035  1.00  0.00     0.118 C 
BRANCH   2   3
ATOM      3  N   UNL     1       3.137   0.726   0.891  1.00  0.00    -0.352 N 
ATOM      4  O   UNL     1       1.211   0.046  -0.051  1.00  0.00    -0.269 OA
ATOM      5  C   UNL     1       2.428  -0.078   0.030  1.00  0.00     0.251 C 
ATOM      6  H   UNL     1       2.586   1.261   1.507  1.00  0.00     0.163 HD
BRANCH   5   7
ATOM      7  C   UNL     1       3.133  -1.077  -0.803  1.00  0.00     0.039 A 
ATOM      8  C   UNL     1       4.168  -1.845  -0.267  1.00  0.00     0.014 A 
ATOM      9  C   UNL     1       2.729  -1.278  -2.127  1.00  0.00     0.014 A 
ATOM     10  C   UNL     1       4.896  -2.697  -1.084  1.00  0.00     0.010 A 
ATOM     11  C   UNL     1       3.392  -2.219  -2.920  1.00  0.00     0.010 A 
ATOM     12  C   UNL     1       4.489  -2.927  -2.407  1.00  0.00    -0.014 A 
BRANCH  12  13
ATOM     13  C   UNL     1       5.135  -4.021  -3.173  1.00  0.00     0.031 A 
ATOM     14  C   UNL     1       5.920  -3.752  -4.424  1.00  0.00     0.074 A 
ATOM     15  C   UNL     1       4.998  -5.279  -2.705  1.00  0.00     0.049 A 
ATOM     16  N   UNL     1       6.533  -4.609  -5.200  1.00  0.00    -0.248 NA
ATOM     17  C   UNL     1       6.032  -2.354  -4.869  1.00  0.00     0.031 C 
ATOM     18  C   UNL     1       4.243  -5.653  -1.502  1.00  0.00     0.029 A 
ATOM     19  N   UNL     1       5.487  -6.473  -3.167  1.00  0.00    -0.354 N 
ATOM     20  C   UNL     1       7.081  -3.863  -6.237  1.00  0.00     0.074 A 
ATOM     21  C   UNL     1       6.723  -2.481  -5.997  1.00  0.00     0.031 C 
ATOM     22  C   UNL     1       4.350  -6.974  -1.305  1.00  0.00     0.029 A 
ATOM     23  C   UNL     1       5.107  -7.553  -2.405  1.00  0.00     0.049 A 
ATOM     24  H   UNL     1       6.055  -6.550  -3.968  1.00  0.00     0.167 HD
ATOM     25  C   UNL     1       7.809  -4.300  -7.292  1.00  0.00     0.031 A 
ATOM     26  C   UNL     1       5.304  -8.871  -2.590  1.00  0.00     0.031 A 
ATOM     27  C   UNL     1       8.162  -5.680  -7.511  1.00  0.00     0.049 A 
ATOM     28  C   UNL     1       6.078  -9.321  -3.794  1.00  0.00     0.074 A 
ATOM     29  C   UNL     1       8.956  -6.211  -8.515  1.00  0.00     0.029 A 
ATOM     30  N   UNL     1       7.734  -6.747  -6.736  1.00  0.00    -0.354 N 
ATOM     31  N   UNL     1       6.659  -8.591  -4.716  1.00  0.00    -0.248 NA
ATOM     32  C   UNL     1       6.218 -10.769  -3.989  1.00  0.00     0.031 C 
ATOM     33  C   UNL     1       8.944  -7.603  -8.391  1.00  0.00     0.029 A 
ATOM     34  C   UNL     1       8.201  -7.937  -7.270  1.00  0.00     0.049 A 
ATOM     35  H   UNL     1       7.179  -6.670  -5.926  1.00  0.00     0.167 HD
ATOM     36  C   UNL     1       7.239  -9.493  -5.597  1.00  0.00     0.074 A 
ATOM     37  C   UNL     1       6.973 -10.819  -5.078  1.00  0.00     0.031 C 
ATOM     38  C   UNL     1       7.922  -9.248  -6.742  1.00  0.00     0.031 A 
BRANCH  25  39
ATOM     39  C   UNL     1       8.261  -3.298  -8.322  1.00  0.00    -0.014 A 
ATOM     40  C   UNL     1       9.311  -2.402  -8.062  1.00  0.00     0.010 A 
ATOM     41  C   UNL     1       7.708  -3.347  -9.617  1.00  0.00     0.010 A 
ATOM     42  C   UNL     1       9.798  -1.571  -9.077  1.00  0.00     0.020 A 
ATOM     43  C   UNL     1       8.207  -2.534 -10.639  1.00  0.00     0.020 A 
ATOM     44  C   UNL     1       9.249  -1.648 -10.361  1.00  0.00     0.054 A 
BRANCH  44  45
ATOM     45  S   UNL     1       9.957  -0.615 -11.674  1.00  0.00     0.124 S 
ATOM     46  O   UNL     1       9.528   0.722 -11.272  1.00  0.00    -0.237 OA
ATOM     47  O   UNL     1      11.389  -0.878 -11.548  1.00  0.00    -0.237 OA
ATOM     48  O   UNL     1       9.337  -1.127 -12.894  1.00  0.00    -0.744 OA
ENDBRANCH  44  45
ENDBRANCH  25  39
BRANCH  26  49
ATOM     49  C   UNL     1       4.696  -9.855  -1.653  1.00  0.00    -0.014 A 
ATOM     50  C   UNL     1       5.499 -10.687  -0.855  1.00  0.00     0.010 A 
ATOM     51  C   UNL     1       3.295  -9.975  -1.573  1.00  0.00     0.010 A 
ATOM     52  C   UNL     1       4.913 -11.648  -0.026  1.00  0.00     0.020 A 
ATOM     53  C   UNL     1       2.705 -10.907  -0.717  1.00  0.00     0.020 A 
ATOM     54  C   UNL     1       3.520 -11.754   0.034  1.00  0.00     0.054 A 
BRANCH  54  55
ATOM     55  S   UNL     1       2.781 -13.008   1.116  1.00  0.00     0.124 S 
ATOM     56  O   UNL     1       3.056 -14.239   0.382  1.00  0.00    -0.237 OA
ATOM     57  O   UNL     1       3.526 -12.831   2.360  1.00  0.00    -0.237 OA
ATOM     58  O   UNL     1       1.374 -12.617   1.180  1.00  0.00    -0.744 OA
ENDBRANCH  54  55
ENDBRANCH  26  49
BRANCH  38  59
ATOM     59  C   UNL     1       8.435 -10.438  -7.505  1.00  0.00    -0.014 A 
ATOM     60  C   UNL     1       7.553 -11.282  -8.204  1.00  0.00     0.010 A 
ATOM     61  C   UNL     1       9.818 -10.684  -7.568  1.00  0.00     0.010 A 
ATOM     62  C   UNL     1       8.045 -12.366  -8.934  1.00  0.00     0.020 A 
ATOM     63  C   UNL     1      10.316 -11.748  -8.324  1.00  0.00     0.020 A 
ATOM     64  C   UNL     1       9.424 -12.589  -8.994  1.00  0.00     0.054 A 
BRANCH  64  65
ATOM     65  S   UNL     1      10.039 -13.967  -9.999  1.00  0.00     0.124 S 
ATOM     66  O   UNL     1       9.636 -15.125  -9.207  1.00  0.00    -0.237 OA
ATOM     67  O   UNL     1       9.323 -13.787 -11.259  1.00  0.00    -0.237 OA
ATOM     68  O   UNL     1      11.479 -13.731 -10.068  1.00  0.00    -0.744 OA
ENDBRANCH  64  65
ENDBRANCH  38  59
ENDBRANCH  12  13
ENDBRANCH   5   7
ENDBRANCH   2   3
ENDBRANCH   1   2
BRANCH   1  69
ATOM     69  C   UNL     1       4.445   3.424   1.433  1.00  0.00     0.118 C 
BRANCH  69  70
ATOM     70  N   UNL     1       4.744   3.327   2.858  1.00  0.00    -0.352 N 
ATOM     71  C   UNL     1       5.390   4.229   3.672  1.00  0.00     0.254 C 
ATOM     72  H   UNL     1       4.442   2.500   3.298  1.00  0.00     0.163 HD
ATOM     73  O   UNL     1       5.385   4.079   4.889  1.00  0.00    -0.269 OA
BRANCH  71  74
ATOM     74  C   UNL     1       5.993   5.425   3.070  1.00  0.00     0.081 A 
ATOM     75  C   UNL     1       5.050   6.317   2.580  1.00  0.00     0.127 A 
ATOM     76  C   UNL     1       7.361   5.721   2.936  1.00  0.00     0.058 A 
ATOM     77  N   UNL     1       5.338   7.404   1.847  1.00  0.00    -0.255 NA
ATOM     78  C   UNL     1       7.680   6.916   2.175  1.00  0.00     0.025 A 
ATOM     79  C   UNL     1       6.620   7.690   1.620  1.00  0.00     0.085 A 
ATOM     80  C   UNL     1       9.001   7.379   1.923  1.00  0.00     0.012 A 
ATOM     81  C   UNL     1       6.893   8.786   0.804  1.00  0.00     0.082 A 
ATOM     82  C   UNL     1       9.264   8.510   1.152  1.00  0.00     0.001 A 
ATOM     83  C   UNL     1       8.213   9.201   0.578  1.00  0.00     0.015 A 
BRANCH  76  84
ATOM     84  N   UNL     1       8.420   4.944   3.401  1.00  0.00    -0.380 N 
ATOM     85  H   UNL     1       9.307   5.258   3.112  1.00  0.00     0.160 HD
BRANCH  84  86
ATOM     86  C   UNL     1       8.453   3.754   4.237  1.00  0.00     0.150 C 
BRANCH  86  87
ATOM     87  C   UNL     1       9.072   2.578   3.526  1.00  0.00    -0.011 A 
ATOM     88  C   UNL     1      10.188   2.681   2.688  1.00  0.00     0.009 A 
ATOM     89  C   UNL     1       8.594   1.294   3.780  1.00  0.00     0.116 A 
ATOM     90  C   UNL     1      10.753   1.532   2.136  1.00  0.00     0.020 A 
ATOM     91  N   UNL     1       9.122   0.163   3.259  1.00  0.00    -0.264 NA
ATOM     92  C   UNL     1      10.190   0.307   2.448  1.00  0.00     0.111 A 
ENDBRANCH  86  87
ENDBRANCH  84  86
ENDBRANCH  76  84
BRANCH  81  93
ATOM     93  C   UNL     1       5.753   9.499   0.123  1.00  0.00     0.418 C 
ATOM     94  F   UNL     1       5.070   8.710  -0.755  1.00  0.00    -0.166 F 
ATOM     95  F   UNL     1       4.831  10.024   0.978  1.00  0.00    -0.166 F 
ATOM     96  F   UNL     1       6.178  10.565  -0.625  1.00  0.00    -0.166 F 
ENDBRANCH  81  93
ENDBRANCH  71  74
ENDBRANCH  69  70
ENDBRANCH   1  69
TORSDOF 17
