REMARK SMILES CO[C@H]1C[C@@H](C(=O)NCCCNC(=O)c2ccc(-c3c4nc(c(-c5ccc(S(=O)(=O)[O-])cc5)c5ccc([nH]5)c(-c5ccc(S(=O)(=O)[O-])cc5)c5nc(c(-c6ccc(S(=O)(=O)[O-])cc6)c6ccc3[nH]6)C=C5)C=C4)cc2)N(C(=O)Nc2cc(C)cc(F)c2)C1
REMARK SMILES IDX 10 1 9 2 8 3 6 4 7 5 5 7 3 8 4 9 87 10 75 11 2 12 1 13 76 14
REMARK SMILES IDX 77 15 78 16 79 18 80 19 86 20 81 21 84 22 82 23 83 24 85 25
REMARK SMILES IDX 11 26 12 27 13 28 14 30 15 31 16 32 74 33 17 34 73 35 18 36
REMARK SMILES IDX 19 37 20 38 67 39 21 40 72 41 66 42 68 43 22 44 71 45 65 46
REMARK SMILES IDX 64 47 23 49 53 50 34 51 52 52 35 53 38 54 51 55 69 56 36 57
REMARK SMILES IDX 37 58 50 60 70 61 39 62 24 63 25 64 33 65 26 66 32 67 27 68
REMARK SMILES IDX 28 69 29 70 30 71 31 72 54 73 55 74 63 75 56 76 62 77 57 78
REMARK SMILES IDX 58 79 59 80 60 81 61 82 40 83 41 84 49 85 42 86 48 87 43 88
REMARK SMILES IDX 44 89 45 90 46 91 47 92
REMARK H PARENT 8 6 78 17 12 29 68 48 38 59
REMARK Flexibility Score: inf
ROOT
ATOM      1  C   UNL     1       1.039   6.810   2.379  1.00  0.00     0.042 C 
ENDROOT
BRANCH   1   2
ATOM      2  C   UNL     1       0.458   5.508   1.834  1.00  0.00     0.117 C 
BRANCH   2   3
ATOM      3  N   UNL     1      -0.551   5.687   0.804  1.00  0.00    -0.354 N 
ATOM      4  C   UNL     1      -0.709   5.076  -0.407  1.00  0.00     0.242 C 
ATOM      5  O   UNL     1      -1.805   5.214  -0.966  1.00  0.00    -0.273 OA
ATOM      6  H   UNL     1      -1.236   6.362   1.014  1.00  0.00     0.163 HD
BRANCH   4   7
ATOM      7  C   UNL     1       0.311   4.075  -0.972  1.00  0.00     0.179 C 
ATOM      8  C   UNL     1       1.405   2.070  -0.092  1.00  0.00     0.140 C 
ATOM      9  C   UNL     1       0.085   2.811  -0.127  1.00  0.00     0.069 C 
ATOM     10  C   UNL     1       2.449   3.150  -0.376  1.00  0.00     0.154 C 
ATOM     11  N   UNL     1       1.763   4.313  -0.943  1.00  0.00    -0.310 N 
BRANCH   8  12
ATOM     12  O   UNL     1       1.655   1.500   1.194  1.00  0.00    -0.380 OA
ATOM     13  C   UNL     1       0.773   0.442   1.542  1.00  0.00     0.195 C 
ENDBRANCH   8  12
BRANCH  11  14
ATOM     14  C   UNL     1       2.544   5.125  -1.735  1.00  0.00     0.322 C 
ATOM     15  O   UNL     1       3.767   4.955  -1.802  1.00  0.00    -0.248 OA
ATOM     16  N   UNL     1       2.019   5.993  -2.632  1.00  0.00    -0.308 N 
ATOM     17  H   UNL     1       2.465   5.958  -3.509  1.00  0.00     0.171 HD
BRANCH  16  18
ATOM     18  C   UNL     1       0.981   6.928  -2.583  1.00  0.00     0.046 A 
ATOM     19  C   UNL     1       0.453   7.394  -3.794  1.00  0.00     0.029 A 
ATOM     20  C   UNL     1       0.529   7.486  -1.400  1.00  0.00     0.065 A 
ATOM     21  C   UNL     1      -0.641   8.276  -3.811  1.00  0.00    -0.046 A 
ATOM     22  C   UNL     1      -0.572   8.337  -1.411  1.00  0.00     0.125 A 
ATOM     23  C   UNL     1      -1.196   8.787  -5.104  1.00  0.00     0.044 C 
ATOM     24  C   UNL     1      -1.174   8.718  -2.599  1.00  0.00     0.042 A 
ATOM     25  F   UNL     1      -1.075   8.787  -0.255  1.00  0.00    -0.207 F 
ENDBRANCH  16  18
ENDBRANCH  11  14
ENDBRANCH   4   7
ENDBRANCH   2   3
ENDBRANCH   1   2
BRANCH   1  26
ATOM     26  C   UNL     1       0.036   7.900   2.733  1.00  0.00     0.118 C 
BRANCH  26  27
ATOM     27  N   UNL     1      -1.050   7.454   3.588  1.00  0.00    -0.352 N 
ATOM     28  C   UNL     1      -1.593   8.066   4.690  1.00  0.00     0.251 C 
ATOM     29  H   UNL     1      -1.453   6.590   3.343  1.00  0.00     0.163 HD
ATOM     30  O   UNL     1      -2.473   7.494   5.330  1.00  0.00    -0.269 OA
BRANCH  28  31
ATOM     31  C   UNL     1      -1.092   9.385   5.132  1.00  0.00     0.039 A 
ATOM     32  C   UNL     1      -0.800   9.563   6.486  1.00  0.00     0.014 A 
ATOM     33  C   UNL     1      -0.906  10.437   4.231  1.00  0.00     0.014 A 
ATOM     34  C   UNL     1      -0.273  10.777   6.929  1.00  0.00     0.010 A 
ATOM     35  C   UNL     1      -0.310  11.621   4.661  1.00  0.00     0.010 A 
ATOM     36  C   UNL     1       0.004  11.809   6.017  1.00  0.00    -0.014 A 
BRANCH  36  37
ATOM     37  C   UNL     1       0.596  13.094   6.474  1.00  0.00     0.031 A 
ATOM     38  C   UNL     1      -0.182  14.376   6.335  1.00  0.00     0.074 A 
ATOM     39  C   UNL     1       1.845  13.117   6.981  1.00  0.00     0.049 A 
ATOM     40  N   UNL     1       0.174  15.596   6.650  1.00  0.00    -0.248 NA
ATOM     41  C   UNL     1      -1.528  14.279   5.744  1.00  0.00     0.031 C 
ATOM     42  C   UNL     1       2.718  11.951   7.140  1.00  0.00     0.029 A 
ATOM     43  N   UNL     1       2.599  14.161   7.460  1.00  0.00    -0.354 N 
ATOM     44  C   UNL     1      -0.893  16.409   6.282  1.00  0.00     0.074 A 
ATOM     45  C   UNL     1      -1.885  15.553   5.671  1.00  0.00     0.031 C 
ATOM     46  C   UNL     1       3.873  12.339   7.704  1.00  0.00     0.029 A 
ATOM     47  C   UNL     1       3.843  13.784   7.911  1.00  0.00     0.049 A 
ATOM     48  H   UNL     1       2.279  15.091   7.477  1.00  0.00     0.167 HD
ATOM     49  C   UNL     1      -1.044  17.744   6.456  1.00  0.00     0.031 A 
ATOM     50  C   UNL     1       4.848  14.517   8.430  1.00  0.00     0.031 A 
ATOM     51  C   UNL     1      -0.060  18.593   7.073  1.00  0.00     0.049 A 
ATOM     52  C   UNL     1       4.661  16.000   8.602  1.00  0.00     0.074 A 
ATOM     53  C   UNL     1      -0.139  19.949   7.338  1.00  0.00     0.029 A 
ATOM     54  N   UNL     1       1.183  18.171   7.521  1.00  0.00    -0.354 N 
ATOM     55  N   UNL     1       3.621  16.741   8.302  1.00  0.00    -0.248 NA
ATOM     56  C   UNL     1       5.779  16.745   9.200  1.00  0.00     0.031 C 
ATOM     57  C   UNL     1       1.076  20.357   7.896  1.00  0.00     0.029 A 
ATOM     58  C   UNL     1       1.887  19.243   8.042  1.00  0.00     0.049 A 
ATOM     59  H   UNL     1       1.515  17.245   7.475  1.00  0.00     0.167 HD
ATOM     60  C   UNL     1       3.945  18.032   8.709  1.00  0.00     0.074 A 
ATOM     61  C   UNL     1       5.272  17.967   9.285  1.00  0.00     0.031 C 
ATOM     62  C   UNL     1       3.206  19.165   8.619  1.00  0.00     0.031 A 
BRANCH  49  63
ATOM     63  C   UNL     1      -2.323  18.371   5.962  1.00  0.00    -0.014 A 
ATOM     64  C   UNL     1      -3.555  18.101   6.585  1.00  0.00     0.010 A 
ATOM     65  C   UNL     1      -2.288  19.273   4.883  1.00  0.00     0.010 A 
ATOM     66  C   UNL     1      -4.733  18.685   6.112  1.00  0.00     0.020 A 
ATOM     67  C   UNL     1      -3.459  19.885   4.426  1.00  0.00     0.020 A 
ATOM     68  C   UNL     1      -4.678  19.573   5.033  1.00  0.00     0.054 A 
BRANCH  68  69
ATOM     69  S   UNL     1      -6.219  20.333   4.454  1.00  0.00     0.124 S 
ATOM     70  O   UNL     1      -6.887  19.206   3.808  1.00  0.00    -0.237 OA
ATOM     71  O   UNL     1      -6.832  20.799   5.695  1.00  0.00    -0.237 OA
ATOM     72  O   UNL     1      -5.768  21.389   3.551  1.00  0.00    -0.744 OA
ENDBRANCH  68  69
ENDBRANCH  49  63
BRANCH  50  73
ATOM     73  C   UNL     1       6.117  13.855   8.842  1.00  0.00    -0.014 A 
ATOM     74  C   UNL     1       6.465  13.755  10.201  1.00  0.00     0.010 A 
ATOM     75  C   UNL     1       6.986  13.316   7.875  1.00  0.00     0.010 A 
ATOM     76  C   UNL     1       7.666  13.150  10.584  1.00  0.00     0.020 A 
ATOM     77  C   UNL     1       8.173  12.683   8.256  1.00  0.00     0.020 A 
ATOM     78  C   UNL     1       8.512  12.616   9.608  1.00  0.00     0.054 A 
BRANCH  78  79
ATOM     79  S   UNL     1      10.044  11.796  10.132  1.00  0.00     0.124 S 
ATOM     80  O   UNL     1      10.865  12.927  10.553  1.00  0.00    -0.237 OA
ATOM     81  O   UNL     1       9.580  10.917  11.202  1.00  0.00    -0.237 OA
ATOM     82  O   UNL     1      10.495  11.110   8.923  1.00  0.00    -0.744 OA
ENDBRANCH  78  79
ENDBRANCH  50  73
BRANCH  62  83
ATOM     83  C   UNL     1       3.790  20.426   9.204  1.00  0.00    -0.014 A 
ATOM     84  C   UNL     1       4.876  21.084   8.602  1.00  0.00     0.010 A 
ATOM     85  C   UNL     1       3.200  20.987  10.352  1.00  0.00     0.010 A 
ATOM     86  C   UNL     1       5.386  22.260   9.159  1.00  0.00     0.020 A 
ATOM     87  C   UNL     1       3.686  22.180  10.894  1.00  0.00     0.020 A 
ATOM     88  C   UNL     1       4.787  22.800  10.302  1.00  0.00     0.054 A 
BRANCH  88  89
ATOM     89  S   UNL     1       5.443  24.348  10.984  1.00  0.00     0.124 S 
ATOM     90  O   UNL     1       6.700  23.907  11.583  1.00  0.00    -0.237 OA
ATOM     91  O   UNL     1       5.574  25.191   9.798  1.00  0.00    -0.237 OA
ATOM     92  O   UNL     1       4.417  24.772  11.933  1.00  0.00    -0.744 OA
ENDBRANCH  88  89
ENDBRANCH  62  83
ENDBRANCH  36  37
ENDBRANCH  28  31
ENDBRANCH  26  27
ENDBRANCH   1  26
TORSDOF 16
