REMARK SMILES O=C(NCCCNC(=O)c1cc(N2CCN(c3ccc(F)cc3)CC2)ccc1NC(=O)C1CCCC1)c1ccc(-c2c3nc(c(-c4ccc(S(=O)(=O)[O-])cc4)c4ccc([nH]4)c(-c4ccc(S(=O)(=O)[O-])cc4)c4nc(c(-c5ccc(S(=O)(=O)[O-])cc5)c5ccc2[nH]5)C=C4)C=C3)cc1
REMARK SMILES IDX 4 1 3 2 1 3 2 4 37 6 38 7 96 8 39 9 95 10 40 11 41 12 42 13
REMARK SMILES IDX 89 14 43 15 94 16 88 17 90 18 44 19 93 20 87 21 86 22 45 24
REMARK SMILES IDX 75 25 56 26 74 27 57 28 60 29 73 30 91 31 58 32 59 33 72 35
REMARK SMILES IDX 92 36 61 37 46 38 47 39 55 40 48 41 54 42 49 43 50 44 51 45
REMARK SMILES IDX 52 46 53 47 76 48 77 49 85 50 78 51 84 52 79 53 80 54 81 55
REMARK SMILES IDX 82 56 83 57 62 58 63 59 71 60 64 61 70 62 65 63 66 64 67 65
REMARK SMILES IDX 68 66 69 67 5 68 6 69 7 70 8 71 9 73 10 74 11 75 28 76 12 77
REMARK SMILES IDX 27 78 26 79 29 80 30 81 31 83 32 84 33 85 36 86 34 87 35 88
REMARK SMILES IDX 13 89 14 90 25 91 15 92 24 93 16 94 17 95 18 96 23 97 19 98
REMARK SMILES IDX 22 99 20 100 21 101
REMARK H PARENT 3 5 90 23 60 34 7 72 29 82
REMARK Flexibility Score: inf
ROOT
ATOM      1  C   UNL     1       4.580   0.260  -1.300  1.00  0.00     0.118 C 
ENDROOT
BRANCH   1   2
ATOM      2  N   UNL     1       3.140   0.281  -1.079  1.00  0.00    -0.352 N 
ATOM      3  O   UNL     1       1.183   0.048   0.002  1.00  0.00    -0.269 OA
ATOM      4  C   UNL     1       2.402   0.151   0.076  1.00  0.00     0.251 C 
ATOM      5  H   UNL     1       2.604   0.409  -1.895  1.00  0.00     0.163 HD
BRANCH   4   6
ATOM      6  C   UNL     1       3.069   0.105   1.397  1.00  0.00     0.039 A 
ATOM      7  C   UNL     1       4.141   0.944   1.692  1.00  0.00     0.014 A 
ATOM      8  C   UNL     1       2.593  -0.779   2.372  1.00  0.00     0.014 A 
ATOM      9  C   UNL     1       4.855   0.769   2.870  1.00  0.00     0.010 A 
ATOM     10  C   UNL     1       3.240  -0.870   3.609  1.00  0.00     0.010 A 
ATOM     11  C   UNL     1       4.402  -0.123   3.855  1.00  0.00    -0.014 A 
BRANCH  11  12
ATOM     12  C   UNL     1       5.125  -0.193   5.151  1.00  0.00     0.031 A 
ATOM     13  C   UNL     1       5.792  -1.460   5.609  1.00  0.00     0.074 A 
ATOM     14  C   UNL     1       5.211   0.927   5.898  1.00  0.00     0.049 A 
ATOM     15  N   UNL     1       6.493  -1.671   6.695  1.00  0.00    -0.248 NA
ATOM     16  C   UNL     1       5.655  -2.645   4.748  1.00  0.00     0.031 C 
ATOM     17  C   UNL     1       4.598   2.216   5.560  1.00  0.00     0.029 A 
ATOM     18  N   UNL     1       5.867   1.174   7.076  1.00  0.00    -0.354 N 
ATOM     19  C   UNL     1       6.860  -3.012   6.661  1.00  0.00     0.074 A 
ATOM     20  C   UNL     1       6.287  -3.572   5.456  1.00  0.00     0.031 C 
ATOM     21  C   UNL     1       4.960   3.129   6.471  1.00  0.00     0.029 A 
ATOM     22  C   UNL     1       5.764   2.479   7.497  1.00  0.00     0.049 A 
ATOM     23  H   UNL     1       6.365   0.485   7.572  1.00  0.00     0.167 HD
ATOM     24  C   UNL     1       7.609  -3.708   7.550  1.00  0.00     0.031 A 
ATOM     25  C   UNL     1       6.245   3.088   8.596  1.00  0.00     0.031 A 
ATOM     26  C   UNL     1       8.177  -3.143   8.747  1.00  0.00     0.049 A 
ATOM     27  C   UNL     1       7.049   2.287   9.577  1.00  0.00     0.074 A 
ATOM     28  C   UNL     1       8.970  -3.761   9.699  1.00  0.00     0.029 A 
ATOM     29  N   UNL     1       8.014  -1.828   9.159  1.00  0.00    -0.354 N 
ATOM     30  N   UNL     1       7.401   1.026   9.512  1.00  0.00    -0.248 NA
ATOM     31  C   UNL     1       7.516   2.989  10.778  1.00  0.00     0.031 C 
ATOM     32  C   UNL     1       9.245  -2.834  10.710  1.00  0.00     0.029 A 
ATOM     33  C   UNL     1       8.670  -1.622  10.361  1.00  0.00     0.049 A 
ATOM     34  H   UNL     1       7.505  -1.142   8.668  1.00  0.00     0.167 HD
ATOM     35  C   UNL     1       8.143   0.784  10.661  1.00  0.00     0.074 A 
ATOM     36  C   UNL     1       8.207   2.036  11.389  1.00  0.00     0.031 C 
ATOM     37  C   UNL     1       8.716  -0.372  11.077  1.00  0.00     0.031 A 
BRANCH  24  38
ATOM     38  C   UNL     1       7.835  -5.173   7.279  1.00  0.00    -0.014 A 
ATOM     39  C   UNL     1       8.696  -5.601   6.252  1.00  0.00     0.010 A 
ATOM     40  C   UNL     1       7.215  -6.138   8.095  1.00  0.00     0.010 A 
ATOM     41  C   UNL     1       8.902  -6.965   6.023  1.00  0.00     0.020 A 
ATOM     42  C   UNL     1       7.437  -7.502   7.885  1.00  0.00     0.020 A 
ATOM     43  C   UNL     1       8.267  -7.907   6.838  1.00  0.00     0.054 A 
BRANCH  43  44
ATOM     44  S   UNL     1       8.564  -9.670   6.527  1.00  0.00     0.124 S 
ATOM     45  O   UNL     1       7.788  -9.895   5.310  1.00  0.00    -0.237 OA
ATOM     46  O   UNL     1      10.015  -9.728   6.365  1.00  0.00    -0.237 OA
ATOM     47  O   UNL     1       8.047 -10.327   7.725  1.00  0.00    -0.744 OA
ENDBRANCH  43  44
ENDBRANCH  24  38
BRANCH  25  48
ATOM     48  C   UNL     1       5.954   4.529   8.826  1.00  0.00    -0.014 A 
ATOM     49  C   UNL     1       6.971   5.492   8.725  1.00  0.00     0.010 A 
ATOM     50  C   UNL     1       4.640   4.946   9.110  1.00  0.00     0.010 A 
ATOM     51  C   UNL     1       6.682   6.847   8.914  1.00  0.00     0.020 A 
ATOM     52  C   UNL     1       4.342   6.301   9.269  1.00  0.00     0.020 A 
ATOM     53  C   UNL     1       5.368   7.242   9.182  1.00  0.00     0.054 A 
BRANCH  53  54
ATOM     54  S   UNL     1       5.003   9.010   9.363  1.00  0.00     0.124 S 
ATOM     55  O   UNL     1       5.518   9.289  10.699  1.00  0.00    -0.237 OA
ATOM     56  O   UNL     1       5.752   9.604   8.258  1.00  0.00    -0.237 OA
ATOM     57  O   UNL     1       3.550   9.073   9.224  1.00  0.00    -0.744 OA
ENDBRANCH  53  54
ENDBRANCH  25  48
BRANCH  37  58
ATOM     58  C   UNL     1       9.482  -0.327  12.370  1.00  0.00    -0.014 A 
ATOM     59  C   UNL     1       8.816  -0.240  13.606  1.00  0.00     0.010 A 
ATOM     60  C   UNL     1      10.885  -0.409  12.349  1.00  0.00     0.010 A 
ATOM     61  C   UNL     1       9.544  -0.202  14.797  1.00  0.00     0.020 A 
ATOM     62  C   UNL     1      11.615  -0.398  13.540  1.00  0.00     0.020 A 
ATOM     63  C   UNL     1      10.940  -0.279  14.756  1.00  0.00     0.054 A 
BRANCH  63  64
ATOM     64  S   UNL     1      11.862  -0.265  16.318  1.00  0.00     0.124 S 
ATOM     65  O   UNL     1      11.786   1.142  16.703  1.00  0.00    -0.237 OA
ATOM     66  O   UNL     1      11.096  -1.187  17.152  1.00  0.00    -0.237 OA
ATOM     67  O   UNL     1      13.192  -0.737  15.938  1.00  0.00    -0.744 OA
ENDBRANCH  63  64
ENDBRANCH  37  58
ENDBRANCH  11  12
ENDBRANCH   4   6
ENDBRANCH   1   2
BRANCH   1  68
ATOM     68  C   UNL     1       5.074  -1.028  -1.940  1.00  0.00     0.042 C 
BRANCH  68  69
ATOM     69  C   UNL     1       4.550  -1.266  -3.345  1.00  0.00     0.118 C 
BRANCH  69  70
ATOM     70  N   UNL     1       4.881  -0.188  -4.274  1.00  0.00    -0.352 N 
ATOM     71  C   UNL     1       5.662  -0.178  -5.403  1.00  0.00     0.253 C 
ATOM     72  H   UNL     1       4.475   0.681  -4.051  1.00  0.00     0.163 HD
ATOM     73  O   UNL     1       5.918   0.895  -5.945  1.00  0.00    -0.269 OA
BRANCH  71  74
ATOM     74  C   UNL     1       6.191  -1.437  -5.980  1.00  0.00     0.065 A 
ATOM     75  C   UNL     1       7.534  -1.407  -6.398  1.00  0.00     0.042 A 
ATOM     76  C   UNL     1       5.391  -2.577  -6.206  1.00  0.00     0.054 A 
ATOM     77  C   UNL     1       8.127  -2.521  -6.988  1.00  0.00     0.038 A 
ATOM     78  C   UNL     1       6.047  -3.733  -6.620  1.00  0.00     0.029 A 
ATOM     79  C   UNL     1       7.391  -3.701  -7.014  1.00  0.00     0.028 A 
BRANCH  76  80
ATOM     80  N   UNL     1       3.988  -2.463  -6.045  1.00  0.00    -0.325 N 
ATOM     81  C   UNL     1       2.903  -3.256  -6.262  1.00  0.00     0.227 C 
ATOM     82  H   UNL     1       3.732  -1.584  -5.684  1.00  0.00     0.169 HD
ATOM     83  O   UNL     1       1.798  -2.775  -5.992  1.00  0.00    -0.274 OA
BRANCH  81  84
ATOM     84  C   UNL     1       3.030  -4.659  -6.796  1.00  0.00     0.079 C 
ATOM     85  C   UNL     1       3.200  -5.679  -5.673  1.00  0.00     0.013 C 
ATOM     86  C   UNL     1       1.777  -5.186  -7.491  1.00  0.00     0.013 C 
ATOM     87  C   UNL     1       2.901  -7.016  -6.344  1.00  0.00     0.001 C 
ATOM     88  C   UNL     1       2.043  -6.686  -7.568  1.00  0.00     0.001 C 
ENDBRANCH  81  84
ENDBRANCH  76  80
BRANCH  77  89
ATOM     89  N   UNL     1       9.363  -2.412  -7.586  1.00  0.00    -0.368 N 
ATOM     90  C   UNL     1      10.593  -2.585  -6.794  1.00  0.00     0.138 C 
ATOM     91  C   UNL     1       9.480  -2.699  -9.026  1.00  0.00     0.138 C 
ATOM     92  C   UNL     1      11.255  -3.963  -7.063  1.00  0.00     0.138 C 
ATOM     93  C   UNL     1      10.145  -4.065  -9.289  1.00  0.00     0.138 C 
ATOM     94  N   UNL     1      11.386  -4.218  -8.514  1.00  0.00    -0.368 N 
BRANCH  94  95
ATOM     95  C   UNL     1      12.626  -4.161  -9.117  1.00  0.00     0.037 A 
ATOM     96  C   UNL     1      13.657  -5.011  -8.684  1.00  0.00     0.029 A 
ATOM     97  C   UNL     1      12.905  -3.294 -10.184  1.00  0.00     0.029 A 
ATOM     98  C   UNL     1      14.911  -5.011  -9.304  1.00  0.00     0.041 A 
ATOM     99  C   UNL     1      14.161  -3.276 -10.798  1.00  0.00     0.041 A 
ATOM    100  C   UNL     1      15.150  -4.141 -10.356  1.00  0.00     0.123 A 
ATOM    101  F   UNL     1      16.348  -4.137 -10.955  1.00  0.00    -0.207 F 
ENDBRANCH  94  95
ENDBRANCH  77  89
ENDBRANCH  71  74
ENDBRANCH  69  70
ENDBRANCH  68  69
ENDBRANCH   1  68
TORSDOF 17
