REMARK SMILES Cc1cc(N(C)[C@H](C)C(=O)NCCCNC(=O)c2ccc(-c3c4nc(c(-c5ccc(S(=O)(=O)[O-])cc5)c5ccc([nH]5)c(-c5ccc(S(=O)(=O)[O-])cc5)c5nc(c(-c6ccc(S(=O)(=O)[O-])cc6)c6ccc3[nH]6)C=C5)C=C4)cc2)ncc1[N+](=O)[O-]
REMARK SMILES IDX 13 1 12 2 11 3 9 4 10 5 7 7 8 8 5 9 6 10 4 11 1 12 2 13 3 14
REMARK SMILES IDX 80 15 79 16 78 17 81 18 82 19 83 20 14 21 15 22 16 23 17 25
REMARK SMILES IDX 18 26 19 27 77 28 20 29 76 30 21 31 22 32 23 33 70 34 24 35
REMARK SMILES IDX 75 36 69 37 71 38 25 39 74 40 68 41 67 42 26 44 56 45 37 46
REMARK SMILES IDX 55 47 38 48 41 49 54 50 72 51 39 52 40 53 53 55 73 56 42 57
REMARK SMILES IDX 27 58 28 59 36 60 29 61 35 62 30 63 31 64 32 65 33 66 34 67
REMARK SMILES IDX 57 68 58 69 66 70 59 71 65 72 60 73 61 74 62 75 63 76 64 77
REMARK SMILES IDX 43 78 44 79 52 80 45 81 51 82 46 83 47 84 48 85 49 86 50 87
REMARK H PARENT 11 6 15 24 71 43 41 54
REMARK Flexibility Score: inf
ROOT
ATOM      1  C   UNL     1       1.097  -0.909  -1.586  1.00  0.00     0.042 C 
ENDROOT
BRANCH   1   2
ATOM      2  C   UNL     1       2.234  -0.407  -0.718  1.00  0.00     0.117 C 
BRANCH   2   3
ATOM      3  N   UNL     1       3.120   0.501  -1.423  1.00  0.00    -0.354 N 
ATOM      4  C   UNL     1       3.771   1.622  -0.999  1.00  0.00     0.242 C 
ATOM      5  O   UNL     1       4.634   2.066  -1.768  1.00  0.00    -0.273 OA
ATOM      6  H   UNL     1       3.279   0.268  -2.366  1.00  0.00     0.163 HD
BRANCH   4   7
ATOM      7  C   UNL     1       3.473   2.324   0.345  1.00  0.00     0.169 C 
ATOM      8  C   UNL     1       2.013   2.770   0.459  1.00  0.00     0.042 C 
BRANCH   7   9
ATOM      9  N   UNL     1       3.950   1.608   1.562  1.00  0.00    -0.348 N 
ATOM     10  C   UNL     1       4.202   0.178   1.575  1.00  0.00     0.146 C 
BRANCH   9  11
ATOM     11  C   UNL     1       4.358   2.376   2.647  1.00  0.00     0.129 A 
ATOM     12  C   UNL     1       5.636   1.737   6.148  1.00  0.00     0.052 C 
ATOM     13  C   UNL     1       5.253   2.535   4.935  1.00  0.00     0.032 A 
ATOM     14  C   UNL     1       4.662   1.801   3.886  1.00  0.00     0.057 A 
ATOM     15  C   UNL     1       5.440   3.902   4.721  1.00  0.00     0.290 A 
ATOM     16  C   UNL     1       5.048   4.434   3.499  1.00  0.00     0.199 A 
ATOM     17  N   UNL     1       4.518   3.703   2.485  1.00  0.00    -0.232 NA
BRANCH  15  18
ATOM     18  N   UNL     1       6.019   4.824   5.692  1.00  0.00     0.064 N 
ATOM     19  O   UNL     1       6.498   5.883   5.259  1.00  0.00    -0.258 OA
ATOM     20  O   UNL     1       5.984   4.522   6.891  1.00  0.00    -0.258 OA
ENDBRANCH  15  18
ENDBRANCH   9  11
ENDBRANCH   7   9
ENDBRANCH   4   7
ENDBRANCH   2   3
ENDBRANCH   1   2
BRANCH   1  21
ATOM     21  C   UNL     1       1.569  -1.781  -2.742  1.00  0.00     0.118 C 
BRANCH  21  22
ATOM     22  N   UNL     1       2.248  -2.997  -2.305  1.00  0.00    -0.352 N 
ATOM     23  C   UNL     1       1.848  -4.315  -2.350  1.00  0.00     0.251 C 
ATOM     24  H   UNL     1       3.139  -2.852  -1.912  1.00  0.00     0.163 HD
ATOM     25  O   UNL     1       2.490  -5.165  -1.752  1.00  0.00    -0.269 OA
BRANCH  23  26
ATOM     26  C   UNL     1       0.627  -4.685  -3.100  1.00  0.00     0.039 A 
ATOM     27  C   UNL     1      -0.262  -5.611  -2.549  1.00  0.00     0.014 A 
ATOM     28  C   UNL     1       0.352  -4.103  -4.336  1.00  0.00     0.014 A 
ATOM     29  C   UNL     1      -1.473  -5.872  -3.195  1.00  0.00     0.010 A 
ATOM     30  C   UNL     1      -0.900  -4.267  -4.911  1.00  0.00     0.010 A 
ATOM     31  C   UNL     1      -1.826  -5.159  -4.353  1.00  0.00    -0.014 A 
BRANCH  31  32
ATOM     32  C   UNL     1      -3.146  -5.331  -5.012  1.00  0.00     0.031 A 
ATOM     33  C   UNL     1      -3.211  -5.775  -6.451  1.00  0.00     0.074 A 
ATOM     34  C   UNL     1      -4.275  -5.005  -4.350  1.00  0.00     0.049 A 
ATOM     35  N   UNL     1      -4.252  -5.873  -7.237  1.00  0.00    -0.248 NA
ATOM     36  C   UNL     1      -1.935  -6.118  -7.104  1.00  0.00     0.031 C 
ATOM     37  C   UNL     1      -4.343  -4.513  -2.971  1.00  0.00     0.029 A 
ATOM     38  N   UNL     1      -5.587  -5.030  -4.753  1.00  0.00    -0.354 N 
ATOM     39  C   UNL     1      -3.755  -6.262  -8.476  1.00  0.00     0.074 A 
ATOM     40  C   UNL     1      -2.316  -6.322  -8.356  1.00  0.00     0.031 C 
ATOM     41  C   UNL     1      -5.628  -4.318  -2.634  1.00  0.00     0.029 A 
ATOM     42  C   UNL     1      -6.473  -4.622  -3.783  1.00  0.00     0.049 A 
ATOM     43  H   UNL     1      -5.868  -5.315  -5.653  1.00  0.00     0.167 HD
ATOM     44  C   UNL     1      -4.434  -6.571  -9.605  1.00  0.00     0.031 A 
ATOM     45  C   UNL     1      -7.814  -4.498  -3.818  1.00  0.00     0.031 A 
ATOM     46  C   UNL     1      -5.867  -6.543  -9.711  1.00  0.00     0.049 A 
ATOM     47  C   UNL     1      -8.546  -4.851  -5.084  1.00  0.00     0.074 A 
ATOM     48  C   UNL     1      -6.656  -6.894 -10.792  1.00  0.00     0.029 A 
ATOM     49  N   UNL     1      -6.727  -6.149  -8.697  1.00  0.00    -0.354 N 
ATOM     50  N   UNL     1      -8.059  -5.273  -6.227  1.00  0.00    -0.248 NA
ATOM     51  C   UNL     1     -10.010  -4.721  -5.062  1.00  0.00     0.031 C 
ATOM     52  C   UNL     1      -7.992  -6.670 -10.447  1.00  0.00     0.029 A 
ATOM     53  C   UNL     1      -8.037  -6.234  -9.132  1.00  0.00     0.049 A 
ATOM     54  H   UNL     1      -6.446  -5.853  -7.801  1.00  0.00     0.167 HD
ATOM     55  C   UNL     1      -9.160  -5.490  -7.049  1.00  0.00     0.074 A 
ATOM     56  C   UNL     1     -10.336  -5.166  -6.268  1.00  0.00     0.031 C 
ATOM     57  C   UNL     1      -9.195  -5.917  -8.335  1.00  0.00     0.031 A 
BRANCH  44  58
ATOM     58  C   UNL     1      -3.633  -6.984 -10.812  1.00  0.00    -0.014 A 
ATOM     59  C   UNL     1      -2.950  -8.214 -10.841  1.00  0.00     0.010 A 
ATOM     60  C   UNL     1      -3.603  -6.158 -11.950  1.00  0.00     0.010 A 
ATOM     61  C   UNL     1      -2.223  -8.594 -11.971  1.00  0.00     0.020 A 
ATOM     62  C   UNL     1      -2.901  -6.549 -13.094  1.00  0.00     0.020 A 
ATOM     63  C   UNL     1      -2.204  -7.759 -13.091  1.00  0.00     0.054 A 
BRANCH  63  64
ATOM     64  S   UNL     1      -1.285  -8.299 -14.559  1.00  0.00     0.124 S 
ATOM     65  O   UNL     1       0.100  -8.138 -14.122  1.00  0.00    -0.237 OA
ATOM     66  O   UNL     1      -1.734  -9.679 -14.726  1.00  0.00    -0.237 OA
ATOM     67  O   UNL     1      -1.720  -7.374 -15.602  1.00  0.00    -0.744 OA
ENDBRANCH  63  64
ENDBRANCH  44  58
BRANCH  45  68
ATOM     68  C   UNL     1      -8.557  -4.033  -2.613  1.00  0.00    -0.014 A 
ATOM     69  C   UNL     1      -9.391  -4.917  -1.905  1.00  0.00     0.010 A 
ATOM     70  C   UNL     1      -8.443  -2.702  -2.173  1.00  0.00     0.010 A 
ATOM     71  C   UNL     1     -10.122  -4.471  -0.800  1.00  0.00     0.020 A 
ATOM     72  C   UNL     1      -9.149  -2.260  -1.049  1.00  0.00     0.020 A 
ATOM     73  C   UNL     1      -9.997  -3.144  -0.380  1.00  0.00     0.054 A 
BRANCH  73  74
ATOM     74  S   UNL     1     -10.932  -2.594   1.075  1.00  0.00     0.124 S 
ATOM     75  O   UNL     1     -12.290  -2.506   0.546  1.00  0.00    -0.237 OA
ATOM     76  O   UNL     1     -10.693  -3.673   2.030  1.00  0.00    -0.237 OA
ATOM     77  O   UNL     1     -10.308  -1.318   1.419  1.00  0.00    -0.744 OA
ENDBRANCH  73  74
ENDBRANCH  45  68
BRANCH  57  78
ATOM     78  C   UNL     1     -10.547  -6.105  -8.966  1.00  0.00    -0.014 A 
ATOM     79  C   UNL     1     -11.342  -5.005  -9.331  1.00  0.00     0.010 A 
ATOM     80  C   UNL     1     -11.000  -7.406  -9.254  1.00  0.00     0.010 A 
ATOM     81  C   UNL     1     -12.581  -5.204  -9.945  1.00  0.00     0.020 A 
ATOM     82  C   UNL     1     -12.225  -7.608  -9.894  1.00  0.00     0.020 A 
ATOM     83  C   UNL     1     -13.014  -6.505 -10.223  1.00  0.00     0.054 A 
BRANCH  83  84
ATOM     84  S   UNL     1     -14.604  -6.734 -11.064  1.00  0.00     0.124 S 
ATOM     85  O   UNL     1     -15.557  -6.426 -10.000  1.00  0.00    -0.237 OA
ATOM     86  O   UNL     1     -14.537  -5.758 -12.149  1.00  0.00    -0.237 OA
ATOM     87  O   UNL     1     -14.574  -8.131 -11.488  1.00  0.00    -0.744 OA
ENDBRANCH  83  84
ENDBRANCH  57  78
ENDBRANCH  31  32
ENDBRANCH  23  26
ENDBRANCH  21  22
ENDBRANCH   1  21
TORSDOF 16
