REMARK SMILES CC[C@H]1CCCC[C@H]1n1cc(C(=O)NCCCNC(=O)c2ccc(-c3c4nc(c(-c5ccc(S(=O)(=O)[O-])cc5)c5ccc([nH]5)c(-c5ccc(S(=O)(=O)[O-])cc5)c5nc(c(-c6ccc(S(=O)(=O)[O-])cc6)c6ccc3[nH]6)C=C5)C=C4)cc2)c(=O)[nH]c1=O
REMARK SMILES IDX 16 1 15 2 14 3 12 4 13 5 11 7 9 8 10 9 84 10 83 11 85 12
REMARK SMILES IDX 81 13 82 15 8 16 3 17 4 18 5 19 7 20 6 21 2 22 1 23 17 24
REMARK SMILES IDX 18 25 19 26 20 28 21 29 22 30 80 31 23 32 79 33 24 34 25 35
REMARK SMILES IDX 26 36 73 37 27 38 78 39 72 40 74 41 28 42 77 43 71 44 70 45
REMARK SMILES IDX 29 47 59 48 40 49 58 50 41 51 44 52 57 53 75 54 42 55 43 56
REMARK SMILES IDX 56 58 76 59 45 60 30 61 31 62 39 63 32 64 38 65 33 66 34 67
REMARK SMILES IDX 35 68 36 69 37 70 60 71 61 72 69 73 62 74 68 75 63 76 64 77
REMARK SMILES IDX 65 78 66 79 67 80 46 81 47 82 55 83 48 84 54 85 49 86 50 87
REMARK SMILES IDX 51 88 52 89 53 90
REMARK H PARENT 14 6 83 14 18 27 74 46 44 57
REMARK Flexibility Score: inf
ROOT
ATOM      1  C   UNL     1       0.953   2.935   1.613  1.00  0.00     0.042 C 
ENDROOT
BRANCH   1   2
ATOM      2  C   UNL     1      -0.054   3.410   0.565  1.00  0.00     0.118 C 
BRANCH   2   3
ATOM      3  N   UNL     1       0.193   4.801   0.228  1.00  0.00    -0.352 N 
ATOM      4  C   UNL     1       0.907   5.419  -0.754  1.00  0.00     0.258 C 
ATOM      5  O   UNL     1       1.047   6.636  -0.640  1.00  0.00    -0.269 OA
ATOM      6  H   UNL     1      -0.250   5.432   0.840  1.00  0.00     0.163 HD
BRANCH   4   7
ATOM      7  C   UNL     1       1.445   4.701  -1.945  1.00  0.00     0.121 A 
ATOM      8  N   UNL     1       2.314   2.752  -3.079  1.00  0.00    -0.296 N 
ATOM      9  C   UNL     1       1.927   3.449  -1.933  1.00  0.00     0.110 A 
ATOM     10  C   UNL     1       2.462   3.427  -4.289  1.00  0.00     0.328 A 
ATOM     11  N   UNL     1       2.142   4.755  -4.261  1.00  0.00    -0.273 N 
ATOM     12  O   UNL     1       2.808   2.941  -5.361  1.00  0.00    -0.248 OA
ATOM     13  C   UNL     1       1.492   5.405  -3.253  1.00  0.00     0.266 A 
ATOM     14  H   UNL     1       2.406   5.294  -5.041  1.00  0.00     0.175 HD
ATOM     15  O   UNL     1       0.943   6.479  -3.472  1.00  0.00    -0.268 OA
BRANCH   8  16
ATOM     16  C   UNL     1       2.430   1.259  -2.958  1.00  0.00     0.095 C 
ATOM     17  C   UNL     1       1.053   0.607  -2.579  1.00  0.00     0.012 C 
ATOM     18  C   UNL     1       1.216  -0.911  -2.385  1.00  0.00     0.006 C 
ATOM     19  C   UNL     1       1.812  -1.596  -3.607  1.00  0.00     0.000 C 
ATOM     20  C   UNL     1       3.069   0.522  -4.158  1.00  0.00     0.026 C 
ATOM     21  C   UNL     1       3.165  -0.988  -3.951  1.00  0.00     0.002 C 
BRANCH  17  22
ATOM     22  C   UNL     1      -0.068   0.991  -3.576  1.00  0.00     0.002 C 
ATOM     23  C   UNL     1      -1.416   0.350  -3.275  1.00  0.00     0.004 C 
ENDBRANCH  17  22
ENDBRANCH   8  16
ENDBRANCH   4   7
ENDBRANCH   2   3
ENDBRANCH   1   2
BRANCH   1  24
ATOM     24  C   UNL     1       0.671   3.501   3.004  1.00  0.00     0.118 C 
BRANCH  24  25
ATOM     25  N   UNL     1      -0.497   2.885   3.617  1.00  0.00    -0.352 N 
ATOM     26  C   UNL     1      -0.617   2.252   4.835  1.00  0.00     0.251 C 
ATOM     27  H   UNL     1      -1.323   2.927   3.083  1.00  0.00     0.163 HD
ATOM     28  O   UNL     1      -1.629   1.617   5.089  1.00  0.00    -0.269 OA
BRANCH  26  29
ATOM     29  C   UNL     1       0.491   2.323   5.814  1.00  0.00     0.039 A 
ATOM     30  C   UNL     1       1.153   3.527   6.059  1.00  0.00     0.014 A 
ATOM     31  C   UNL     1       0.869   1.164   6.499  1.00  0.00     0.014 A 
ATOM     32  C   UNL     1       2.287   3.541   6.864  1.00  0.00     0.010 A 
ATOM     33  C   UNL     1       1.962   1.198   7.371  1.00  0.00     0.010 A 
ATOM     34  C   UNL     1       2.708   2.376   7.527  1.00  0.00    -0.014 A 
BRANCH  34  35
ATOM     35  C   UNL     1       3.937   2.411   8.364  1.00  0.00     0.031 A 
ATOM     36  C   UNL     1       5.154   1.617   7.967  1.00  0.00     0.074 A 
ATOM     37  C   UNL     1       3.978   3.219   9.444  1.00  0.00     0.049 A 
ATOM     38  N   UNL     1       6.317   1.547   8.562  1.00  0.00    -0.248 NA
ATOM     39  C   UNL     1       5.062   0.801   6.744  1.00  0.00     0.031 C 
ATOM     40  C   UNL     1       2.876   4.069   9.900  1.00  0.00     0.029 A 
ATOM     41  N   UNL     1       4.993   3.492  10.328  1.00  0.00    -0.354 N 
ATOM     42  C   UNL     1       7.090   0.684   7.793  1.00  0.00     0.074 A 
ATOM     43  C   UNL     1       6.256   0.222   6.707  1.00  0.00     0.031 C 
ATOM     44  C   UNL     1       3.296   4.819  10.930  1.00  0.00     0.029 A 
ATOM     45  C   UNL     1       4.670   4.454  11.258  1.00  0.00     0.049 A 
ATOM     46  H   UNL     1       5.868   3.042  10.299  1.00  0.00     0.167 HD
ATOM     47  C   UNL     1       8.384   0.327   7.967  1.00  0.00     0.031 A 
ATOM     48  C   UNL     1       5.393   4.982  12.266  1.00  0.00     0.031 A 
ATOM     49  C   UNL     1       9.215   0.805   9.041  1.00  0.00     0.049 A 
ATOM     50  C   UNL     1       6.801   4.502  12.483  1.00  0.00     0.074 A 
ATOM     51  C   UNL     1      10.537   0.488   9.304  1.00  0.00     0.029 A 
ATOM     52  N   UNL     1       8.819   1.708  10.015  1.00  0.00    -0.354 N 
ATOM     53  N   UNL     1       7.503   3.666  11.757  1.00  0.00    -0.248 NA
ATOM     54  C   UNL     1       7.512   5.027  13.657  1.00  0.00     0.031 C 
ATOM     55  C   UNL     1      10.922   1.154  10.468  1.00  0.00     0.029 A 
ATOM     56  C   UNL     1       9.865   1.942  10.891  1.00  0.00     0.049 A 
ATOM     57  H   UNL     1       7.927   2.122  10.075  1.00  0.00     0.167 HD
ATOM     58  C   UNL     1       8.746   3.582  12.374  1.00  0.00     0.074 A 
ATOM     59  C   UNL     1       8.707   4.465  13.521  1.00  0.00     0.031 C 
ATOM     60  C   UNL     1       9.819   2.834  12.023  1.00  0.00     0.031 A 
BRANCH  47  61
ATOM     61  C   UNL     1       9.017  -0.612   6.974  1.00  0.00    -0.014 A 
ATOM     62  C   UNL     1       9.405  -1.903   7.380  1.00  0.00     0.010 A 
ATOM     63  C   UNL     1       9.382  -0.159   5.694  1.00  0.00     0.010 A 
ATOM     64  C   UNL     1      10.190  -2.704   6.545  1.00  0.00     0.020 A 
ATOM     65  C   UNL     1      10.144  -0.967   4.845  1.00  0.00     0.020 A 
ATOM     66  C   UNL     1      10.568  -2.223   5.289  1.00  0.00     0.054 A 
BRANCH  66  67
ATOM     67  S   UNL     1      11.646  -3.246   4.249  1.00  0.00     0.124 S 
ATOM     68  O   UNL     1      12.931  -3.132   4.931  1.00  0.00    -0.237 OA
ATOM     69  O   UNL     1      11.005  -4.557   4.321  1.00  0.00    -0.237 OA
ATOM     70  O   UNL     1      11.572  -2.599   2.940  1.00  0.00    -0.744 OA
ENDBRANCH  66  67
ENDBRANCH  47  61
BRANCH  48  71
ATOM     71  C   UNL     1       4.796   6.038  13.132  1.00  0.00    -0.014 A 
ATOM     72  C   UNL     1       3.694   5.750  13.959  1.00  0.00     0.010 A 
ATOM     73  C   UNL     1       5.299   7.351  13.102  1.00  0.00     0.010 A 
ATOM     74  C   UNL     1       3.078   6.760  14.702  1.00  0.00     0.020 A 
ATOM     75  C   UNL     1       4.708   8.358  13.873  1.00  0.00     0.020 A 
ATOM     76  C   UNL     1       3.585   8.060  14.647  1.00  0.00     0.054 A 
BRANCH  76  77
ATOM     77  S   UNL     1       2.762   9.358  15.612  1.00  0.00     0.124 S 
ATOM     78  O   UNL     1       1.589   9.642  14.790  1.00  0.00    -0.237 OA
ATOM     79  O   UNL     1       2.494   8.690  16.883  1.00  0.00    -0.237 OA
ATOM     80  O   UNL     1       3.760  10.424  15.670  1.00  0.00    -0.744 OA
ENDBRANCH  76  77
ENDBRANCH  48  71
BRANCH  60  81
ATOM     81  C   UNL     1      11.063   2.928  12.867  1.00  0.00    -0.014 A 
ATOM     82  C   UNL     1      12.232   3.492  12.323  1.00  0.00     0.010 A 
ATOM     83  C   UNL     1      11.116   2.330  14.138  1.00  0.00     0.010 A 
ATOM     84  C   UNL     1      13.443   3.418  13.014  1.00  0.00     0.020 A 
ATOM     85  C   UNL     1      12.320   2.282  14.846  1.00  0.00     0.020 A 
ATOM     86  C   UNL     1      13.481   2.801  14.267  1.00  0.00     0.054 A 
BRANCH  86  87
ATOM     87  S   UNL     1      15.071   2.670  15.130  1.00  0.00     0.124 S 
ATOM     88  O   UNL     1      15.729   1.592  14.399  1.00  0.00    -0.237 OA
ATOM     89  O   UNL     1      15.647   4.000  14.945  1.00  0.00    -0.237 OA
ATOM     90  O   UNL     1      14.690   2.352  16.504  1.00  0.00    -0.744 OA
ENDBRANCH  86  87
ENDBRANCH  60  81
ENDBRANCH  34  35
ENDBRANCH  26  29
ENDBRANCH  24  25
ENDBRANCH   1  24
TORSDOF 15
