REMARK SMILES Cc1ccc([C@@H](C)Nc2ccc(N)cc2C(=O)NCCCNC(=O)c2ccc(-c3c4nc(c(-c5ccc(S(=O)(=O)[O-])cc5)c5ccc([nH]5)c(-c5ccc(S(=O)(=O)[O-])cc5)c5nc(c(-c6ccc(S(=O)(=O)[O-])cc6)c6ccc3[nH]6)C=C5)C=C4)cc2)cc1F
REMARK SMILES IDX 20 1 19 2 18 3 16 4 17 5 15 7 9 8 10 9 11 10 14 11 12 12
REMARK SMILES IDX 8 13 6 15 7 16 5 17 1 18 2 19 3 20 86 21 4 22 85 23 87 24
REMARK SMILES IDX 13 25 21 28 22 29 23 30 24 32 25 33 26 34 84 35 27 36 83 37
REMARK SMILES IDX 28 38 29 39 30 40 77 41 31 42 82 43 76 44 78 45 32 46 81 47
REMARK SMILES IDX 75 48 74 49 33 51 63 52 44 53 62 54 45 55 48 56 61 57 79 58
REMARK SMILES IDX 46 59 47 60 60 62 80 63 49 64 34 65 35 66 43 67 36 68 42 69
REMARK SMILES IDX 37 70 38 71 39 72 40 73 41 74 64 75 65 76 73 77 66 78 72 79
REMARK SMILES IDX 67 80 68 81 69 82 70 83 71 84 50 85 51 86 59 87 52 88 58 89
REMARK SMILES IDX 53 90 54 91 55 92 56 93 57 94
REMARK H PARENT 18 6 8 14 13 26 13 27 22 31 78 50 48 61
REMARK Flexibility Score: inf
ROOT
ATOM      1  C   UNL     1      -0.756  -1.098   0.520  1.00  0.00     0.042 C 
ENDROOT
BRANCH   1   2
ATOM      2  C   UNL     1      -0.837  -2.840   0.581  1.00  0.00     0.118 C 
BRANCH   2   3
ATOM      3  N   UNL     1      -0.961  -3.688  -0.596  1.00  0.00    -0.352 N 
ATOM      4  C   UNL     1      -1.998  -4.499  -0.986  1.00  0.00     0.253 C 
ATOM      5  O   UNL     1      -2.029  -4.951  -2.129  1.00  0.00    -0.269 OA
ATOM      6  H   UNL     1      -0.186  -3.678  -1.203  1.00  0.00     0.163 HD
BRANCH   4   7
ATOM      7  C   UNL     1      -2.955  -4.982   0.027  1.00  0.00     0.065 A 
ATOM      8  C   UNL     1      -3.622  -4.176   0.958  1.00  0.00     0.048 A 
ATOM      9  C   UNL     1      -3.962  -4.828   2.160  1.00  0.00     0.028 A 
ATOM     10  C   UNL     1      -3.769  -6.208   2.358  1.00  0.00     0.027 A 
ATOM     11  C   UNL     1      -2.885  -6.386   0.169  1.00  0.00     0.041 A 
ATOM     12  C   UNL     1      -3.320  -7.016   1.324  1.00  0.00     0.032 A 
BRANCH   8  13
ATOM     13  N   UNL     1      -3.976  -2.844   0.839  1.00  0.00    -0.378 N 
ATOM     14  H   UNL     1      -4.299  -2.445   1.679  1.00  0.00     0.161 HD
BRANCH  13  15
ATOM     15  C   UNL     1      -3.964  -1.906  -0.293  1.00  0.00     0.106 C 
ATOM     16  C   UNL     1      -4.536  -2.454  -1.586  1.00  0.00     0.036 C 
BRANCH  15  17
ATOM     17  C   UNL     1      -2.661  -1.130  -0.321  1.00  0.00    -0.023 A 
ATOM     18  C   UNL     1       1.829   1.180   0.475  1.00  0.00     0.047 C 
ATOM     19  C   UNL     1       0.497   0.592   0.149  1.00  0.00    -0.015 A 
ATOM     20  C   UNL     1      -0.880   0.907   1.251  1.00  0.00     0.007 A 
ATOM     21  C   UNL     1       0.283  -0.566  -1.228  1.00  0.00     0.126 A 
ATOM     22  C   UNL     1      -2.445   0.031   1.045  1.00  0.00     0.006 A 
ATOM     23  C   UNL     1      -1.293  -1.413  -1.482  1.00  0.00     0.045 A 
ATOM     24  F   UNL     1       1.313  -0.827  -2.040  1.00  0.00    -0.207 F 
ENDBRANCH  15  17
ENDBRANCH  13  15
ENDBRANCH   8  13
BRANCH  12  25
ATOM     25  N   UNL     1      -3.119  -8.375   1.496  1.00  0.00    -0.399 N 
ATOM     26  H   UNL     1      -3.430  -8.818   2.319  1.00  0.00     0.156 HD
ATOM     27  H   UNL     1      -2.665  -8.898   0.797  1.00  0.00     0.156 HD
ENDBRANCH  12  25
ENDBRANCH   4   7
ENDBRANCH   2   3
ENDBRANCH   1   2
BRANCH   1  28
ATOM     28  C   UNL     1      -1.452   0.530  -0.757  1.00  0.00     0.118 C 
BRANCH  28  29
ATOM     29  N   UNL     1      -2.612   1.615  -0.675  1.00  0.00    -0.352 N 
ATOM     30  C   UNL     1      -2.556   2.991  -0.826  1.00  0.00     0.251 C 
ATOM     31  H   UNL     1      -3.508   1.253  -0.487  1.00  0.00     0.163 HD
ATOM     32  O   UNL     1      -3.592   3.645  -0.904  1.00  0.00    -0.269 OA
BRANCH  30  33
ATOM     33  C   UNL     1      -1.248   3.691  -0.819  1.00  0.00     0.039 A 
ATOM     34  C   UNL     1      -0.979   4.604   0.204  1.00  0.00     0.014 A 
ATOM     35  C   UNL     1      -0.263   3.404  -1.763  1.00  0.00     0.014 A 
ATOM     36  C   UNL     1       0.308   5.141   0.346  1.00  0.00     0.010 A 
ATOM     37  C   UNL     1       1.043   3.845  -1.548  1.00  0.00     0.010 A 
ATOM     38  C   UNL     1       1.354   4.723  -0.491  1.00  0.00    -0.014 A 
BRANCH  38  39
ATOM     39  C   UNL     1       2.765   5.190  -0.313  1.00  0.00     0.031 A 
ATOM     40  C   UNL     1       3.479   5.843  -1.476  1.00  0.00     0.074 A 
ATOM     41  C   UNL     1       3.447   4.960   0.833  1.00  0.00     0.049 A 
ATOM     42  N   UNL     1       4.730   6.213  -1.579  1.00  0.00    -0.248 NA
ATOM     43  C   UNL     1       2.685   6.084  -2.694  1.00  0.00     0.031 C 
ATOM     44  C   UNL     1       2.914   4.324   2.041  1.00  0.00     0.029 A 
ATOM     45  N   UNL     1       4.761   5.213   1.162  1.00  0.00    -0.354 N 
ATOM     46  C   UNL     1       4.868   6.718  -2.868  1.00  0.00     0.074 A 
ATOM     47  C   UNL     1       3.607   6.510  -3.542  1.00  0.00     0.031 C 
ATOM     48  C   UNL     1       3.889   4.207   2.957  1.00  0.00     0.029 A 
ATOM     49  C   UNL     1       5.123   4.763   2.414  1.00  0.00     0.049 A 
ATOM     50  H   UNL     1       5.386   5.674   0.557  1.00  0.00     0.167 HD
ATOM     51  C   UNL     1       5.922   7.353  -3.433  1.00  0.00     0.031 A 
ATOM     52  C   UNL     1       6.307   4.796   3.061  1.00  0.00     0.031 A 
ATOM     53  C   UNL     1       7.168   7.596  -2.760  1.00  0.00     0.049 A 
ATOM     54  C   UNL     1       7.480   5.479   2.408  1.00  0.00     0.074 A 
ATOM     55  C   UNL     1       8.272   8.292  -3.219  1.00  0.00     0.029 A 
ATOM     56  N   UNL     1       7.472   7.158  -1.481  1.00  0.00    -0.354 N 
ATOM     57  N   UNL     1       7.553   6.034   1.221  1.00  0.00    -0.248 NA
ATOM     58  C   UNL     1       8.717   5.581   3.196  1.00  0.00     0.031 C 
ATOM     59  C   UNL     1       9.265   8.229  -2.237  1.00  0.00     0.029 A 
ATOM     60  C   UNL     1       8.754   7.551  -1.141  1.00  0.00     0.049 A 
ATOM     61  H   UNL     1       6.865   6.644  -0.900  1.00  0.00     0.167 HD
ATOM     62  C   UNL     1       8.825   6.593   1.143  1.00  0.00     0.074 A 
ATOM     63  C   UNL     1       9.483   6.316   2.402  1.00  0.00     0.031 C 
ATOM     64  C   UNL     1       9.393   7.281   0.122  1.00  0.00     0.031 A 
BRANCH  51  65
ATOM     65  C   UNL     1       5.751   7.865  -4.840  1.00  0.00    -0.014 A 
ATOM     66  C   UNL     1       4.852   8.913  -5.119  1.00  0.00     0.010 A 
ATOM     67  C   UNL     1       6.512   7.322  -5.890  1.00  0.00     0.010 A 
ATOM     68  C   UNL     1       4.681   9.373  -6.426  1.00  0.00     0.020 A 
ATOM     69  C   UNL     1       6.370   7.805  -7.195  1.00  0.00     0.020 A 
ATOM     70  C   UNL     1       5.443   8.816  -7.456  1.00  0.00     0.054 A 
BRANCH  70  71
ATOM     71  S   UNL     1       5.221   9.458  -9.137  1.00  0.00     0.124 S 
ATOM     72  O   UNL     1       3.895   8.950  -9.481  1.00  0.00    -0.237 OA
ATOM     73  O   UNL     1       5.306  10.903  -8.940  1.00  0.00    -0.237 OA
ATOM     74  O   UNL     1       6.327   8.867  -9.884  1.00  0.00    -0.744 OA
ENDBRANCH  70  71
ENDBRANCH  51  65
BRANCH  52  75
ATOM     75  C   UNL     1       6.442   4.204   4.426  1.00  0.00    -0.014 A 
ATOM     76  C   UNL     1       6.620   5.028   5.552  1.00  0.00     0.010 A 
ATOM     77  C   UNL     1       6.417   2.808   4.605  1.00  0.00     0.010 A 
ATOM     78  C   UNL     1       6.805   4.471   6.822  1.00  0.00     0.020 A 
ATOM     79  C   UNL     1       6.572   2.247   5.878  1.00  0.00     0.020 A 
ATOM     80  C   UNL     1       6.780   3.083   6.977  1.00  0.00     0.054 A 
BRANCH  80  81
ATOM     81  S   UNL     1       6.994   2.386   8.640  1.00  0.00     0.124 S 
ATOM     82  O   UNL     1       8.402   2.659   8.907  1.00  0.00    -0.237 OA
ATOM     83  O   UNL     1       6.038   3.161   9.429  1.00  0.00    -0.237 OA
ATOM     84  O   UNL     1       6.649   0.977   8.468  1.00  0.00    -0.744 OA
ENDBRANCH  80  81
ENDBRANCH  52  75
BRANCH  64  85
ATOM     85  C   UNL     1      10.778   7.833   0.333  1.00  0.00    -0.014 A 
ATOM     86  C   UNL     1      11.902   6.992   0.392  1.00  0.00     0.010 A 
ATOM     87  C   UNL     1      10.960   9.228   0.399  1.00  0.00     0.010 A 
ATOM     88  C   UNL     1      13.181   7.533   0.543  1.00  0.00     0.020 A 
ATOM     89  C   UNL     1      12.240   9.774   0.516  1.00  0.00     0.020 A 
ATOM     90  C   UNL     1      13.342   8.921   0.600  1.00  0.00     0.054 A 
BRANCH  90  91
ATOM     91  S   UNL     1      15.018   9.598   0.738  1.00  0.00     0.124 S 
ATOM     92  O   UNL     1      15.371   9.256   2.113  1.00  0.00    -0.237 OA
ATOM     93  O   UNL     1      15.744   8.867  -0.298  1.00  0.00    -0.237 OA
ATOM     94  O   UNL     1      14.840  11.025   0.477  1.00  0.00    -0.744 OA
ENDBRANCH  90  91
ENDBRANCH  64  85
ENDBRANCH  38  39
ENDBRANCH  30  33
ENDBRANCH  28  29
ENDBRANCH   1  28
TORSDOF 17
