REMARK SMILES CC[N@H+](Cc1cccc(C)n1)[C@H](C(=O)NCCCNC(=O)c1ccc(-c2c3nc(c(-c4ccc(S(=O)(=O)[O-])cc4)c4ccc([nH]4)c(-c4ccc(S(=O)(=O)[O-])cc4)c4nc(c(-c5ccc(S(=O)(=O)[O-])cc5)c5ccc2[nH]5)C=C4)C=C3)cc1)C(C)C
REMARK SMILES IDX 17 1 16 2 15 3 13 4 14 5 12 7 3 8 2 10 1 11 4 12 5 13 6 14
REMARK SMILES IDX 11 15 7 16 9 17 8 18 10 19 82 20 83 21 84 22 18 23 19 24
REMARK SMILES IDX 20 25 21 27 22 28 23 29 81 30 24 31 80 32 25 33 26 34 27 35
REMARK SMILES IDX 74 36 28 37 79 38 73 39 75 40 29 41 78 42 72 43 71 44 30 46
REMARK SMILES IDX 60 47 41 48 59 49 42 50 45 51 58 52 76 53 43 54 44 55 57 57
REMARK SMILES IDX 77 58 46 59 31 60 32 61 40 62 33 63 39 64 34 65 35 66 36 67
REMARK SMILES IDX 37 68 38 69 61 70 62 71 70 72 63 73 69 74 64 75 65 76 66 77
REMARK SMILES IDX 67 78 68 79 47 80 48 81 56 82 49 83 55 84 50 85 51 86 52 87
REMARK SMILES IDX 53 88 54 89
REMARK H PARENT 15 6 3 9 19 26 75 45 45 56
REMARK Flexibility Score: inf
ROOT
ATOM      1  C   UNL     1       0.775   2.972   5.061  1.00  0.00     0.042 C 
ENDROOT
BRANCH   1   2
ATOM      2  C   UNL     1       1.043   1.490   4.830  1.00  0.00     0.118 C 
BRANCH   2   3
ATOM      3  N   UNL     1       0.426   1.039   3.596  1.00  0.00    -0.351 N 
ATOM      4  C   UNL     1       0.983   0.740   2.388  1.00  0.00     0.278 C 
ATOM      5  O   UNL     1       0.214   0.626   1.430  1.00  0.00    -0.268 OA
ATOM      6  H   UNL     1      -0.551   0.932   3.638  1.00  0.00     0.163 HD
BRANCH   4   7
ATOM      7  C   UNL     1       2.512   0.493   2.267  1.00  0.00     0.277 C 
BRANCH   7   8
ATOM      8  N   UNL     1       2.834  -0.987   2.365  1.00  0.00    -0.320 N 
ATOM      9  H   UNL     1       3.815  -1.105   2.110  1.00  0.00     0.349 HD
BRANCH   8  10
ATOM     10  C   UNL     1       2.092  -1.825   1.397  1.00  0.00     0.259 C 
ATOM     11  C   UNL     1       2.813  -1.952   0.059  1.00  0.00     0.071 C 
ENDBRANCH   8  10
BRANCH   8  12
ATOM     12  C   UNL     1       2.623  -1.445   3.770  1.00  0.00     0.320 C 
BRANCH  12  13
ATOM     13  C   UNL     1       2.977  -2.880   4.146  1.00  0.00     0.095 A 
ATOM     14  C   UNL     1       3.809  -3.684   3.373  1.00  0.00     0.030 A 
ATOM     15  N   UNL     1       2.401  -3.343   5.290  1.00  0.00    -0.252 NA
ATOM     16  C   UNL     1       3.950  -5.027   3.709  1.00  0.00     0.004 A 
ATOM     17  C   UNL     1       2.592  -4.639   5.636  1.00  0.00     0.038 A 
ATOM     18  C   UNL     1       3.331  -5.516   4.853  1.00  0.00     0.023 A 
ATOM     19  C   UNL     1       2.010  -5.081   6.944  1.00  0.00     0.067 C 
ENDBRANCH  12  13
ENDBRANCH   8  12
ENDBRANCH   7   8
BRANCH   7  20
ATOM     20  C   UNL     1       3.090   1.203   1.007  1.00  0.00     0.051 C 
ATOM     21  C   UNL     1       2.686   2.686   0.938  1.00  0.00     0.014 C 
ATOM     22  C   UNL     1       4.621   1.122   0.981  1.00  0.00     0.014 C 
ENDBRANCH   7  20
ENDBRANCH   4   7
ENDBRANCH   2   3
ENDBRANCH   1   2
BRANCH   1  23
ATOM     23  C   UNL     1      -0.704   3.307   5.234  1.00  0.00     0.118 C 
BRANCH  23  24
ATOM     24  N   UNL     1      -1.292   2.663   6.400  1.00  0.00    -0.352 N 
ATOM     25  C   UNL     1      -1.940   3.218   7.477  1.00  0.00     0.251 C 
ATOM     26  H   UNL     1      -1.213   1.682   6.420  1.00  0.00     0.163 HD
ATOM     27  O   UNL     1      -2.199   2.524   8.453  1.00  0.00    -0.269 OA
BRANCH  25  28
ATOM     28  C   UNL     1      -2.303   4.651   7.465  1.00  0.00     0.039 A 
ATOM     29  C   UNL     1      -2.089   5.410   8.618  1.00  0.00     0.014 A 
ATOM     30  C   UNL     1      -2.857   5.244   6.327  1.00  0.00     0.014 A 
ATOM     31  C   UNL     1      -2.370   6.778   8.607  1.00  0.00     0.010 A 
ATOM     32  C   UNL     1      -3.058   6.621   6.292  1.00  0.00     0.010 A 
ATOM     33  C   UNL     1      -2.819   7.403   7.431  1.00  0.00    -0.014 A 
BRANCH  33  34
ATOM     34  C   UNL     1      -3.036   8.872   7.375  1.00  0.00     0.031 A 
ATOM     35  C   UNL     1      -4.408   9.428   7.101  1.00  0.00     0.074 A 
ATOM     36  C   UNL     1      -1.984   9.705   7.508  1.00  0.00     0.049 A 
ATOM     37  N   UNL     1      -4.779  10.675   6.964  1.00  0.00    -0.248 NA
ATOM     38  C   UNL     1      -5.502   8.456   6.938  1.00  0.00     0.031 C 
ATOM     39  C   UNL     1      -0.598   9.289   7.736  1.00  0.00     0.029 A 
ATOM     40  N   UNL     1      -1.915  11.075   7.466  1.00  0.00    -0.354 N 
ATOM     41  C   UNL     1      -6.140  10.637   6.683  1.00  0.00     0.074 A 
ATOM     42  C   UNL     1      -6.519   9.243   6.618  1.00  0.00     0.031 C 
ATOM     43  C   UNL     1       0.178  10.380   7.842  1.00  0.00     0.029 A 
ATOM     44  C   UNL     1      -0.643  11.570   7.643  1.00  0.00     0.049 A 
ATOM     45  H   UNL     1      -2.701  11.650   7.323  1.00  0.00     0.167 HD
ATOM     46  C   UNL     1      -7.000  11.669   6.512  1.00  0.00     0.031 A 
ATOM     47  C   UNL     1      -0.185  12.837   7.635  1.00  0.00     0.031 A 
ATOM     48  C   UNL     1      -6.619  13.055   6.582  1.00  0.00     0.049 A 
ATOM     49  C   UNL     1      -1.157  13.965   7.423  1.00  0.00     0.074 A 
ATOM     50  C   UNL     1      -7.427  14.175   6.479  1.00  0.00     0.029 A 
ATOM     51  N   UNL     1      -5.323  13.514   6.766  1.00  0.00    -0.354 N 
ATOM     52  N   UNL     1      -2.453  13.911   7.230  1.00  0.00    -0.248 NA
ATOM     53  C   UNL     1      -0.606  15.327   7.442  1.00  0.00     0.031 C 
ATOM     54  C   UNL     1      -6.611  15.309   6.537  1.00  0.00     0.029 A 
ATOM     55  C   UNL     1      -5.304  14.899   6.749  1.00  0.00     0.049 A 
ATOM     56  H   UNL     1      -4.533  12.940   6.891  1.00  0.00     0.167 HD
ATOM     57  C   UNL     1      -2.877  15.232   7.132  1.00  0.00     0.074 A 
ATOM     58  C   UNL     1      -1.702  16.061   7.305  1.00  0.00     0.031 C 
ATOM     59  C   UNL     1      -4.127  15.713   6.920  1.00  0.00     0.031 A 
BRANCH  46  60
ATOM     60  C   UNL     1      -8.442  11.338   6.221  1.00  0.00    -0.014 A 
ATOM     61  C   UNL     1      -9.267  10.748   7.197  1.00  0.00     0.010 A 
ATOM     62  C   UNL     1      -8.994  11.663   4.968  1.00  0.00     0.010 A 
ATOM     63  C   UNL     1     -10.603  10.453   6.912  1.00  0.00     0.020 A 
ATOM     64  C   UNL     1     -10.338  11.399   4.690  1.00  0.00     0.020 A 
ATOM     65  C   UNL     1     -11.130  10.780   5.659  1.00  0.00     0.054 A 
BRANCH  65  66
ATOM     66  S   UNL     1     -12.874  10.409   5.329  1.00  0.00     0.124 S 
ATOM     67  O   UNL     1     -12.860   8.951   5.235  1.00  0.00    -0.237 OA
ATOM     68  O   UNL     1     -13.545  10.956   6.505  1.00  0.00    -0.237 OA
ATOM     69  O   UNL     1     -13.148  11.111   4.077  1.00  0.00    -0.744 OA
ENDBRANCH  65  66
ENDBRANCH  46  60
BRANCH  47  70
ATOM     70  C   UNL     1       1.266  13.104   7.840  1.00  0.00    -0.014 A 
ATOM     71  C   UNL     1       1.721  13.727   9.015  1.00  0.00     0.010 A 
ATOM     72  C   UNL     1       2.204  12.724   6.862  1.00  0.00     0.010 A 
ATOM     73  C   UNL     1       3.084  13.982   9.201  1.00  0.00     0.020 A 
ATOM     74  C   UNL     1       3.570  12.948   7.058  1.00  0.00     0.020 A 
ATOM     75  C   UNL     1       4.000  13.587   8.222  1.00  0.00     0.054 A 
BRANCH  75  76
ATOM     76  S   UNL     1       5.767  13.883   8.508  1.00  0.00     0.124 S 
ATOM     77  O   UNL     1       5.862  15.331   8.355  1.00  0.00    -0.237 OA
ATOM     78  O   UNL     1       5.955  13.375   9.864  1.00  0.00    -0.237 OA
ATOM     79  O   UNL     1       6.418  13.098   7.461  1.00  0.00    -0.744 OA
ENDBRANCH  75  76
ENDBRANCH  47  70
BRANCH  59  80
ATOM     80  C   UNL     1      -4.301  17.210   6.899  1.00  0.00    -0.014 A 
ATOM     81  C   UNL     1      -3.811  17.990   5.837  1.00  0.00     0.010 A 
ATOM     82  C   UNL     1      -5.018  17.837   7.935  1.00  0.00     0.010 A 
ATOM     83  C   UNL     1      -4.005  19.375   5.829  1.00  0.00     0.020 A 
ATOM     84  C   UNL     1      -5.243  19.215   7.914  1.00  0.00     0.020 A 
ATOM     85  C   UNL     1      -4.722  19.978   6.867  1.00  0.00     0.054 A 
BRANCH  85  86
ATOM     86  S   UNL     1      -4.999  21.769   6.810  1.00  0.00     0.124 S 
ATOM     87  O   UNL     1      -3.667  22.292   7.103  1.00  0.00    -0.237 OA
ATOM     88  O   UNL     1      -5.468  21.977   5.442  1.00  0.00    -0.237 OA
ATOM     89  O   UNL     1      -6.001  22.000   7.848  1.00  0.00    -0.744 OA
ENDBRANCH  85  86
ENDBRANCH  59  80
ENDBRANCH  33  34
ENDBRANCH  25  28
ENDBRANCH  23  24
ENDBRANCH   1  23
TORSDOF 18
