REMARK SMILES Cc1cccc([C@H]([NH3+])[C@H](O)C(=O)NCCCNC(=O)c2ccc(-c3c4nc(c(-c5ccc(S(=O)(=O)[O-])cc5)c5ccc([nH]5)c(-c5ccc(S(=O)(=O)[O-])cc5)c5nc(c(-c6ccc(S(=O)(=O)[O-])cc6)c6ccc3[nH]6)C=C5)C=C4)cc2)c1
REMARK SMILES IDX 15 1 14 2 13 3 11 4 12 5 9 7 7 8 6 9 1 10 2 11 3 12 80 13
REMARK SMILES IDX 4 14 5 15 8 16 10 20 16 22 17 23 18 24 19 26 20 27 21 28
REMARK SMILES IDX 79 29 22 30 78 31 23 32 24 33 25 34 72 35 26 36 77 37 71 38
REMARK SMILES IDX 73 39 27 40 76 41 70 42 69 43 28 45 58 46 39 47 57 48 40 49
REMARK SMILES IDX 43 50 56 51 74 52 41 53 42 54 55 56 75 57 44 58 29 59 30 60
REMARK SMILES IDX 38 61 31 62 37 63 32 64 33 65 34 66 35 67 36 68 59 69 60 70
REMARK SMILES IDX 68 71 61 72 67 73 62 74 63 75 64 76 65 77 66 78 45 79 46 80
REMARK SMILES IDX 54 81 47 82 53 83 48 84 49 85 50 86 51 87 52 88
REMARK H PARENT 13 6 8 17 8 18 8 19 10 21 17 25 73 44 43 55
REMARK Flexibility Score: inf
ROOT
ATOM      1  C   UNL     1      -0.798   5.487  -0.029  1.00  0.00     0.042 C 
ENDROOT
BRANCH   1   2
ATOM      2  C   UNL     1      -1.421   5.317   1.343  1.00  0.00     0.117 C 
BRANCH   2   3
ATOM      3  N   UNL     1      -2.828   4.966   1.321  1.00  0.00    -0.354 N 
ATOM      4  C   UNL     1      -3.403   3.739   1.501  1.00  0.00     0.255 C 
ATOM      5  O   UNL     1      -4.634   3.676   1.561  1.00  0.00    -0.272 OA
ATOM      6  H   UNL     1      -3.451   5.710   1.155  1.00  0.00     0.163 HD
BRANCH   4   7
ATOM      7  C   UNL     1      -2.549   2.443   1.539  1.00  0.00     0.266 C 
BRANCH   7   8
ATOM      8  C   UNL     1      -1.703   2.295   2.861  1.00  0.00     0.250 C 
BRANCH   8   9
ATOM      9  C   UNL     1      -0.184   2.255   2.670  1.00  0.00     0.013 A 
ATOM     10  C   UNL     1       2.465   0.216   0.813  1.00  0.00     0.044 C 
ATOM     11  C   UNL     1       1.811   1.293   1.626  1.00  0.00    -0.051 A 
ATOM     12  C   UNL     1       2.555   2.401   2.042  1.00  0.00     0.003 A 
ATOM     13  C   UNL     1       0.440   1.240   1.921  1.00  0.00     0.013 A 
ATOM     14  C   UNL     1       1.964   3.392   2.821  1.00  0.00     0.001 A 
ATOM     15  C   UNL     1       0.618   3.292   3.175  1.00  0.00     0.010 A 
ENDBRANCH   8   9
BRANCH   8  16
ATOM     16  N   UNL     1      -2.123   1.120   3.666  1.00  0.00    -0.349 N 
ATOM     17  H   UNL     1      -1.911   0.264   3.153  1.00  0.00     0.345 HD
ATOM     18  H   UNL     1      -3.126   1.170   3.845  1.00  0.00     0.345 HD
ATOM     19  H   UNL     1      -1.619   1.118   4.553  1.00  0.00     0.345 HD
ENDBRANCH   8  16
ENDBRANCH   7   8
BRANCH   7  20
ATOM     20  O   UNL     1      -1.795   2.309   0.329  1.00  0.00    -0.378 OA
ATOM     21  H   UNL     1      -1.175   3.051   0.251  1.00  0.00     0.211 HD
ENDBRANCH   7  20
ENDBRANCH   4   7
ENDBRANCH   2   3
ENDBRANCH   1   2
BRANCH   1  22
ATOM     22  C   UNL     1      -0.621   6.954  -0.379  1.00  0.00     0.118 C 
BRANCH  22  23
ATOM     23  N   UNL     1       0.743   7.447  -0.198  1.00  0.00    -0.352 N 
ATOM     24  C   UNL     1       1.270   8.659  -0.629  1.00  0.00     0.251 C 
ATOM     25  H   UNL     1       1.360   6.851   0.286  1.00  0.00     0.163 HD
ATOM     26  O   UNL     1       2.455   8.911  -0.597  1.00  0.00    -0.269 OA
BRANCH  24  27
ATOM     27  C   UNL     1       0.283   9.682  -1.040  1.00  0.00     0.039 A 
ATOM     28  C   UNL     1       0.048  10.727  -0.142  1.00  0.00     0.014 A 
ATOM     29  C   UNL     1      -0.626   9.367  -2.043  1.00  0.00     0.014 A 
ATOM     30  C   UNL     1      -1.211  11.316  -0.104  1.00  0.00     0.010 A 
ATOM     31  C   UNL     1      -1.909   9.857  -1.916  1.00  0.00     0.010 A 
ATOM     32  C   UNL     1      -2.214  10.793  -0.914  1.00  0.00    -0.014 A 
BRANCH  32  33
ATOM     33  C   UNL     1      -3.624  11.143  -0.799  1.00  0.00     0.031 A 
ATOM     34  C   UNL     1      -4.229  11.965  -1.877  1.00  0.00     0.074 A 
ATOM     35  C   UNL     1      -4.388  10.633   0.195  1.00  0.00     0.049 A 
ATOM     36  N   UNL     1      -5.372  12.557  -1.810  1.00  0.00    -0.248 NA
ATOM     37  C   UNL     1      -3.527  12.233  -3.132  1.00  0.00     0.031 C 
ATOM     38  C   UNL     1      -5.850  10.612   0.243  1.00  0.00     0.029 A 
ATOM     39  N   UNL     1      -4.015  10.212   1.476  1.00  0.00    -0.354 N 
ATOM     40  C   UNL     1      -5.688  12.997  -3.077  1.00  0.00     0.074 A 
ATOM     41  C   UNL     1      -4.473  12.854  -3.839  1.00  0.00     0.031 C 
ATOM     42  C   UNL     1      -6.238  10.518   1.525  1.00  0.00     0.029 A 
ATOM     43  C   UNL     1      -5.039  10.655   2.333  1.00  0.00     0.049 A 
ATOM     44  H   UNL     1      -3.205   9.711   1.726  1.00  0.00     0.167 HD
ATOM     45  C   UNL     1      -6.983  13.297  -3.376  1.00  0.00     0.031 A 
ATOM     46  C   UNL     1      -4.871  11.601   3.308  1.00  0.00     0.031 A 
ATOM     47  C   UNL     1      -7.808  13.324  -2.169  1.00  0.00     0.049 A 
ATOM     48  C   UNL     1      -5.787  12.800   3.139  1.00  0.00     0.074 A 
ATOM     49  C   UNL     1      -8.691  12.424  -1.597  1.00  0.00     0.029 A 
ATOM     50  N   UNL     1      -7.529  14.276  -1.194  1.00  0.00    -0.354 N 
ATOM     51  N   UNL     1      -6.403  13.096   2.026  1.00  0.00    -0.248 NA
ATOM     52  C   UNL     1      -6.065  13.772   4.195  1.00  0.00     0.031 C 
ATOM     53  C   UNL     1      -8.851  12.781  -0.230  1.00  0.00     0.029 A 
ATOM     54  C   UNL     1      -8.101  13.919   0.012  1.00  0.00     0.049 A 
ATOM     55  H   UNL     1      -6.998  15.091  -1.342  1.00  0.00     0.167 HD
ATOM     56  C   UNL     1      -7.152  14.232   2.193  1.00  0.00     0.074 A 
ATOM     57  C   UNL     1      -6.909  14.616   3.573  1.00  0.00     0.031 C 
ATOM     58  C   UNL     1      -7.908  14.762   1.187  1.00  0.00     0.031 A 
BRANCH  45  59
ATOM     59  C   UNL     1      -7.541  13.286  -4.787  1.00  0.00    -0.014 A 
ATOM     60  C   UNL     1      -8.917  13.048  -4.991  1.00  0.00     0.010 A 
ATOM     61  C   UNL     1      -6.764  13.409  -5.955  1.00  0.00     0.010 A 
ATOM     62  C   UNL     1      -9.460  12.852  -6.273  1.00  0.00     0.020 A 
ATOM     63  C   UNL     1      -7.283  13.187  -7.239  1.00  0.00     0.020 A 
ATOM     64  C   UNL     1      -8.631  12.896  -7.391  1.00  0.00     0.054 A 
BRANCH  64  65
ATOM     65  S   UNL     1      -9.319  12.565  -9.034  1.00  0.00     0.124 S 
ATOM     66  O   UNL     1      -9.892  11.231  -8.873  1.00  0.00    -0.237 OA
ATOM     67  O   UNL     1     -10.282  13.650  -9.195  1.00  0.00    -0.237 OA
ATOM     68  O   UNL     1      -8.156  12.632  -9.918  1.00  0.00    -0.744 OA
ENDBRANCH  64  65
ENDBRANCH  45  59
BRANCH  46  69
ATOM     69  C   UNL     1      -3.506  11.635   3.905  1.00  0.00    -0.014 A 
ATOM     70  C   UNL     1      -3.122  10.526   4.689  1.00  0.00     0.010 A 
ATOM     71  C   UNL     1      -2.508  12.462   3.361  1.00  0.00     0.010 A 
ATOM     72  C   UNL     1      -1.784  10.133   4.754  1.00  0.00     0.020 A 
ATOM     73  C   UNL     1      -1.160  12.076   3.439  1.00  0.00     0.020 A 
ATOM     74  C   UNL     1      -0.823  10.872   4.065  1.00  0.00     0.054 A 
BRANCH  74  75
ATOM     75  S   UNL     1       0.805  10.102   3.802  1.00  0.00     0.124 S 
ATOM     76  O   UNL     1       1.276   9.890   5.167  1.00  0.00    -0.237 OA
ATOM     77  O   UNL     1       0.443   8.891   3.065  1.00  0.00    -0.237 OA
ATOM     78  O   UNL     1       1.531  11.107   3.033  1.00  0.00    -0.744 OA
ENDBRANCH  74  75
ENDBRANCH  46  69
BRANCH  58  79
ATOM     79  C   UNL     1      -8.603  16.105   1.209  1.00  0.00    -0.014 A 
ATOM     80  C   UNL     1      -8.205  17.186   2.009  1.00  0.00     0.010 A 
ATOM     81  C   UNL     1      -9.632  16.352   0.266  1.00  0.00     0.010 A 
ATOM     82  C   UNL     1      -8.838  18.435   1.913  1.00  0.00     0.020 A 
ATOM     83  C   UNL     1     -10.237  17.604   0.129  1.00  0.00     0.020 A 
ATOM     84  C   UNL     1      -9.850  18.636   0.974  1.00  0.00     0.054 A 
BRANCH  84  85
ATOM     85  S   UNL     1     -10.605  20.273   0.799  1.00  0.00     0.124 S 
ATOM     86  O   UNL     1     -11.697  20.205   1.768  1.00  0.00    -0.237 OA
ATOM     87  O   UNL     1      -9.513  21.178   1.150  1.00  0.00    -0.237 OA
ATOM     88  O   UNL     1     -11.011  20.314  -0.603  1.00  0.00    -0.744 OA
ENDBRANCH  84  85
ENDBRANCH  58  79
ENDBRANCH  32  33
ENDBRANCH  24  27
ENDBRANCH  22  23
ENDBRANCH   1  22
TORSDOF 17
