REMARK SMILES NC(=O)CC[N@@H+]1[C@@H](C(=O)NCCCNC(=O)c2ccc(-c3c4nc(c(-c5ccc(S(=O)(=O)[O-])cc5)c5ccc([nH]5)c(-c5ccc(S(=O)(=O)[O-])cc5)c5nc(c(-c6ccc(S(=O)(=O)[O-])cc6)c6ccc3[nH]6)C=C5)C=C4)cc2)CC[C@@H]2CCCC[C@H]21
REMARK SMILES IDX 12 1 11 2 10 3 8 4 9 5 7 7 6 8 84 9 77 11 79 12 83 13 78 14
REMARK SMILES IDX 80 15 82 16 81 17 5 18 4 19 2 20 1 21 3 24 13 25 14 26 15 27
REMARK SMILES IDX 16 29 17 30 18 31 76 32 19 33 75 34 20 35 21 36 22 37 69 38
REMARK SMILES IDX 23 39 74 40 68 41 70 42 24 43 73 44 67 45 66 46 25 48 55 49
REMARK SMILES IDX 36 50 54 51 37 52 40 53 53 54 71 55 38 56 39 57 52 59 72 60
REMARK SMILES IDX 41 61 26 62 27 63 35 64 28 65 34 66 29 67 30 68 31 69 32 70
REMARK SMILES IDX 33 71 56 72 57 73 65 74 58 75 64 76 59 77 60 78 61 79 62 80
REMARK SMILES IDX 63 81 42 82 43 83 51 84 44 85 50 86 45 87 46 88 47 89 48 90
REMARK SMILES IDX 49 91
REMARK H PARENT 10 6 6 10 1 22 1 23 14 28 70 47 40 58
REMARK Flexibility Score: inf
ROOT
ATOM      1  C   UNL     1       3.548  -3.715  -2.875  1.00  0.00     0.042 C 
ENDROOT
BRANCH   1   2
ATOM      2  C   UNL     1       2.791  -3.422  -1.587  1.00  0.00     0.118 C 
BRANCH   2   3
ATOM      3  N   UNL     1       3.289  -4.206  -0.473  1.00  0.00    -0.351 N 
ATOM      4  C   UNL     1       3.914  -3.799   0.668  1.00  0.00     0.278 C 
ATOM      5  O   UNL     1       4.223  -4.665   1.494  1.00  0.00    -0.268 OA
ATOM      6  H   UNL     1       3.156  -5.178  -0.553  1.00  0.00     0.163 HD
BRANCH   4   7
ATOM      7  C   UNL     1       4.221  -2.310   0.940  1.00  0.00     0.274 C 
ATOM      8  N   UNL     1       2.972  -1.437   0.951  1.00  0.00    -0.322 N 
ATOM      9  C   UNL     1       3.377  -0.009   1.194  1.00  0.00     0.187 C 
ATOM     10  H   UNL     1       2.470  -1.415   0.064  1.00  0.00     0.349 HD
ATOM     11  C   UNL     1       5.327  -1.867  -0.022  1.00  0.00     0.076 C 
ATOM     12  C   UNL     1       4.435   0.440   0.133  1.00  0.00     0.048 C 
ATOM     13  C   UNL     1       2.209   1.004   1.136  1.00  0.00     0.065 C 
ATOM     14  C   UNL     1       5.695  -0.420   0.203  1.00  0.00     0.016 C 
ATOM     15  C   UNL     1       4.845   1.914   0.265  1.00  0.00     0.010 C 
ATOM     16  C   UNL     1       2.645   2.459   1.281  1.00  0.00     0.006 C 
ATOM     17  C   UNL     1       3.644   2.841   0.207  1.00  0.00     0.001 C 
BRANCH   8  18
ATOM     18  C   UNL     1       2.046  -2.031   1.968  1.00  0.00     0.273 C 
BRANCH  18  19
ATOM     19  C   UNL     1       0.642  -1.494   2.267  1.00  0.00     0.161 C 
BRANCH  19  20
ATOM     20  C   UNL     1      -0.283  -1.163   1.113  1.00  0.00     0.223 C 
ATOM     21  N   UNL     1       0.211  -1.270  -0.144  1.00  0.00    -0.369 N 
ATOM     22  H   UNL     1      -0.362  -1.063  -0.917  1.00  0.00     0.159 HD
ATOM     23  H   UNL     1       1.143  -1.555  -0.285  1.00  0.00     0.159 HD
ATOM     24  O   UNL     1      -1.440  -0.796   1.298  1.00  0.00    -0.275 OA
ENDBRANCH  19  20
ENDBRANCH  18  19
ENDBRANCH   8  18
ENDBRANCH   4   7
ENDBRANCH   2   3
ENDBRANCH   1   2
BRANCH   1  25
ATOM     25  C   UNL     1       3.354  -5.133  -3.394  1.00  0.00     0.118 C 
BRANCH  25  26
ATOM     26  N   UNL     1       1.977  -5.401  -3.783  1.00  0.00    -0.352 N 
ATOM     27  C   UNL     1       1.454  -5.716  -5.012  1.00  0.00     0.251 C 
ATOM     28  H   UNL     1       1.320  -5.348  -3.052  1.00  0.00     0.163 HD
ATOM     29  O   UNL     1       0.235  -5.700  -5.172  1.00  0.00    -0.269 OA
BRANCH  27  30
ATOM     30  C   UNL     1       2.347  -6.051  -6.142  1.00  0.00     0.039 A 
ATOM     31  C   UNL     1       2.055  -5.541  -7.410  1.00  0.00     0.014 A 
ATOM     32  C   UNL     1       3.461  -6.875  -5.961  1.00  0.00     0.014 A 
ATOM     33  C   UNL     1       2.919  -5.798  -8.477  1.00  0.00     0.010 A 
ATOM     34  C   UNL     1       4.365  -7.059  -7.003  1.00  0.00     0.010 A 
ATOM     35  C   UNL     1       4.104  -6.525  -8.273  1.00  0.00    -0.014 A 
BRANCH  35  36
ATOM     36  C   UNL     1       5.085  -6.729  -9.370  1.00  0.00     0.031 A 
ATOM     37  C   UNL     1       5.402  -8.118  -9.855  1.00  0.00     0.074 A 
ATOM     38  C   UNL     1       5.736  -5.668  -9.887  1.00  0.00     0.049 A 
ATOM     39  N   UNL     1       6.274  -8.498 -10.754  1.00  0.00    -0.248 NA
ATOM     40  C   UNL     1       4.659  -9.228  -9.235  1.00  0.00     0.031 C 
ATOM     41  C   UNL     1       5.542  -4.273  -9.481  1.00  0.00     0.029 A 
ATOM     42  N   UNL     1       6.698  -5.596 -10.864  1.00  0.00    -0.354 N 
ATOM     43  C   UNL     1       6.195  -9.885 -10.798  1.00  0.00     0.074 A 
ATOM     44  C   UNL     1       5.229 -10.284  -9.798  1.00  0.00     0.031 C 
ATOM     45  C   UNL     1       6.333  -3.484 -10.224  1.00  0.00     0.029 A 
ATOM     46  C   UNL     1       7.127  -4.315 -11.123  1.00  0.00     0.049 A 
ATOM     47  H   UNL     1       7.048  -6.386 -11.334  1.00  0.00     0.167 HD
ATOM     48  C   UNL     1       6.850 -10.748 -11.611  1.00  0.00     0.031 A 
ATOM     49  C   UNL     1       8.061  -3.858 -11.981  1.00  0.00     0.031 A 
ATOM     50  C   UNL     1       7.808 -10.346 -12.607  1.00  0.00     0.049 A 
ATOM     51  C   UNL     1       8.800  -4.840 -12.849  1.00  0.00     0.074 A 
ATOM     52  C   UNL     1       8.493 -11.141 -13.510  1.00  0.00     0.029 A 
ATOM     53  N   UNL     1       8.219  -9.041 -12.832  1.00  0.00    -0.354 N 
ATOM     54  N   UNL     1       8.670  -6.144 -12.914  1.00  0.00    -0.248 NA
ATOM     55  C   UNL     1       9.806  -4.287 -13.766  1.00  0.00     0.031 C 
ATOM     56  C   UNL     1       9.361 -10.324 -14.240  1.00  0.00     0.029 A 
ATOM     57  C   UNL     1       9.168  -9.011 -13.841  1.00  0.00     0.049 A 
ATOM     58  H   UNL     1       7.886  -8.252 -12.347  1.00  0.00     0.167 HD
ATOM     59  C   UNL     1       9.555  -6.563 -13.900  1.00  0.00     0.074 A 
ATOM     60  C   UNL     1      10.204  -5.374 -14.414  1.00  0.00     0.031 C 
ATOM     61  C   UNL     1       9.806  -7.820 -14.343  1.00  0.00     0.031 A 
BRANCH  48  62
ATOM     62  C   UNL     1       6.557 -12.218 -11.452  1.00  0.00    -0.014 A 
ATOM     63  C   UNL     1       5.309 -12.753 -11.820  1.00  0.00     0.010 A 
ATOM     64  C   UNL     1       7.558 -13.084 -10.975  1.00  0.00     0.010 A 
ATOM     65  C   UNL     1       5.054 -14.120 -11.678  1.00  0.00     0.020 A 
ATOM     66  C   UNL     1       7.317 -14.457 -10.861  1.00  0.00     0.020 A 
ATOM     67  C   UNL     1       6.061 -14.963 -11.198  1.00  0.00     0.054 A 
BRANCH  67  68
ATOM     68  S   UNL     1       5.710 -16.737 -11.052  1.00  0.00     0.124 S 
ATOM     69  O   UNL     1       4.786 -16.768  -9.921  1.00  0.00    -0.237 OA
ATOM     70  O   UNL     1       5.122 -17.054 -12.351  1.00  0.00    -0.237 OA
ATOM     71  O   UNL     1       7.020 -17.331 -10.801  1.00  0.00    -0.744 OA
ENDBRANCH  67  68
ENDBRANCH  48  62
BRANCH  49  72
ATOM     72  C   UNL     1       8.340  -2.398 -12.070  1.00  0.00    -0.014 A 
ATOM     73  C   UNL     1       7.981  -1.672 -13.220  1.00  0.00     0.010 A 
ATOM     74  C   UNL     1       8.959  -1.723 -11.002  1.00  0.00     0.010 A 
ATOM     75  C   UNL     1       8.252  -0.304 -13.307  1.00  0.00     0.020 A 
ATOM     76  C   UNL     1       9.203  -0.348 -11.073  1.00  0.00     0.020 A 
ATOM     77  C   UNL     1       8.859   0.350 -12.231  1.00  0.00     0.054 A 
BRANCH  77  78
ATOM     78  S   UNL     1       9.155   2.136 -12.348  1.00  0.00     0.124 S 
ATOM     79  O   UNL     1      10.251   2.200 -13.310  1.00  0.00    -0.237 OA
ATOM     80  O   UNL     1       7.867   2.638 -12.820  1.00  0.00    -0.237 OA
ATOM     81  O   UNL     1       9.499   2.516 -10.980  1.00  0.00    -0.744 OA
ENDBRANCH  77  78
ENDBRANCH  49  72
BRANCH  61  82
ATOM     82  C   UNL     1      10.799  -7.978 -15.465  1.00  0.00    -0.014 A 
ATOM     83  C   UNL     1      12.175  -7.778 -15.259  1.00  0.00     0.010 A 
ATOM     84  C   UNL     1      10.349  -8.392 -16.733  1.00  0.00     0.010 A 
ATOM     85  C   UNL     1      13.080  -7.961 -16.308  1.00  0.00     0.020 A 
ATOM     86  C   UNL     1      11.253  -8.606 -17.775  1.00  0.00     0.020 A 
ATOM     87  C   UNL     1      12.613  -8.377 -17.559  1.00  0.00     0.054 A 
BRANCH  87  88
ATOM     88  S   UNL     1      13.815  -8.655 -18.889  1.00  0.00     0.124 S 
ATOM     89  O   UNL     1      14.214  -7.293 -19.228  1.00  0.00    -0.237 OA
ATOM     90  O   UNL     1      14.837  -9.465 -18.231  1.00  0.00    -0.237 OA
ATOM     91  O   UNL     1      13.042  -9.352 -19.915  1.00  0.00    -0.744 OA
ENDBRANCH  87  88
ENDBRANCH  61  82
ENDBRANCH  35  36
ENDBRANCH  27  30
ENDBRANCH  25  26
ENDBRANCH   1  25
TORSDOF 16
