REMARK SMILES Cc1ccc(/C=C/C(=O)NC[C@H]2CC[C@@H](C(=O)NCCCNC(=O)c3ccc(-c4c5nc(c(-c6ccc(S(=O)(=O)[O-])cc6)c6ccc([nH]6)c(-c6ccc(S(=O)(=O)[O-])cc6)c6nc(c(-c7ccc(S(=O)(=O)[O-])cc7)c7ccc4[nH]7)C=C6)C=C5)cc3)CC2)s1
REMARK SMILES IDX 19 1 18 2 16 3 17 4 15 6 12 7 13 8 86 9 14 10 85 11 11 12
REMARK SMILES IDX 10 13 8 14 9 15 7 17 6 18 5 19 1 20 2 21 3 22 87 23 4 24
REMARK SMILES IDX 20 25 21 26 22 27 23 28 24 30 25 31 26 32 84 33 27 34 83 35
REMARK SMILES IDX 28 36 29 37 30 38 77 39 31 40 82 41 76 42 78 43 32 44 81 45
REMARK SMILES IDX 75 46 74 47 33 49 63 50 44 51 62 52 45 53 48 54 61 55 79 56
REMARK SMILES IDX 46 57 47 58 60 60 80 61 49 62 34 63 35 64 43 65 36 66 42 67
REMARK SMILES IDX 37 68 38 69 39 70 40 71 41 72 64 73 65 74 73 75 66 76 72 77
REMARK SMILES IDX 67 78 68 79 69 80 70 81 71 82 50 83 51 84 59 85 52 86 58 87
REMARK SMILES IDX 53 88 54 89 55 90 56 91 57 92
REMARK H PARENT 18 5 10 16 22 29 78 48 48 59
REMARK Flexibility Score: inf
ROOT
ATOM      1  C   UNL     1      -3.368   0.135   2.512  1.00  0.00     0.117 C 
ENDROOT
BRANCH   1   2
ATOM      2  N   UNL     1      -3.337  -0.418   3.842  1.00  0.00    -0.356 N 
ATOM      3  C   UNL     1      -4.245  -1.207   4.471  1.00  0.00     0.223 C 
ATOM      4  O   UNL     1      -3.800  -1.958   5.349  1.00  0.00    -0.275 OA
ATOM      5  H   UNL     1      -2.539  -0.191   4.372  1.00  0.00     0.163 HD
BRANCH   3   6
ATOM      6  C   UNL     1      -5.753  -1.234   4.159  1.00  0.00     0.078 C 
ATOM      7  C   UNL     1      -6.892  -0.728   1.412  1.00  0.00     0.008 C 
ATOM      8  C   UNL     1      -6.085  -1.979   1.770  1.00  0.00     0.006 C 
ATOM      9  C   UNL     1      -6.728   0.451   2.397  1.00  0.00     0.006 C 
ATOM     10  C   UNL     1      -6.178  -2.364   3.229  1.00  0.00     0.014 C 
ATOM     11  C   UNL     1      -6.466   0.087   3.866  1.00  0.00     0.014 C 
BRANCH   7  12
ATOM     12  C   UNL     1      -6.671  -0.370  -0.084  1.00  0.00     0.119 C 
BRANCH  12  13
ATOM     13  N   UNL     1      -5.755   0.720  -0.349  1.00  0.00    -0.352 N 
ATOM     14  C   UNL     1      -4.545   0.839  -0.933  1.00  0.00     0.244 C 
ATOM     15  O   UNL     1      -4.189   1.986  -1.224  1.00  0.00    -0.270 OA
ATOM     16  H   UNL     1      -6.098   1.584  -0.024  1.00  0.00     0.163 HD
BRANCH  14  17
ATOM     17  C   UNL     1      -3.567  -0.249  -1.177  1.00  0.00     0.072 C 
ATOM     18  C   UNL     1      -3.462  -1.529  -0.784  1.00  0.00     0.024 C 
BRANCH  18  19
ATOM     19  C   UNL     1      -2.167  -2.135  -0.867  1.00  0.00     0.027 A 
ATOM     20  C   UNL     1       1.589  -1.758   0.010  1.00  0.00     0.056 C 
ATOM     21  C   UNL     1       0.263  -2.245  -0.469  1.00  0.00     0.002 A 
ATOM     22  C   UNL     1      -0.079  -2.783  -1.693  1.00  0.00     0.016 A 
ATOM     23  S   UNL     1      -1.127  -2.143   0.517  1.00  0.00    -0.141 S 
ATOM     24  C   UNL     1      -1.495  -2.723  -1.923  1.00  0.00     0.020 A 
ENDBRANCH  18  19
ENDBRANCH  14  17
ENDBRANCH  12  13
ENDBRANCH   7  12
ENDBRANCH   3   6
ENDBRANCH   1   2
BRANCH   1  25
ATOM     25  C   UNL     1      -3.000   1.603   2.395  1.00  0.00     0.042 C 
BRANCH  25  26
ATOM     26  C   UNL     1      -1.586   1.894   1.891  1.00  0.00     0.118 C 
BRANCH  26  27
ATOM     27  N   UNL     1      -1.158   1.137   0.714  1.00  0.00    -0.352 N 
ATOM     28  C   UNL     1      -0.602   1.541  -0.476  1.00  0.00     0.251 C 
ATOM     29  H   UNL     1      -1.293   0.165   0.788  1.00  0.00     0.163 HD
ATOM     30  O   UNL     1      -0.320   0.730  -1.355  1.00  0.00    -0.269 OA
BRANCH  28  31
ATOM     31  C   UNL     1      -0.337   2.954  -0.726  1.00  0.00     0.039 A 
ATOM     32  C   UNL     1      -0.675   3.501  -1.969  1.00  0.00     0.014 A 
ATOM     33  C   UNL     1       0.262   3.719   0.268  1.00  0.00     0.014 A 
ATOM     34  C   UNL     1      -0.479   4.858  -2.188  1.00  0.00     0.010 A 
ATOM     35  C   UNL     1       0.354   5.080   0.092  1.00  0.00     0.010 A 
ATOM     36  C   UNL     1      -0.001   5.652  -1.140  1.00  0.00    -0.014 A 
BRANCH  36  37
ATOM     37  C   UNL     1       0.213   7.100  -1.274  1.00  0.00     0.031 A 
ATOM     38  C   UNL     1       1.613   7.608  -1.101  1.00  0.00     0.074 A 
ATOM     39  C   UNL     1      -0.858   7.909  -1.344  1.00  0.00     0.049 A 
ATOM     40  N   UNL     1       2.026   8.815  -0.835  1.00  0.00    -0.248 NA
ATOM     41  C   UNL     1       2.686   6.596  -1.145  1.00  0.00     0.031 C 
ATOM     42  C   UNL     1      -2.253   7.468  -1.458  1.00  0.00     0.029 A 
ATOM     43  N   UNL     1      -0.943   9.272  -1.289  1.00  0.00    -0.354 N 
ATOM     44  C   UNL     1       3.393   8.694  -0.611  1.00  0.00     0.074 A 
ATOM     45  C   UNL     1       3.729   7.294  -0.728  1.00  0.00     0.031 C 
ATOM     46  C   UNL     1      -3.054   8.546  -1.474  1.00  0.00     0.029 A 
ATOM     47  C   UNL     1      -2.235   9.740  -1.323  1.00  0.00     0.049 A 
ATOM     48  H   UNL     1      -0.156   9.860  -1.231  1.00  0.00     0.167 HD
ATOM     49  C   UNL     1       4.281   9.679  -0.343  1.00  0.00     0.031 A 
ATOM     50  C   UNL     1      -2.690  11.002  -1.225  1.00  0.00     0.031 A 
ATOM     51  C   UNL     1       3.898  11.063  -0.295  1.00  0.00     0.049 A 
ATOM     52  C   UNL     1      -1.671  12.092  -1.043  1.00  0.00     0.074 A 
ATOM     53  C   UNL     1       4.691  12.179  -0.118  1.00  0.00     0.029 A 
ATOM     54  N   UNL     1       2.592  11.514  -0.458  1.00  0.00    -0.354 N 
ATOM     55  N   UNL     1      -0.373  11.979  -0.865  1.00  0.00    -0.248 NA
ATOM     56  C   UNL     1      -2.164  13.472  -1.065  1.00  0.00     0.031 C 
ATOM     57  C   UNL     1       3.861  13.306  -0.161  1.00  0.00     0.029 A 
ATOM     58  C   UNL     1       2.557  12.893  -0.400  1.00  0.00     0.049 A 
ATOM     59  H   UNL     1       1.808  10.935  -0.594  1.00  0.00     0.167 HD
ATOM     60  C   UNL     1       0.112  13.275  -0.774  1.00  0.00     0.074 A 
ATOM     61  C   UNL     1      -1.034  14.154  -0.934  1.00  0.00     0.031 C 
ATOM     62  C   UNL     1       1.381  13.710  -0.572  1.00  0.00     0.031 A 
BRANCH  49  63
ATOM     63  C   UNL     1       5.714   9.280  -0.101  1.00  0.00    -0.014 A 
ATOM     64  C   UNL     1       6.497   8.716  -1.127  1.00  0.00     0.010 A 
ATOM     65  C   UNL     1       6.287   9.450   1.173  1.00  0.00     0.010 A 
ATOM     66  C   UNL     1       7.797   8.273  -0.870  1.00  0.00     0.020 A 
ATOM     67  C   UNL     1       7.601   9.037   1.426  1.00  0.00     0.020 A 
ATOM     68  C   UNL     1       8.339   8.430   0.408  1.00  0.00     0.054 A 
BRANCH  68  69
ATOM     69  S   UNL     1      10.031   7.849   0.713  1.00  0.00     0.124 S 
ATOM     70  O   UNL     1       9.845   6.402   0.788  1.00  0.00    -0.237 OA
ATOM     71  O   UNL     1      10.753   8.328  -0.464  1.00  0.00    -0.237 OA
ATOM     72  O   UNL     1      10.398   8.496   1.970  1.00  0.00    -0.744 OA
ENDBRANCH  68  69
ENDBRANCH  49  63
BRANCH  50  73
ATOM     73  C   UNL     1      -4.145  11.282  -1.355  1.00  0.00    -0.014 A 
ATOM     74  C   UNL     1      -4.646  11.852  -2.539  1.00  0.00     0.010 A 
ATOM     75  C   UNL     1      -5.048  10.922  -0.338  1.00  0.00     0.010 A 
ATOM     76  C   UNL     1      -6.019  12.068  -2.700  1.00  0.00     0.020 A 
ATOM     77  C   UNL     1      -6.425  11.115  -0.505  1.00  0.00     0.020 A 
ATOM     78  C   UNL     1      -6.901  11.695  -1.683  1.00  0.00     0.054 A 
BRANCH  78  79
ATOM     79  S   UNL     1      -8.684  11.921  -1.946  1.00  0.00     0.124 S 
ATOM     80  O   UNL     1      -8.833  13.364  -1.790  1.00  0.00    -0.237 OA
ATOM     81  O   UNL     1      -8.872  11.408  -3.300  1.00  0.00    -0.237 OA
ATOM     82  O   UNL     1      -9.290  11.110  -0.892  1.00  0.00    -0.744 OA
ENDBRANCH  78  79
ENDBRANCH  50  73
BRANCH  62  83
ATOM     83  C   UNL     1       1.582  15.196  -0.542  1.00  0.00    -0.014 A 
ATOM     84  C   UNL     1       1.219  15.947   0.588  1.00  0.00     0.010 A 
ATOM     85  C   UNL     1       2.203  15.830  -1.633  1.00  0.00     0.010 A 
ATOM     86  C   UNL     1       1.452  17.321   0.617  1.00  0.00     0.020 A 
ATOM     87  C   UNL     1       2.459  17.200  -1.596  1.00  0.00     0.020 A 
ATOM     88  C   UNL     1       2.071  17.939  -0.476  1.00  0.00     0.054 A 
BRANCH  88  89
ATOM     89  S   UNL     1       2.414  19.716  -0.391  1.00  0.00     0.124 S 
ATOM     90  O   UNL     1       1.093  20.289  -0.634  1.00  0.00    -0.237 OA
ATOM     91  O   UNL     1       2.931  19.880   0.965  1.00  0.00    -0.237 OA
ATOM     92  O   UNL     1       3.393  19.929  -1.454  1.00  0.00    -0.744 OA
ENDBRANCH  88  89
ENDBRANCH  62  83
ENDBRANCH  36  37
ENDBRANCH  28  31
ENDBRANCH  26  27
ENDBRANCH  25  26
ENDBRANCH   1  25
TORSDOF 17
