REMARK SMILES CCCCCCNC(=O)Oc1cccc(-c2ccc([C@@H](C)C(=O)NCCCNC(=O)c3ccc(-c4c5nc(c(-c6ccc(S(=O)(=O)[O-])cc6)c6ccc([nH]6)c(-c6ccc(S(=O)(=O)[O-])cc6)c6nc(c(-c7ccc(S(=O)(=O)[O-])cc7)c7ccc4[nH]7)C=C6)C=C5)cc3)cc2O)c1
REMARK SMILES IDX 20 1 21 2 19 3 16 4 17 5 92 6 18 7 91 8 15 9 11 10 12 11
REMARK SMILES IDX 94 12 13 13 14 14 10 15 8 16 7 17 9 19 6 20 5 21 4 22 3 23
REMARK SMILES IDX 2 24 1 25 93 26 22 28 23 29 24 30 25 32 26 33 27 34 28 35
REMARK SMILES IDX 29 36 30 38 31 39 32 40 90 41 33 42 89 43 34 44 35 45 36 46
REMARK SMILES IDX 83 47 37 48 88 49 82 50 84 51 38 52 87 53 81 54 80 55 39 57
REMARK SMILES IDX 69 58 50 59 68 60 51 61 54 62 67 63 85 64 52 65 53 66 66 68
REMARK SMILES IDX 86 69 55 70 40 71 41 72 49 73 42 74 48 75 43 76 44 77 45 78
REMARK SMILES IDX 46 79 47 80 70 81 71 82 79 83 72 84 78 85 73 86 74 87 75 88
REMARK SMILES IDX 76 89 77 90 56 91 57 92 65 93 58 94 64 95 59 96 60 97 61 98
REMARK SMILES IDX 62 99 63 100
REMARK H PARENT 7 18 93 27 24 31 28 37 84 56 54 67
REMARK Flexibility Score: inf
ROOT
ATOM      1  C   UNL     1      -5.070   2.442  13.327  1.00  0.00     0.105 C 
ATOM      2  C   UNL     1      -6.375   2.644  14.097  1.00  0.00     0.023 C 
ENDROOT
BRANCH   1   3
ATOM      3  C   UNL     1      -5.183   1.574  12.085  1.00  0.00    -0.032 A 
ATOM      4  C   UNL     1      -5.261  -0.070   9.734  1.00  0.00     0.024 A 
ATOM      5  C   UNL     1      -5.793  -0.497  10.962  1.00  0.00     0.013 A 
ATOM      6  C   UNL     1      -4.734   1.234   9.709  1.00  0.00     0.123 A 
ATOM      7  C   UNL     1      -5.801   0.323  12.094  1.00  0.00     0.005 A 
ATOM      8  C   UNL     1      -4.656   2.022  10.866  1.00  0.00     0.051 A 
BRANCH   4   9
ATOM      9  C   UNL     1      -5.285  -0.993   8.574  1.00  0.00    -0.011 A 
ATOM     10  C   UNL     1      -4.264  -1.976   6.598  1.00  0.00     0.133 A 
ATOM     11  C   UNL     1      -5.376  -2.781   6.377  1.00  0.00     0.047 A 
ATOM     12  C   UNL     1      -4.200  -1.102   7.687  1.00  0.00     0.056 A 
ATOM     13  C   UNL     1      -6.445  -2.715   7.261  1.00  0.00     0.004 A 
ATOM     14  C   UNL     1      -6.405  -1.819   8.333  1.00  0.00     0.009 A 
BRANCH  10  15
ATOM     15  O   UNL     1      -3.288  -1.973   5.588  1.00  0.00    -0.410 OA
BRANCH  15  16
ATOM     16  C   UNL     1      -1.945  -2.063   5.912  1.00  0.00     0.412 C 
ATOM     17  N   UNL     1      -1.132  -1.934   4.819  1.00  0.00    -0.321 N 
ATOM     18  H   UNL     1      -0.165  -2.033   4.972  1.00  0.00     0.167 HD
ATOM     19  O   UNL     1      -1.481  -2.229   7.032  1.00  0.00    -0.224 OA
BRANCH  17  20
ATOM     20  C   UNL     1      -1.555  -1.668   3.458  1.00  0.00     0.119 C 
BRANCH  20  21
ATOM     21  C   UNL     1      -0.980  -0.350   2.937  1.00  0.00     0.021 C 
BRANCH  21  22
ATOM     22  C   UNL     1       0.549  -0.322   2.822  1.00  0.00     0.002 C 
BRANCH  22  23
ATOM     23  C   UNL     1       1.159  -1.399   1.919  1.00  0.00    -0.000 C 
BRANCH  23  24
ATOM     24  C   UNL     1       0.671  -1.389   0.468  1.00  0.00    -0.003 C 
ATOM     25  C   UNL     1       1.031  -0.112  -0.276  1.00  0.00     0.004 C 
ENDBRANCH  23  24
ENDBRANCH  22  23
ENDBRANCH  21  22
ENDBRANCH  20  21
ENDBRANCH  17  20
ENDBRANCH  15  16
ENDBRANCH  10  15
ENDBRANCH   4   9
BRANCH   6  26
ATOM     26  O   UNL     1      -4.304   1.844   8.559  1.00  0.00    -0.507 OA
ATOM     27  H   UNL     1      -4.326   1.380   7.746  1.00  0.00     0.293 HD
ENDBRANCH   6  26
ENDBRANCH   1   3
BRANCH   1  28
ATOM     28  C   UNL     1      -3.858   2.124  14.216  1.00  0.00     0.227 C 
ATOM     29  O   UNL     1      -2.895   2.902  14.242  1.00  0.00    -0.274 OA
ATOM     30  N   UNL     1      -3.763   1.038  15.030  1.00  0.00    -0.356 N 
ATOM     31  H   UNL     1      -2.934   1.010  15.560  1.00  0.00     0.163 HD
BRANCH  30  32
ATOM     32  C   UNL     1      -4.648  -0.087  15.268  1.00  0.00     0.117 C 
BRANCH  32  33
ATOM     33  C   UNL     1      -4.225  -1.338  14.499  1.00  0.00     0.042 C 
BRANCH  33  34
ATOM     34  C   UNL     1      -3.111  -2.132  15.172  1.00  0.00     0.118 C 
BRANCH  34  35
ATOM     35  N   UNL     1      -3.557  -2.768  16.407  1.00  0.00    -0.352 N 
ATOM     36  C   UNL     1      -3.732  -4.095  16.718  1.00  0.00     0.251 C 
ATOM     37  H   UNL     1      -3.767  -2.143  17.138  1.00  0.00     0.163 HD
ATOM     38  O   UNL     1      -4.338  -4.390  17.747  1.00  0.00    -0.269 OA
BRANCH  36  39
ATOM     39  C   UNL     1      -3.221  -5.165  15.832  1.00  0.00     0.039 A 
ATOM     40  C   UNL     1      -4.001  -6.311  15.637  1.00  0.00     0.014 A 
ATOM     41  C   UNL     1      -1.967  -5.071  15.224  1.00  0.00     0.014 A 
ATOM     42  C   UNL     1      -3.562  -7.316  14.770  1.00  0.00     0.010 A 
ATOM     43  C   UNL     1      -1.563  -6.037  14.305  1.00  0.00     0.010 A 
ATOM     44  C   UNL     1      -2.361  -7.164  14.060  1.00  0.00    -0.014 A 
BRANCH  44  45
ATOM     45  C   UNL     1      -1.942  -8.143  13.023  1.00  0.00     0.031 A 
ATOM     46  C   UNL     1      -0.676  -8.937  13.187  1.00  0.00     0.074 A 
ATOM     47  C   UNL     1      -2.662  -8.247  11.888  1.00  0.00     0.049 A 
ATOM     48  N   UNL     1      -0.101  -9.754  12.342  1.00  0.00    -0.248 NA
ATOM     49  C   UNL     1       0.049  -8.779  14.458  1.00  0.00     0.031 C 
ATOM     50  C   UNL     1      -3.892  -7.506  11.595  1.00  0.00     0.029 A 
ATOM     51  N   UNL     1      -2.455  -9.002  10.760  1.00  0.00    -0.354 N 
ATOM     52  C   UNL     1       1.059 -10.195  12.969  1.00  0.00     0.074 A 
ATOM     53  C   UNL     1       1.125  -9.524  14.249  1.00  0.00     0.031 C 
ATOM     54  C   UNL     1      -4.335  -7.852  10.377  1.00  0.00     0.029 A 
ATOM     55  C   UNL     1      -3.398  -8.796   9.779  1.00  0.00     0.049 A 
ATOM     56  H   UNL     1      -1.704  -9.630  10.662  1.00  0.00     0.167 HD
ATOM     57  C   UNL     1       1.978 -11.085  12.523  1.00  0.00     0.031 A 
ATOM     58  C   UNL     1      -3.487  -9.289   8.528  1.00  0.00     0.031 A 
ATOM     59  C   UNL     1       1.908 -11.745  11.245  1.00  0.00     0.049 A 
ATOM     60  C   UNL     1      -2.428 -10.235   8.036  1.00  0.00     0.074 A 
ATOM     61  C   UNL     1       2.757 -12.707  10.726  1.00  0.00     0.029 A 
ATOM     62  N   UNL     1       0.943 -11.501  10.278  1.00  0.00    -0.354 N 
ATOM     63  N   UNL     1      -1.379 -10.699   8.673  1.00  0.00    -0.248 NA
ATOM     64  C   UNL     1      -2.563 -10.724   6.657  1.00  0.00     0.031 C 
ATOM     65  C   UNL     1       2.342 -12.999   9.423  1.00  0.00     0.029 A 
ATOM     66  C   UNL     1       1.199 -12.264   9.151  1.00  0.00     0.049 A 
ATOM     67  H   UNL     1       0.187 -10.878  10.379  1.00  0.00     0.167 HD
ATOM     68  C   UNL     1      -0.734 -11.542   7.776  1.00  0.00     0.074 A 
ATOM     69  C   UNL     1      -1.523 -11.543   6.560  1.00  0.00     0.031 C 
ATOM     70  C   UNL     1       0.411 -12.248   7.944  1.00  0.00     0.031 A 
BRANCH  57  71
ATOM     71  C   UNL     1       3.150 -11.387  13.420  1.00  0.00    -0.014 A 
ATOM     72  C   UNL     1       2.983 -12.113  14.614  1.00  0.00     0.010 A 
ATOM     73  C   UNL     1       4.443 -10.977  13.045  1.00  0.00     0.010 A 
ATOM     74  C   UNL     1       4.080 -12.383  15.438  1.00  0.00     0.020 A 
ATOM     75  C   UNL     1       5.546 -11.270  13.852  1.00  0.00     0.020 A 
ATOM     76  C   UNL     1       5.354 -11.956  15.053  1.00  0.00     0.054 A 
BRANCH  76  77
ATOM     77  S   UNL     1       6.760 -12.334  16.136  1.00  0.00     0.124 S 
ATOM     78  O   UNL     1       6.530 -11.423  17.256  1.00  0.00    -0.237 OA
ATOM     79  O   UNL     1       6.565 -13.751  16.431  1.00  0.00    -0.237 OA
ATOM     80  O   UNL     1       7.926 -12.026  15.313  1.00  0.00    -0.744 OA
ENDBRANCH  76  77
ENDBRANCH  57  71
BRANCH  58  81
ATOM     81  C   UNL     1      -4.617  -8.876   7.652  1.00  0.00    -0.014 A 
ATOM     82  C   UNL     1      -5.636  -9.787   7.323  1.00  0.00     0.010 A 
ATOM     83  C   UNL     1      -4.696  -7.557   7.169  1.00  0.00     0.010 A 
ATOM     84  C   UNL     1      -6.711  -9.388   6.523  1.00  0.00     0.020 A 
ATOM     85  C   UNL     1      -5.783  -7.147   6.393  1.00  0.00     0.020 A 
ATOM     86  C   UNL     1      -6.780  -8.068   6.068  1.00  0.00     0.054 A 
BRANCH  86  87
ATOM     87  S   UNL     1      -8.219  -7.547   5.094  1.00  0.00     0.124 S 
ATOM     88  O   UNL     1      -7.961  -8.181   3.806  1.00  0.00    -0.237 OA
ATOM     89  O   UNL     1      -9.335  -8.096   5.860  1.00  0.00    -0.237 OA
ATOM     90  O   UNL     1      -8.126  -6.087   5.105  1.00  0.00    -0.744 OA
ENDBRANCH  86  87
ENDBRANCH  58  81
BRANCH  70  91
ATOM     91  C   UNL     1       0.885 -13.088   6.789  1.00  0.00    -0.014 A 
ATOM     92  C   UNL     1       1.461 -12.493   5.653  1.00  0.00     0.010 A 
ATOM     93  C   UNL     1       0.828 -14.491   6.875  1.00  0.00     0.010 A 
ATOM     94  C   UNL     1       1.961 -13.287   4.617  1.00  0.00     0.020 A 
ATOM     95  C   UNL     1       1.351 -15.288   5.854  1.00  0.00     0.020 A 
ATOM     96  C   UNL     1       1.908 -14.680   4.727  1.00  0.00     0.054 A 
BRANCH  96  97
ATOM     97  S   UNL     1       2.633 -15.685   3.402  1.00  0.00     0.124 S 
ATOM     98  O   UNL     1       1.670 -15.501   2.319  1.00  0.00    -0.237 OA
ATOM     99  O   UNL     1       3.935 -15.055   3.199  1.00  0.00    -0.237 OA
ATOM    100  O   UNL     1       2.679 -17.030   3.972  1.00  0.00    -0.744 OA
ENDBRANCH  96  97
ENDBRANCH  70  91
ENDBRANCH  44  45
ENDBRANCH  36  39
ENDBRANCH  34  35
ENDBRANCH  33  34
ENDBRANCH  32  33
ENDBRANCH  30  32
ENDBRANCH   1  28
TORSDOF 23
