REMARK SMILES Cc1csc(C[N@H+]2CCC[C@@H](CC(=O)NCCCNC(=O)c3ccc(-c4c5nc(c(-c6ccc(S(=O)(=O)[O-])cc6)c6ccc([nH]6)c(-c6ccc(S(=O)(=O)[O-])cc6)c6nc(c(-c7ccc(S(=O)(=O)[O-])cc7)c7ccc4[nH]7)C=C6)C=C5)cc3)C2)n1
REMARK SMILES IDX 17 1 16 2 15 3 13 4 14 5 12 7 11 8 7 9 8 10 82 11 9 13 10 14
REMARK SMILES IDX 6 15 5 16 1 17 2 18 3 19 83 20 4 21 18 22 19 23 20 24 21 26
REMARK SMILES IDX 22 27 23 28 81 29 24 30 80 31 25 32 26 33 27 34 74 35 28 36
REMARK SMILES IDX 79 37 73 38 75 39 29 40 78 41 72 42 71 43 30 45 60 46 41 47
REMARK SMILES IDX 59 48 42 49 45 50 58 51 76 52 43 53 44 54 57 56 77 57 46 58
REMARK SMILES IDX 31 59 32 60 40 61 33 62 39 63 34 64 35 65 36 66 37 67 38 68
REMARK SMILES IDX 61 69 62 70 70 71 63 72 69 73 64 74 65 75 66 76 67 77 68 78
REMARK SMILES IDX 47 79 48 80 56 81 49 82 55 83 50 84 51 85 52 86 53 87 54 88
REMARK H PARENT 15 6 7 12 19 25 75 44 45 55
REMARK Flexibility Score: inf
ROOT
ATOM      1  C   UNL     1      -1.015   5.475  -6.021  1.00  0.00     0.042 C 
ENDROOT
BRANCH   1   2
ATOM      2  C   UNL     1      -2.225   5.813  -5.148  1.00  0.00     0.117 C 
BRANCH   2   3
ATOM      3  N   UNL     1      -2.988   4.654  -4.717  1.00  0.00    -0.356 N 
ATOM      4  C   UNL     1      -3.037   4.017  -3.517  1.00  0.00     0.220 C 
ATOM      5  O   UNL     1      -3.794   3.053  -3.396  1.00  0.00    -0.275 OA
ATOM      6  H   UNL     1      -3.567   4.264  -5.412  1.00  0.00     0.163 HD
BRANCH   4   7
ATOM      7  C   UNL     1      -2.184   4.487  -2.361  1.00  0.00     0.109 C 
BRANCH   7   8
ATOM      8  C   UNL     1      -0.702   4.064  -2.389  1.00  0.00     0.054 C 
ATOM      9  N   UNL     1       1.112   3.072  -0.903  1.00  0.00    -0.329 N 
ATOM     10  C   UNL     1       1.584   2.263  -2.038  1.00  0.00     0.262 C 
ATOM     11  C   UNL     1      -0.289   3.518  -1.003  1.00  0.00     0.266 C 
ATOM     12  H   UNL     1       1.662   3.930  -0.930  1.00  0.00     0.348 HD
ATOM     13  C   UNL     1       1.171   2.810  -3.398  1.00  0.00     0.062 C 
ATOM     14  C   UNL     1      -0.340   2.998  -3.428  1.00  0.00     0.016 C 
BRANCH   9  15
ATOM     15  C   UNL     1       1.357   2.355   0.386  1.00  0.00     0.331 C 
BRANCH  15  16
ATOM     16  C   UNL     1       0.635   1.024   0.527  1.00  0.00     0.147 A 
ATOM     17  C   UNL     1      -2.498  -0.713   0.285  1.00  0.00     0.067 C 
ATOM     18  C   UNL     1      -1.050  -0.416   0.417  1.00  0.00     0.049 A 
ATOM     19  C   UNL     1       0.002  -1.303   0.306  1.00  0.00     0.090 A 
ATOM     20  N   UNL     1      -0.674   0.896   0.633  1.00  0.00    -0.240 NA
ATOM     21  S   UNL     1       1.495  -0.468   0.440  1.00  0.00    -0.121 S 
ENDBRANCH  15  16
ENDBRANCH   9  15
ENDBRANCH   7   8
ENDBRANCH   4   7
ENDBRANCH   2   3
ENDBRANCH   1   2
BRANCH   1  22
ATOM     22  C   UNL     1      -1.297   4.507  -7.170  1.00  0.00     0.118 C 
BRANCH  22  23
ATOM     23  N   UNL     1      -1.988   5.159  -8.270  1.00  0.00    -0.352 N 
ATOM     24  C   UNL     1      -1.559   5.365  -9.558  1.00  0.00     0.251 C 
ATOM     25  H   UNL     1      -2.888   5.501  -8.063  1.00  0.00     0.163 HD
ATOM     26  O   UNL     1      -2.169   6.156 -10.279  1.00  0.00    -0.269 OA
BRANCH  24  27
ATOM     27  C   UNL     1      -0.371   4.653 -10.084  1.00  0.00     0.039 A 
ATOM     28  C   UNL     1       0.566   5.365 -10.839  1.00  0.00     0.014 A 
ATOM     29  C   UNL     1      -0.207   3.278  -9.888  1.00  0.00     0.014 A 
ATOM     30  C   UNL     1       1.685   4.709 -11.364  1.00  0.00     0.010 A 
ATOM     31  C   UNL     1       0.937   2.636 -10.369  1.00  0.00     0.010 A 
ATOM     32  C   UNL     1       1.890   3.341 -11.120  1.00  0.00    -0.014 A 
BRANCH  32  33
ATOM     33  C   UNL     1       3.075   2.627 -11.669  1.00  0.00     0.031 A 
ATOM     34  C   UNL     1       2.891   1.553 -12.711  1.00  0.00     0.074 A 
ATOM     35  C   UNL     1       4.311   2.909 -11.210  1.00  0.00     0.049 A 
ATOM     36  N   UNL     1       3.784   0.757 -13.243  1.00  0.00    -0.248 NA
ATOM     37  C   UNL     1       1.522   1.337 -13.209  1.00  0.00     0.031 C 
ATOM     38  C   UNL     1       4.631   3.916 -10.196  1.00  0.00     0.029 A 
ATOM     39  N   UNL     1       5.531   2.367 -11.534  1.00  0.00    -0.354 N 
ATOM     40  C   UNL     1       3.087  -0.059 -14.128  1.00  0.00     0.074 A 
ATOM     41  C   UNL     1       1.691   0.309 -14.030  1.00  0.00     0.031 C 
ATOM     42  C   UNL     1       5.959   3.926  -9.991  1.00  0.00     0.029 A 
ATOM     43  C   UNL     1       6.581   2.905 -10.828  1.00  0.00     0.049 A 
ATOM     44  H   UNL     1       5.642   1.658 -12.208  1.00  0.00     0.167 HD
ATOM     45  C   UNL     1       3.564  -1.013 -14.963  1.00  0.00     0.031 A 
ATOM     46  C   UNL     1       7.895   2.603 -10.842  1.00  0.00     0.031 A 
ATOM     47  C   UNL     1       4.952  -1.374 -15.075  1.00  0.00     0.049 A 
ATOM     48  C   UNL     1       8.396   1.520 -11.761  1.00  0.00     0.074 A 
ATOM     49  C   UNL     1       5.530  -2.324 -15.900  1.00  0.00     0.029 A 
ATOM     50  N   UNL     1       5.982  -0.793 -14.353  1.00  0.00    -0.354 N 
ATOM     51  N   UNL     1       7.719   0.773 -12.601  1.00  0.00    -0.248 NA
ATOM     52  C   UNL     1       9.841   1.246 -11.740  1.00  0.00     0.031 C 
ATOM     53  C   UNL     1       6.907  -2.337 -15.657  1.00  0.00     0.029 A 
ATOM     54  C   UNL     1       7.191  -1.363 -14.713  1.00  0.00     0.049 A 
ATOM     55  H   UNL     1       5.870  -0.080 -13.683  1.00  0.00     0.167 HD
ATOM     56  C   UNL     1       8.662  -0.033 -13.231  1.00  0.00     0.074 A 
ATOM     57  C   UNL     1       9.954   0.323 -12.686  1.00  0.00     0.031 C 
ATOM     58  C   UNL     1       8.472  -0.983 -14.178  1.00  0.00     0.031 A 
BRANCH  45  59
ATOM     59  C   UNL     1       2.574  -1.730 -15.840  1.00  0.00    -0.014 A 
ATOM     60  C   UNL     1       1.993  -1.081 -16.944  1.00  0.00     0.010 A 
ATOM     61  C   UNL     1       2.269  -3.083 -15.602  1.00  0.00     0.010 A 
ATOM     62  C   UNL     1       1.102  -1.762 -17.777  1.00  0.00     0.020 A 
ATOM     63  C   UNL     1       1.397  -3.775 -16.448  1.00  0.00     0.020 A 
ATOM     64  C   UNL     1       0.809  -3.105 -17.523  1.00  0.00     0.054 A 
BRANCH  64  65
ATOM     65  S   UNL     1      -0.319  -3.975 -18.646  1.00  0.00     0.124 S 
ATOM     66  O   UNL     1      -1.614  -3.416 -18.264  1.00  0.00    -0.237 OA
ATOM     67  O   UNL     1       0.171  -3.580 -19.964  1.00  0.00    -0.237 OA
ATOM     68  O   UNL     1      -0.126  -5.383 -18.310  1.00  0.00    -0.744 OA
ENDBRANCH  64  65
ENDBRANCH  45  59
BRANCH  46  69
ATOM     69  C   UNL     1       8.844   3.329  -9.955  1.00  0.00    -0.014 A 
ATOM     70  C   UNL     1       9.793   4.215 -10.495  1.00  0.00     0.010 A 
ATOM     71  C   UNL     1       8.830   3.106  -8.566  1.00  0.00     0.010 A 
ATOM     72  C   UNL     1      10.738   4.832  -9.670  1.00  0.00     0.020 A 
ATOM     73  C   UNL     1       9.755   3.742  -7.734  1.00  0.00     0.020 A 
ATOM     74  C   UNL     1      10.717   4.585  -8.294  1.00  0.00     0.054 A 
BRANCH  74  75
ATOM     75  S   UNL     1      11.946   5.399  -7.236  1.00  0.00     0.124 S 
ATOM     76  O   UNL     1      13.134   4.586  -7.474  1.00  0.00    -0.237 OA
ATOM     77  O   UNL     1      11.986   6.755  -7.777  1.00  0.00    -0.237 OA
ATOM     78  O   UNL     1      11.367   5.287  -5.899  1.00  0.00    -0.744 OA
ENDBRANCH  74  75
ENDBRANCH  46  69
BRANCH  58  79
ATOM     79  C   UNL     1       9.692  -1.669 -14.730  1.00  0.00    -0.014 A 
ATOM     80  C   UNL     1      10.387  -2.636 -13.983  1.00  0.00     0.010 A 
ATOM     81  C   UNL     1      10.111  -1.382 -16.042  1.00  0.00     0.010 A 
ATOM     82  C   UNL     1      11.498  -3.285 -14.530  1.00  0.00     0.020 A 
ATOM     83  C   UNL     1      11.207  -2.046 -16.601  1.00  0.00     0.020 A 
ATOM     84  C   UNL     1      11.901  -2.985 -15.835  1.00  0.00     0.054 A 
BRANCH  84  85
ATOM     85  S   UNL     1      13.313  -3.878 -16.543  1.00  0.00     0.124 S 
ATOM     86  O   UNL     1      14.443  -3.228 -15.886  1.00  0.00    -0.237 OA
ATOM     87  O   UNL     1      13.058  -5.258 -16.136  1.00  0.00    -0.237 OA
ATOM     88  O   UNL     1      13.197  -3.627 -17.978  1.00  0.00    -0.744 OA
ENDBRANCH  84  85
ENDBRANCH  58  79
ENDBRANCH  32  33
ENDBRANCH  24  27
ENDBRANCH  22  23
ENDBRANCH   1  22
TORSDOF 16
