REMARK SMILES Cc1ccc(C(=O)NCCCNC(=O)c2ccc(-c3c4nc(c(-c5ccc(S(=O)(=O)[O-])cc5)c5ccc([nH]5)c(-c5ccc(S(=O)(=O)[O-])cc5)c5nc(c(-c6ccc(S(=O)(=O)[O-])cc6)c6ccc3[nH]6)C=C5)C=C4)cc2)cc1NC(=O)Cc1ccc2ccccc2c1
REMARK SMILES IDX 10 1 9 2 8 3 6 4 7 5 5 7 1 8 2 9 3 10 76 11 4 12 75 13 77 14
REMARK SMILES IDX 78 15 79 17 80 18 81 19 82 20 90 21 83 22 89 23 84 24 88 25
REMARK SMILES IDX 85 26 87 27 86 28 11 29 12 30 13 31 14 33 15 34 16 35 74 36
REMARK SMILES IDX 17 37 73 38 18 39 19 40 20 41 67 42 21 43 72 44 66 45 68 46
REMARK SMILES IDX 22 47 71 48 65 49 64 50 23 52 53 53 34 54 52 55 35 56 38 57
REMARK SMILES IDX 51 58 69 59 36 60 37 61 50 63 70 64 39 65 24 66 25 67 33 68
REMARK SMILES IDX 26 69 32 70 27 71 28 72 29 73 30 74 31 75 54 76 55 77 63 78
REMARK SMILES IDX 56 79 62 80 57 81 58 82 59 83 60 84 61 85 40 86 41 87 49 88
REMARK SMILES IDX 42 89 48 90 43 91 44 92 45 93 46 94 47 95
REMARK H PARENT 8 6 77 16 12 32 68 51 38 62
REMARK Flexibility Score: inf
ROOT
ATOM      1  C   UNL     1      -3.065   3.083   0.129  1.00  0.00     0.042 C 
ENDROOT
BRANCH   1   2
ATOM      2  C   UNL     1      -2.811   2.026   1.243  1.00  0.00     0.118 C 
BRANCH   2   3
ATOM      3  N   UNL     1      -3.288   0.728   0.788  1.00  0.00    -0.352 N 
ATOM      4  C   UNL     1      -2.605  -0.208   0.069  1.00  0.00     0.251 C 
ATOM      5  O   UNL     1      -3.199  -1.238  -0.315  1.00  0.00    -0.269 OA
ATOM      6  H   UNL     1      -4.215   0.499   1.028  1.00  0.00     0.163 HD
BRANCH   4   7
ATOM      7  C   UNL     1      -1.133  -0.095  -0.113  1.00  0.00     0.041 A 
ATOM      8  C   UNL     1       3.143  -0.148   0.019  1.00  0.00     0.046 C 
ATOM      9  C   UNL     1       1.648   0.002  -0.030  1.00  0.00    -0.027 A 
ATOM     10  C   UNL     1       0.950  -1.236   0.016  1.00  0.00     0.006 A 
ATOM     11  C   UNL     1       0.951   1.234  -0.136  1.00  0.00     0.044 A 
ATOM     12  C   UNL     1      -0.430  -1.284   0.009  1.00  0.00     0.014 A 
ATOM     13  C   UNL     1      -0.431   1.127  -0.287  1.00  0.00     0.040 A 
BRANCH  11  14
ATOM     14  N   UNL     1       1.664   2.482  -0.058  1.00  0.00    -0.326 N 
ATOM     15  C   UNL     1       1.383   3.843   0.092  1.00  0.00     0.228 C 
ATOM     16  H   UNL     1       2.634   2.333  -0.132  1.00  0.00     0.169 HD
ATOM     17  O   UNL     1       2.351   4.606   0.168  1.00  0.00    -0.274 OA
BRANCH  15  18
ATOM     18  C   UNL     1      -0.026   4.346   0.201  1.00  0.00     0.135 C 
BRANCH  18  19
ATOM     19  C   UNL     1      -0.527   5.792   0.366  1.00  0.00    -0.038 A 
ATOM     20  C   UNL     1      -1.909   5.883   0.519  1.00  0.00     0.005 A 
ATOM     21  C   UNL     1       0.082   7.037   0.272  1.00  0.00     0.013 A 
ATOM     22  C   UNL     1      -2.651   6.884  -0.069  1.00  0.00     0.009 A 
ATOM     23  C   UNL     1      -0.741   8.233   0.175  1.00  0.00    -0.018 A 
ATOM     24  C   UNL     1      -2.070   8.091  -0.248  1.00  0.00    -0.018 A 
ATOM     25  C   UNL     1      -0.422   9.546   0.573  1.00  0.00     0.009 A 
ATOM     26  C   UNL     1      -2.936   9.134  -0.568  1.00  0.00     0.009 A 
ATOM     27  C   UNL     1      -1.389  10.579   0.521  1.00  0.00     0.001 A 
ATOM     28  C   UNL     1      -2.617  10.392  -0.114  1.00  0.00     0.001 A 
ENDBRANCH  18  19
ENDBRANCH  15  18
ENDBRANCH  11  14
ENDBRANCH   4   7
ENDBRANCH   2   3
ENDBRANCH   1   2
BRANCH   1  29
ATOM     29  C   UNL     1      -4.420   3.764   0.377  1.00  0.00     0.118 C 
BRANCH  29  30
ATOM     30  N   UNL     1      -5.155   5.315   0.504  1.00  0.00    -0.352 N 
ATOM     31  C   UNL     1      -6.364   6.321   0.171  1.00  0.00     0.251 C 
ATOM     32  H   UNL     1      -4.527   5.847   1.045  1.00  0.00     0.163 HD
ATOM     33  O   UNL     1      -6.431   7.178   1.085  1.00  0.00    -0.269 OA
BRANCH  31  34
ATOM     34  C   UNL     1      -7.701   6.516  -0.980  1.00  0.00     0.039 A 
ATOM     35  C   UNL     1      -9.051   6.703  -0.522  1.00  0.00     0.014 A 
ATOM     36  C   UNL     1      -7.766   6.251  -2.371  1.00  0.00     0.014 A 
ATOM     37  C   UNL     1     -10.179   5.982  -1.170  1.00  0.00     0.010 A 
ATOM     38  C   UNL     1      -8.872   5.627  -3.035  1.00  0.00     0.010 A 
ATOM     39  C   UNL     1      -9.941   5.165  -2.303  1.00  0.00    -0.014 A 
BRANCH  39  40
ATOM     40  C   UNL     1     -10.297   3.667  -2.580  1.00  0.00     0.031 A 
ATOM     41  C   UNL     1     -11.085   3.465  -3.781  1.00  0.00     0.074 A 
ATOM     42  C   UNL     1      -9.834   2.444  -2.125  1.00  0.00     0.049 A 
ATOM     43  N   UNL     1     -12.373   3.398  -3.832  1.00  0.00    -0.248 NA
ATOM     44  C   UNL     1     -10.385   3.407  -5.067  1.00  0.00     0.031 C 
ATOM     45  C   UNL     1     -10.255   1.049  -2.388  1.00  0.00     0.029 A 
ATOM     46  N   UNL     1      -8.905   2.146  -1.154  1.00  0.00    -0.354 N 
ATOM     47  C   UNL     1     -12.602   2.949  -5.112  1.00  0.00     0.074 A 
ATOM     48  C   UNL     1     -11.436   3.358  -5.882  1.00  0.00     0.031 C 
ATOM     49  C   UNL     1      -9.982   0.279  -1.298  1.00  0.00     0.029 A 
ATOM     50  C   UNL     1      -9.352   1.129  -0.311  1.00  0.00     0.049 A 
ATOM     51  H   UNL     1      -8.033   2.596  -1.065  1.00  0.00     0.167 HD
ATOM     52  C   UNL     1     -13.305   1.797  -5.340  1.00  0.00     0.031 A 
ATOM     53  C   UNL     1      -9.760   1.435   0.970  1.00  0.00     0.031 A 
ATOM     54  C   UNL     1     -13.501   0.994  -4.121  1.00  0.00     0.049 A 
ATOM     55  C   UNL     1     -11.241   1.335   1.114  1.00  0.00     0.074 A 
ATOM     56  C   UNL     1     -13.049  -0.266  -3.749  1.00  0.00     0.029 A 
ATOM     57  N   UNL     1     -13.987   1.578  -2.955  1.00  0.00    -0.354 N 
ATOM     58  N   UNL     1     -11.996   1.214   0.070  1.00  0.00    -0.248 NA
ATOM     59  C   UNL     1     -12.005   1.428   2.355  1.00  0.00     0.031 C 
ATOM     60  C   UNL     1     -13.217  -0.406  -2.344  1.00  0.00     0.029 A 
ATOM     61  C   UNL     1     -13.801   0.752  -1.863  1.00  0.00     0.049 A 
ATOM     62  H   UNL     1     -14.411   2.466  -2.914  1.00  0.00     0.167 HD
ATOM     63  C   UNL     1     -13.296   1.229   0.432  1.00  0.00     0.074 A 
ATOM     64  C   UNL     1     -13.263   1.342   1.880  1.00  0.00     0.031 C 
ATOM     65  C   UNL     1     -14.250   1.168  -0.533  1.00  0.00     0.031 A 
BRANCH  52  66
ATOM     66  C   UNL     1     -13.491   1.260  -6.744  1.00  0.00    -0.014 A 
ATOM     67  C   UNL     1     -13.973  -0.043  -6.954  1.00  0.00     0.010 A 
ATOM     68  C   UNL     1     -13.287   2.042  -7.903  1.00  0.00     0.010 A 
ATOM     69  C   UNL     1     -14.186  -0.551  -8.244  1.00  0.00     0.020 A 
ATOM     70  C   UNL     1     -13.434   1.532  -9.195  1.00  0.00     0.020 A 
ATOM     71  C   UNL     1     -13.904   0.238  -9.358  1.00  0.00     0.054 A 
BRANCH  71  72
ATOM     72  S   UNL     1     -14.248  -0.406 -11.012  1.00  0.00     0.124 S 
ATOM     73  O   UNL     1     -13.438  -1.620 -11.055  1.00  0.00    -0.237 OA
ATOM     74  O   UNL     1     -15.693  -0.611 -10.970  1.00  0.00    -0.237 OA
ATOM     75  O   UNL     1     -13.802   0.665 -11.903  1.00  0.00    -0.744 OA
ENDBRANCH  71  72
ENDBRANCH  52  66
BRANCH  53  76
ATOM     76  C   UNL     1      -8.991   2.551   1.644  1.00  0.00    -0.014 A 
ATOM     77  C   UNL     1      -7.669   2.232   1.878  1.00  0.00     0.010 A 
ATOM     78  C   UNL     1      -9.175   3.786   1.046  1.00  0.00     0.010 A 
ATOM     79  C   UNL     1      -6.689   2.815   1.054  1.00  0.00     0.020 A 
ATOM     80  C   UNL     1      -8.206   4.106   0.058  1.00  0.00     0.020 A 
ATOM     81  C   UNL     1      -6.974   3.557  -0.112  1.00  0.00     0.054 A 
BRANCH  81  82
ATOM     82  S   UNL     1      -5.877   3.919  -1.984  1.00  0.00     0.124 S 
ATOM     83  O   UNL     1      -5.446   5.319  -1.983  1.00  0.00    -0.237 OA
ATOM     84  O   UNL     1      -4.697   3.068  -2.066  1.00  0.00    -0.237 OA
ATOM     85  O   UNL     1      -6.867   3.538  -2.978  1.00  0.00    -0.744 OA
ENDBRANCH  81  82
ENDBRANCH  53  76
BRANCH  65  86
ATOM     86  C   UNL     1     -15.704   1.399  -0.302  1.00  0.00    -0.014 A 
ATOM     87  C   UNL     1     -16.226   2.070   0.811  1.00  0.00     0.010 A 
ATOM     88  C   UNL     1     -16.608   0.998  -1.311  1.00  0.00     0.010 A 
ATOM     89  C   UNL     1     -17.603   2.235   0.962  1.00  0.00     0.020 A 
ATOM     90  C   UNL     1     -17.974   1.219  -1.204  1.00  0.00     0.020 A 
ATOM     91  C   UNL     1     -18.466   1.797  -0.043  1.00  0.00     0.054 A 
BRANCH  91  92
ATOM     92  S   UNL     1     -20.242   2.003   0.178  1.00  0.00     0.124 S 
ATOM     93  O   UNL     1     -20.555   0.905   1.090  1.00  0.00    -0.237 OA
ATOM     94  O   UNL     1     -20.341   3.343   0.751  1.00  0.00    -0.237 OA
ATOM     95  O   UNL     1     -20.778   1.867  -1.174  1.00  0.00    -0.744 OA
ENDBRANCH  91  92
ENDBRANCH  65  86
ENDBRANCH  39  40
ENDBRANCH  31  34
ENDBRANCH  29  30
ENDBRANCH   1  29
TORSDOF 16
