REMARK SMILES CC(C)[C@H](CO)NS(=O)(=O)c1ccc(C(=O)NCCCNC(=O)c2ccc(-c3c4nc(c(-c5ccc(S(=O)(=O)[O-])cc5)c5ccc([nH]5)c(-c5ccc(S(=O)(=O)[O-])cc5)c5nc(c(-c6ccc(S(=O)(=O)[O-])cc6)c6ccc3[nH]6)C=C5)C=C4)cc2)cn1
REMARK SMILES IDX 18 1 17 2 15 3 16 4 14 6 11 7 12 8 85 9 13 10 84 11 8 12
REMARK SMILES IDX 9 13 10 14 7 15 4 17 2 18 1 19 3 20 5 21 6 22 19 24 20 25
REMARK SMILES IDX 21 26 22 27 23 29 24 30 25 31 83 32 26 33 82 34 27 35 28 36
REMARK SMILES IDX 29 37 76 38 30 39 81 40 75 41 77 42 31 43 80 44 74 45 73 46
REMARK SMILES IDX 32 48 62 49 43 50 61 51 44 52 47 53 60 54 78 55 45 56 46 57
REMARK SMILES IDX 59 59 79 60 48 61 33 62 34 63 42 64 35 65 41 66 36 67 37 68
REMARK SMILES IDX 38 69 39 70 40 71 63 72 64 73 72 74 65 75 71 76 66 77 67 78
REMARK SMILES IDX 68 79 69 80 70 81 49 82 50 83 58 84 51 85 57 86 52 87 53 88
REMARK SMILES IDX 54 89 55 90 56 91
REMARK H PARENT 17 5 7 16 6 23 21 28 77 47 47 58
REMARK Flexibility Score: inf
ROOT
ATOM      1  C   UNL     1      -5.122   1.315  -4.289  1.00  0.00     0.118 C 
ENDROOT
BRANCH   1   2
ATOM      2  N   UNL     1      -5.149   2.765  -4.211  1.00  0.00    -0.352 N 
ATOM      3  C   UNL     1      -4.900   3.636  -3.184  1.00  0.00     0.252 C 
ATOM      4  O   UNL     1      -4.897   4.841  -3.433  1.00  0.00    -0.269 OA
ATOM      5  H   UNL     1      -5.394   3.205  -5.057  1.00  0.00     0.163 HD
BRANCH   3   6
ATOM      6  C   UNL     1      -4.575   3.195  -1.810  1.00  0.00     0.058 A 
ATOM      7  C   UNL     1      -3.797   2.597   0.747  1.00  0.00     0.170 A 
ATOM      8  C   UNL     1      -4.708   1.755   0.124  1.00  0.00     0.043 A 
ATOM      9  N   UNL     1      -3.277   3.716   0.182  1.00  0.00    -0.243 NA
ATOM     10  C   UNL     1      -5.100   2.065  -1.179  1.00  0.00     0.018 A 
ATOM     11  C   UNL     1      -3.711   4.002  -1.071  1.00  0.00     0.126 A 
BRANCH   7  12
ATOM     12  S   UNL     1      -3.217   2.251   2.402  1.00  0.00     0.258 S 
ATOM     13  O   UNL     1      -3.970   1.131   2.930  1.00  0.00    -0.205 OA
ATOM     14  O   UNL     1      -3.159   3.482   3.158  1.00  0.00    -0.205 OA
BRANCH  12  15
ATOM     15  N   UNL     1      -1.624   1.722   2.241  1.00  0.00    -0.204 NA
ATOM     16  H   UNL     1      -1.060   2.569   2.171  1.00  0.00     0.141 HD
BRANCH  15  17
ATOM     17  C   UNL     1      -1.133   0.820   1.151  1.00  0.00     0.098 C 
BRANCH  17  18
ATOM     18  C   UNL     1      -1.383  -0.689   1.465  1.00  0.00     0.003 C 
ATOM     19  C   UNL     1      -2.789  -1.139   1.038  1.00  0.00     0.009 C 
ATOM     20  C   UNL     1      -0.406  -1.636   0.747  1.00  0.00     0.009 C 
ENDBRANCH  17  18
BRANCH  17  21
ATOM     21  C   UNL     1       0.373   1.197   1.005  1.00  0.00     0.176 C 
BRANCH  21  22
ATOM     22  O   UNL     1       0.975   1.414   2.285  1.00  0.00    -0.395 OA
ATOM     23  H   UNL     1       0.523   2.145   2.735  1.00  0.00     0.210 HD
ENDBRANCH  21  22
ENDBRANCH  17  21
ENDBRANCH  15  17
ENDBRANCH  12  15
ENDBRANCH   7  12
ENDBRANCH   3   6
ENDBRANCH   1   2
BRANCH   1  24
ATOM     24  C   UNL     1      -6.533   0.736  -4.355  1.00  0.00     0.042 C 
BRANCH  24  25
ATOM     25  C   UNL     1      -7.230   0.980  -5.693  1.00  0.00     0.118 C 
BRANCH  25  26
ATOM     26  N   UNL     1      -6.586   0.263  -6.785  1.00  0.00    -0.352 N 
ATOM     27  C   UNL     1      -7.079  -0.709  -7.620  1.00  0.00     0.251 C 
ATOM     28  H   UNL     1      -5.648   0.515  -6.951  1.00  0.00     0.163 HD
ATOM     29  O   UNL     1      -6.298  -1.354  -8.315  1.00  0.00    -0.269 OA
BRANCH  27  30
ATOM     30  C   UNL     1      -8.531  -0.988  -7.682  1.00  0.00     0.039 A 
ATOM     31  C   UNL     1      -8.960  -2.313  -7.798  1.00  0.00     0.014 A 
ATOM     32  C   UNL     1      -9.468   0.049  -7.669  1.00  0.00     0.014 A 
ATOM     33  C   UNL     1     -10.326  -2.600  -7.842  1.00  0.00     0.010 A 
ATOM     34  C   UNL     1     -10.829  -0.243  -7.633  1.00  0.00     0.010 A 
ATOM     35  C   UNL     1     -11.274  -1.570  -7.724  1.00  0.00    -0.014 A 
BRANCH  35  36
ATOM     36  C   UNL     1     -12.731  -1.863  -7.691  1.00  0.00     0.031 A 
ATOM     37  C   UNL     1     -13.638  -1.330  -8.769  1.00  0.00     0.074 A 
ATOM     38  C   UNL     1     -13.245  -2.563  -6.659  1.00  0.00     0.049 A 
ATOM     39  N   UNL     1     -14.939  -1.421  -8.870  1.00  0.00    -0.248 NA
ATOM     40  C   UNL     1     -13.004  -0.578  -9.865  1.00  0.00     0.031 C 
ATOM     41  C   UNL     1     -12.476  -3.100  -5.533  1.00  0.00     0.029 A 
ATOM     42  N   UNL     1     -14.537  -2.935  -6.383  1.00  0.00    -0.354 N 
ATOM     43  C   UNL     1     -15.279  -0.737 -10.031  1.00  0.00     0.074 A 
ATOM     44  C   UNL     1     -14.056  -0.185 -10.570  1.00  0.00     0.031 C 
ATOM     45  C   UNL     1     -13.307  -3.749  -4.702  1.00  0.00     0.029 A 
ATOM     46  C   UNL     1     -14.671  -3.635  -5.205  1.00  0.00     0.049 A 
ATOM     47  H   UNL     1     -15.297  -2.721  -6.971  1.00  0.00     0.167 HD
ATOM     48  C   UNL     1     -16.496  -0.601 -10.611  1.00  0.00     0.031 A 
ATOM     49  C   UNL     1     -15.769  -4.116  -4.590  1.00  0.00     0.031 A 
ATOM     50  C   UNL     1     -17.711  -1.154 -10.074  1.00  0.00     0.049 A 
ATOM     51  C   UNL     1     -17.113  -3.924  -5.240  1.00  0.00     0.074 A 
ATOM     52  C   UNL     1     -18.988  -1.100 -10.604  1.00  0.00     0.029 A 
ATOM     53  N   UNL     1     -17.802  -1.864  -8.886  1.00  0.00    -0.354 N 
ATOM     54  N   UNL     1     -17.404  -3.321  -6.369  1.00  0.00    -0.248 NA
ATOM     55  C   UNL     1     -18.276  -4.488  -4.542  1.00  0.00     0.031 C 
ATOM     56  C   UNL     1     -19.860  -1.729  -9.710  1.00  0.00     0.029 A 
ATOM     57  C   UNL     1     -19.115  -2.236  -8.658  1.00  0.00     0.049 A 
ATOM     58  H   UNL     1     -17.044  -2.073  -8.293  1.00  0.00     0.167 HD
ATOM     59  C   UNL     1     -18.779  -3.463  -6.530  1.00  0.00     0.074 A 
ATOM     60  C   UNL     1     -19.256  -4.224  -5.394  1.00  0.00     0.031 C 
ATOM     61  C   UNL     1     -19.574  -3.002  -7.526  1.00  0.00     0.031 A 
BRANCH  48  62
ATOM     62  C   UNL     1     -16.575   0.169 -11.905  1.00  0.00    -0.014 A 
ATOM     63  C   UNL     1     -16.026  -0.354 -13.091  1.00  0.00     0.010 A 
ATOM     64  C   UNL     1     -17.264   1.394 -11.954  1.00  0.00     0.010 A 
ATOM     65  C   UNL     1     -16.140   0.347 -14.294  1.00  0.00     0.020 A 
ATOM     66  C   UNL     1     -17.407   2.084 -13.162  1.00  0.00     0.020 A 
ATOM     67  C   UNL     1     -16.833   1.560 -14.323  1.00  0.00     0.054 A 
BRANCH  67  68
ATOM     68  S   UNL     1     -17.005   2.421 -15.910  1.00  0.00     0.124 S 
ATOM     69  O   UNL     1     -15.638   2.874 -16.156  1.00  0.00    -0.237 OA
ATOM     70  O   UNL     1     -17.484   1.363 -16.795  1.00  0.00    -0.237 OA
ATOM     71  O   UNL     1     -17.970   3.481 -15.629  1.00  0.00    -0.744 OA
ENDBRANCH  67  68
ENDBRANCH  48  62
BRANCH  49  72
ATOM     72  C   UNL     1     -15.649  -4.814  -3.279  1.00  0.00    -0.014 A 
ATOM     73  C   UNL     1     -15.939  -6.185  -3.162  1.00  0.00     0.010 A 
ATOM     74  C   UNL     1     -15.260  -4.100  -2.131  1.00  0.00     0.010 A 
ATOM     75  C   UNL     1     -15.878  -6.819  -1.917  1.00  0.00     0.020 A 
ATOM     76  C   UNL     1     -15.163  -4.738  -0.891  1.00  0.00     0.020 A 
ATOM     77  C   UNL     1     -15.492  -6.090  -0.789  1.00  0.00     0.054 A 
BRANCH  77  78
ATOM     78  S   UNL     1     -15.400  -6.937   0.813  1.00  0.00     0.124 S 
ATOM     79  O   UNL     1     -16.810  -7.130   1.134  1.00  0.00    -0.237 OA
ATOM     80  O   UNL     1     -14.652  -8.148   0.486  1.00  0.00    -0.237 OA
ATOM     81  O   UNL     1     -14.689  -5.984   1.662  1.00  0.00    -0.744 OA
ENDBRANCH  77  78
ENDBRANCH  49  72
BRANCH  61  82
ATOM     82  C   UNL     1     -21.039  -3.347  -7.462  1.00  0.00    -0.014 A 
ATOM     83  C   UNL     1     -21.888  -2.767  -6.502  1.00  0.00     0.010 A 
ATOM     84  C   UNL     1     -21.584  -4.227  -8.415  1.00  0.00     0.010 A 
ATOM     85  C   UNL     1     -23.248  -3.088  -6.476  1.00  0.00     0.020 A 
ATOM     86  C   UNL     1     -22.949  -4.524  -8.414  1.00  0.00     0.020 A 
ATOM     87  C   UNL     1     -23.770  -3.963  -7.434  1.00  0.00     0.054 A 
BRANCH  87  88
ATOM     88  S   UNL     1     -25.546  -4.327  -7.405  1.00  0.00     0.124 S 
ATOM     89  O   UNL     1     -25.665  -5.167  -6.217  1.00  0.00    -0.237 OA
ATOM     90  O   UNL     1     -26.142  -2.998  -7.298  1.00  0.00    -0.237 OA
ATOM     91  O   UNL     1     -25.781  -5.010  -8.676  1.00  0.00    -0.744 OA
ENDBRANCH  87  88
ENDBRANCH  61  82
ENDBRANCH  35  36
ENDBRANCH  27  30
ENDBRANCH  25  26
ENDBRANCH  24  25
ENDBRANCH   1  24
TORSDOF 19
