REMARK SMILES C[C@H]1[C@H](C(=O)NCCCNC(=O)c2ccc(-c3c4nc(c(-c5ccc(S(=O)(=O)[O-])cc5)c5ccc([nH]5)c(-c5ccc(S(=O)(=O)[O-])cc5)c5nc(c(-c6ccc(S(=O)(=O)[O-])cc6)c6ccc3[nH]6)C=C5)C=C4)cc2)CCN1C(=O)[C@](C)([NH3+])C1CC1
REMARK SMILES IDX 8 1 7 2 6 3 4 4 5 5 3 7 1 8 2 9 75 10 73 11 74 12 76 13
REMARK SMILES IDX 77 14 78 15 79 16 80 17 81 21 82 22 83 23 9 24 10 25 11 26
REMARK SMILES IDX 12 28 13 29 14 30 72 31 15 32 71 33 16 34 17 35 18 36 65 37
REMARK SMILES IDX 19 38 70 39 64 40 66 41 20 42 69 43 63 44 62 45 21 47 51 48
REMARK SMILES IDX 32 49 50 50 33 51 36 52 49 53 67 54 34 55 35 56 48 58 68 59
REMARK SMILES IDX 37 60 22 61 23 62 31 63 24 64 30 65 25 66 26 67 27 68 28 69
REMARK SMILES IDX 29 70 52 71 53 72 61 73 54 74 60 75 55 76 56 77 57 78 58 79
REMARK SMILES IDX 59 80 38 81 39 82 47 83 40 84 46 85 41 86 42 87 43 88 44 89
REMARK SMILES IDX 45 90
REMARK H PARENT 6 6 80 18 80 19 80 20 10 27 66 46 36 57
REMARK Flexibility Score: inf
ROOT
ATOM      1  C   UNL     1       5.220  -4.088   3.211  1.00  0.00     0.042 C 
ENDROOT
BRANCH   1   2
ATOM      2  C   UNL     1       6.097  -4.154   1.971  1.00  0.00     0.117 C 
BRANCH   2   3
ATOM      3  N   UNL     1       6.247  -5.511   1.474  1.00  0.00    -0.356 N 
ATOM      4  C   UNL     1       5.885  -6.093   0.303  1.00  0.00     0.225 C 
ATOM      5  O   UNL     1       6.161  -7.289   0.165  1.00  0.00    -0.275 OA
ATOM      6  H   UNL     1       6.695  -6.121   2.103  1.00  0.00     0.163 HD
BRANCH   4   7
ATOM      7  C   UNL     1       5.153  -5.362  -0.811  1.00  0.00     0.102 C 
ATOM      8  C   UNL     1       2.750  -5.488  -1.515  1.00  0.00     0.032 C 
ATOM      9  C   UNL     1       3.709  -4.980  -0.434  1.00  0.00     0.094 C 
ATOM     10  N   UNL     1       3.705  -3.524  -0.397  1.00  0.00    -0.334 N 
ATOM     11  C   UNL     1       5.834  -4.088  -1.309  1.00  0.00     0.037 C 
ATOM     12  C   UNL     1       4.762  -3.010  -1.257  1.00  0.00     0.121 C 
BRANCH  10  13
ATOM     13  C   UNL     1       2.899  -2.638   0.281  1.00  0.00     0.284 C 
ATOM     14  O   UNL     1       3.171  -1.425   0.183  1.00  0.00    -0.268 OA
BRANCH  13  15
ATOM     15  C   UNL     1       1.618  -3.012   1.131  1.00  0.00     0.174 C 
ATOM     16  C   UNL     1       0.388  -2.671   0.279  1.00  0.00     0.090 C 
BRANCH  15  17
ATOM     17  N   UNL     1       1.603  -2.030   2.265  1.00  0.00    -0.345 N 
ATOM     18  H   UNL     1       0.796  -2.212   2.861  1.00  0.00     0.345 HD
ATOM     19  H   UNL     1       1.545  -1.082   1.893  1.00  0.00     0.345 HD
ATOM     20  H   UNL     1       2.459  -2.129   2.811  1.00  0.00     0.345 HD
ENDBRANCH  15  17
BRANCH  15  21
ATOM     21  C   UNL     1       1.520  -4.333   1.883  1.00  0.00     0.060 C 
ATOM     22  C   UNL     1       0.157  -4.920   2.242  1.00  0.00     0.011 C 
ATOM     23  C   UNL     1       1.080  -5.684   1.352  1.00  0.00     0.011 C 
ENDBRANCH  15  21
ENDBRANCH  13  15
ENDBRANCH  10  13
ENDBRANCH   4   7
ENDBRANCH   2   3
ENDBRANCH   1   2
BRANCH   1  24
ATOM     24  C   UNL     1       5.805  -4.760   4.446  1.00  0.00     0.118 C 
BRANCH  24  25
ATOM     25  N   UNL     1       7.067  -4.171   4.860  1.00  0.00    -0.352 N 
ATOM     26  C   UNL     1       7.420  -3.542   6.029  1.00  0.00     0.251 C 
ATOM     27  H   UNL     1       7.788  -4.234   4.193  1.00  0.00     0.163 HD
ATOM     28  O   UNL     1       8.495  -2.951   6.082  1.00  0.00    -0.269 OA
BRANCH  26  29
ATOM     29  C   UNL     1       6.523  -3.555   7.207  1.00  0.00     0.039 A 
ATOM     30  C   UNL     1       6.431  -2.400   7.989  1.00  0.00     0.014 A 
ATOM     31  C   UNL     1       5.812  -4.701   7.575  1.00  0.00     0.014 A 
ATOM     32  C   UNL     1       5.585  -2.377   9.101  1.00  0.00     0.010 A 
ATOM     33  C   UNL     1       4.909  -4.651   8.636  1.00  0.00     0.010 A 
ATOM     34  C   UNL     1       4.792  -3.492   9.415  1.00  0.00    -0.014 A 
BRANCH  34  35
ATOM     35  C   UNL     1       3.835  -3.455  10.551  1.00  0.00     0.031 A 
ATOM     36  C   UNL     1       4.013  -4.374  11.730  1.00  0.00     0.074 A 
ATOM     37  C   UNL     1       2.772  -2.628  10.496  1.00  0.00     0.049 A 
ATOM     38  N   UNL     1       3.259  -4.506  12.793  1.00  0.00    -0.248 NA
ATOM     39  C   UNL     1       5.173  -5.278  11.702  1.00  0.00     0.031 C 
ATOM     40  C   UNL     1       2.458  -1.726   9.385  1.00  0.00     0.029 A 
ATOM     41  N   UNL     1       1.754  -2.417  11.392  1.00  0.00    -0.354 N 
ATOM     42  C   UNL     1       3.845  -5.514  13.551  1.00  0.00     0.074 A 
ATOM     43  C   UNL     1       4.987  -5.994  12.802  1.00  0.00     0.031 C 
ATOM     44  C   UNL     1       1.341  -1.040   9.678  1.00  0.00     0.029 A 
ATOM     45  C   UNL     1       0.841  -1.477  10.977  1.00  0.00     0.049 A 
ATOM     46  H   UNL     1       1.686  -2.892  12.251  1.00  0.00     0.167 HD
ATOM     47  C   UNL     1       3.481  -5.984  14.768  1.00  0.00     0.031 A 
ATOM     48  C   UNL     1      -0.278  -1.019  11.571  1.00  0.00     0.031 A 
ATOM     49  C   UNL     1       2.349  -5.501  15.515  1.00  0.00     0.049 A 
ATOM     50  C   UNL     1      -0.658  -1.549  12.925  1.00  0.00     0.074 A 
ATOM     51  C   UNL     1       1.925  -5.879  16.777  1.00  0.00     0.029 A 
ATOM     52  N   UNL     1       1.460  -4.535  15.068  1.00  0.00    -0.354 N 
ATOM     53  N   UNL     1      -0.055  -2.459  13.653  1.00  0.00    -0.248 NA
ATOM     54  C   UNL     1      -1.861  -0.978  13.546  1.00  0.00     0.031 C 
ATOM     55  C   UNL     1       0.754  -5.173  17.075  1.00  0.00     0.029 A 
ATOM     56  C   UNL     1       0.479  -4.316  16.022  1.00  0.00     0.049 A 
ATOM     57  H   UNL     1       1.518  -4.072  14.201  1.00  0.00     0.167 HD
ATOM     58  C   UNL     1      -0.795  -2.556  14.826  1.00  0.00     0.074 A 
ATOM     59  C   UNL     1      -1.876  -1.597  14.719  1.00  0.00     0.031 C 
ATOM     60  C   UNL     1      -0.598  -3.366  15.895  1.00  0.00     0.031 A 
BRANCH  47  61
ATOM     61  C   UNL     1       4.322  -7.082  15.366  1.00  0.00    -0.014 A 
ATOM     62  C   UNL     1       5.631  -6.829  15.816  1.00  0.00     0.010 A 
ATOM     63  C   UNL     1       3.791  -8.377  15.506  1.00  0.00     0.010 A 
ATOM     64  C   UNL     1       6.410  -7.860  16.348  1.00  0.00     0.020 A 
ATOM     65  C   UNL     1       4.557  -9.405  16.065  1.00  0.00     0.020 A 
ATOM     66  C   UNL     1       5.869  -9.143  16.464  1.00  0.00     0.054 A 
BRANCH  66  67
ATOM     67  S   UNL     1       6.899 -10.460  17.168  1.00  0.00     0.124 S 
ATOM     68  O   UNL     1       7.826 -10.735  16.073  1.00  0.00    -0.237 OA
ATOM     69  O   UNL     1       7.486  -9.818  18.341  1.00  0.00    -0.237 OA
ATOM     70  O   UNL     1       5.945 -11.528  17.459  1.00  0.00    -0.744 OA
ENDBRANCH  66  67
ENDBRANCH  47  61
BRANCH  48  71
ATOM     71  C   UNL     1      -1.106   0.012  10.890  1.00  0.00    -0.014 A 
ATOM     72  C   UNL     1      -1.128   1.337  11.361  1.00  0.00     0.010 A 
ATOM     73  C   UNL     1      -1.857  -0.320   9.747  1.00  0.00     0.010 A 
ATOM     74  C   UNL     1      -1.897   2.307  10.711  1.00  0.00     0.020 A 
ATOM     75  C   UNL     1      -2.606   0.653   9.080  1.00  0.00     0.020 A 
ATOM     76  C   UNL     1      -2.630   1.959   9.573  1.00  0.00     0.054 A 
BRANCH  76  77
ATOM     77  S   UNL     1      -3.574   3.248   8.712  1.00  0.00     0.124 S 
ATOM     78  O   UNL     1      -4.713   3.436   9.605  1.00  0.00    -0.237 OA
ATOM     79  O   UNL     1      -2.622   4.354   8.658  1.00  0.00    -0.237 OA
ATOM     80  O   UNL     1      -3.883   2.639   7.420  1.00  0.00    -0.744 OA
ENDBRANCH  76  77
ENDBRANCH  48  71
BRANCH  60  81
ATOM     81  C   UNL     1      -1.561  -3.234  17.044  1.00  0.00    -0.014 A 
ATOM     82  C   UNL     1      -2.885  -3.700  16.942  1.00  0.00     0.010 A 
ATOM     83  C   UNL     1      -1.126  -2.664  18.255  1.00  0.00     0.010 A 
ATOM     84  C   UNL     1      -3.767  -3.559  18.016  1.00  0.00     0.020 A 
ATOM     85  C   UNL     1      -1.998  -2.547  19.340  1.00  0.00     0.020 A 
ATOM     86  C   UNL     1      -3.320  -2.979  19.207  1.00  0.00     0.054 A 
BRANCH  86  87
ATOM     87  S   UNL     1      -4.477  -2.830  20.596  1.00  0.00     0.124 S 
ATOM     88  O   UNL     1      -5.315  -1.711  20.173  1.00  0.00    -0.237 OA
ATOM     89  O   UNL     1      -5.132  -4.135  20.612  1.00  0.00    -0.237 OA
ATOM     90  O   UNL     1      -3.610  -2.561  21.741  1.00  0.00    -0.744 OA
ENDBRANCH  86  87
ENDBRANCH  60  81
ENDBRANCH  34  35
ENDBRANCH  26  29
ENDBRANCH  24  25
ENDBRANCH   1  24
TORSDOF 17
