REMARK SMILES C[NH2+][C@@]1(C(=O)NCCCNC(=O)c2ccc(-c3c4nc(c(-c5ccc(S(=O)(=O)[O-])cc5)c5ccc([nH]5)c(-c5ccc(S(=O)(=O)[O-])cc5)c5nc(c(-c6ccc(S(=O)(=O)[O-])cc6)c6ccc3[nH]6)C=C5)C=C4)cc2)CC[C@H]([NH+]2CC[NH+](C)CC2)C1
REMARK SMILES IDX 9 1 8 2 7 3 6 4 4 5 5 6 3 8 73 9 83 10 74 11 75 12 2 13 1 14
REMARK SMILES IDX 76 17 77 18 82 19 78 21 81 22 79 23 80 24 10 26 11 27 12 29
REMARK SMILES IDX 13 30 14 31 72 32 15 33 71 34 16 35 17 36 18 37 65 38 19 39
REMARK SMILES IDX 70 40 64 41 66 42 20 43 69 44 63 45 62 46 21 48 51 49 32 50
REMARK SMILES IDX 50 51 33 52 36 53 49 54 67 55 34 56 35 57 48 59 68 60 37 61
REMARK SMILES IDX 22 62 23 63 31 64 24 65 30 66 25 67 26 68 27 69 28 70 29 71
REMARK SMILES IDX 52 72 53 73 61 74 54 75 60 76 55 77 56 78 57 79 58 80 59 81
REMARK SMILES IDX 38 82 39 83 47 84 40 85 46 86 41 87 42 88 43 89 44 90 45 91
REMARK H PARENT 6 7 2 15 2 16 76 20 79 25 10 28 66 47 36 58
REMARK Flexibility Score: inf
ROOT
ATOM      1  C   UNL     1      -5.985  -2.557   2.693  1.00  0.00     0.118 C 
ENDROOT
BRANCH   1   2
ATOM      2  C   UNL     1      -5.204  -1.978   1.325  1.00  0.00     0.042 C 
BRANCH   2   3
ATOM      3  C   UNL     1      -3.732  -0.535   0.803  1.00  0.00     0.118 C 
BRANCH   3   4
ATOM      4  N   UNL     1      -2.258  -0.259   1.311  1.00  0.00    -0.351 N 
ATOM      5  C   UNL     1      -0.979  -0.596   1.022  1.00  0.00     0.281 C 
ATOM      6  O   UNL     1      -0.190  -0.287   1.927  1.00  0.00    -0.268 OA
ATOM      7  H   UNL     1      -2.278   0.353   2.083  1.00  0.00     0.163 HD
BRANCH   5   8
ATOM      8  C   UNL     1      -0.523  -1.303  -0.289  1.00  0.00     0.181 C 
ATOM      9  C   UNL     1      -1.148  -0.640  -1.527  1.00  0.00     0.085 C 
ATOM     10  C   UNL     1      -1.002  -2.769  -0.354  1.00  0.00     0.144 C 
ATOM     11  C   UNL     1      -2.129  -1.665  -2.091  1.00  0.00     0.072 C 
ATOM     12  C   UNL     1      -2.396  -2.708  -0.978  1.00  0.00     0.191 C 
BRANCH   8  13
ATOM     13  N   UNL     1       0.970  -1.314  -0.370  1.00  0.00    -0.336 N 
ATOM     14  C   UNL     1       1.606  -0.000  -0.373  1.00  0.00     0.331 C 
ATOM     15  H   UNL     1       1.325  -1.834   0.432  1.00  0.00     0.346 HD
ATOM     16  H   UNL     1       1.199  -1.740  -1.269  1.00  0.00     0.346 HD
ENDBRANCH   8  13
BRANCH  12  17
ATOM     17  N   UNL     1      -3.507  -2.465  -0.051  1.00  0.00    -0.323 N 
ATOM     18  C   UNL     1      -4.939  -1.546  -0.764  1.00  0.00     0.324 C 
ATOM     19  C   UNL     1      -3.198  -2.374   1.786  1.00  0.00     0.324 C 
ATOM     20  H   UNL     1      -3.870  -3.414   0.031  1.00  0.00     0.348 HD
ATOM     21  C   UNL     1      -5.788  -0.117   0.275  1.00  0.00     0.324 C 
ATOM     22  C   UNL     1      -4.072  -0.942   2.839  1.00  0.00     0.324 C 
ATOM     23  N   UNL     1      -5.463   0.022   2.085  1.00  0.00    -0.328 N 
ATOM     24  C   UNL     1      -5.532   1.407   2.543  1.00  0.00     0.333 C 
ATOM     25  H   UNL     1      -6.247  -0.502   2.473  1.00  0.00     0.348 HD
ENDBRANCH  12  17
ENDBRANCH   5   8
ENDBRANCH   3   4
ENDBRANCH   2   3
ENDBRANCH   1   2
BRANCH   1  26
ATOM     26  N   UNL     1      -6.888  -1.609   3.337  1.00  0.00    -0.352 N 
ATOM     27  C   UNL     1      -8.184  -1.708   3.738  1.00  0.00     0.251 C 
ATOM     28  H   UNL     1      -6.482  -0.730   3.515  1.00  0.00     0.163 HD
ATOM     29  O   UNL     1      -8.846  -0.715   4.018  1.00  0.00    -0.269 OA
BRANCH  27  30
ATOM     30  C   UNL     1      -8.787  -3.042   3.772  1.00  0.00     0.039 A 
ATOM     31  C   UNL     1     -10.030  -3.228   3.166  1.00  0.00     0.014 A 
ATOM     32  C   UNL     1      -8.086  -4.101   4.351  1.00  0.00     0.014 A 
ATOM     33  C   UNL     1     -10.569  -4.506   3.118  1.00  0.00     0.010 A 
ATOM     34  C   UNL     1      -8.588  -5.384   4.234  1.00  0.00     0.010 A 
ATOM     35  C   UNL     1      -9.842  -5.588   3.639  1.00  0.00    -0.014 A 
BRANCH  35  36
ATOM     36  C   UNL     1     -10.412  -6.947   3.643  1.00  0.00     0.031 A 
ATOM     37  C   UNL     1     -10.756  -7.579   4.960  1.00  0.00     0.074 A 
ATOM     38  C   UNL     1     -10.557  -7.605   2.479  1.00  0.00     0.049 A 
ATOM     39  N   UNL     1     -11.199  -8.782   5.204  1.00  0.00    -0.248 NA
ATOM     40  C   UNL     1     -10.536  -6.762   6.167  1.00  0.00     0.031 C 
ATOM     41  C   UNL     1     -10.205  -7.079   1.157  1.00  0.00     0.029 A 
ATOM     42  N   UNL     1     -11.038  -8.859   2.222  1.00  0.00    -0.354 N 
ATOM     43  C   UNL     1     -11.279  -8.875   6.588  1.00  0.00     0.074 A 
ATOM     44  C   UNL     1     -10.787  -7.631   7.133  1.00  0.00     0.031 C 
ATOM     45  C   UNL     1     -10.513  -7.995   0.225  1.00  0.00     0.029 A 
ATOM     46  C   UNL     1     -11.050  -9.179   0.886  1.00  0.00     0.049 A 
ATOM     47  H   UNL     1     -11.346  -9.474   2.927  1.00  0.00     0.167 HD
ATOM     48  C   UNL     1     -11.747  -9.901   7.335  1.00  0.00     0.031 A 
ATOM     49  C   UNL     1     -11.455 -10.306   0.272  1.00  0.00     0.031 A 
ATOM     50  C   UNL     1     -12.262 -11.115   6.766  1.00  0.00     0.049 A 
ATOM     51  C   UNL     1     -12.006 -11.419   1.120  1.00  0.00     0.074 A 
ATOM     52  C   UNL     1     -12.820 -12.203   7.410  1.00  0.00     0.029 A 
ATOM     53  N   UNL     1     -12.289 -11.392   5.405  1.00  0.00    -0.354 N 
ATOM     54  N   UNL     1     -12.129 -11.473   2.427  1.00  0.00    -0.248 NA
ATOM     55  C   UNL     1     -12.485 -12.614   0.416  1.00  0.00     0.031 C 
ATOM     56  C   UNL     1     -13.151 -13.155   6.440  1.00  0.00     0.029 A 
ATOM     57  C   UNL     1     -12.844 -12.639   5.189  1.00  0.00     0.049 A 
ATOM     58  H   UNL     1     -11.961 -10.790   4.699  1.00  0.00     0.167 HD
ATOM     59  C   UNL     1     -12.720 -12.700   2.701  1.00  0.00     0.074 A 
ATOM     60  C   UNL     1     -12.945 -13.347   1.421  1.00  0.00     0.031 C 
ATOM     61  C   UNL     1     -13.048 -13.247   3.897  1.00  0.00     0.031 A 
BRANCH  48  62
ATOM     62  C   UNL     1     -11.713  -9.741   8.832  1.00  0.00    -0.014 A 
ATOM     63  C   UNL     1     -12.544  -8.810   9.483  1.00  0.00     0.010 A 
ATOM     64  C   UNL     1     -10.838 -10.528   9.600  1.00  0.00     0.010 A 
ATOM     65  C   UNL     1     -12.463  -8.633  10.867  1.00  0.00     0.020 A 
ATOM     66  C   UNL     1     -10.775 -10.376  10.989  1.00  0.00     0.020 A 
ATOM     67  C   UNL     1     -11.574  -9.414  11.610  1.00  0.00     0.054 A 
BRANCH  67  68
ATOM     68  S   UNL     1     -11.497  -9.172  13.406  1.00  0.00     0.124 S 
ATOM     69  O   UNL     1     -10.770  -7.910  13.510  1.00  0.00    -0.237 OA
ATOM     70  O   UNL     1     -12.907  -9.117  13.784  1.00  0.00    -0.237 OA
ATOM     71  O   UNL     1     -10.774 -10.349  13.884  1.00  0.00    -0.744 OA
ENDBRANCH  67  68
ENDBRANCH  48  62
BRANCH  49  72
ATOM     72  C   UNL     1     -11.387 -10.411  -1.210  1.00  0.00    -0.014 A 
ATOM     73  C   UNL     1     -12.562 -10.369  -1.981  1.00  0.00     0.010 A 
ATOM     74  C   UNL     1     -10.146 -10.511  -1.864  1.00  0.00     0.010 A 
ATOM     75  C   UNL     1     -12.499 -10.441  -3.376  1.00  0.00     0.020 A 
ATOM     76  C   UNL     1     -10.076 -10.558  -3.260  1.00  0.00     0.020 A 
ATOM     77  C   UNL     1     -11.255 -10.532  -4.007  1.00  0.00     0.054 A 
BRANCH  77  78
ATOM     78  S   UNL     1     -11.194 -10.561  -5.821  1.00  0.00     0.124 S 
ATOM     79  O   UNL     1     -11.652 -11.914  -6.118  1.00  0.00    -0.237 OA
ATOM     80  O   UNL     1     -12.113  -9.486  -6.186  1.00  0.00    -0.237 OA
ATOM     81  O   UNL     1      -9.788 -10.294  -6.119  1.00  0.00    -0.744 OA
ENDBRANCH  77  78
ENDBRANCH  49  72
BRANCH  61  82
ATOM     82  C   UNL     1     -13.704 -14.599   3.872  1.00  0.00    -0.014 A 
ATOM     83  C   UNL     1     -12.961 -15.757   3.588  1.00  0.00     0.010 A 
ATOM     84  C   UNL     1     -15.067 -14.713   4.200  1.00  0.00     0.010 A 
ATOM     85  C   UNL     1     -13.579 -17.008   3.604  1.00  0.00     0.020 A 
ATOM     86  C   UNL     1     -15.681 -15.965   4.243  1.00  0.00     0.020 A 
ATOM     87  C   UNL     1     -14.936 -17.104   3.932  1.00  0.00     0.054 A 
BRANCH  87  88
ATOM     88  S   UNL     1     -15.704 -18.744   3.993  1.00  0.00     0.124 S 
ATOM     89  O   UNL     1     -15.851 -19.063   2.576  1.00  0.00    -0.237 OA
ATOM     90  O   UNL     1     -14.713 -19.537   4.717  1.00  0.00    -0.237 OA
ATOM     91  O   UNL     1     -16.954 -18.514   4.714  1.00  0.00    -0.744 OA
ENDBRANCH  87  88
ENDBRANCH  61  82
ENDBRANCH  35  36
ENDBRANCH  27  30
ENDBRANCH   1  26
TORSDOF 15
