REMARK SMILES C[C@@H](C(=O)NCCCNC(=O)c1ccc(-c2c3nc(c(-c4ccc(S(=O)(=O)[O-])cc4)c4ccc([nH]4)c(-c4ccc(S(=O)(=O)[O-])cc4)c4nc(c(-c5ccc(S(=O)(=O)[O-])cc5)c5ccc2[nH]5)C=C4)C=C3)cc1)c1ccc(C[C@H]2CCC[C@H]2O)cc1-c1ccc(O)cc1
REMARK SMILES IDX 6 1 5 2 3 3 4 4 2 6 1 7 72 8 73 9 84 10 74 11 83 12 75 13
REMARK SMILES IDX 85 14 86 15 91 16 87 17 90 18 88 19 89 20 76 22 77 23 78 24
REMARK SMILES IDX 81 25 79 26 80 27 82 28 7 30 8 31 9 32 10 33 11 35 12 36
REMARK SMILES IDX 13 37 71 38 14 39 70 40 15 41 16 42 17 43 64 44 18 45 69 46
REMARK SMILES IDX 63 47 65 48 19 49 68 50 62 51 61 52 20 54 50 55 31 56 49 57
REMARK SMILES IDX 32 58 35 59 48 60 66 61 33 62 34 63 47 65 67 66 36 67 21 68
REMARK SMILES IDX 22 69 30 70 23 71 29 72 24 73 25 74 26 75 27 76 28 77 51 78
REMARK SMILES IDX 52 79 60 80 53 81 59 82 54 83 55 84 56 85 57 86 58 87 37 88
REMARK SMILES IDX 38 89 46 90 39 91 45 92 40 93 41 94 42 95 43 96 44 97
REMARK H PARENT 5 5 89 21 82 29 9 34 65 53 35 64
REMARK Flexibility Score: inf
ROOT
ATOM      1  C   UNL     1       3.511  -1.539   1.429  1.00  0.00     0.117 C 
ENDROOT
BRANCH   1   2
ATOM      2  N   UNL     1       2.383  -1.281   2.300  1.00  0.00    -0.356 N 
ATOM      3  C   UNL     1       1.082  -1.014   1.991  1.00  0.00     0.227 C 
ATOM      4  O   UNL     1       0.343  -0.726   2.936  1.00  0.00    -0.274 OA
ATOM      5  H   UNL     1       2.586  -1.303   3.263  1.00  0.00     0.163 HD
BRANCH   3   6
ATOM      6  C   UNL     1       0.589  -1.122   0.532  1.00  0.00     0.106 C 
ATOM      7  C   UNL     1       1.133   0.053  -0.294  1.00  0.00     0.023 C 
BRANCH   6   8
ATOM      8  C   UNL     1      -0.942  -1.229   0.498  1.00  0.00    -0.028 A 
ATOM      9  C   UNL     1      -1.708  -0.068   0.286  1.00  0.00     0.005 A 
ATOM     10  C   UNL     1      -1.619  -2.450   0.753  1.00  0.00    -0.014 A 
ATOM     11  C   UNL     1      -3.094  -0.088   0.365  1.00  0.00     0.004 A 
ATOM     12  C   UNL     1      -3.022  -2.420   0.920  1.00  0.00     0.012 A 
ATOM     13  C   UNL     1      -3.761  -1.236   0.775  1.00  0.00    -0.047 A 
BRANCH  10  14
ATOM     14  C   UNL     1      -0.936  -3.760   0.782  1.00  0.00    -0.018 A 
ATOM     15  C   UNL     1      -1.138  -4.667  -0.275  1.00  0.00     0.012 A 
ATOM     16  C   UNL     1      -0.071  -4.141   1.820  1.00  0.00     0.012 A 
ATOM     17  C   UNL     1      -0.474  -5.894  -0.313  1.00  0.00     0.047 A 
ATOM     18  C   UNL     1       0.616  -5.361   1.774  1.00  0.00     0.047 A 
ATOM     19  C   UNL     1       0.411  -6.225   0.703  1.00  0.00     0.115 A 
BRANCH  19  20
ATOM     20  O   UNL     1       1.067  -7.416   0.611  1.00  0.00    -0.508 OA
ATOM     21  H   UNL     1       0.912  -7.981  -0.121  1.00  0.00     0.293 HD
ENDBRANCH  19  20
ENDBRANCH  10  14
BRANCH  13  22
ATOM     22  C   UNL     1      -5.235  -1.174   1.079  1.00  0.00     0.041 C 
BRANCH  22  23
ATOM     23  C   UNL     1      -5.652  -0.614   2.454  1.00  0.00     0.022 C 
ATOM     24  C   UNL     1      -5.059  -1.337   3.675  1.00  0.00     0.007 C 
ATOM     25  C   UNL     1      -5.449   0.882   2.756  1.00  0.00     0.117 C 
ATOM     26  C   UNL     1      -5.001  -0.295   4.797  1.00  0.00     0.003 C 
ATOM     27  C   UNL     1      -5.699   0.951   4.258  1.00  0.00     0.032 C 
BRANCH  25  28
ATOM     28  O   UNL     1      -4.151   1.388   2.508  1.00  0.00    -0.393 OA
ATOM     29  H   UNL     1      -3.507   0.904   3.049  1.00  0.00     0.210 HD
ENDBRANCH  25  28
ENDBRANCH  22  23
ENDBRANCH  13  22
ENDBRANCH   6   8
ENDBRANCH   3   6
ENDBRANCH   1   2
BRANCH   1  30
ATOM     30  C   UNL     1       4.399  -0.304   1.294  1.00  0.00     0.042 C 
BRANCH  30  31
ATOM     31  C   UNL     1       5.113   0.088   2.585  1.00  0.00     0.118 C 
BRANCH  31  32
ATOM     32  N   UNL     1       6.074  -0.917   3.013  1.00  0.00    -0.352 N 
ATOM     33  C   UNL     1       7.434  -0.825   3.177  1.00  0.00     0.251 C 
ATOM     34  H   UNL     1       5.690  -1.800   3.217  1.00  0.00     0.163 HD
ATOM     35  O   UNL     1       8.089  -1.851   3.339  1.00  0.00    -0.269 OA
BRANCH  33  36
ATOM     36  C   UNL     1       8.111   0.491   3.145  1.00  0.00     0.039 A 
ATOM     37  C   UNL     1       9.334   0.604   2.479  1.00  0.00     0.014 A 
ATOM     38  C   UNL     1       7.565   1.602   3.794  1.00  0.00     0.014 A 
ATOM     39  C   UNL     1       9.979   1.841   2.414  1.00  0.00     0.010 A 
ATOM     40  C   UNL     1       8.170   2.851   3.663  1.00  0.00     0.010 A 
ATOM     41  C   UNL     1       9.386   2.984   2.977  1.00  0.00    -0.014 A 
BRANCH  41  42
ATOM     42  C   UNL     1      10.020   4.322   2.853  1.00  0.00     0.031 A 
ATOM     43  C   UNL     1      10.481   5.062   4.081  1.00  0.00     0.074 A 
ATOM     44  C   UNL     1      10.128   4.897   1.639  1.00  0.00     0.049 A 
ATOM     45  N   UNL     1      11.005   6.258   4.174  1.00  0.00    -0.248 NA
ATOM     46  C   UNL     1      10.310   4.380   5.374  1.00  0.00     0.031 C 
ATOM     47  C   UNL     1       9.685   4.300   0.376  1.00  0.00     0.029 A 
ATOM     48  N   UNL     1      10.636   6.117   1.267  1.00  0.00    -0.354 N 
ATOM     49  C   UNL     1      11.210   6.478   5.531  1.00  0.00     0.074 A 
ATOM     50  C   UNL     1      10.710   5.312   6.227  1.00  0.00     0.031 C 
ATOM     51  C   UNL     1       9.967   5.142  -0.631  1.00  0.00     0.029 A 
ATOM     52  C   UNL     1      10.566   6.356  -0.086  1.00  0.00     0.049 A 
ATOM     53  H   UNL     1      11.016   6.760   1.908  1.00  0.00     0.167 HD
ATOM     54  C   UNL     1      11.781   7.544   6.142  1.00  0.00     0.031 A 
ATOM     55  C   UNL     1      10.934   7.432  -0.808  1.00  0.00     0.031 A 
ATOM     56  C   UNL     1      12.284   8.699   5.446  1.00  0.00     0.049 A 
ATOM     57  C   UNL     1      11.548   8.612  -0.105  1.00  0.00     0.074 A 
ATOM     58  C   UNL     1      12.927   9.806   5.971  1.00  0.00     0.029 A 
ATOM     59  N   UNL     1      12.196   8.899   4.077  1.00  0.00    -0.354 N 
ATOM     60  N   UNL     1      11.794   8.771   1.174  1.00  0.00    -0.248 NA
ATOM     61  C   UNL     1      11.944   9.751  -0.943  1.00  0.00     0.031 C 
ATOM     62  C   UNL     1      13.178  10.702   4.926  1.00  0.00     0.029 A 
ATOM     63  C   UNL     1      12.749  10.124   3.742  1.00  0.00     0.049 A 
ATOM     64  H   UNL     1      11.800   8.265   3.437  1.00  0.00     0.167 HD
ATOM     65  C   UNL     1      12.399  10.019   1.289  1.00  0.00     0.074 A 
ATOM     66  C   UNL     1      12.495  10.562  -0.050  1.00  0.00     0.031 C 
ATOM     67  C   UNL     1      12.836  10.655   2.404  1.00  0.00     0.031 A 
BRANCH  54  68
ATOM     68  C   UNL     1      11.883   7.513   7.646  1.00  0.00    -0.014 A 
ATOM     69  C   UNL     1      12.755   6.622   8.299  1.00  0.00     0.010 A 
ATOM     70  C   UNL     1      11.129   8.417   8.417  1.00  0.00     0.010 A 
ATOM     71  C   UNL     1      12.837   6.604   9.693  1.00  0.00     0.020 A 
ATOM     72  C   UNL     1      11.230   8.423   9.812  1.00  0.00     0.020 A 
ATOM     73  C   UNL     1      12.071   7.504  10.441  1.00  0.00     0.054 A 
BRANCH  73  74
ATOM     74  S   UNL     1      12.214   7.471  12.249  1.00  0.00     0.124 S 
ATOM     75  O   UNL     1      11.519   6.229  12.583  1.00  0.00    -0.237 OA
ATOM     76  O   UNL     1      13.660   7.456  12.456  1.00  0.00    -0.237 OA
ATOM     77  O   UNL     1      11.539   8.695  12.674  1.00  0.00    -0.744 OA
ENDBRANCH  73  74
ENDBRANCH  54  68
BRANCH  55  78
ATOM     78  C   UNL     1      10.739   7.438  -2.284  1.00  0.00    -0.014 A 
ATOM     79  C   UNL     1      11.844   7.375  -3.151  1.00  0.00     0.010 A 
ATOM     80  C   UNL     1       9.443   7.493  -2.831  1.00  0.00     0.010 A 
ATOM     81  C   UNL     1      11.659   7.384  -4.537  1.00  0.00     0.020 A 
ATOM     82  C   UNL     1       9.253   7.472  -4.215  1.00  0.00     0.020 A 
ATOM     83  C   UNL     1      10.364   7.429  -5.060  1.00  0.00     0.054 A 
BRANCH  83  84
ATOM     84  S   UNL     1      10.146   7.386  -6.861  1.00  0.00     0.124 S 
ATOM     85  O   UNL     1      10.584   8.722  -7.252  1.00  0.00    -0.237 OA
ATOM     86  O   UNL     1      11.025   6.289  -7.258  1.00  0.00    -0.237 OA
ATOM     87  O   UNL     1       8.719   7.120  -7.026  1.00  0.00    -0.744 OA
ENDBRANCH  83  84
ENDBRANCH  55  78
BRANCH  67  88
ATOM     88  C   UNL     1      13.490  12.000   2.224  1.00  0.00    -0.014 A 
ATOM     89  C   UNL     1      12.740  13.136   1.873  1.00  0.00     0.010 A 
ATOM     90  C   UNL     1      14.870  12.137   2.463  1.00  0.00     0.010 A 
ATOM     91  C   UNL     1      13.365  14.379   1.732  1.00  0.00     0.020 A 
ATOM     92  C   UNL     1      15.492  13.382   2.353  1.00  0.00     0.020 A 
ATOM     93  C   UNL     1      14.737  14.494   1.974  1.00  0.00     0.054 A 
BRANCH  93  94
ATOM     94  S   UNL     1      15.515  16.126   1.828  1.00  0.00     0.124 S 
ATOM     95  O   UNL     1      15.534  16.325   0.381  1.00  0.00    -0.237 OA
ATOM     96  O   UNL     1      14.597  16.986   2.570  1.00  0.00    -0.237 OA
ATOM     97  O   UNL     1      16.826  15.942   2.448  1.00  0.00    -0.744 OA
ENDBRANCH  93  94
ENDBRANCH  67  88
ENDBRANCH  41  42
ENDBRANCH  33  36
ENDBRANCH  31  32
ENDBRANCH  30  31
ENDBRANCH   1  30
TORSDOF 19
