REMARK SMILES Cc1ccc(C(F)(F)F)cc1/C=C/C(=O)NCCCNC(=O)c1ccc(-c2c3nc(c(-c4ccc(S(=O)(=O)[O-])cc4)c4ccc([nH]4)c(-c4ccc(S(=O)(=O)[O-])cc4)c4nc(c(-c5ccc(S(=O)(=O)[O-])cc5)c5ccc2[nH]5)C=C4)C=C3)cc1
REMARK SMILES IDX 18 1 17 2 16 3 14 4 15 5 13 7 12 8 11 9 1 10 2 11 3 12 4 13
REMARK SMILES IDX 10 14 5 15 6 16 7 17 8 18 9 19 19 20 20 21 21 22 22 24 23 25
REMARK SMILES IDX 24 26 82 27 25 28 81 29 26 30 27 31 28 32 75 33 29 34 80 35
REMARK SMILES IDX 74 36 76 37 30 38 79 39 73 40 72 41 31 43 61 44 42 45 60 46
REMARK SMILES IDX 43 47 46 48 59 49 77 50 44 51 45 52 58 54 78 55 47 56 32 57
REMARK SMILES IDX 33 58 41 59 34 60 40 61 35 62 36 63 37 64 38 65 39 66 62 67
REMARK SMILES IDX 63 68 71 69 64 70 70 71 65 72 66 73 67 74 68 75 69 76 48 77
REMARK SMILES IDX 49 78 57 79 50 80 56 81 51 82 52 83 53 84 54 85 55 86
REMARK H PARENT 16 6 20 23 76 42 46 53
REMARK Flexibility Score: inf
ROOT
ATOM      1  C   UNL     1       4.537   2.330   0.253  1.00  0.00     0.042 C 
ENDROOT
BRANCH   1   2
ATOM      2  C   UNL     1       3.282   2.979   1.033  1.00  0.00     0.118 C 
BRANCH   2   3
ATOM      3  N   UNL     1       2.513   4.066   0.396  1.00  0.00    -0.352 N 
ATOM      4  C   UNL     1       1.187   4.328   0.187  1.00  0.00     0.244 C 
ATOM      5  O   UNL     1       0.735   5.449  -0.036  1.00  0.00    -0.270 OA
ATOM      6  H   UNL     1       3.095   4.772   0.034  1.00  0.00     0.163 HD
BRANCH   4   7
ATOM      7  C   UNL     1       0.247   3.207   0.267  1.00  0.00     0.072 C 
ATOM      8  C   UNL     1       0.497   2.140  -0.501  1.00  0.00     0.014 C 
BRANCH   8   9
ATOM      9  C   UNL     1      -0.217   0.876  -0.345  1.00  0.00    -0.022 A 
ATOM     10  C   UNL     1       2.011  -0.387  -0.200  1.00  0.00     0.045 C 
ATOM     11  C   UNL     1       0.508  -0.322  -0.179  1.00  0.00    -0.044 A 
ATOM     12  C   UNL     1      -0.186  -1.523  -0.003  1.00  0.00     0.004 A 
ATOM     13  C   UNL     1      -1.578  -1.538   0.041  1.00  0.00     0.013 A 
ATOM     14  C   UNL     1      -1.619   0.850  -0.317  1.00  0.00     0.021 A 
ATOM     15  C   UNL     1      -2.309  -0.351  -0.106  1.00  0.00     0.056 A 
BRANCH  15  16
ATOM     16  C   UNL     1      -3.811  -0.387  -0.042  1.00  0.00     0.416 C 
ATOM     17  F   UNL     1      -4.363  -1.023  -1.112  1.00  0.00    -0.166 F 
ATOM     18  F   UNL     1      -4.267  -1.054   1.057  1.00  0.00    -0.166 F 
ATOM     19  F   UNL     1      -4.395   0.842   0.007  1.00  0.00    -0.166 F 
ENDBRANCH  15  16
ENDBRANCH   8   9
ENDBRANCH   4   7
ENDBRANCH   2   3
ENDBRANCH   1   2
BRANCH   1  20
ATOM     20  C   UNL     1       5.955   2.978   0.565  1.00  0.00     0.118 C 
BRANCH  20  21
ATOM     21  N   UNL     1       7.297   2.649  -0.139  1.00  0.00    -0.352 N 
ATOM     22  C   UNL     1       8.540   3.396  -0.293  1.00  0.00     0.251 C 
ATOM     23  H   UNL     1       7.313   1.761  -0.565  1.00  0.00     0.163 HD
ATOM     24  O   UNL     1       9.474   2.978   0.413  1.00  0.00    -0.269 OA
BRANCH  22  25
ATOM     25  C   UNL     1       8.950   4.578  -1.273  1.00  0.00     0.039 A 
ATOM     26  C   UNL     1       9.843   5.612  -0.837  1.00  0.00     0.014 A 
ATOM     27  C   UNL     1       8.427   4.823  -2.539  1.00  0.00     0.014 A 
ATOM     28  C   UNL     1       9.756   6.968  -1.364  1.00  0.00     0.010 A 
ATOM     29  C   UNL     1       8.335   6.161  -3.059  1.00  0.00     0.010 A 
ATOM     30  C   UNL     1       8.794   7.282  -2.345  1.00  0.00    -0.014 A 
BRANCH  30  31
ATOM     31  C   UNL     1       8.028   8.615  -2.414  1.00  0.00     0.031 A 
ATOM     32  C   UNL     1       8.278   9.583  -3.475  1.00  0.00     0.074 A 
ATOM     33  C   UNL     1       6.952   9.038  -1.675  1.00  0.00     0.049 A 
ATOM     34  N   UNL     1       8.548  10.837  -3.296  1.00  0.00    -0.248 NA
ATOM     35  C   UNL     1       8.087   9.185  -4.858  1.00  0.00     0.031 C 
ATOM     36  C   UNL     1       6.063  10.216  -1.713  1.00  0.00     0.029 A 
ATOM     37  N   UNL     1       6.342   8.379  -0.641  1.00  0.00    -0.354 N 
ATOM     38  C   UNL     1       8.227  11.442  -4.493  1.00  0.00     0.074 A 
ATOM     39  C   UNL     1       8.185  10.366  -5.469  1.00  0.00     0.031 C 
ATOM     40  C   UNL     1       5.383  10.318  -0.541  1.00  0.00     0.029 A 
ATOM     41  C   UNL     1       5.820   9.236   0.319  1.00  0.00     0.049 A 
ATOM     42  H   UNL     1       6.279   7.399  -0.583  1.00  0.00     0.167 HD
ATOM     43  C   UNL     1       7.687  12.699  -4.555  1.00  0.00     0.031 A 
ATOM     44  C   UNL     1       6.385   9.254   1.572  1.00  0.00     0.031 A 
ATOM     45  C   UNL     1       7.268  13.208  -3.233  1.00  0.00     0.049 A 
ATOM     46  C   UNL     1       7.165  10.530   1.745  1.00  0.00     0.074 A 
ATOM     47  C   UNL     1       6.023  13.511  -2.694  1.00  0.00     0.029 A 
ATOM     48  N   UNL     1       8.142  13.183  -2.149  1.00  0.00    -0.354 N 
ATOM     49  N   UNL     1       7.234  11.433   0.813  1.00  0.00    -0.248 NA
ATOM     50  C   UNL     1       7.947  10.902   2.915  1.00  0.00     0.031 C 
ATOM     51  C   UNL     1       6.154  13.629  -1.281  1.00  0.00     0.029 A 
ATOM     52  C   UNL     1       7.484  13.435  -0.954  1.00  0.00     0.049 A 
ATOM     53  H   UNL     1       9.108  13.007  -2.221  1.00  0.00     0.167 HD
ATOM     54  C   UNL     1       8.030  12.466   1.182  1.00  0.00     0.074 A 
ATOM     55  C   UNL     1       8.445  12.095   2.527  1.00  0.00     0.031 C 
ATOM     56  C   UNL     1       8.239  13.497   0.308  1.00  0.00     0.031 A 
BRANCH  43  57
ATOM     57  C   UNL     1       7.240  13.316  -5.877  1.00  0.00    -0.014 A 
ATOM     58  C   UNL     1       6.321  14.383  -5.922  1.00  0.00     0.010 A 
ATOM     59  C   UNL     1       7.749  12.902  -7.127  1.00  0.00     0.010 A 
ATOM     60  C   UNL     1       5.876  14.937  -7.138  1.00  0.00     0.020 A 
ATOM     61  C   UNL     1       7.267  13.392  -8.349  1.00  0.00     0.020 A 
ATOM     62  C   UNL     1       6.337  14.420  -8.348  1.00  0.00     0.054 A 
BRANCH  62  63
ATOM     63  S   UNL     1       5.784  15.152  -9.912  1.00  0.00     0.124 S 
ATOM     64  O   UNL     1       4.330  15.041  -9.823  1.00  0.00    -0.237 OA
ATOM     65  O   UNL     1       6.320  16.507  -9.828  1.00  0.00    -0.237 OA
ATOM     66  O   UNL     1       6.404  14.306 -10.931  1.00  0.00    -0.744 OA
ENDBRANCH  62  63
ENDBRANCH  43  57
BRANCH  44  67
ATOM     67  C   UNL     1       6.789   7.877   2.167  1.00  0.00    -0.014 A 
ATOM     68  C   UNL     1       5.689   7.038   2.459  1.00  0.00     0.010 A 
ATOM     69  C   UNL     1       7.792   7.260   1.438  1.00  0.00     0.010 A 
ATOM     70  C   UNL     1       5.222   6.132   1.488  1.00  0.00     0.020 A 
ATOM     71  C   UNL     1       7.310   6.364   0.465  1.00  0.00     0.020 A 
ATOM     72  C   UNL     1       5.996   5.958   0.360  1.00  0.00     0.054 A 
BRANCH  72  73
ATOM     73  S   UNL     1       5.222   5.516  -1.417  1.00  0.00     0.124 S 
ATOM     74  O   UNL     1       3.833   5.422  -1.078  1.00  0.00    -0.237 OA
ATOM     75  O   UNL     1       5.518   6.665  -2.269  1.00  0.00    -0.237 OA
ATOM     76  O   UNL     1       5.831   4.270  -1.860  1.00  0.00    -0.744 OA
ENDBRANCH  72  73
ENDBRANCH  44  67
BRANCH  56  77
ATOM     77  C   UNL     1       9.124  14.701   0.517  1.00  0.00    -0.014 A 
ATOM     78  C   UNL     1       9.874  14.966   1.667  1.00  0.00     0.010 A 
ATOM     79  C   UNL     1       9.225  15.650  -0.534  1.00  0.00     0.010 A 
ATOM     80  C   UNL     1      10.696  16.096   1.756  1.00  0.00     0.020 A 
ATOM     81  C   UNL     1      10.059  16.763  -0.471  1.00  0.00     0.020 A 
ATOM     82  C   UNL     1      10.791  16.980   0.683  1.00  0.00     0.054 A 
BRANCH  82  83
ATOM     83  S   UNL     1      11.892  18.401   0.819  1.00  0.00     0.124 S 
ATOM     84  O   UNL     1      11.250  19.183   1.873  1.00  0.00    -0.237 OA
ATOM     85  O   UNL     1      13.161  17.776   1.186  1.00  0.00    -0.237 OA
ATOM     86  O   UNL     1      11.859  19.001  -0.512  1.00  0.00    -0.744 OA
ENDBRANCH  82  83
ENDBRANCH  56  77
ENDBRANCH  30  31
ENDBRANCH  22  25
ENDBRANCH  20  21
ENDBRANCH   1  20
TORSDOF 15
