REMARK SMILES NS(=O)(=O)c1ccc(-n2nc(C(F)(F)F)cc2-c2ccc(C(=O)NCCCNC(=O)c3ccc(-c4c5nc(c(-c6ccc(S(=O)(=O)[O-])cc6)c6ccc([nH]6)c(-c6ccc(S(=O)(=O)[O-])cc6)c6nc(c(-c7ccc(S(=O)(=O)[O-])cc7)c7ccc4[nH]7)C=C6)C=C5)cc3)cc2)cc1
REMARK SMILES IDX 25 1 24 2 22 3 23 4 21 6 18 7 19 8 92 9 20 10 91 11 17 12
REMARK SMILES IDX 9 13 10 14 11 15 16 16 8 17 5 18 6 19 94 20 7 21 93 22 2 23
REMARK SMILES IDX 3 24 4 25 1 26 12 29 13 30 14 31 15 32 26 33 27 34 28 35
REMARK SMILES IDX 29 36 30 38 31 39 32 40 90 41 33 42 89 43 34 44 35 45 36 46
REMARK SMILES IDX 83 47 37 48 88 49 82 50 84 51 38 52 87 53 81 54 80 55 39 57
REMARK SMILES IDX 69 58 50 59 68 60 51 61 54 62 67 63 85 64 52 65 53 66 66 68
REMARK SMILES IDX 86 69 55 70 40 71 41 72 49 73 42 74 48 75 43 76 44 77 45 78
REMARK SMILES IDX 46 79 47 80 70 81 71 82 79 83 72 84 78 85 73 86 74 87 75 88
REMARK SMILES IDX 76 89 77 90 56 91 57 92 65 93 58 94 64 95 59 96 60 97 61 98
REMARK SMILES IDX 62 99 63 100
REMARK H PARENT 24 5 1 27 1 28 28 37 84 56 54 67
REMARK Flexibility Score: inf
ROOT
ATOM      1  C   UNL     1      -4.227  -7.064  -6.959  1.00  0.00     0.118 C 
ENDROOT
BRANCH   1   2
ATOM      2  N   UNL     1      -4.692  -5.959  -6.136  1.00  0.00    -0.352 N 
ATOM      3  C   UNL     1      -4.045  -4.841  -5.668  1.00  0.00     0.251 C 
ATOM      4  O   UNL     1      -4.703  -3.991  -5.072  1.00  0.00    -0.269 OA
ATOM      5  H   UNL     1      -5.636  -6.024  -5.866  1.00  0.00     0.163 HD
BRANCH   3   6
ATOM      6  C   UNL     1      -2.598  -4.598  -5.912  1.00  0.00     0.039 A 
ATOM      7  C   UNL     1       0.088  -4.027  -6.485  1.00  0.00     0.000 A 
ATOM      8  C   UNL     1      -0.817  -2.984  -6.247  1.00  0.00     0.011 A 
ATOM      9  C   UNL     1      -0.342  -5.346  -6.401  1.00  0.00     0.011 A 
ATOM     10  C   UNL     1      -2.156  -3.270  -5.965  1.00  0.00     0.014 A 
ATOM     11  C   UNL     1      -1.662  -5.621  -6.070  1.00  0.00     0.014 A 
BRANCH   7  12
ATOM     12  C   UNL     1       1.497  -3.772  -6.721  1.00  0.00     0.075 A 
ATOM     13  N   UNL     1       2.351  -3.188  -5.802  1.00  0.00    -0.233 N 
ATOM     14  N   UNL     1       3.567  -2.918  -6.341  1.00  0.00    -0.163 NA
ATOM     15  C   UNL     1       3.551  -3.536  -7.542  1.00  0.00     0.167 A 
ATOM     16  C   UNL     1       2.260  -4.039  -7.834  1.00  0.00     0.064 A 
BRANCH  13  17
ATOM     17  C   UNL     1       2.042  -2.856  -4.460  1.00  0.00     0.065 A 
ATOM     18  C   UNL     1       1.134  -2.084  -1.950  1.00  0.00     0.082 A 
ATOM     19  C   UNL     1       0.908  -3.391  -2.389  1.00  0.00     0.024 A 
ATOM     20  C   UNL     1       1.840  -1.173  -2.745  1.00  0.00     0.024 A 
ATOM     21  C   UNL     1       1.356  -3.775  -3.650  1.00  0.00     0.030 A 
ATOM     22  C   UNL     1       2.322  -1.568  -3.996  1.00  0.00     0.030 A 
BRANCH  18  23
ATOM     23  S   UNL     1       0.518  -1.646  -0.353  1.00  0.00     0.238 S 
ATOM     24  O   UNL     1       1.140  -2.510   0.619  1.00  0.00    -0.207 OA
ATOM     25  O   UNL     1      -0.911  -1.463  -0.455  1.00  0.00    -0.207 OA
BRANCH  23  26
ATOM     26  N   UNL     1       1.149  -0.116  -0.055  1.00  0.00    -0.225 NA
ATOM     27  H   UNL     1       0.835   0.209   0.859  1.00  0.00     0.137 HD
ATOM     28  H   UNL     1       0.828   0.531  -0.775  1.00  0.00     0.137 HD
ENDBRANCH  23  26
ENDBRANCH  18  23
ENDBRANCH  13  17
BRANCH  15  29
ATOM     29  C   UNL     1       4.756  -3.661  -8.434  1.00  0.00     0.435 C 
ATOM     30  F   UNL     1       5.402  -2.483  -8.630  1.00  0.00    -0.164 F 
ATOM     31  F   UNL     1       5.667  -4.543  -7.942  1.00  0.00    -0.164 F 
ATOM     32  F   UNL     1       4.416  -4.122  -9.672  1.00  0.00    -0.164 F 
ENDBRANCH  15  29
ENDBRANCH   7  12
ENDBRANCH   3   6
ENDBRANCH   1   2
BRANCH   1  33
ATOM     33  C   UNL     1      -3.795  -8.270  -6.109  1.00  0.00     0.042 C 
BRANCH  33  34
ATOM     34  C   UNL     1      -4.962  -9.172  -5.770  1.00  0.00     0.118 C 
BRANCH  34  35
ATOM     35  N   UNL     1      -5.455  -9.892  -6.948  1.00  0.00    -0.352 N 
ATOM     36  C   UNL     1      -6.544 -10.737  -7.048  1.00  0.00     0.251 C 
ATOM     37  H   UNL     1      -4.944  -9.754  -7.778  1.00  0.00     0.163 HD
ATOM     38  O   UNL     1      -6.628 -11.536  -7.973  1.00  0.00    -0.269 OA
BRANCH  36  39
ATOM     39  C   UNL     1      -7.597 -10.646  -6.024  1.00  0.00     0.039 A 
ATOM     40  C   UNL     1      -8.261 -11.773  -5.528  1.00  0.00     0.014 A 
ATOM     41  C   UNL     1      -7.882  -9.379  -5.531  1.00  0.00     0.014 A 
ATOM     42  C   UNL     1      -9.166 -11.606  -4.481  1.00  0.00     0.010 A 
ATOM     43  C   UNL     1      -8.576  -9.252  -4.366  1.00  0.00     0.010 A 
ATOM     44  C   UNL     1      -9.304 -10.337  -3.901  1.00  0.00    -0.014 A 
BRANCH  44  45
ATOM     45  C   UNL     1     -10.128 -10.086  -2.729  1.00  0.00     0.031 A 
ATOM     46  C   UNL     1      -9.666 -10.805  -1.516  1.00  0.00     0.074 A 
ATOM     47  C   UNL     1     -11.004  -9.054  -2.700  1.00  0.00     0.049 A 
ATOM     48  N   UNL     1     -10.221 -11.820  -0.943  1.00  0.00    -0.248 NA
ATOM     49  C   UNL     1      -8.323 -10.491  -0.992  1.00  0.00     0.031 C 
ATOM     50  C   UNL     1     -11.263  -8.060  -3.756  1.00  0.00     0.029 A 
ATOM     51  N   UNL     1     -11.744  -8.576  -1.668  1.00  0.00    -0.354 N 
ATOM     52  C   UNL     1      -9.440 -12.083   0.178  1.00  0.00     0.074 A 
ATOM     53  C   UNL     1      -8.177 -11.435  -0.061  1.00  0.00     0.031 C 
ATOM     54  C   UNL     1     -11.888  -6.985  -3.227  1.00  0.00     0.029 A 
ATOM     55  C   UNL     1     -12.229  -7.281  -1.849  1.00  0.00     0.049 A 
ATOM     56  H   UNL     1     -11.925  -9.101  -0.855  1.00  0.00     0.167 HD
ATOM     57  C   UNL     1     -10.002 -12.514   1.343  1.00  0.00     0.031 A 
ATOM     58  C   UNL     1     -12.840  -6.498  -0.921  1.00  0.00     0.031 A 
ATOM     59  C   UNL     1     -11.383 -12.883   1.143  1.00  0.00     0.049 A 
ATOM     60  C   UNL     1     -13.311  -7.407   0.153  1.00  0.00     0.074 A 
ATOM     61  C   UNL     1     -12.050 -13.806   0.366  1.00  0.00     0.029 A 
ATOM     62  N   UNL     1     -12.314 -11.937   1.510  1.00  0.00    -0.354 N 
ATOM     63  N   UNL     1     -14.223  -8.320  -0.034  1.00  0.00    -0.248 NA
ATOM     64  C   UNL     1     -12.438  -7.626   1.295  1.00  0.00     0.031 C 
ATOM     65  C   UNL     1     -13.239 -13.142  -0.057  1.00  0.00     0.029 A 
ATOM     66  C   UNL     1     -13.287 -11.884   0.549  1.00  0.00     0.049 A 
ATOM     67  H   UNL     1     -12.284 -11.389   2.328  1.00  0.00     0.167 HD
ATOM     68  C   UNL     1     -13.761  -9.429   0.662  1.00  0.00     0.074 A 
ATOM     69  C   UNL     1     -12.724  -8.906   1.553  1.00  0.00     0.031 C 
ATOM     70  C   UNL     1     -14.055 -10.694   0.236  1.00  0.00     0.031 A 
BRANCH  57  71
ATOM     71  C   UNL     1      -9.485 -12.158   2.722  1.00  0.00    -0.014 A 
ATOM     72  C   UNL     1     -10.183 -12.654   3.843  1.00  0.00     0.010 A 
ATOM     73  C   UNL     1      -8.535 -11.145   2.965  1.00  0.00     0.010 A 
ATOM     74  C   UNL     1     -10.010 -12.098   5.117  1.00  0.00     0.020 A 
ATOM     75  C   UNL     1      -8.321 -10.614   4.238  1.00  0.00     0.020 A 
ATOM     76  C   UNL     1      -9.089 -11.068   5.300  1.00  0.00     0.054 A 
BRANCH  76  77
ATOM     77  S   UNL     1      -8.949 -10.282   6.922  1.00  0.00     0.124 S 
ATOM     78  O   UNL     1     -10.255  -9.643   7.058  1.00  0.00    -0.237 OA
ATOM     79  O   UNL     1      -8.707 -11.425   7.797  1.00  0.00    -0.237 OA
ATOM     80  O   UNL     1      -7.817  -9.372   6.764  1.00  0.00    -0.744 OA
ENDBRANCH  76  77
ENDBRANCH  57  71
BRANCH  58  81
ATOM     81  C   UNL     1     -12.788  -5.021  -0.758  1.00  0.00    -0.014 A 
ATOM     82  C   UNL     1     -13.712  -4.338   0.057  1.00  0.00     0.010 A 
ATOM     83  C   UNL     1     -11.646  -4.310  -1.181  1.00  0.00     0.010 A 
ATOM     84  C   UNL     1     -13.474  -3.014   0.477  1.00  0.00     0.020 A 
ATOM     85  C   UNL     1     -11.403  -2.992  -0.768  1.00  0.00     0.020 A 
ATOM     86  C   UNL     1     -12.309  -2.356   0.078  1.00  0.00     0.054 A 
BRANCH  86  87
ATOM     87  S   UNL     1     -11.925  -0.712   0.760  1.00  0.00     0.124 S 
ATOM     88  O   UNL     1     -12.924   0.136   0.115  1.00  0.00    -0.237 OA
ATOM     89  O   UNL     1     -12.100  -0.912   2.196  1.00  0.00    -0.237 OA
ATOM     90  O   UNL     1     -10.546  -0.475   0.335  1.00  0.00    -0.744 OA
ENDBRANCH  86  87
ENDBRANCH  58  81
BRANCH  70  91
ATOM     91  C   UNL     1     -15.146 -10.863  -0.797  1.00  0.00    -0.014 A 
ATOM     92  C   UNL     1     -15.076 -10.372  -2.116  1.00  0.00     0.010 A 
ATOM     93  C   UNL     1     -16.225 -11.693  -0.448  1.00  0.00     0.010 A 
ATOM     94  C   UNL     1     -16.076 -10.689  -3.052  1.00  0.00     0.020 A 
ATOM     95  C   UNL     1     -17.211 -12.026  -1.377  1.00  0.00     0.020 A 
ATOM     96  C   UNL     1     -17.139 -11.515  -2.673  1.00  0.00     0.054 A 
BRANCH  96  97
ATOM     97  S   UNL     1     -18.412 -11.958  -3.888  1.00  0.00     0.124 S 
ATOM     98  O   UNL     1     -19.102 -10.690  -4.102  1.00  0.00    -0.237 OA
ATOM     99  O   UNL     1     -17.627 -12.447  -5.019  1.00  0.00    -0.237 OA
ATOM    100  O   UNL     1     -19.203 -12.983  -3.207  1.00  0.00    -0.744 OA
ENDBRANCH  96  97
ENDBRANCH  70  91
ENDBRANCH  44  45
ENDBRANCH  36  39
ENDBRANCH  34  35
ENDBRANCH  33  34
ENDBRANCH   1  33
TORSDOF 18
