REMARK SMILES CSCC[C@@H](C(=O)NCCCNC(=O)c1ccc(-c2c3nc(c(-c4ccc(S(=O)(=O)[O-])cc4)c4ccc([nH]4)c(-c4ccc(S(=O)(=O)[O-])cc4)c4nc(c(-c5ccc(S(=O)(=O)[O-])cc5)c5ccc2[nH]5)C=C4)C=C3)cc1)N1C(=O)/C(=C/c2ccc(-c3ccccc3Cl)o2)SC1=S
REMARK SMILES IDX 10 1 9 2 8 3 6 4 7 5 5 7 4 8 3 9 2 10 1 11 75 12 76 13 93 14
REMARK SMILES IDX 77 15 78 16 92 17 94 18 79 19 80 20 81 21 91 22 82 23 83 24
REMARK SMILES IDX 84 25 85 26 89 27 86 28 88 29 90 30 87 31 11 32 12 33 13 34
REMARK SMILES IDX 14 36 15 37 16 38 74 39 17 40 73 41 18 42 19 43 20 44 67 45
REMARK SMILES IDX 21 46 72 47 66 48 68 49 22 50 71 51 65 52 64 53 23 55 53 56
REMARK SMILES IDX 34 57 52 58 35 59 38 60 51 61 69 62 36 63 37 64 50 66 70 67
REMARK SMILES IDX 39 68 24 69 25 70 33 71 26 72 32 73 27 74 28 75 29 76 30 77
REMARK SMILES IDX 31 78 54 79 55 80 63 81 56 82 62 83 57 84 58 85 59 86 60 87
REMARK SMILES IDX 61 88 40 89 41 90 49 91 42 92 48 93 43 94 44 95 45 96 46 97
REMARK SMILES IDX 47 98
REMARK H PARENT 8 6 12 35 68 54 38 65
REMARK Flexibility Score: inf
ROOT
ATOM      1  C   UNL     1       3.376   2.907  -0.195  1.00  0.00     0.042 C 
ENDROOT
BRANCH   1   2
ATOM      2  C   UNL     1       3.233   1.522   0.421  1.00  0.00     0.117 C 
BRANCH   2   3
ATOM      3  N   UNL     1       3.473   1.554   1.843  1.00  0.00    -0.354 N 
ATOM      4  C   UNL     1       2.614   1.411   2.888  1.00  0.00     0.243 C 
ATOM      5  O   UNL     1       3.132   1.433   4.010  1.00  0.00    -0.273 OA
ATOM      6  H   UNL     1       4.412   1.702   2.099  1.00  0.00     0.163 HD
BRANCH   4   7
ATOM      7  C   UNL     1       1.088   1.165   2.688  1.00  0.00     0.182 C 
BRANCH   7   8
ATOM      8  C   UNL     1       0.245   2.331   2.129  1.00  0.00     0.046 C 
BRANCH   8   9
ATOM      9  C   UNL     1      -0.088   2.434   0.637  1.00  0.00     0.072 C 
BRANCH   9  10
ATOM     10  S   UNL     1      -1.245   1.200  -0.050  1.00  0.00    -0.165 SA
ATOM     11  C   UNL     1      -0.175  -0.227  -0.353  1.00  0.00     0.085 C 
ENDBRANCH   9  10
ENDBRANCH   8   9
ENDBRANCH   7   8
BRANCH   7  12
ATOM     12  N   UNL     1       0.609   0.718   4.036  1.00  0.00    -0.280 N 
ATOM     13  C   UNL     1       0.642  -0.642   4.318  1.00  0.00     0.267 C 
ATOM     14  C   UNL     1       0.315   1.541   5.114  1.00  0.00     0.149 C 
ATOM     15  O   UNL     1       0.971  -1.531   3.538  1.00  0.00    -0.268 OA
ATOM     16  C   UNL     1       0.200  -0.908   5.715  1.00  0.00     0.084 C 
ATOM     17  S   UNL     1      -0.242   0.571   6.468  1.00  0.00    -0.054 SA
ATOM     18  S   UNL     1       0.400   3.201   5.275  1.00  0.00    -0.052 S 
ATOM     19  C   UNL     1       0.178  -2.131   6.265  1.00  0.00     0.068 C 
BRANCH  19  20
ATOM     20  C   UNL     1      -0.375  -2.363   7.557  1.00  0.00     0.128 A 
ATOM     21  C   UNL     1      -1.685  -2.152   7.977  1.00  0.00     0.051 A 
ATOM     22  O   UNL     1       0.336  -2.842   8.639  1.00  0.00    -0.457 OA
ATOM     23  C   UNL     1      -1.755  -2.447   9.352  1.00  0.00     0.051 A 
ATOM     24  C   UNL     1      -0.490  -2.838   9.725  1.00  0.00     0.136 A 
BRANCH  24  25
ATOM     25  C   UNL     1       0.062  -3.233  11.015  1.00  0.00     0.036 A 
ATOM     26  C   UNL     1      -0.647  -4.187  11.771  1.00  0.00     0.013 A 
ATOM     27  C   UNL     1       1.192  -2.632  11.594  1.00  0.00     0.052 A 
ATOM     28  C   UNL     1      -0.256  -4.519  13.070  1.00  0.00     0.001 A 
ATOM     29  C   UNL     1       1.579  -2.967  12.900  1.00  0.00     0.021 A 
ATOM     30  Cl  UNL     1       2.116  -1.410  10.791  1.00  0.00    -0.084 Cl
ATOM     31  C   UNL     1       0.853  -3.902  13.638  1.00  0.00     0.002 A 
ENDBRANCH  24  25
ENDBRANCH  19  20
ENDBRANCH   7  12
ENDBRANCH   4   7
ENDBRANCH   2   3
ENDBRANCH   1   2
BRANCH   1  32
ATOM     32  C   UNL     1       4.820   3.242  -0.532  1.00  0.00     0.118 C 
BRANCH  32  33
ATOM     33  N   UNL     1       5.285   2.505  -1.702  1.00  0.00    -0.352 N 
ATOM     34  C   UNL     1       5.729   2.969  -2.916  1.00  0.00     0.251 C 
ATOM     35  H   UNL     1       5.280   1.525  -1.607  1.00  0.00     0.163 HD
ATOM     36  O   UNL     1       5.863   2.179  -3.849  1.00  0.00    -0.269 OA
BRANCH  34  37
ATOM     37  C   UNL     1       6.025   4.406  -3.107  1.00  0.00     0.039 A 
ATOM     38  C   UNL     1       5.704   5.014  -4.324  1.00  0.00     0.014 A 
ATOM     39  C   UNL     1       6.626   5.154  -2.093  1.00  0.00     0.014 A 
ATOM     40  C   UNL     1       5.930   6.382  -4.495  1.00  0.00     0.010 A 
ATOM     41  C   UNL     1       6.742   6.532  -2.223  1.00  0.00     0.010 A 
ATOM     42  C   UNL     1       6.416   7.160  -3.433  1.00  0.00    -0.014 A 
BRANCH  42  43
ATOM     43  C   UNL     1       6.626   8.625  -3.568  1.00  0.00     0.031 A 
ATOM     44  C   UNL     1       8.004   9.204  -3.379  1.00  0.00     0.074 A 
ATOM     45  C   UNL     1       5.573   9.437  -3.791  1.00  0.00     0.049 A 
ATOM     46  N   UNL     1       8.380  10.458  -3.378  1.00  0.00    -0.248 NA
ATOM     47  C   UNL     1       9.100   8.253  -3.124  1.00  0.00     0.031 C 
ATOM     48  C   UNL     1       4.183   9.001  -3.948  1.00  0.00     0.029 A 
ATOM     49  N   UNL     1       5.507  10.802  -3.918  1.00  0.00    -0.354 N 
ATOM     50  C   UNL     1       9.742  10.444  -3.101  1.00  0.00     0.074 A 
ATOM     51  C   UNL     1      10.116   9.066  -2.878  1.00  0.00     0.031 C 
ATOM     52  C   UNL     1       3.409  10.073  -4.185  1.00  0.00     0.029 A 
ATOM     53  C   UNL     1       4.236  11.275  -4.148  1.00  0.00     0.049 A 
ATOM     54  H   UNL     1       6.295  11.387  -3.851  1.00  0.00     0.167 HD
ATOM     55  C   UNL     1      10.612  11.481  -3.061  1.00  0.00     0.031 A 
ATOM     56  C   UNL     1       3.785  12.535  -4.303  1.00  0.00     0.031 A 
ATOM     57  C   UNL     1      10.237  12.848  -3.303  1.00  0.00     0.049 A 
ATOM     58  C   UNL     1       4.768  13.673  -4.244  1.00  0.00     0.074 A 
ATOM     59  C   UNL     1      11.050  13.967  -3.346  1.00  0.00     0.029 A 
ATOM     60  N   UNL     1       8.942  13.283  -3.542  1.00  0.00    -0.354 N 
ATOM     61  N   UNL     1       6.065  13.632  -4.049  1.00  0.00    -0.248 NA
ATOM     62  C   UNL     1       4.228  15.025  -4.437  1.00  0.00     0.031 C 
ATOM     63  C   UNL     1      10.237  15.087  -3.550  1.00  0.00     0.029 A 
ATOM     64  C   UNL     1       8.928  14.658  -3.705  1.00  0.00     0.049 A 
ATOM     65  H   UNL     1       8.150  12.701  -3.588  1.00  0.00     0.167 HD
ATOM     66  C   UNL     1       6.500  14.951  -4.125  1.00  0.00     0.074 A 
ATOM     67  C   UNL     1       5.331  15.761  -4.401  1.00  0.00     0.031 C 
ATOM     68  C   UNL     1       7.754  15.447  -3.979  1.00  0.00     0.031 A 
BRANCH  55  69
ATOM     69  C   UNL     1      12.053  11.174  -2.741  1.00  0.00    -0.014 A 
ATOM     70  C   UNL     1      12.861  10.451  -3.638  1.00  0.00     0.010 A 
ATOM     71  C   UNL     1      12.618  11.644  -1.542  1.00  0.00     0.010 A 
ATOM     72  C   UNL     1      14.192  10.165  -3.322  1.00  0.00     0.020 A 
ATOM     73  C   UNL     1      13.959  11.390  -1.237  1.00  0.00     0.020 A 
ATOM     74  C   UNL     1      14.732  10.637  -2.122  1.00  0.00     0.054 A 
BRANCH  74  75
ATOM     75  S   UNL     1      16.469  10.272  -1.751  1.00  0.00     0.124 S 
ATOM     76  O   UNL     1      16.422   8.839  -1.469  1.00  0.00    -0.237 OA
ATOM     77  O   UNL     1      17.145  10.645  -2.991  1.00  0.00    -0.237 OA
ATOM     78  O   UNL     1      16.766  11.123  -0.602  1.00  0.00    -0.744 OA
ENDBRANCH  74  75
ENDBRANCH  55  69
BRANCH  56  79
ATOM     79  C   UNL     1       2.336  12.784  -4.543  1.00  0.00    -0.014 A 
ATOM     80  C   UNL     1       1.888  13.253  -5.791  1.00  0.00     0.010 A 
ATOM     81  C   UNL     1       1.393  12.543  -3.527  1.00  0.00     0.010 A 
ATOM     82  C   UNL     1       0.529  13.496  -6.012  1.00  0.00     0.020 A 
ATOM     83  C   UNL     1       0.029  12.754  -3.754  1.00  0.00     0.020 A 
ATOM     84  C   UNL     1      -0.392  13.242  -4.992  1.00  0.00     0.054 A 
BRANCH  84  85
ATOM     85  S   UNL     1      -2.156  13.518  -5.319  1.00  0.00     0.124 S 
ATOM     86  O   UNL     1      -2.233  14.975  -5.358  1.00  0.00    -0.237 OA
ATOM     87  O   UNL     1      -2.348  12.839  -6.598  1.00  0.00    -0.237 OA
ATOM     88  O   UNL     1      -2.818  12.886  -4.180  1.00  0.00    -0.744 OA
ENDBRANCH  84  85
ENDBRANCH  56  79
BRANCH  68  89
ATOM     89  C   UNL     1       7.936  16.933  -4.151  1.00  0.00    -0.014 A 
ATOM     90  C   UNL     1       7.457  17.844  -3.194  1.00  0.00     0.010 A 
ATOM     91  C   UNL     1       8.652  17.417  -5.262  1.00  0.00     0.010 A 
ATOM     92  C   UNL     1       7.661  19.216  -3.362  1.00  0.00     0.020 A 
ATOM     93  C   UNL     1       8.887  18.785  -5.416  1.00  0.00     0.020 A 
ATOM     94  C   UNL     1       8.377  19.677  -4.472  1.00  0.00     0.054 A 
BRANCH  94  95
ATOM     95  S   UNL     1       8.666  21.459  -4.643  1.00  0.00     0.124 S 
ATOM     96  O   UNL     1       7.338  21.951  -4.996  1.00  0.00    -0.237 OA
ATOM     97  O   UNL     1       9.143  21.834  -3.314  1.00  0.00    -0.237 OA
ATOM     98  O   UNL     1       9.666  21.548  -5.705  1.00  0.00    -0.744 OA
ENDBRANCH  94  95
ENDBRANCH  68  89
ENDBRANCH  42  43
ENDBRANCH  34  37
ENDBRANCH  32  33
ENDBRANCH   1  32
TORSDOF 19
