REMARK SMILES CCC(CC)(C(=O)NCCCNC(=O)c1ccc(-c2c3nc(c(-c4ccc(S(=O)(=O)[O-])cc4)c4ccc([nH]4)c(-c4ccc(S(=O)(=O)[O-])cc4)c4nc(c(-c5ccc(S(=O)(=O)[O-])cc5)c5ccc2[nH]5)C=C4)C=C3)cc1)n1nnnc1[C@H]1C[C@H]2CC[C@@H]1C2
REMARK SMILES IDX 10 1 9 2 8 3 6 4 7 5 3 7 2 8 1 9 4 10 5 11 75 12 76 13 79 14
REMARK SMILES IDX 77 15 78 16 80 17 81 18 85 19 82 20 84 21 86 22 83 23 11 24
REMARK SMILES IDX 12 25 13 26 14 28 15 29 16 30 74 31 17 32 73 33 18 34 19 35
REMARK SMILES IDX 20 36 67 37 21 38 72 39 66 40 68 41 22 42 71 43 65 44 64 45
REMARK SMILES IDX 23 47 53 48 34 49 52 50 35 51 38 52 51 53 69 54 36 55 37 56
REMARK SMILES IDX 50 58 70 59 39 60 24 61 25 62 33 63 26 64 32 65 27 66 28 67
REMARK SMILES IDX 29 68 30 69 31 70 54 71 55 72 63 73 56 74 62 75 57 76 58 77
REMARK SMILES IDX 59 78 60 79 61 80 40 81 41 82 49 83 42 84 48 85 43 86 44 87
REMARK SMILES IDX 45 88 46 89 47 90
REMARK H PARENT 8 6 12 27 68 46 38 57
REMARK Flexibility Score: inf
ROOT
ATOM      1  C   UNL     1       1.061  -4.480   7.745  1.00  0.00     0.042 C 
ENDROOT
BRANCH   1   2
ATOM      2  C   UNL     1       2.192  -5.482   7.555  1.00  0.00     0.117 C 
BRANCH   2   3
ATOM      3  N   UNL     1       2.299  -5.986   6.195  1.00  0.00    -0.354 N 
ATOM      4  C   UNL     1       3.147  -5.772   5.151  1.00  0.00     0.248 C 
ATOM      5  O   UNL     1       2.986  -6.557   4.205  1.00  0.00    -0.272 OA
ATOM      6  H   UNL     1       1.592  -6.636   5.979  1.00  0.00     0.163 HD
BRANCH   4   7
ATOM      7  C   UNL     1       4.274  -4.711   5.102  1.00  0.00     0.144 C 
BRANCH   7   8
ATOM      8  C   UNL     1       4.057  -3.374   5.849  1.00  0.00     0.037 C 
ATOM      9  C   UNL     1       5.307  -2.507   5.998  1.00  0.00     0.007 C 
ENDBRANCH   7   8
BRANCH   7  10
ATOM     10  C   UNL     1       5.520  -5.508   5.682  1.00  0.00     0.037 C 
ATOM     11  C   UNL     1       5.457  -5.982   7.127  1.00  0.00     0.007 C 
ENDBRANCH   7  10
BRANCH   7  12
ATOM     12  N   UNL     1       4.525  -4.372   3.659  1.00  0.00    -0.214 N 
ATOM     13  N   UNL     1       5.709  -4.811   3.146  1.00  0.00    -0.044 NA
ATOM     14  C   UNL     1       3.917  -3.569   2.686  1.00  0.00     0.155 A 
ATOM     15  N   UNL     1       5.847  -4.266   1.962  1.00  0.00    -0.024 NA
ATOM     16  N   UNL     1       4.781  -3.494   1.675  1.00  0.00    -0.114 NA
BRANCH  14  17
ATOM     17  C   UNL     1       2.640  -2.777   2.520  1.00  0.00     0.063 C 
ATOM     18  C   UNL     1       1.968  -3.160   1.159  1.00  0.00     0.015 C 
ATOM     19  C   UNL     1       1.423  -2.695   3.461  1.00  0.00    -0.000 C 
ATOM     20  C   UNL     1       0.485  -3.299   1.519  1.00  0.00    -0.010 C 
ATOM     21  C   UNL     1       0.784  -4.039   3.762  1.00  0.00     0.004 C 
ATOM     22  C   UNL     1       0.329  -2.151   2.514  1.00  0.00     0.008 C 
ATOM     23  C   UNL     1       0.312  -4.542   2.402  1.00  0.00     0.004 C 
ENDBRANCH  14  17
ENDBRANCH   7  12
ENDBRANCH   4   7
ENDBRANCH   2   3
ENDBRANCH   1   2
BRANCH   1  24
ATOM     24  C   UNL     1      -0.333  -5.077   7.567  1.00  0.00     0.118 C 
BRANCH  24  25
ATOM     25  N   UNL     1      -0.570  -6.227   8.434  1.00  0.00    -0.352 N 
ATOM     26  C   UNL     1      -1.266  -6.343   9.610  1.00  0.00     0.251 C 
ATOM     27  H   UNL     1      -0.160  -7.065   8.119  1.00  0.00     0.163 HD
ATOM     28  O   UNL     1      -1.122  -7.359  10.295  1.00  0.00    -0.269 OA
BRANCH  26  29
ATOM     29  C   UNL     1      -2.171  -5.270  10.065  1.00  0.00     0.039 A 
ATOM     30  C   UNL     1      -2.224  -4.940  11.424  1.00  0.00     0.014 A 
ATOM     31  C   UNL     1      -3.001  -4.612   9.158  1.00  0.00     0.014 A 
ATOM     32  C   UNL     1      -3.050  -3.898  11.857  1.00  0.00     0.010 A 
ATOM     33  C   UNL     1      -3.747  -3.516   9.572  1.00  0.00     0.010 A 
ATOM     34  C   UNL     1      -3.788  -3.151  10.926  1.00  0.00    -0.014 A 
BRANCH  34  35
ATOM     35  C   UNL     1      -4.638  -1.998  11.319  1.00  0.00     0.031 A 
ATOM     36  C   UNL     1      -6.112  -2.031  11.018  1.00  0.00     0.074 A 
ATOM     37  C   UNL     1      -4.074  -0.881  11.820  1.00  0.00     0.049 A 
ATOM     38  N   UNL     1      -6.992  -1.065  11.081  1.00  0.00    -0.248 NA
ATOM     39  C   UNL     1      -6.657  -3.312  10.539  1.00  0.00     0.031 C 
ATOM     40  C   UNL     1      -2.654  -0.713  12.132  1.00  0.00     0.029 A 
ATOM     41  N   UNL     1      -4.628   0.337  12.126  1.00  0.00    -0.354 N 
ATOM     42  C   UNL     1      -8.182  -1.611  10.611  1.00  0.00     0.074 A 
ATOM     43  C   UNL     1      -7.896  -2.974  10.220  1.00  0.00     0.031 C 
ATOM     44  C   UNL     1      -2.450   0.532  12.591  1.00  0.00     0.029 A 
ATOM     45  C   UNL     1      -3.711   1.267  12.553  1.00  0.00     0.049 A 
ATOM     46  H   UNL     1      -5.591   0.527  12.046  1.00  0.00     0.167 HD
ATOM     47  C   UNL     1      -9.405  -1.034  10.526  1.00  0.00     0.031 A 
ATOM     48  C   UNL     1      -3.859   2.572  12.857  1.00  0.00     0.031 A 
ATOM     49  C   UNL     1      -9.680   0.318  10.930  1.00  0.00     0.049 A 
ATOM     50  C   UNL     1      -5.221   3.199  12.754  1.00  0.00     0.074 A 
ATOM     51  C   UNL     1     -10.893   0.984  10.937  1.00  0.00     0.029 A 
ATOM     52  N   UNL     1      -8.728   1.212  11.399  1.00  0.00    -0.354 N 
ATOM     53  N   UNL     1      -6.346   2.658  12.349  1.00  0.00    -0.248 NA
ATOM     54  C   UNL     1      -5.340   4.607  13.158  1.00  0.00     0.031 C 
ATOM     55  C   UNL     1     -10.664   2.297  11.359  1.00  0.00     0.029 A 
ATOM     56  C   UNL     1      -9.322   2.429  11.682  1.00  0.00     0.049 A 
ATOM     57  H   UNL     1      -7.771   1.010  11.513  1.00  0.00     0.167 HD
ATOM     58  C   UNL     1      -7.314   3.648  12.486  1.00  0.00     0.074 A 
ATOM     59  C   UNL     1      -6.641   4.820  13.008  1.00  0.00     0.031 C 
ATOM     60  C   UNL     1      -8.640   3.584  12.213  1.00  0.00     0.031 A 
BRANCH  47  61
ATOM     61  C   UNL     1     -10.523  -1.866   9.950  1.00  0.00    -0.014 A 
ATOM     62  C   UNL     1     -11.007  -3.006  10.619  1.00  0.00     0.010 A 
ATOM     63  C   UNL     1     -11.095  -1.506   8.716  1.00  0.00     0.010 A 
ATOM     64  C   UNL     1     -11.986  -3.811  10.030  1.00  0.00     0.020 A 
ATOM     65  C   UNL     1     -12.101  -2.288   8.141  1.00  0.00     0.020 A 
ATOM     66  C   UNL     1     -12.519  -3.451   8.790  1.00  0.00     0.054 A 
BRANCH  66  67
ATOM     67  S   UNL     1     -13.771  -4.527   8.038  1.00  0.00     0.124 S 
ATOM     68  O   UNL     1     -12.966  -5.669   7.610  1.00  0.00    -0.237 OA
ATOM     69  O   UNL     1     -14.683  -4.784   9.149  1.00  0.00    -0.237 OA
ATOM     70  O   UNL     1     -14.322  -3.714   6.957  1.00  0.00    -0.744 OA
ENDBRANCH  66  67
ENDBRANCH  47  61
BRANCH  48  71
ATOM     71  C   UNL     1      -2.675   3.358  13.301  1.00  0.00    -0.014 A 
ATOM     72  C   UNL     1      -2.535   3.735  14.648  1.00  0.00     0.010 A 
ATOM     73  C   UNL     1      -1.650   3.679  12.391  1.00  0.00     0.010 A 
ATOM     74  C   UNL     1      -1.393   4.416  15.078  1.00  0.00     0.020 A 
ATOM     75  C   UNL     1      -0.494   4.335  12.823  1.00  0.00     0.020 A 
ATOM     76  C   UNL     1      -0.374   4.702  14.165  1.00  0.00     0.054 A 
BRANCH  76  77
ATOM     77  S   UNL     1       1.140   5.502  14.767  1.00  0.00     0.124 S 
ATOM     78  O   UNL     1       0.679   6.860  15.039  1.00  0.00    -0.237 OA
ATOM     79  O   UNL     1       1.473   4.698  15.940  1.00  0.00    -0.237 OA
ATOM     80  O   UNL     1       2.067   5.367  13.646  1.00  0.00    -0.744 OA
ENDBRANCH  76  77
ENDBRANCH  48  71
BRANCH  60  81
ATOM     81  C   UNL     1      -9.482   4.793  12.526  1.00  0.00    -0.014 A 
ATOM     82  C   UNL     1      -9.435   5.950  11.730  1.00  0.00     0.010 A 
ATOM     83  C   UNL     1     -10.413   4.721  13.580  1.00  0.00     0.010 A 
ATOM     84  C   UNL     1     -10.300   7.018  11.988  1.00  0.00     0.020 A 
ATOM     85  C   UNL     1     -11.297   5.774  13.823  1.00  0.00     0.020 A 
ATOM     86  C   UNL     1     -11.231   6.920  13.028  1.00  0.00     0.054 A 
BRANCH  86  87
ATOM     87  S   UNL     1     -12.398   8.284  13.288  1.00  0.00     0.124 S 
ATOM     88  O   UNL     1     -11.536   9.319  13.850  1.00  0.00    -0.237 OA
ATOM     89  O   UNL     1     -12.892   8.542  11.938  1.00  0.00    -0.237 OA
ATOM     90  O   UNL     1     -13.385   7.726  14.210  1.00  0.00    -0.744 OA
ENDBRANCH  86  87
ENDBRANCH  60  81
ENDBRANCH  34  35
ENDBRANCH  26  29
ENDBRANCH  24  25
ENDBRANCH   1  24
TORSDOF 17
