REMARK SMILES [NH3+][C@@H](CCCCC(=O)NCCCNC(=O)c1ccc(-c2c3nc(c(-c4ccc(S(=O)(=O)[O-])cc4)c4ccc([nH]4)c(-c4ccc(S(=O)(=O)[O-])cc4)c4nc(c(-c5ccc(S(=O)(=O)[O-])cc5)c5ccc2[nH]5)C=C4)C=C3)cc1)c1ccc2[nH]c(=O)[nH]c2c1
REMARK SMILES IDX 10 1 9 2 7 3 8 4 6 6 5 7 4 8 3 9 2 10 1 11 76 15 77 16 85 17
REMARK SMILES IDX 78 18 84 19 79 20 83 21 80 22 81 23 82 26 11 27 12 28 13 29
REMARK SMILES IDX 14 30 15 32 16 33 17 34 75 35 18 36 74 37 19 38 20 39 21 40
REMARK SMILES IDX 68 41 22 42 73 43 67 44 69 45 23 46 72 47 66 48 65 49 24 51
REMARK SMILES IDX 54 52 35 53 53 54 36 55 39 56 52 57 70 58 37 59 38 60 51 62
REMARK SMILES IDX 71 63 40 64 25 65 26 66 34 67 27 68 33 69 28 70 29 71 30 72
REMARK SMILES IDX 31 73 32 74 55 75 56 76 64 77 57 78 63 79 58 80 59 81 60 82
REMARK SMILES IDX 61 83 62 84 41 85 42 86 50 87 43 88 49 89 44 90 45 91 46 92
REMARK SMILES IDX 47 93 48 94
REMARK H PARENT 9 5 1 12 1 13 1 14 83 24 80 25 13 31 69 50 39 61
REMARK Flexibility Score: inf
ROOT
ATOM      1  C   UNL     1       1.467  -1.279   5.076  1.00  0.00     0.117 C 
ENDROOT
BRANCH   1   2
ATOM      2  N   UNL     1       0.290  -0.889   5.821  1.00  0.00    -0.356 N 
ATOM      3  C   UNL     1      -0.973  -0.650   5.375  1.00  0.00     0.219 C 
ATOM      4  O   UNL     1      -1.816  -0.270   6.188  1.00  0.00    -0.275 OA
ATOM      5  H   UNL     1       0.422  -0.781   6.791  1.00  0.00     0.163 HD
BRANCH   3   6
ATOM      6  C   UNL     1      -1.331  -0.884   3.921  1.00  0.00     0.100 C 
BRANCH   6   7
ATOM      7  C   UNL     1      -1.120   0.326   3.007  1.00  0.00     0.010 C 
BRANCH   7   8
ATOM      8  C   UNL     1       0.182   0.456   2.190  1.00  0.00     0.007 C 
BRANCH   8   9
ATOM      9  C   UNL     1       0.792  -0.802   1.538  1.00  0.00     0.070 C 
BRANCH   9  10
ATOM     10  C   UNL     1       0.402  -1.073   0.067  1.00  0.00     0.212 C 
BRANCH  10  11
ATOM     11  N   UNL     1       1.069  -0.129  -0.829  1.00  0.00    -0.351 N 
ATOM     12  H   UNL     1       2.077  -0.169  -0.676  1.00  0.00     0.345 HD
ATOM     13  H   UNL     1       0.734   0.816  -0.638  1.00  0.00     0.345 HD
ATOM     14  H   UNL     1       0.862  -0.374  -1.797  1.00  0.00     0.345 HD
ENDBRANCH  10  11
BRANCH  10  15
ATOM     15  C   UNL     1      -1.112  -1.106  -0.066  1.00  0.00     0.011 A 
ATOM     16  C   UNL     1      -1.838  -0.041  -0.669  1.00  0.00     0.012 A 
ATOM     17  C   UNL     1      -1.809  -2.140   0.594  1.00  0.00     0.038 A 
ATOM     18  C   UNL     1      -3.230   0.059  -0.552  1.00  0.00     0.029 A 
ATOM     19  C   UNL     1      -3.166  -1.994   0.730  1.00  0.00     0.067 A 
ATOM     20  C   UNL     1      -3.856  -0.918   0.181  1.00  0.00     0.066 A 
ATOM     21  N   UNL     1      -4.064  -2.749   1.474  1.00  0.00    -0.306 N 
ATOM     22  N   UNL     1      -5.184  -1.015   0.582  1.00  0.00    -0.306 N 
ATOM     23  C   UNL     1      -5.324  -2.142   1.402  1.00  0.00     0.323 A 
ATOM     24  H   UNL     1      -3.850  -3.573   1.969  1.00  0.00     0.171 HD
ATOM     25  H   UNL     1      -5.906  -0.394   0.330  1.00  0.00     0.171 HD
ATOM     26  O   UNL     1      -6.342  -2.514   1.962  1.00  0.00    -0.248 OA
ENDBRANCH  10  15
ENDBRANCH   9  10
ENDBRANCH   8   9
ENDBRANCH   7   8
ENDBRANCH   6   7
ENDBRANCH   3   6
ENDBRANCH   1   2
BRANCH   1  27
ATOM     27  C   UNL     1       2.365  -0.082   4.807  1.00  0.00     0.042 C 
BRANCH  27  28
ATOM     28  C   UNL     1       3.270   0.272   5.970  1.00  0.00     0.118 C 
BRANCH  28  29
ATOM     29  N   UNL     1       4.316  -0.715   6.172  1.00  0.00    -0.352 N 
ATOM     30  C   UNL     1       5.681  -0.579   6.109  1.00  0.00     0.251 C 
ATOM     31  H   UNL     1       3.997  -1.622   6.387  1.00  0.00     0.163 HD
ATOM     32  O   UNL     1       6.380  -1.588   6.102  1.00  0.00    -0.269 OA
BRANCH  30  33
ATOM     33  C   UNL     1       6.304   0.762   6.027  1.00  0.00     0.039 A 
ATOM     34  C   UNL     1       7.458   0.922   5.254  1.00  0.00     0.014 A 
ATOM     35  C   UNL     1       5.780   1.855   6.721  1.00  0.00     0.014 A 
ATOM     36  C   UNL     1       8.049   2.183   5.141  1.00  0.00     0.010 A 
ATOM     37  C   UNL     1       6.299   3.128   6.515  1.00  0.00     0.010 A 
ATOM     38  C   UNL     1       7.456   3.304   5.745  1.00  0.00    -0.014 A 
BRANCH  38  39
ATOM     39  C   UNL     1       8.051   4.658   5.616  1.00  0.00     0.031 A 
ATOM     40  C   UNL     1       8.509   5.399   6.847  1.00  0.00     0.074 A 
ATOM     41  C   UNL     1       8.133   5.241   4.404  1.00  0.00     0.049 A 
ATOM     42  N   UNL     1       9.010   6.603   6.946  1.00  0.00    -0.248 NA
ATOM     43  C   UNL     1       8.357   4.708   8.140  1.00  0.00     0.031 C 
ATOM     44  C   UNL     1       7.685   4.644   3.143  1.00  0.00     0.029 A 
ATOM     45  N   UNL     1       8.624   6.467   4.031  1.00  0.00    -0.354 N 
ATOM     46  C   UNL     1       9.214   6.818   8.304  1.00  0.00     0.074 A 
ATOM     47  C   UNL     1       8.725   5.648   8.997  1.00  0.00     0.031 C 
ATOM     48  C   UNL     1       7.956   5.488   2.135  1.00  0.00     0.029 A 
ATOM     49  C   UNL     1       8.551   6.704   2.679  1.00  0.00     0.049 A 
ATOM     50  H   UNL     1       8.993   7.117   4.673  1.00  0.00     0.167 HD
ATOM     51  C   UNL     1       9.781   7.882   8.921  1.00  0.00     0.031 A 
ATOM     52  C   UNL     1       8.917   7.781   1.957  1.00  0.00     0.031 A 
ATOM     53  C   UNL     1      10.280   9.038   8.224  1.00  0.00     0.049 A 
ATOM     54  C   UNL     1       9.531   8.958   2.664  1.00  0.00     0.074 A 
ATOM     55  C   UNL     1      10.923  10.145   8.748  1.00  0.00     0.029 A 
ATOM     56  N   UNL     1      10.188   9.236   6.855  1.00  0.00    -0.354 N 
ATOM     57  N   UNL     1       9.779   9.112   3.944  1.00  0.00    -0.248 NA
ATOM     58  C   UNL     1       9.926  10.101   1.830  1.00  0.00     0.031 C 
ATOM     59  C   UNL     1      11.165  11.042   7.702  1.00  0.00     0.029 A 
ATOM     60  C   UNL     1      10.737  10.462   6.518  1.00  0.00     0.049 A 
ATOM     61  H   UNL     1       9.792   8.600   6.217  1.00  0.00     0.167 HD
ATOM     62  C   UNL     1      10.385  10.358   4.064  1.00  0.00     0.074 A 
ATOM     63  C   UNL     1      10.482  10.905   2.726  1.00  0.00     0.031 C 
ATOM     64  C   UNL     1      10.822  10.992   5.180  1.00  0.00     0.031 A 
BRANCH  51  65
ATOM     65  C   UNL     1       9.886   7.846  10.424  1.00  0.00    -0.014 A 
ATOM     66  C   UNL     1      10.743   6.938  11.075  1.00  0.00     0.010 A 
ATOM     67  C   UNL     1       9.146   8.758  11.198  1.00  0.00     0.010 A 
ATOM     68  C   UNL     1      10.823   6.913  12.470  1.00  0.00     0.020 A 
ATOM     69  C   UNL     1       9.249   8.759  12.593  1.00  0.00     0.020 A 
ATOM     70  C   UNL     1      10.075   7.824  13.220  1.00  0.00     0.054 A 
BRANCH  70  71
ATOM     71  S   UNL     1      10.220   7.785  15.027  1.00  0.00     0.124 S 
ATOM     72  O   UNL     1       9.527   6.541  15.358  1.00  0.00    -0.237 OA
ATOM     73  O   UNL     1      11.666   7.771  15.231  1.00  0.00    -0.237 OA
ATOM     74  O   UNL     1       9.543   9.006  15.457  1.00  0.00    -0.744 OA
ENDBRANCH  70  71
ENDBRANCH  51  65
BRANCH  52  75
ATOM     75  C   UNL     1       8.722   7.789   0.480  1.00  0.00    -0.014 A 
ATOM     76  C   UNL     1       9.826   7.751  -0.389  1.00  0.00     0.010 A 
ATOM     77  C   UNL     1       7.425   7.820  -0.066  1.00  0.00     0.010 A 
ATOM     78  C   UNL     1       9.639   7.763  -1.775  1.00  0.00     0.020 A 
ATOM     79  C   UNL     1       7.233   7.800  -1.450  1.00  0.00     0.020 A 
ATOM     80  C   UNL     1       8.343   7.784  -2.296  1.00  0.00     0.054 A 
BRANCH  80  81
ATOM     81  S   UNL     1       8.124   7.747  -4.097  1.00  0.00     0.124 S 
ATOM     82  O   UNL     1       8.563   9.084  -4.484  1.00  0.00    -0.237 OA
ATOM     83  O   UNL     1       9.001   6.650  -4.497  1.00  0.00    -0.237 OA
ATOM     84  O   UNL     1       6.696   7.484  -4.262  1.00  0.00    -0.744 OA
ENDBRANCH  80  81
ENDBRANCH  52  75
BRANCH  64  85
ATOM     85  C   UNL     1      11.477  12.337   5.003  1.00  0.00    -0.014 A 
ATOM     86  C   UNL     1      10.732  13.471   4.638  1.00  0.00     0.010 A 
ATOM     87  C   UNL     1      12.853  12.475   5.262  1.00  0.00     0.010 A 
ATOM     88  C   UNL     1      11.358  14.713   4.502  1.00  0.00     0.020 A 
ATOM     89  C   UNL     1      13.476  13.720   5.160  1.00  0.00     0.020 A 
ATOM     90  C   UNL     1      12.726  14.830   4.766  1.00  0.00     0.054 A 
BRANCH  90  91
ATOM     91  S   UNL     1      13.504  16.461   4.626  1.00  0.00     0.124 S 
ATOM     92  O   UNL     1      13.519  16.667   3.180  1.00  0.00    -0.237 OA
ATOM     93  O   UNL     1      12.587  17.318   5.373  1.00  0.00    -0.237 OA
ATOM     94  O   UNL     1      14.816  16.275   5.242  1.00  0.00    -0.744 OA
ENDBRANCH  90  91
ENDBRANCH  64  85
ENDBRANCH  38  39
ENDBRANCH  30  33
ENDBRANCH  28  29
ENDBRANCH  27  28
ENDBRANCH   1  27
TORSDOF 19
