REMARK SMILES Cc1ccc([C@H]2CC(c3cccs3)=NN2C(=O)CCC(=O)NCCCNC(=O)c2ccc(-c3c4nc(c(-c5ccc(S(=O)(=O)[O-])cc5)c5ccc([nH]5)c(-c5ccc(S(=O)(=O)[O-])cc5)c5nc(c(-c6ccc(S(=O)(=O)[O-])cc6)c6ccc3[nH]6)C=C5)C=C4)cc2)o1
REMARK SMILES IDX 23 1 22 2 20 3 21 4 19 6 18 7 16 8 17 9 15 10 6 11 7 12 8 13
REMARK SMILES IDX 14 14 5 15 1 16 2 17 3 18 89 19 4 20 9 21 10 22 13 23 11 24
REMARK SMILES IDX 12 25 24 26 25 27 26 28 27 29 28 31 29 32 30 33 88 34 31 35
REMARK SMILES IDX 87 36 32 37 33 38 34 39 81 40 35 41 86 42 80 43 82 44 36 45
REMARK SMILES IDX 85 46 79 47 78 48 37 50 67 51 48 52 66 53 49 54 52 55 65 56
REMARK SMILES IDX 83 57 50 58 51 59 64 61 84 62 53 63 38 64 39 65 47 66 40 67
REMARK SMILES IDX 46 68 41 69 42 70 43 71 44 72 45 73 68 74 69 75 77 76 70 77
REMARK SMILES IDX 76 78 71 79 72 80 73 81 74 82 75 83 54 84 55 85 63 86 56 87
REMARK SMILES IDX 62 88 57 89 58 90 59 91 60 92 61 93
REMARK H PARENT 22 5 26 30 82 49 52 60
REMARK Flexibility Score: inf
ROOT
ATOM      1  C   UNL     1      -4.643   0.177   2.693  1.00  0.00     0.117 C 
ENDROOT
BRANCH   1   2
ATOM      2  N   UNL     1      -3.481  -0.143   1.883  1.00  0.00    -0.356 N 
ATOM      3  C   UNL     1      -2.179  -0.164   2.306  1.00  0.00     0.220 C 
ATOM      4  O   UNL     1      -1.456  -1.102   1.970  1.00  0.00    -0.275 OA
ATOM      5  H   UNL     1      -3.645  -0.366   0.939  1.00  0.00     0.163 HD
BRANCH   3   6
ATOM      6  C   UNL     1      -1.627   0.977   3.135  1.00  0.00     0.110 C 
BRANCH   6   7
ATOM      7  C   UNL     1      -1.141   2.168   2.299  1.00  0.00     0.112 C 
BRANCH   7   8
ATOM      8  C   UNL     1      -2.237   2.766   1.452  1.00  0.00     0.243 C 
ATOM      9  O   UNL     1      -2.958   3.633   1.957  1.00  0.00    -0.273 OA
BRANCH   8  10
ATOM     10  N   UNL     1      -2.483   2.217   0.206  1.00  0.00    -0.222 N 
ATOM     11  C   UNL     1      -1.566   1.971  -0.917  1.00  0.00     0.183 C 
ATOM     12  C   UNL     1      -2.495   1.852  -2.131  1.00  0.00     0.095 C 
ATOM     13  C   UNL     1      -3.821   1.892  -1.449  1.00  0.00     0.081 C 
ATOM     14  N   UNL     1      -3.788   2.202  -0.200  1.00  0.00    -0.173 NA
BRANCH  11  15
ATOM     15  C   UNL     1      -0.717   0.759  -0.766  1.00  0.00     0.129 A 
ATOM     16  C   UNL     1       2.671  -0.174  -0.139  1.00  0.00     0.087 C 
ATOM     17  C   UNL     1       1.230  -0.210  -0.448  1.00  0.00     0.101 A 
ATOM     18  C   UNL     1       0.327  -1.225  -0.665  1.00  0.00     0.045 A 
ATOM     19  O   UNL     1       0.607   0.996  -0.530  1.00  0.00    -0.464 OA
ATOM     20  C   UNL     1      -0.927  -0.602  -0.881  1.00  0.00     0.048 A 
ENDBRANCH  11  15
BRANCH  13  21
ATOM     21  C   UNL     1      -5.054   1.616  -2.130  1.00  0.00     0.050 A 
ATOM     22  C   UNL     1      -5.499   0.391  -3.212  1.00  0.00     0.022 A 
ATOM     23  S   UNL     1      -6.687   3.202  -1.796  1.00  0.00    -0.142 S 
ATOM     24  C   UNL     1      -7.199   0.506  -3.985  1.00  0.00     0.012 A 
ATOM     25  C   UNL     1      -8.095   1.929  -3.452  1.00  0.00     0.065 A 
ENDBRANCH  13  21
ENDBRANCH   8  10
ENDBRANCH   7   8
ENDBRANCH   6   7
ENDBRANCH   3   6
ENDBRANCH   1   2
BRANCH   1  26
ATOM     26  C   UNL     1      -5.508   1.375   2.316  1.00  0.00     0.042 C 
BRANCH  26  27
ATOM     27  C   UNL     1      -6.363   1.397   1.035  1.00  0.00     0.118 C 
BRANCH  27  28
ATOM     28  N   UNL     1      -6.485   0.178   0.240  1.00  0.00    -0.352 N 
ATOM     29  C   UNL     1      -6.855  -0.005  -1.094  1.00  0.00     0.251 C 
ATOM     30  H   UNL     1      -6.271  -0.651   0.725  1.00  0.00     0.163 HD
ATOM     31  O   UNL     1      -7.052  -1.158  -1.479  1.00  0.00    -0.269 OA
BRANCH  29  32
ATOM     32  C   UNL     1      -7.158   1.237  -2.035  1.00  0.00     0.039 A 
ATOM     33  C   UNL     1      -8.677   1.836  -1.374  1.00  0.00     0.014 A 
ATOM     34  C   UNL     1      -6.339   2.324  -3.579  1.00  0.00     0.014 A 
ATOM     35  C   UNL     1      -9.294   3.277  -1.985  1.00  0.00     0.010 A 
ATOM     36  C   UNL     1      -7.154   3.808  -4.065  1.00  0.00     0.010 A 
ATOM     37  C   UNL     1      -8.568   4.255  -3.215  1.00  0.00    -0.014 A 
BRANCH  37  38
ATOM     38  C   UNL     1      -9.170   5.615  -3.445  1.00  0.00     0.031 A 
ATOM     39  C   UNL     1      -9.344   6.144  -4.844  1.00  0.00     0.074 A 
ATOM     40  C   UNL     1      -9.525   6.395  -2.395  1.00  0.00     0.049 A 
ATOM     41  N   UNL     1      -9.710   7.338  -5.235  1.00  0.00    -0.248 NA
ATOM     42  C   UNL     1      -9.023   5.232  -5.953  1.00  0.00     0.031 C 
ATOM     43  C   UNL     1      -9.367   6.056  -0.976  1.00  0.00     0.029 A 
ATOM     44  N   UNL     1     -10.116   7.639  -2.347  1.00  0.00    -0.354 N 
ATOM     45  C   UNL     1      -9.601   7.334  -6.621  1.00  0.00     0.074 A 
ATOM     46  C   UNL     1      -9.069   6.045  -6.997  1.00  0.00     0.031 C 
ATOM     47  C   UNL     1      -9.944   6.995  -0.214  1.00  0.00     0.029 A 
ATOM     48  C   UNL     1     -10.395   8.081  -1.069  1.00  0.00     0.049 A 
ATOM     49  H   UNL     1     -10.322   8.166  -3.153  1.00  0.00     0.167 HD
ATOM     50  C   UNL     1      -9.946   8.297  -7.508  1.00  0.00     0.031 A 
ATOM     51  C   UNL     1     -10.916   9.239  -0.616  1.00  0.00     0.031 A 
ATOM     52  C   UNL     1     -10.535   9.555  -7.134  1.00  0.00     0.049 A 
ATOM     53  C   UNL     1     -11.270  10.301  -1.621  1.00  0.00     0.074 A 
ATOM     54  C   UNL     1     -10.967  10.578  -7.958  1.00  0.00     0.029 A 
ATOM     55  N   UNL     1     -10.787   9.955  -5.831  1.00  0.00    -0.354 N 
ATOM     56  N   UNL     1     -11.183  10.256  -2.929  1.00  0.00    -0.248 NA
ATOM     57  C   UNL     1     -11.785  11.571  -1.092  1.00  0.00     0.031 C 
ATOM     58  C   UNL     1     -11.415  11.626  -7.151  1.00  0.00     0.029 A 
ATOM     59  C   UNL     1     -11.342  11.223  -5.827  1.00  0.00     0.049 A 
ATOM     60  H   UNL     1     -10.599   9.417  -5.028  1.00  0.00     0.167 HD
ATOM     61  C   UNL     1     -11.657  11.482  -3.379  1.00  0.00     0.074 A 
ATOM     62  C   UNL     1     -12.058  12.233  -2.207  1.00  0.00     0.031 C 
ATOM     63  C   UNL     1     -11.746  11.949  -4.649  1.00  0.00     0.031 A 
BRANCH  50  64
ATOM     64  C   UNL     1      -9.694   8.026  -8.969  1.00  0.00    -0.014 A 
ATOM     65  C   UNL     1     -10.399   7.025  -9.663  1.00  0.00     0.010 A 
ATOM     66  C   UNL     1      -8.759   8.810  -9.670  1.00  0.00     0.010 A 
ATOM     67  C   UNL     1     -10.142   6.783 -11.014  1.00  0.00     0.020 A 
ATOM     68  C   UNL     1      -8.528   8.599 -11.032  1.00  0.00     0.020 A 
ATOM     69  C   UNL     1      -9.211   7.576 -11.691  1.00  0.00     0.054 A 
BRANCH  69  70
ATOM     70  S   UNL     1      -8.938   7.269 -13.457  1.00  0.00     0.124 S 
ATOM     71  O   UNL     1      -8.280   5.965 -13.438  1.00  0.00    -0.237 OA
ATOM     72  O   UNL     1     -10.296   7.278 -13.993  1.00  0.00    -0.237 OA
ATOM     73  O   UNL     1      -8.095   8.384 -13.878  1.00  0.00    -0.744 OA
ENDBRANCH  69  70
ENDBRANCH  50  64
BRANCH  51  74
ATOM     74  C   UNL     1     -11.102   9.483   0.849  1.00  0.00    -0.014 A 
ATOM     75  C   UNL     1     -12.385   9.688   1.391  1.00  0.00     0.010 A 
ATOM     76  C   UNL     1      -9.992   9.541   1.714  1.00  0.00     0.010 A 
ATOM     77  C   UNL     1     -12.550   9.976   2.751  1.00  0.00     0.020 A 
ATOM     78  C   UNL     1     -10.155   9.786   3.082  1.00  0.00     0.020 A 
ATOM     79  C   UNL     1     -11.433  10.020   3.589  1.00  0.00     0.054 A 
BRANCH  79  80
ATOM     80  S   UNL     1     -11.676  10.366   5.354  1.00  0.00     0.124 S 
ATOM     81  O   UNL     1     -12.099  11.763   5.336  1.00  0.00    -0.237 OA
ATOM     82  O   UNL     1     -12.705   9.398   5.725  1.00  0.00    -0.237 OA
ATOM     83  O   UNL     1     -10.359  10.120   5.938  1.00  0.00    -0.744 OA
ENDBRANCH  79  80
ENDBRANCH  51  74
BRANCH  63  84
ATOM     84  C   UNL     1     -12.344  13.316  -4.844  1.00  0.00    -0.014 A 
ATOM     85  C   UNL     1     -11.673  14.478  -4.427  1.00  0.00     0.010 A 
ATOM     86  C   UNL     1     -13.576  13.436  -5.514  1.00  0.00     0.010 A 
ATOM     87  C   UNL     1     -12.239  15.735  -4.648  1.00  0.00     0.020 A 
ATOM     88  C   UNL     1     -14.124  14.693  -5.774  1.00  0.00     0.020 A 
ATOM     89  C   UNL     1     -13.457  15.834  -5.326  1.00  0.00     0.054 A 
BRANCH  89  90
ATOM     90  S   UNL     1     -14.140  17.482  -5.648  1.00  0.00     0.124 S 
ATOM     91  O   UNL     1     -14.509  17.926  -4.307  1.00  0.00    -0.237 OA
ATOM     92  O   UNL     1     -13.009  18.180  -6.254  1.00  0.00    -0.237 OA
ATOM     93  O   UNL     1     -15.261  17.224  -6.549  1.00  0.00    -0.744 OA
ENDBRANCH  89  90
ENDBRANCH  63  84
ENDBRANCH  37  38
ENDBRANCH  29  32
ENDBRANCH  27  28
ENDBRANCH  26  27
ENDBRANCH   1  26
TORSDOF 18
