REMARK SMILES CCOc1ccc(C(=O)N2CCC(C(=O)NCCCNC(=O)c3ccc(-c4c5nc(c(-c6ccc(S(=O)(=O)[O-])cc6)c6ccc([nH]6)c(-c6ccc(S(=O)(=O)[O-])cc6)c6nc(c(-c7ccc(S(=O)(=O)[O-])cc7)c7ccc4[nH]7)C=C6)C=C5)cc3)(c3ccccc3)CC2)cc1OC
REMARK SMILES IDX 18 1 17 2 16 3 14 4 15 5 13 7 8 8 9 9 10 10 11 11 90 12
REMARK SMILES IDX 12 13 89 14 7 15 4 16 5 17 92 18 6 19 91 20 3 21 2 22 1 23
REMARK SMILES IDX 93 24 94 25 83 26 84 27 88 28 85 29 87 30 86 31 19 32 20 33
REMARK SMILES IDX 21 34 22 36 23 37 24 38 82 39 25 40 81 41 26 42 27 43 28 44
REMARK SMILES IDX 75 45 29 46 80 47 74 48 76 49 30 50 79 51 73 52 72 53 31 55
REMARK SMILES IDX 61 56 42 57 60 58 43 59 46 60 59 61 77 62 44 63 45 64 58 66
REMARK SMILES IDX 78 67 47 68 32 69 33 70 41 71 34 72 40 73 35 74 36 75 37 76
REMARK SMILES IDX 38 77 39 78 62 79 63 80 71 81 64 82 70 83 65 84 66 85 67 86
REMARK SMILES IDX 68 87 69 88 48 89 49 90 57 91 50 92 56 93 51 94 52 95 53 96
REMARK SMILES IDX 54 97 55 98
REMARK H PARENT 16 6 20 35 76 54 46 65
REMARK Flexibility Score: inf
ROOT
ATOM      1  C   UNL     1      10.963  -3.322  -4.459  1.00  0.00     0.042 C 
ENDROOT
BRANCH   1   2
ATOM      2  C   UNL     1      10.226  -3.890  -3.256  1.00  0.00     0.117 C 
BRANCH   2   3
ATOM      3  N   UNL     1      11.057  -3.906  -2.056  1.00  0.00    -0.355 N 
ATOM      4  C   UNL     1      10.994  -3.236  -0.864  1.00  0.00     0.230 C 
ATOM      5  O   UNL     1      11.988  -3.402  -0.154  1.00  0.00    -0.274 OA
ATOM      6  H   UNL     1      11.820  -4.525  -2.117  1.00  0.00     0.163 HD
BRANCH   4   7
ATOM      7  C   UNL     1       9.771  -2.328  -0.490  1.00  0.00     0.077 C 
ATOM      8  C   UNL     1       6.482  -1.141  -3.088  1.00  0.00     0.253 C 
ATOM      9  O   UNL     1       6.815  -0.720  -4.196  1.00  0.00    -0.269 OA
ATOM     10  N   UNL     1       7.446  -1.505  -2.130  1.00  0.00    -0.339 N 
ATOM     11  C   UNL     1       8.538  -0.559  -1.982  1.00  0.00     0.121 C 
ATOM     12  C   UNL     1       7.251  -2.504  -1.084  1.00  0.00     0.121 C 
ATOM     13  C   UNL     1       9.850  -1.138  -1.485  1.00  0.00     0.043 C 
ATOM     14  C   UNL     1       8.509  -3.226  -0.637  1.00  0.00     0.043 C 
BRANCH   8  15
ATOM     15  C   UNL     1       5.023  -1.110  -2.745  1.00  0.00     0.043 A 
ATOM     16  C   UNL     1       2.290  -0.808  -2.094  1.00  0.00     0.161 A 
ATOM     17  C   UNL     1       2.719  -0.743  -3.429  1.00  0.00     0.051 A 
ATOM     18  C   UNL     1       3.216  -1.055  -1.086  1.00  0.00     0.161 A 
ATOM     19  C   UNL     1       4.076  -0.904  -3.754  1.00  0.00     0.018 A 
ATOM     20  C   UNL     1       4.568  -1.122  -1.427  1.00  0.00     0.064 A 
BRANCH  16  21
ATOM     21  O   UNL     1       0.962  -0.671  -1.806  1.00  0.00    -0.490 OA
BRANCH  21  22
ATOM     22  C   UNL     1       0.471   0.655  -2.046  1.00  0.00     0.226 C 
ATOM     23  C   UNL     1      -0.173   1.166  -0.767  1.00  0.00     0.049 C 
ENDBRANCH  21  22
ENDBRANCH  16  21
BRANCH  18  24
ATOM     24  O   UNL     1       3.045  -1.234   0.256  1.00  0.00    -0.493 OA
ATOM     25  C   UNL     1       1.744  -1.282   0.805  1.00  0.00     0.278 C 
ENDBRANCH  18  24
ENDBRANCH   8  15
BRANCH   7  26
ATOM     26  C   UNL     1       9.746  -1.752   0.974  1.00  0.00    -0.032 A 
ATOM     27  C   UNL     1      10.644  -2.128   1.986  1.00  0.00     0.005 A 
ATOM     28  C   UNL     1       8.746  -0.830   1.362  1.00  0.00     0.005 A 
ATOM     29  C   UNL     1      10.562  -1.607   3.287  1.00  0.00     0.000 A 
ATOM     30  C   UNL     1       8.644  -0.326   2.663  1.00  0.00     0.000 A 
ATOM     31  C   UNL     1       9.558  -0.712   3.629  1.00  0.00     0.000 A 
ENDBRANCH   7  26
ENDBRANCH   4   7
ENDBRANCH   2   3
ENDBRANCH   1   2
BRANCH   1  32
ATOM     32  C   UNL     1      12.218  -4.096  -4.829  1.00  0.00     0.118 C 
BRANCH  32  33
ATOM     33  N   UNL     1      11.928  -5.445  -5.296  1.00  0.00    -0.352 N 
ATOM     34  C   UNL     1      12.143  -5.998  -6.540  1.00  0.00     0.251 C 
ATOM     35  H   UNL     1      11.522  -6.045  -4.630  1.00  0.00     0.163 HD
ATOM     36  O   UNL     1      11.672  -7.086  -6.821  1.00  0.00    -0.269 OA
BRANCH  34  37
ATOM     37  C   UNL     1      12.934  -5.238  -7.533  1.00  0.00     0.039 A 
ATOM     38  C   UNL     1      12.444  -5.096  -8.833  1.00  0.00     0.014 A 
ATOM     39  C   UNL     1      14.138  -4.639  -7.161  1.00  0.00     0.014 A 
ATOM     40  C   UNL     1      13.128  -4.283  -9.741  1.00  0.00     0.010 A 
ATOM     41  C   UNL     1      14.765  -3.759  -8.033  1.00  0.00     0.010 A 
ATOM     42  C   UNL     1      14.271  -3.576  -9.335  1.00  0.00    -0.014 A 
BRANCH  42  43
ATOM     43  C   UNL     1      15.001  -2.655 -10.242  1.00  0.00     0.031 A 
ATOM     44  C   UNL     1      16.441  -2.939 -10.574  1.00  0.00     0.074 A 
ATOM     45  C   UNL     1      14.415  -1.521 -10.675  1.00  0.00     0.049 A 
ATOM     46  N   UNL     1      17.314  -2.182 -11.187  1.00  0.00    -0.248 NA
ATOM     47  C   UNL     1      16.980  -4.234 -10.123  1.00  0.00     0.031 C 
ATOM     48  C   UNL     1      13.033  -1.118 -10.403  1.00  0.00     0.029 A 
ATOM     49  N   UNL     1      14.921  -0.484 -11.419  1.00  0.00    -0.354 N 
ATOM     50  C   UNL     1      18.510  -2.890 -11.159  1.00  0.00     0.074 A 
ATOM     51  C   UNL     1      18.262  -4.116 -10.434  1.00  0.00     0.031 C 
ATOM     52  C   UNL     1      12.799   0.071 -10.983  1.00  0.00     0.029 A 
ATOM     53  C   UNL     1      14.025   0.540 -11.622  1.00  0.00     0.049 A 
ATOM     54  H   UNL     1      15.839  -0.474 -11.775  1.00  0.00     0.167 HD
ATOM     55  C   UNL     1      19.704  -2.556 -11.702  1.00  0.00     0.031 A 
ATOM     56  C   UNL     1      14.178   1.731 -12.234  1.00  0.00     0.031 A 
ATOM     57  C   UNL     1      19.936  -1.348 -12.445  1.00  0.00     0.049 A 
ATOM     58  C   UNL     1      15.516   2.083 -12.828  1.00  0.00     0.074 A 
ATOM     59  C   UNL     1      21.095  -0.940 -13.082  1.00  0.00     0.029 A 
ATOM     60  N   UNL     1      18.990  -0.357 -12.658  1.00  0.00    -0.354 N 
ATOM     61  N   UNL     1      16.626   1.384 -12.828  1.00  0.00    -0.248 NA
ATOM     62  C   UNL     1      15.622   3.381 -13.510  1.00  0.00     0.031 C 
ATOM     63  C   UNL     1      20.863   0.319 -13.642  1.00  0.00     0.029 A 
ATOM     64  C   UNL     1      19.542   0.668 -13.405  1.00  0.00     0.049 A 
ATOM     65  H   UNL     1      18.064  -0.379 -12.326  1.00  0.00     0.167 HD
ATOM     66  C   UNL     1      17.549   2.139 -13.543  1.00  0.00     0.074 A 
ATOM     67  C   UNL     1      16.869   3.348 -13.960  1.00  0.00     0.031 C 
ATOM     68  C   UNL     1      18.842   1.853 -13.832  1.00  0.00     0.031 A 
BRANCH  55  69
ATOM     69  C   UNL     1      20.851  -3.511 -11.503  1.00  0.00    -0.014 A 
ATOM     70  C   UNL     1      20.872  -4.766 -12.137  1.00  0.00     0.010 A 
ATOM     71  C   UNL     1      21.939  -3.135 -10.694  1.00  0.00     0.010 A 
ATOM     72  C   UNL     1      21.936  -5.647 -11.929  1.00  0.00     0.020 A 
ATOM     73  C   UNL     1      23.021  -4.001 -10.508  1.00  0.00     0.020 A 
ATOM     74  C   UNL     1      23.003  -5.259 -11.112  1.00  0.00     0.054 A 
BRANCH  74  75
ATOM     75  S   UNL     1      24.380  -6.415 -10.875  1.00  0.00     0.124 S 
ATOM     76  O   UNL     1      23.786  -7.412  -9.987  1.00  0.00    -0.237 OA
ATOM     77  O   UNL     1      24.654  -6.872 -12.235  1.00  0.00    -0.237 OA
ATOM     78  O   UNL     1      25.426  -5.591 -10.275  1.00  0.00    -0.744 OA
ENDBRANCH  74  75
ENDBRANCH  55  69
BRANCH  56  79
ATOM     79  C   UNL     1      13.030   2.676 -12.325  1.00  0.00    -0.014 A 
ATOM     80  C   UNL     1      12.402   2.913 -13.560  1.00  0.00     0.010 A 
ATOM     81  C   UNL     1      12.550   3.333 -11.177  1.00  0.00     0.010 A 
ATOM     82  C   UNL     1      11.329   3.806 -13.651  1.00  0.00     0.020 A 
ATOM     83  C   UNL     1      11.460   4.205 -11.259  1.00  0.00     0.020 A 
ATOM     84  C   UNL     1      10.864   4.445 -12.498  1.00  0.00     0.054 A 
BRANCH  84  85
ATOM     85  S   UNL     1       9.442   5.565 -12.634  1.00  0.00     0.124 S 
ATOM     86  O   UNL     1      10.031   6.726 -13.293  1.00  0.00    -0.237 OA
ATOM     87  O   UNL     1       8.504   4.787 -13.440  1.00  0.00    -0.237 OA
ATOM     88  O   UNL     1       9.036   5.772 -11.246  1.00  0.00    -0.744 OA
ENDBRANCH  84  85
ENDBRANCH  56  79
BRANCH  68  89
ATOM     89  C   UNL     1      19.602   2.826 -14.694  1.00  0.00    -0.014 A 
ATOM     90  C   UNL     1      20.064   4.051 -14.184  1.00  0.00     0.010 A 
ATOM     91  C   UNL     1      19.942   2.454 -16.008  1.00  0.00     0.010 A 
ATOM     92  C   UNL     1      20.847   4.893 -14.980  1.00  0.00     0.020 A 
ATOM     93  C   UNL     1      20.745   3.281 -16.796  1.00  0.00     0.020 A 
ATOM     94  C   UNL     1      21.188   4.499 -16.278  1.00  0.00     0.054 A 
BRANCH  94  95
ATOM     95  S   UNL     1      22.273   5.571 -17.260  1.00  0.00     0.124 S 
ATOM     96  O   UNL     1      21.378   6.668 -17.615  1.00  0.00    -0.237 OA
ATOM     97  O   UNL     1      23.334   5.906 -16.313  1.00  0.00    -0.237 OA
ATOM     98  O   UNL     1      22.687   4.720 -18.373  1.00  0.00    -0.744 OA
ENDBRANCH  94  95
ENDBRANCH  68  89
ENDBRANCH  42  43
ENDBRANCH  34  37
ENDBRANCH  32  33
ENDBRANCH   1  32
TORSDOF 18
