REMARK SMILES [NH3+][C@@H](C(=O)NCCCNC(=O)c1ccc(-c2c3nc(c(-c4ccc(S(=O)(=O)[O-])cc4)c4ccc([nH]4)c(-c4ccc(S(=O)(=O)[O-])cc4)c4nc(c(-c5ccc(S(=O)(=O)[O-])cc5)c5ccc2[nH]5)C=C4)C=C3)cc1)C(C(F)(F)F)C(F)(F)F
REMARK SMILES IDX 7 1 6 2 5 3 3 4 4 5 2 7 1 8 72 12 73 13 74 14 75 15 76 16
REMARK SMILES IDX 77 17 78 18 79 19 80 20 8 21 9 22 10 23 11 25 12 26 13 27
REMARK SMILES IDX 71 28 14 29 70 30 15 31 16 32 17 33 64 34 18 35 69 36 63 37
REMARK SMILES IDX 65 38 19 39 68 40 62 41 61 42 20 44 50 45 31 46 49 47 32 48
REMARK SMILES IDX 35 49 48 50 66 51 33 52 34 53 47 55 67 56 36 57 21 58 22 59
REMARK SMILES IDX 30 60 23 61 29 62 24 63 25 64 26 65 27 66 28 67 51 68 52 69
REMARK SMILES IDX 60 70 53 71 59 72 54 73 55 74 56 75 57 76 58 77 37 78 38 79
REMARK SMILES IDX 46 80 39 81 45 82 40 83 41 84 42 85 43 86 44 87
REMARK H PARENT 5 6 1 9 1 10 1 11 9 24 65 43 35 54
REMARK Flexibility Score: inf
ROOT
ATOM      1  C   UNL     1       4.148  -0.755   0.961  1.00  0.00     0.042 C 
ENDROOT
BRANCH   1   2
ATOM      2  C   UNL     1       3.226  -1.940   0.677  1.00  0.00     0.118 C 
BRANCH   2   3
ATOM      3  N   UNL     1       2.167  -2.041   1.667  1.00  0.00    -0.351 N 
ATOM      4  C   UNL     1       0.866  -1.641   1.595  1.00  0.00     0.279 C 
ATOM      5  O   UNL     1       0.208  -1.580   2.634  1.00  0.00    -0.268 OA
ATOM      6  H   UNL     1       2.429  -2.461   2.519  1.00  0.00     0.163 HD
BRANCH   4   7
ATOM      7  C   UNL     1       0.275  -1.198   0.241  1.00  0.00     0.292 C 
BRANCH   7   8
ATOM      8  N   UNL     1       0.651   0.217   0.049  1.00  0.00    -0.346 N 
ATOM      9  H   UNL     1       1.667   0.305   0.073  1.00  0.00     0.345 HD
ATOM     10  H   UNL     1       0.243   0.782   0.794  1.00  0.00     0.345 HD
ATOM     11  H   UNL     1       0.302   0.543  -0.853  1.00  0.00     0.345 HD
ENDBRANCH   7   8
BRANCH   7  12
ATOM     12  C   UNL     1      -1.251  -1.388   0.213  1.00  0.00     0.267 C 
BRANCH  12  13
ATOM     13  C   UNL     1      -1.844  -0.937  -1.091  1.00  0.00     0.406 C 
ATOM     14  F   UNL     1      -1.287  -1.561  -2.151  1.00  0.00    -0.170 F 
ATOM     15  F   UNL     1      -3.176  -1.168  -1.143  1.00  0.00    -0.170 F 
ATOM     16  F   UNL     1      -1.703   0.393  -1.288  1.00  0.00    -0.170 F 
ENDBRANCH  12  13
BRANCH  12  17
ATOM     17  C   UNL     1      -1.611  -2.847   0.319  1.00  0.00     0.406 C 
ATOM     18  F   UNL     1      -1.171  -3.411   1.463  1.00  0.00    -0.170 F 
ATOM     19  F   UNL     1      -2.947  -3.044   0.299  1.00  0.00    -0.170 F 
ATOM     20  F   UNL     1      -1.077  -3.572  -0.689  1.00  0.00    -0.170 F 
ENDBRANCH  12  17
ENDBRANCH   7  12
ENDBRANCH   4   7
ENDBRANCH   2   3
ENDBRANCH   1   2
BRANCH   1  21
ATOM     21  C   UNL     1       4.946  -0.878   2.256  1.00  0.00     0.118 C 
BRANCH  21  22
ATOM     22  N   UNL     1       5.916  -1.960   2.211  1.00  0.00    -0.352 N 
ATOM     23  C   UNL     1       7.264  -1.942   2.466  1.00  0.00     0.251 C 
ATOM     24  H   UNL     1       5.550  -2.839   1.960  1.00  0.00     0.163 HD
ATOM     25  O   UNL     1       7.935  -2.937   2.188  1.00  0.00    -0.269 OA
BRANCH  23  26
ATOM     26  C   UNL     1       7.918  -0.749   3.051  1.00  0.00     0.039 A 
ATOM     27  C   UNL     1       9.189  -0.389   2.593  1.00  0.00     0.014 A 
ATOM     28  C   UNL     1       7.319  -0.018   4.081  1.00  0.00     0.014 A 
ATOM     29  C   UNL     1       9.841   0.719   3.140  1.00  0.00     0.010 A 
ATOM     30  C   UNL     1       7.939   1.130   4.574  1.00  0.00     0.010 A 
ATOM     31  C   UNL     1       9.215   1.500   4.125  1.00  0.00    -0.014 A 
BRANCH  31  32
ATOM     32  C   UNL     1       9.898   2.676   4.723  1.00  0.00     0.031 A 
ATOM     33  C   UNL     1      10.259   2.674   6.187  1.00  0.00     0.074 A 
ATOM     34  C   UNL     1      10.154   3.763   3.969  1.00  0.00     0.049 A 
ATOM     35  N   UNL     1      10.814   3.620   6.902  1.00  0.00    -0.248 NA
ATOM     36  C   UNL     1       9.932   1.460   6.952  1.00  0.00     0.031 C 
ATOM     37  C   UNL     1       9.824   3.907   2.549  1.00  0.00     0.029 A 
ATOM     38  N   UNL     1      10.749   4.957   4.293  1.00  0.00    -0.354 N 
ATOM     39  C   UNL     1      10.880   3.125   8.200  1.00  0.00     0.074 A 
ATOM     40  C   UNL     1      10.265   1.816   8.183  1.00  0.00     0.031 C 
ATOM     41  C   UNL     1      10.244   5.109   2.120  1.00  0.00     0.029 A 
ATOM     42  C   UNL     1      10.840   5.834   3.238  1.00  0.00     0.049 A 
ATOM     43  H   UNL     1      11.079   5.166   5.197  1.00  0.00     0.167 HD
ATOM     44  C   UNL     1      11.420   3.697   9.303  1.00  0.00     0.031 A 
ATOM     45  C   UNL     1      11.346   7.081   3.176  1.00  0.00     0.031 A 
ATOM     46  C   UNL     1      12.050   4.991   9.314  1.00  0.00     0.049 A 
ATOM     47  C   UNL     1      11.955   7.690   4.410  1.00  0.00     0.074 A 
ATOM     48  C   UNL     1      12.671   5.637  10.369  1.00  0.00     0.029 A 
ATOM     49  N   UNL     1      12.145   5.834   8.218  1.00  0.00    -0.354 N 
ATOM     50  N   UNL     1      12.054   7.184   5.616  1.00  0.00    -0.248 NA
ATOM     51  C   UNL     1      12.540   9.030   4.268  1.00  0.00     0.031 C 
ATOM     52  C   UNL     1      13.106   6.888   9.920  1.00  0.00     0.029 A 
ATOM     53  C   UNL     1      12.806   6.998   8.572  1.00  0.00     0.049 A 
ATOM     54  H   UNL     1      11.795   5.634   7.319  1.00  0.00     0.167 HD
ATOM     55  C   UNL     1      12.746   8.129   6.367  1.00  0.00     0.074 A 
ATOM     56  C   UNL     1      13.047   9.231   5.476  1.00  0.00     0.031 C 
ATOM     57  C   UNL     1      13.106   8.083   7.673  1.00  0.00     0.031 A 
BRANCH  44  58
ATOM     58  C   UNL     1      11.347   2.923  10.594  1.00  0.00    -0.014 A 
ATOM     59  C   UNL     1      12.107   1.755  10.786  1.00  0.00     0.010 A 
ATOM     60  C   UNL     1      10.529   3.386  11.641  1.00  0.00     0.010 A 
ATOM     61  C   UNL     1      12.013   1.038  11.982  1.00  0.00     0.020 A 
ATOM     62  C   UNL     1      10.456   2.688  12.850  1.00  0.00     0.020 A 
ATOM     63  C   UNL     1      11.184   1.507  13.005  1.00  0.00     0.054 A 
BRANCH  63  64
ATOM     64  S   UNL     1      11.091   0.563  14.551  1.00  0.00     0.124 S 
ATOM     65  O   UNL     1      10.284  -0.587  14.153  1.00  0.00    -0.237 OA
ATOM     66  O   UNL     1      12.495   0.277  14.838  1.00  0.00    -0.237 OA
ATOM     67  O   UNL     1      10.444   1.485  15.482  1.00  0.00    -0.744 OA
ENDBRANCH  63  64
ENDBRANCH  44  58
BRANCH  45  68
ATOM     68  C   UNL     1      11.328   7.827   1.888  1.00  0.00    -0.014 A 
ATOM     69  C   UNL     1      12.520   8.050   1.176  1.00  0.00     0.010 A 
ATOM     70  C   UNL     1      10.116   8.309   1.361  1.00  0.00     0.010 A 
ATOM     71  C   UNL     1      12.504   8.761  -0.027  1.00  0.00     0.020 A 
ATOM     72  C   UNL     1      10.093   8.996   0.144  1.00  0.00     0.020 A 
ATOM     73  C   UNL     1      11.290   9.229  -0.537  1.00  0.00     0.054 A 
BRANCH  73  74
ATOM     74  S   UNL     1      11.286  10.105  -2.125  1.00  0.00     0.124 S 
ATOM     75  O   UNL     1      11.841  11.403  -1.757  1.00  0.00    -0.237 OA
ATOM     76  O   UNL     1      12.143   9.261  -2.954  1.00  0.00    -0.237 OA
ATOM     77  O   UNL     1       9.876  10.111  -2.508  1.00  0.00    -0.744 OA
ENDBRANCH  73  74
ENDBRANCH  45  68
BRANCH  57  78
ATOM     78  C   UNL     1      13.918   9.233   8.209  1.00  0.00    -0.014 A 
ATOM     79  C   UNL     1      13.346  10.499   8.427  1.00  0.00     0.010 A 
ATOM     80  C   UNL     1      15.270   9.025   8.539  1.00  0.00     0.010 A 
ATOM     81  C   UNL     1      14.124  11.547   8.927  1.00  0.00     0.020 A 
ATOM     82  C   UNL     1      16.043  10.062   9.065  1.00  0.00     0.020 A 
ATOM     83  C   UNL     1      15.469  11.322   9.239  1.00  0.00     0.054 A 
BRANCH  83  84
ATOM     84  S   UNL     1      16.452  12.689   9.914  1.00  0.00     0.124 S 
ATOM     85  O   UNL     1      16.689  13.507   8.727  1.00  0.00    -0.237 OA
ATOM     86  O   UNL     1      15.554  13.271  10.909  1.00  0.00    -0.237 OA
ATOM     87  O   UNL     1      17.634  12.028  10.463  1.00  0.00    -0.744 OA
ENDBRANCH  83  84
ENDBRANCH  57  78
ENDBRANCH  31  32
ENDBRANCH  23  26
ENDBRANCH  21  22
ENDBRANCH   1  21
TORSDOF 17
