REMARK SMILES [NH3+][C@@H](CCC1=c2ccccc2=NC1)C(=O)NCCCNC(=O)c1ccc(-c2c3nc(c(-c4ccc(S(=O)(=O)[O-])cc4)c4ccc([nH]4)c(-c4ccc(S(=O)(=O)[O-])cc4)c4nc(c(-c5ccc(S(=O)(=O)[O-])cc5)c5ccc2[nH]5)C=C4)C=C3)cc1
REMARK SMILES IDX 18 1 17 2 16 3 14 4 15 5 2 7 1 8 3 12 4 13 5 14 6 15 13 16
REMARK SMILES IDX 7 17 11 18 12 19 8 20 10 21 9 22 19 23 20 24 21 25 22 27
REMARK SMILES IDX 23 28 24 29 82 30 25 31 81 32 26 33 27 34 28 35 75 36 29 37
REMARK SMILES IDX 80 38 74 39 76 40 30 41 79 42 73 43 72 44 31 46 61 47 42 48
REMARK SMILES IDX 60 49 43 50 46 51 59 52 77 53 44 54 45 55 58 57 78 58 47 59
REMARK SMILES IDX 32 60 33 61 41 62 34 63 40 64 35 65 36 66 37 67 38 68 39 69
REMARK SMILES IDX 62 70 63 71 71 72 64 73 70 74 65 75 66 76 67 77 68 78 69 79
REMARK SMILES IDX 48 80 49 81 57 82 50 83 56 84 51 85 52 86 53 87 54 88 55 89
REMARK H PARENT 16 6 1 9 1 10 1 11 20 26 76 45 46 56
REMARK Flexibility Score: inf
ROOT
ATOM      1  C   UNL     1      -1.511   0.277   1.926  1.00  0.00     0.042 C 
ENDROOT
BRANCH   1   2
ATOM      2  C   UNL     1      -0.364   0.114   0.954  1.00  0.00     0.118 C 
BRANCH   2   3
ATOM      3  N   UNL     1      -0.846  -0.051  -0.390  1.00  0.00    -0.351 N 
ATOM      4  C   UNL     1      -0.347  -0.844  -1.373  1.00  0.00     0.278 C 
ATOM      5  O   UNL     1      -1.027  -0.997  -2.389  1.00  0.00    -0.268 OA
ATOM      6  H   UNL     1      -1.641   0.479  -0.628  1.00  0.00     0.163 HD
BRANCH   4   7
ATOM      7  C   UNL     1       1.033  -1.503  -1.222  1.00  0.00     0.271 C 
BRANCH   7   8
ATOM      8  N   UNL     1       2.050  -0.591  -0.656  1.00  0.00    -0.347 N 
ATOM      9  H   UNL     1       2.942  -1.081  -0.579  1.00  0.00     0.345 HD
ATOM     10  H   UNL     1       1.752  -0.282   0.270  1.00  0.00     0.345 HD
ATOM     11  H   UNL     1       2.158   0.219  -1.266  1.00  0.00     0.345 HD
ENDBRANCH   7   8
BRANCH   7  12
ATOM     12  C   UNL     1       1.045  -2.931  -0.636  1.00  0.00     0.080 C 
BRANCH  12  13
ATOM     13  C   UNL     1       0.545  -3.296   0.801  1.00  0.00     0.040 C 
BRANCH  13  14
ATOM     14  C   UNL     1      -0.940  -3.391   1.109  1.00  0.00    -0.039 C 
ATOM     15  C   UNL     1      -1.657  -2.881   2.133  1.00  0.00     0.001 A 
ATOM     16  C   UNL     1      -1.854  -4.042   0.037  1.00  0.00     0.174 C 
ATOM     17  C   UNL     1      -1.477  -1.649   3.505  1.00  0.00     0.010 A 
ATOM     18  C   UNL     1      -3.370  -3.009   1.293  1.00  0.00     0.065 A 
ATOM     19  N   UNL     1      -3.327  -3.750   0.233  1.00  0.00    -0.280 NA
ATOM     20  C   UNL     1      -2.682  -0.587   3.849  1.00  0.00     0.001 A 
ATOM     21  C   UNL     1      -4.724  -1.777   1.872  1.00  0.00     0.028 A 
ATOM     22  C   UNL     1      -4.365  -0.645   2.926  1.00  0.00     0.002 A 
ENDBRANCH  13  14
ENDBRANCH  12  13
ENDBRANCH   7  12
ENDBRANCH   4   7
ENDBRANCH   2   3
ENDBRANCH   1   2
BRANCH   1  23
ATOM     23  C   UNL     1      -2.662  -1.044   1.808  1.00  0.00     0.118 C 
BRANCH  23  24
ATOM     24  N   UNL     1      -3.352  -2.390   3.254  1.00  0.00    -0.352 N 
ATOM     25  C   UNL     1      -3.993  -2.596   4.640  1.00  0.00     0.251 C 
ATOM     26  H   UNL     1      -3.200  -3.291   2.885  1.00  0.00     0.163 HD
ATOM     27  O   UNL     1      -4.135  -3.789   4.952  1.00  0.00    -0.269 OA
BRANCH  25  28
ATOM     28  C   UNL     1      -4.375  -1.561   5.760  1.00  0.00     0.039 A 
ATOM     29  C   UNL     1      -5.095  -0.391   5.539  1.00  0.00     0.014 A 
ATOM     30  C   UNL     1      -3.988  -1.736   7.101  1.00  0.00     0.014 A 
ATOM     31  C   UNL     1      -4.991   0.722   6.379  1.00  0.00     0.010 A 
ATOM     32  C   UNL     1      -4.133  -0.686   8.070  1.00  0.00     0.010 A 
ATOM     33  C   UNL     1      -4.556   0.602   7.694  1.00  0.00    -0.014 A 
BRANCH  33  34
ATOM     34  C   UNL     1      -4.597   1.838   8.566  1.00  0.00     0.031 A 
ATOM     35  C   UNL     1      -3.346   2.352   9.247  1.00  0.00     0.074 A 
ATOM     36  C   UNL     1      -5.711   2.614   8.617  1.00  0.00     0.049 A 
ATOM     37  N   UNL     1      -3.193   3.400  10.020  1.00  0.00    -0.248 NA
ATOM     38  C   UNL     1      -2.098   1.610   9.008  1.00  0.00     0.031 C 
ATOM     39  C   UNL     1      -6.966   2.329   7.911  1.00  0.00     0.029 A 
ATOM     40  N   UNL     1      -5.968   3.827   9.227  1.00  0.00    -0.354 N 
ATOM     41  C   UNL     1      -1.849   3.423  10.385  1.00  0.00     0.074 A 
ATOM     42  C   UNL     1      -1.229   2.278   9.756  1.00  0.00     0.031 C 
ATOM     43  C   UNL     1      -7.805   3.365   8.043  1.00  0.00     0.029 A 
ATOM     44  C   UNL     1      -7.229   4.332   8.967  1.00  0.00     0.049 A 
ATOM     45  H   UNL     1      -5.312   4.291   9.796  1.00  0.00     0.167 HD
ATOM     46  C   UNL     1      -1.192   4.315  11.168  1.00  0.00     0.031 A 
ATOM     47  C   UNL     1      -7.885   5.417   9.436  1.00  0.00     0.031 A 
ATOM     48  C   UNL     1      -1.810   5.472  11.769  1.00  0.00     0.049 A 
ATOM     49  C   UNL     1      -7.176   6.321  10.405  1.00  0.00     0.074 A 
ATOM     50  C   UNL     1      -1.235   6.409  12.611  1.00  0.00     0.029 A 
ATOM     51  N   UNL     1      -3.129   5.862  11.584  1.00  0.00    -0.354 N 
ATOM     52  N   UNL     1      -5.925   6.275  10.797  1.00  0.00    -0.248 NA
ATOM     53  C   UNL     1      -7.957   7.411  11.008  1.00  0.00     0.031 C 
ATOM     54  C   UNL     1      -2.225   7.309  13.006  1.00  0.00     0.029 A 
ATOM     55  C   UNL     1      -3.395   7.000  12.330  1.00  0.00     0.049 A 
ATOM     56  H   UNL     1      -3.780   5.399  11.009  1.00  0.00     0.167 HD
ATOM     57  C   UNL     1      -5.764   7.335  11.680  1.00  0.00     0.074 A 
ATOM     58  C   UNL     1      -7.037   8.024  11.744  1.00  0.00     0.031 C 
ATOM     59  C   UNL     1      -4.661   7.693  12.382  1.00  0.00     0.031 A 
BRANCH  46  60
ATOM     60  C   UNL     1       0.270   4.073  11.472  1.00  0.00    -0.014 A 
ATOM     61  C   UNL     1       0.663   3.799  12.797  1.00  0.00     0.010 A 
ATOM     62  C   UNL     1       1.265   4.231  10.491  1.00  0.00     0.010 A 
ATOM     63  C   UNL     1       2.015   3.731  13.145  1.00  0.00     0.020 A 
ATOM     64  C   UNL     1       2.620   4.125  10.827  1.00  0.00     0.020 A 
ATOM     65  C   UNL     1       2.986   3.904  12.157  1.00  0.00     0.054 A 
BRANCH  65  66
ATOM     66  S   UNL     1       4.736   3.859  12.638  1.00  0.00     0.124 S 
ATOM     67  O   UNL     1       4.885   5.108  13.379  1.00  0.00    -0.237 OA
ATOM     68  O   UNL     1       4.814   2.637  13.435  1.00  0.00    -0.237 OA
ATOM     69  O   UNL     1       5.441   3.804  11.359  1.00  0.00    -0.744 OA
ENDBRANCH  65  66
ENDBRANCH  46  60
BRANCH  47  70
ATOM     70  C   UNL     1      -9.303   5.671   9.021  1.00  0.00    -0.014 A 
ATOM     71  C   UNL     1     -10.306   4.717   9.292  1.00  0.00     0.010 A 
ATOM     72  C   UNL     1      -9.658   6.823   8.296  1.00  0.00     0.010 A 
ATOM     73  C   UNL     1     -11.596   4.858   8.773  1.00  0.00     0.020 A 
ATOM     74  C   UNL     1     -10.963   6.993   7.811  1.00  0.00     0.020 A 
ATOM     75  C   UNL     1     -11.912   5.989   8.019  1.00  0.00     0.054 A 
BRANCH  75  76
ATOM     76  S   UNL     1     -13.568   6.105   7.286  1.00  0.00     0.124 S 
ATOM     77  O   UNL     1     -13.504   5.086   6.241  1.00  0.00    -0.237 OA
ATOM     78  O   UNL     1     -14.439   5.793   8.416  1.00  0.00    -0.237 OA
ATOM     79  O   UNL     1     -13.638   7.484   6.809  1.00  0.00    -0.744 OA
ENDBRANCH  75  76
ENDBRANCH  47  70
BRANCH  59  80
ATOM     80  C   UNL     1      -4.747   8.893  13.291  1.00  0.00    -0.014 A 
ATOM     81  C   UNL     1      -3.939  10.018  13.037  1.00  0.00     0.010 A 
ATOM     82  C   UNL     1      -5.499   8.847  14.479  1.00  0.00     0.010 A 
ATOM     83  C   UNL     1      -3.831  11.043  13.979  1.00  0.00     0.020 A 
ATOM     84  C   UNL     1      -5.425   9.890  15.406  1.00  0.00     0.020 A 
ATOM     85  C   UNL     1      -4.565  10.964  15.165  1.00  0.00     0.054 A 
BRANCH  85  86
ATOM     86  S   UNL     1      -4.352  12.268  16.407  1.00  0.00     0.124 S 
ATOM     87  O   UNL     1      -3.010  11.995  16.913  1.00  0.00    -0.237 OA
ATOM     88  O   UNL     1      -4.491  13.488  15.615  1.00  0.00    -0.237 OA
ATOM     89  O   UNL     1      -5.437  12.022  17.354  1.00  0.00    -0.744 OA
ENDBRANCH  85  86
ENDBRANCH  59  80
ENDBRANCH  33  34
ENDBRANCH  25  28
ENDBRANCH  23  24
ENDBRANCH   1  23
TORSDOF 17
