REMARK SMILES COc1ccc(F)c(NC(=O)N2CCCC[C@@H]2C(=O)NCCCNC(=O)c2ccc(-c3c4nc(c(-c5ccc(S(=O)(=O)[O-])cc5)c5ccc([nH]5)c(-c5ccc(S(=O)(=O)[O-])cc5)c5nc(c(-c6ccc(S(=O)(=O)[O-])cc6)c6ccc3[nH]6)C=C5)C=C4)cc2)c1
REMARK SMILES IDX 22 1 21 2 20 3 18 4 19 5 17 7 12 8 13 9 14 10 16 11 15 12
REMARK SMILES IDX 10 13 9 14 11 16 8 17 3 18 4 19 87 20 5 21 6 22 7 23 2 24
REMARK SMILES IDX 1 25 23 26 24 27 25 28 26 30 27 31 28 32 86 33 29 34 85 35
REMARK SMILES IDX 30 36 31 37 32 38 79 39 33 40 84 41 78 42 80 43 34 44 83 45
REMARK SMILES IDX 77 46 76 47 35 49 65 50 46 51 64 52 47 53 50 54 63 55 81 56
REMARK SMILES IDX 48 57 49 58 62 60 82 61 51 62 36 63 37 64 45 65 38 66 44 67
REMARK SMILES IDX 39 68 40 69 41 70 42 71 43 72 66 73 67 74 75 75 68 76 74 77
REMARK SMILES IDX 69 78 70 79 71 80 72 81 73 82 52 83 53 84 61 85 54 86 60 87
REMARK SMILES IDX 55 88 56 89 57 90 58 91 59 92
REMARK H PARENT 20 6 9 15 24 29 80 48 50 59
REMARK Flexibility Score: inf
ROOT
ATOM      1  C   UNL     1      -4.318  -5.321   2.031  1.00  0.00     0.042 C 
ENDROOT
BRANCH   1   2
ATOM      2  C   UNL     1      -3.365  -4.592   2.969  1.00  0.00     0.117 C 
BRANCH   2   3
ATOM      3  N   UNL     1      -2.143  -4.238   2.270  1.00  0.00    -0.354 N 
ATOM      4  C   UNL     1      -1.717  -3.022   1.836  1.00  0.00     0.242 C 
ATOM      5  O   UNL     1      -0.849  -3.006   0.957  1.00  0.00    -0.273 OA
ATOM      6  H   UNL     1      -1.534  -4.988   2.082  1.00  0.00     0.163 HD
BRANCH   4   7
ATOM      7  C   UNL     1      -2.379  -1.711   2.313  1.00  0.00     0.176 C 
ATOM      8  N   UNL     1      -2.661  -1.592   3.774  1.00  0.00    -0.313 N 
ATOM      9  C   UNL     1      -3.582  -0.530   4.174  1.00  0.00     0.122 C 
ATOM     10  C   UNL     1      -4.847  -0.471   3.335  1.00  0.00     0.022 C 
ATOM     11  C   UNL     1      -3.644  -1.532   1.441  1.00  0.00     0.035 C 
ATOM     12  C   UNL     1      -4.495  -0.345   1.863  1.00  0.00     0.004 C 
BRANCH   8  13
ATOM     13  C   UNL     1      -1.990  -2.204   4.814  1.00  0.00     0.322 C 
ATOM     14  N   UNL     1      -0.739  -2.702   4.681  1.00  0.00    -0.305 N 
ATOM     15  H   UNL     1      -0.580  -3.514   5.214  1.00  0.00     0.171 HD
ATOM     16  O   UNL     1      -2.551  -2.407   5.896  1.00  0.00    -0.248 OA
BRANCH  14  17
ATOM     17  C   UNL     1       0.377  -2.290   3.936  1.00  0.00     0.082 A 
ATOM     18  C   UNL     1       1.505  -0.798   2.425  1.00  0.00     0.121 A 
ATOM     19  C   UNL     1       2.541  -1.717   2.252  1.00  0.00     0.049 A 
ATOM     20  C   UNL     1       0.473  -1.043   3.330  1.00  0.00     0.075 A 
ATOM     21  C   UNL     1       2.520  -2.913   2.965  1.00  0.00     0.045 A 
ATOM     22  C   UNL     1       1.437  -3.194   3.793  1.00  0.00     0.147 A 
ATOM     23  F   UNL     1       1.396  -4.375   4.431  1.00  0.00    -0.205 F 
BRANCH  18  24
ATOM     24  O   UNL     1       1.444   0.365   1.706  1.00  0.00    -0.497 OA
ATOM     25  C   UNL     1       1.277   0.082   0.312  1.00  0.00     0.278 C 
ENDBRANCH  18  24
ENDBRANCH  14  17
ENDBRANCH   8  13
ENDBRANCH   4   7
ENDBRANCH   2   3
ENDBRANCH   1   2
BRANCH   1  26
ATOM     26  C   UNL     1      -3.769  -6.649   1.532  1.00  0.00     0.118 C 
BRANCH  26  27
ATOM     27  N   UNL     1      -3.618  -7.623   2.603  1.00  0.00    -0.352 N 
ATOM     28  C   UNL     1      -4.196  -8.866   2.724  1.00  0.00     0.251 C 
ATOM     29  H   UNL     1      -3.023  -7.357   3.341  1.00  0.00     0.163 HD
ATOM     30  O   UNL     1      -4.133  -9.482   3.775  1.00  0.00    -0.269 OA
BRANCH  28  31
ATOM     31  C   UNL     1      -4.915  -9.428   1.561  1.00  0.00     0.039 A 
ATOM     32  C   UNL     1      -6.199  -9.945   1.738  1.00  0.00     0.014 A 
ATOM     33  C   UNL     1      -4.329  -9.393   0.293  1.00  0.00     0.014 A 
ATOM     34  C   UNL     1      -6.926 -10.367   0.624  1.00  0.00     0.010 A 
ATOM     35  C   UNL     1      -5.085  -9.732  -0.821  1.00  0.00     0.010 A 
ATOM     36  C   UNL     1      -6.389 -10.228  -0.667  1.00  0.00    -0.014 A 
BRANCH  36  37
ATOM     37  C   UNL     1      -7.160 -10.605  -1.878  1.00  0.00     0.031 A 
ATOM     38  C   UNL     1      -6.644 -11.697  -2.776  1.00  0.00     0.074 A 
ATOM     39  C   UNL     1      -8.269  -9.916  -2.210  1.00  0.00     0.049 A 
ATOM     40  N   UNL     1      -7.104 -12.099  -3.932  1.00  0.00    -0.248 NA
ATOM     41  C   UNL     1      -5.433 -12.408  -2.331  1.00  0.00     0.031 C 
ATOM     42  C   UNL     1      -8.849  -8.814  -1.438  1.00  0.00     0.029 A 
ATOM     43  N   UNL     1      -9.102 -10.034  -3.294  1.00  0.00    -0.354 N 
ATOM     44  C   UNL     1      -6.228 -13.090  -4.361  1.00  0.00     0.074 A 
ATOM     45  C   UNL     1      -5.181 -13.191  -3.369  1.00  0.00     0.031 C 
ATOM     46  C   UNL     1      -9.956  -8.375  -2.060  1.00  0.00     0.029 A 
ATOM     47  C   UNL     1     -10.138  -9.129  -3.297  1.00  0.00     0.049 A 
ATOM     48  H   UNL     1      -8.971 -10.704  -4.004  1.00  0.00     0.167 HD
ATOM     49  C   UNL     1      -6.301 -13.862  -5.471  1.00  0.00     0.031 A 
ATOM     50  C   UNL     1     -11.117  -8.921  -4.199  1.00  0.00     0.031 A 
ATOM     51  C   UNL     1      -7.354 -13.769  -6.445  1.00  0.00     0.049 A 
ATOM     52  C   UNL     1     -11.168  -9.781  -5.433  1.00  0.00     0.074 A 
ATOM     53  C   UNL     1      -7.549 -14.540  -7.576  1.00  0.00     0.029 A 
ATOM     54  N   UNL     1      -8.391 -12.850  -6.401  1.00  0.00    -0.354 N 
ATOM     55  N   UNL     1     -10.362 -10.752  -5.793  1.00  0.00    -0.248 NA
ATOM     56  C   UNL     1     -12.264  -9.524  -6.377  1.00  0.00     0.031 C 
ATOM     57  C   UNL     1      -8.677 -14.054  -8.245  1.00  0.00     0.029 A 
ATOM     58  C   UNL     1      -9.218 -13.020  -7.498  1.00  0.00     0.049 A 
ATOM     59  H   UNL     1      -8.520 -12.176  -5.695  1.00  0.00     0.167 HD
ATOM     60  C   UNL     1     -10.873 -11.242  -6.990  1.00  0.00     0.074 A 
ATOM     61  C   UNL     1     -12.060 -10.467  -7.287  1.00  0.00     0.031 C 
ATOM     62  C   UNL     1     -10.402 -12.245  -7.771  1.00  0.00     0.031 A 
BRANCH  49  63
ATOM     63  C   UNL     1      -5.205 -14.873  -5.688  1.00  0.00    -0.014 A 
ATOM     64  C   UNL     1      -5.083 -16.002  -4.857  1.00  0.00     0.010 A 
ATOM     65  C   UNL     1      -4.306 -14.711  -6.757  1.00  0.00     0.010 A 
ATOM     66  C   UNL     1      -4.055 -16.925  -5.063  1.00  0.00     0.020 A 
ATOM     67  C   UNL     1      -3.295 -15.649  -6.986  1.00  0.00     0.020 A 
ATOM     68  C   UNL     1      -3.165 -16.741  -6.125  1.00  0.00     0.054 A 
BRANCH  68  69
ATOM     69  S   UNL     1      -1.854 -17.967  -6.381  1.00  0.00     0.124 S 
ATOM     70  O   UNL     1      -0.948 -17.674  -5.273  1.00  0.00    -0.237 OA
ATOM     71  O   UNL     1      -2.575 -19.233  -6.285  1.00  0.00    -0.237 OA
ATOM     72  O   UNL     1      -1.335 -17.648  -7.709  1.00  0.00    -0.744 OA
ENDBRANCH  68  69
ENDBRANCH  49  63
BRANCH  50  73
ATOM     73  C   UNL     1     -12.136  -7.861  -3.962  1.00  0.00    -0.014 A 
ATOM     74  C   UNL     1     -13.465  -8.205  -3.662  1.00  0.00     0.010 A 
ATOM     75  C   UNL     1     -11.781  -6.501  -4.027  1.00  0.00     0.010 A 
ATOM     76  C   UNL     1     -14.425  -7.211  -3.450  1.00  0.00     0.020 A 
ATOM     77  C   UNL     1     -12.731  -5.504  -3.787  1.00  0.00     0.020 A 
ATOM     78  C   UNL     1     -14.051  -5.866  -3.512  1.00  0.00     0.054 A 
BRANCH  78  79
ATOM     79  S   UNL     1     -15.303  -4.593  -3.188  1.00  0.00     0.124 S 
ATOM     80  O   UNL     1     -16.108  -4.643  -4.404  1.00  0.00    -0.237 OA
ATOM     81  O   UNL     1     -15.951  -5.090  -1.977  1.00  0.00    -0.237 OA
ATOM     82  O   UNL     1     -14.514  -3.376  -3.008  1.00  0.00    -0.744 OA
ENDBRANCH  78  79
ENDBRANCH  50  73
BRANCH  62  83
ATOM     83  C   UNL     1     -11.191 -12.599  -9.003  1.00  0.00    -0.014 A 
ATOM     84  C   UNL     1     -11.187 -11.768 -10.137  1.00  0.00     0.010 A 
ATOM     85  C   UNL     1     -11.881 -13.824  -9.051  1.00  0.00     0.010 A 
ATOM     86  C   UNL     1     -11.876 -12.149 -11.291  1.00  0.00     0.020 A 
ATOM     87  C   UNL     1     -12.547 -14.221 -10.213  1.00  0.00     0.020 A 
ATOM     88  C   UNL     1     -12.548 -13.375 -11.323  1.00  0.00     0.054 A 
BRANCH  88  89
ATOM     89  S   UNL     1     -13.377 -13.876 -12.857  1.00  0.00     0.124 S 
ATOM     90  O   UNL     1     -14.542 -12.996 -12.874  1.00  0.00    -0.237 OA
ATOM     91  O   UNL     1     -12.364 -13.598 -13.873  1.00  0.00    -0.237 OA
ATOM     92  O   UNL     1     -13.668 -15.293 -12.647  1.00  0.00    -0.744 OA
ENDBRANCH  88  89
ENDBRANCH  62  83
ENDBRANCH  36  37
ENDBRANCH  28  31
ENDBRANCH  26  27
ENDBRANCH   1  26
TORSDOF 16
