REMARK SMILES Cc1ccc(S(=O)(=O)n2cc(C(=O)C(=O)N[C@@H](Cc3c[nH]c4ccccc34)C(=O)NCCCNC(=O)c3ccc(-c4c5nc(c(-c6ccc(S(=O)(=O)[O-])cc6)c6ccc([nH]6)c(-c6ccc(S(=O)(=O)[O-])cc6)c6nc(c(-c7ccc(S(=O)(=O)[O-])cc7)c7ccc4[nH]7)C=C6)C=C5)cc3)c3ccccc32)cc1
REMARK SMILES IDX 31 1 30 2 28 3 29 4 17 6 16 7 14 8 15 9 12 11 13 12 11 13
REMARK SMILES IDX 9 14 10 15 102 16 97 17 101 18 98 19 100 20 99 21 6 22 7 23
REMARK SMILES IDX 8 24 5 25 1 26 2 27 3 28 104 29 4 30 103 31 18 32 19 33
REMARK SMILES IDX 20 34 27 35 21 36 22 37 26 38 23 40 25 41 24 42 32 43 33 44
REMARK SMILES IDX 34 45 35 46 36 48 37 49 38 50 96 51 39 52 95 53 40 54 41 55
REMARK SMILES IDX 42 56 89 57 43 58 94 59 88 60 90 61 44 62 93 63 87 64 86 65
REMARK SMILES IDX 45 67 75 68 56 69 74 70 57 71 60 72 73 73 91 74 58 75 59 76
REMARK SMILES IDX 72 78 92 79 61 80 46 81 47 82 55 83 48 84 54 85 49 86 50 87
REMARK SMILES IDX 51 88 52 89 53 90 76 91 77 92 85 93 78 94 84 95 79 96 80 97
REMARK SMILES IDX 81 98 82 99 83 100 62 101 63 102 71 103 64 104 70 105 65 106
REMARK SMILES IDX 66 107 67 108 68 109 69 110
REMARK H PARENT 30 5 16 10 21 39 34 47 90 66 60 77
REMARK Flexibility Score: inf
ROOT
ATOM      1  C   UNL     1     -12.746   3.666  -0.492  1.00  0.00     0.117 C 
ENDROOT
BRANCH   1   2
ATOM      2  N   UNL     1     -12.167   2.670  -1.402  1.00  0.00    -0.354 N 
ATOM      3  C   UNL     1     -11.546   1.519  -0.938  1.00  0.00     0.242 C 
ATOM      4  O   UNL     1     -11.749   0.444  -1.511  1.00  0.00    -0.273 OA
ATOM      5  H   UNL     1     -12.222   2.824  -2.373  1.00  0.00     0.163 HD
BRANCH   3   6
ATOM      6  C   UNL     1     -10.665   1.574   0.364  1.00  0.00     0.176 C 
BRANCH   6   7
ATOM      7  N   UNL     1      -9.581   2.580   0.240  1.00  0.00    -0.337 N 
ATOM      8  C   UNL     1      -8.272   2.462  -0.221  1.00  0.00     0.293 C 
ATOM      9  O   UNL     1      -7.492   3.409  -0.148  1.00  0.00    -0.265 OA
ATOM     10  H   UNL     1      -9.830   3.486   0.535  1.00  0.00     0.164 HD
BRANCH   8  11
ATOM     11  C   UNL     1      -7.766   1.152  -0.831  1.00  0.00     0.252 C 
ATOM     12  O   UNL     1      -8.488   0.638  -1.683  1.00  0.00    -0.283 OA
BRANCH  11  13
ATOM     13  C   UNL     1      -6.561   0.454  -0.335  1.00  0.00     0.054 A 
ATOM     14  N   UNL     1      -4.589  -0.188   0.575  1.00  0.00    -0.240 N 
ATOM     15  C   UNL     1      -5.287   0.903   0.054  1.00  0.00     0.117 A 
ATOM     16  C   UNL     1      -5.505  -1.255   0.677  1.00  0.00     0.065 A 
ATOM     17  C   UNL     1      -6.493  -0.969  -0.256  1.00  0.00     0.012 A 
ATOM     18  C   UNL     1      -5.353  -2.548   1.217  1.00  0.00     0.028 A 
ATOM     19  C   UNL     1      -7.208  -2.041  -0.830  1.00  0.00     0.011 A 
ATOM     20  C   UNL     1      -6.001  -3.598   0.570  1.00  0.00     0.002 A 
ATOM     21  C   UNL     1      -6.883  -3.352  -0.473  1.00  0.00     0.001 A 
BRANCH  14  22
ATOM     22  S   UNL     1      -3.021  -0.805   0.145  1.00  0.00     0.268 S 
ATOM     23  O   UNL     1      -3.265  -1.409  -1.157  1.00  0.00    -0.201 OA
ATOM     24  O   UNL     1      -2.728  -1.636   1.310  1.00  0.00    -0.201 OA
BRANCH  22  25
ATOM     25  C   UNL     1      -1.461  -0.031  -0.051  1.00  0.00     0.088 A 
ATOM     26  C   UNL     1       2.801   0.700  -0.053  1.00  0.00     0.044 C 
ATOM     27  C   UNL     1       1.314   0.502  -0.118  1.00  0.00    -0.051 A 
ATOM     28  C   UNL     1       0.868  -0.793  -0.321  1.00  0.00     0.005 A 
ATOM     29  C   UNL     1       0.361   1.532   0.070  1.00  0.00     0.005 A 
ATOM     30  C   UNL     1      -0.490  -1.040  -0.302  1.00  0.00     0.022 A 
ATOM     31  C   UNL     1      -1.039   1.274   0.113  1.00  0.00     0.022 A 
ENDBRANCH  22  25
ENDBRANCH  14  22
ENDBRANCH  11  13
ENDBRANCH   8  11
ENDBRANCH   6   7
BRANCH   6  32
ATOM     32  C   UNL     1     -11.475   1.596   1.737  1.00  0.00     0.072 C 
BRANCH  32  33
ATOM     33  C   UNL     1     -12.225   2.844   2.262  1.00  0.00    -0.020 A 
ATOM     34  C   UNL     1     -13.611   2.950   2.375  1.00  0.00     0.087 A 
ATOM     35  C   UNL     1     -11.719   4.194   2.481  1.00  0.00     0.003 A 
ATOM     36  N   UNL     1     -13.951   4.275   2.525  1.00  0.00    -0.361 N 
ATOM     37  C   UNL     1     -12.821   5.061   2.498  1.00  0.00     0.046 A 
ATOM     38  C   UNL     1     -10.434   4.779   2.414  1.00  0.00     0.010 A 
ATOM     39  H   UNL     1     -14.870   4.612   2.635  1.00  0.00     0.166 HD
ATOM     40  C   UNL     1     -12.703   6.458   2.352  1.00  0.00     0.026 A 
ATOM     41  C   UNL     1     -10.303   6.162   2.215  1.00  0.00     0.001 A 
ATOM     42  C   UNL     1     -11.423   6.986   2.160  1.00  0.00     0.002 A 
ENDBRANCH  32  33
ENDBRANCH   6  32
ENDBRANCH   3   6
ENDBRANCH   1   2
BRANCH   1  43
ATOM     43  C   UNL     1     -12.636   5.205  -0.682  1.00  0.00     0.042 C 
BRANCH  43  44
ATOM     44  C   UNL     1     -14.065   6.091  -0.681  1.00  0.00     0.118 C 
BRANCH  44  45
ATOM     45  N   UNL     1     -14.796   7.628  -1.048  1.00  0.00    -0.352 N 
ATOM     46  C   UNL     1     -15.517   8.657  -1.995  1.00  0.00     0.251 C 
ATOM     47  H   UNL     1     -14.712   8.123  -0.202  1.00  0.00     0.163 HD
ATOM     48  O   UNL     1     -16.383   9.281  -1.335  1.00  0.00    -0.269 OA
BRANCH  46  49
ATOM     49  C   UNL     1     -15.604   9.109  -3.673  1.00  0.00     0.039 A 
ATOM     50  C   UNL     1     -16.755   8.979  -4.483  1.00  0.00     0.014 A 
ATOM     51  C   UNL     1     -14.560   9.484  -4.505  1.00  0.00     0.014 A 
ATOM     52  C   UNL     1     -16.641   8.284  -5.745  1.00  0.00     0.010 A 
ATOM     53  C   UNL     1     -14.382   8.710  -5.691  1.00  0.00     0.010 A 
ATOM     54  C   UNL     1     -15.386   7.870  -6.175  1.00  0.00    -0.014 A 
BRANCH  54  55
ATOM     55  C   UNL     1     -15.078   6.653  -7.029  1.00  0.00     0.031 A 
ATOM     56  C   UNL     1     -14.599   6.894  -8.374  1.00  0.00     0.074 A 
ATOM     57  C   UNL     1     -15.055   5.310  -6.753  1.00  0.00     0.049 A 
ATOM     58  N   UNL     1     -15.258   6.605  -9.444  1.00  0.00    -0.248 NA
ATOM     59  C   UNL     1     -13.282   7.477  -8.581  1.00  0.00     0.031 C 
ATOM     60  C   UNL     1     -14.746   4.114  -7.566  1.00  0.00     0.029 A 
ATOM     61  N   UNL     1     -15.338   4.683  -5.558  1.00  0.00    -0.354 N 
ATOM     62  C   UNL     1     -14.316   6.677 -10.442  1.00  0.00     0.074 A 
ATOM     63  C   UNL     1     -13.229   7.478  -9.912  1.00  0.00     0.031 C 
ATOM     64  C   UNL     1     -15.293   3.021  -6.978  1.00  0.00     0.029 A 
ATOM     65  C   UNL     1     -15.972   3.468  -5.781  1.00  0.00     0.049 A 
ATOM     66  H   UNL     1     -15.120   5.047  -4.669  1.00  0.00     0.167 HD
ATOM     67  C   UNL     1     -14.287   5.770 -11.460  1.00  0.00     0.031 A 
ATOM     68  C   UNL     1     -17.292   3.377  -5.426  1.00  0.00     0.031 A 
ATOM     69  C   UNL     1     -15.152   4.609 -11.201  1.00  0.00     0.049 A 
ATOM     70  C   UNL     1     -18.179   3.307  -6.636  1.00  0.00     0.074 A 
ATOM     71  C   UNL     1     -14.876   3.270 -10.952  1.00  0.00     0.029 A 
ATOM     72  N   UNL     1     -16.484   4.783 -10.851  1.00  0.00    -0.354 N 
ATOM     73  N   UNL     1     -17.723   3.346  -7.852  1.00  0.00    -0.248 NA
ATOM     74  C   UNL     1     -19.634   3.253  -6.600  1.00  0.00     0.031 C 
ATOM     75  C   UNL     1     -16.056   2.646 -10.463  1.00  0.00     0.029 A 
ATOM     76  C   UNL     1     -17.060   3.595 -10.435  1.00  0.00     0.049 A 
ATOM     77  H   UNL     1     -16.960   5.644 -10.894  1.00  0.00     0.167 HD
ATOM     78  C   UNL     1     -18.747   3.416  -8.747  1.00  0.00     0.074 A 
ATOM     79  C   UNL     1     -19.934   3.332  -7.911  1.00  0.00     0.031 C 
ATOM     80  C   UNL     1     -18.480   3.565 -10.079  1.00  0.00     0.031 A 
BRANCH  67  81
ATOM     81  C   UNL     1     -13.201   5.791 -12.516  1.00  0.00    -0.014 A 
ATOM     82  C   UNL     1     -12.936   4.648 -13.290  1.00  0.00     0.010 A 
ATOM     83  C   UNL     1     -12.449   6.944 -12.834  1.00  0.00     0.010 A 
ATOM     84  C   UNL     1     -11.928   4.629 -14.264  1.00  0.00     0.020 A 
ATOM     85  C   UNL     1     -11.400   6.926 -13.761  1.00  0.00     0.020 A 
ATOM     86  C   UNL     1     -11.152   5.766 -14.482  1.00  0.00     0.054 A 
BRANCH  86  87
ATOM     87  S   UNL     1      -9.877   5.732 -15.764  1.00  0.00     0.124 S 
ATOM     88  O   UNL     1      -9.037   4.611 -15.350  1.00  0.00    -0.237 OA
ATOM     89  O   UNL     1     -10.662   5.516 -16.977  1.00  0.00    -0.237 OA
ATOM     90  O   UNL     1      -9.244   7.046 -15.664  1.00  0.00    -0.744 OA
ENDBRANCH  86  87
ENDBRANCH  67  81
BRANCH  68  91
ATOM     91  C   UNL     1     -17.616   4.124  -4.138  1.00  0.00    -0.014 A 
ATOM     92  C   UNL     1     -16.886   3.682  -3.029  1.00  0.00     0.010 A 
ATOM     93  C   UNL     1     -17.708   5.500  -4.208  1.00  0.00     0.010 A 
ATOM     94  C   UNL     1     -15.712   4.383  -2.664  1.00  0.00     0.020 A 
ATOM     95  C   UNL     1     -16.649   6.244  -3.639  1.00  0.00     0.020 A 
ATOM     96  C   UNL     1     -15.472   5.676  -3.167  1.00  0.00     0.054 A 
BRANCH  96  97
ATOM     97  S   UNL     1     -13.537   6.497  -3.624  1.00  0.00     0.124 S 
ATOM     98  O   UNL     1     -12.494   5.883  -2.893  1.00  0.00    -0.237 OA
ATOM     99  O   UNL     1     -13.301   6.126  -5.015  1.00  0.00    -0.237 OA
ATOM    100  O   UNL     1     -13.497   7.876  -3.247  1.00  0.00    -0.744 OA
ENDBRANCH  96  97
ENDBRANCH  68  91
BRANCH  80 101
ATOM    101  C   UNL     1     -19.480   3.698 -11.206  1.00  0.00    -0.014 A 
ATOM    102  C   UNL     1     -20.852   3.447 -11.102  1.00  0.00     0.010 A 
ATOM    103  C   UNL     1     -19.004   4.060 -12.493  1.00  0.00     0.010 A 
ATOM    104  C   UNL     1     -21.708   3.611 -12.200  1.00  0.00     0.020 A 
ATOM    105  C   UNL     1     -19.841   4.229 -13.594  1.00  0.00     0.020 A 
ATOM    106  C   UNL     1     -21.198   4.011 -13.436  1.00  0.00     0.054 A 
BRANCH 106 107
ATOM    107  S   UNL     1     -22.326   4.211 -14.828  1.00  0.00     0.124 S 
ATOM    108  O   UNL     1     -22.891   2.870 -14.960  1.00  0.00    -0.237 OA
ATOM    109  O   UNL     1     -23.247   5.232 -14.333  1.00  0.00    -0.237 OA
ATOM    110  O   UNL     1     -21.462   4.633 -15.927  1.00  0.00    -0.744 OA
ENDBRANCH 106 107
ENDBRANCH  80 101
ENDBRANCH  54  55
ENDBRANCH  46  49
ENDBRANCH  44  45
ENDBRANCH  43  44
ENDBRANCH   1  43
TORSDOF 20
