REMARK SMILES CC[N@@H+]1CCO[C@H](c2nc(C)c(C(=O)NCCCNC(=O)c3ccc(-c4c5nc(c(-c6ccc(S(=O)(=O)[O-])cc6)c6ccc([nH]6)c(-c6ccc(S(=O)(=O)[O-])cc6)c6nc(c(-c7ccc(S(=O)(=O)[O-])cc7)c7ccc4[nH]7)C=C6)C=C5)cc3)s2)C1
REMARK SMILES IDX 17 1 16 2 15 3 13 4 14 5 12 7 8 8 9 9 82 10 10 11 11 12 7 13
REMARK SMILES IDX 3 14 4 15 83 16 5 18 6 19 2 20 1 21 18 22 19 23 20 24 21 26
REMARK SMILES IDX 22 27 23 28 81 29 24 30 80 31 25 32 26 33 27 34 74 35 28 36
REMARK SMILES IDX 79 37 73 38 75 39 29 40 78 41 72 42 71 43 30 45 60 46 41 47
REMARK SMILES IDX 59 48 42 49 45 50 58 51 76 52 43 53 44 54 57 56 77 57 46 58
REMARK SMILES IDX 31 59 32 60 40 61 33 62 39 63 34 64 35 65 36 66 37 67 38 68
REMARK SMILES IDX 61 69 62 70 70 71 63 72 69 73 64 74 65 75 66 76 67 77 68 78
REMARK SMILES IDX 47 79 48 80 56 81 49 82 55 83 50 84 51 85 52 86 53 87 54 88
REMARK H PARENT 15 6 3 17 19 25 75 44 45 55
REMARK Flexibility Score: inf
ROOT
ATOM      1  C   UNL     1      -5.429  -1.887  -2.758  1.00  0.00     0.042 C 
ENDROOT
BRANCH   1   2
ATOM      2  C   UNL     1      -5.121  -0.485  -2.242  1.00  0.00     0.118 C 
BRANCH   2   3
ATOM      3  N   UNL     1      -4.667  -0.562  -0.874  1.00  0.00    -0.351 N 
ATOM      4  C   UNL     1      -3.425  -0.429  -0.323  1.00  0.00     0.263 C 
ATOM      5  O   UNL     1      -3.388  -0.595   0.906  1.00  0.00    -0.268 OA
ATOM      6  H   UNL     1      -5.381  -0.744  -0.221  1.00  0.00     0.163 HD
BRANCH   4   7
ATOM      7  C   UNL     1      -2.258  -0.036  -1.084  1.00  0.00     0.115 A 
ATOM      8  C   UNL     1      -0.050   0.954  -1.484  1.00  0.00     0.128 A 
ATOM      9  N   UNL     1      -0.394   0.173  -2.487  1.00  0.00    -0.243 NA
ATOM     10  S   UNL     1      -1.292   1.166  -0.334  1.00  0.00    -0.110 S 
ATOM     11  C   UNL     1      -1.651  -0.400  -2.278  1.00  0.00     0.062 A 
ATOM     12  C   UNL     1      -2.083  -1.355  -3.329  1.00  0.00     0.068 C 
BRANCH   8  13
ATOM     13  C   UNL     1       1.320   1.583  -1.344  1.00  0.00     0.232 C 
ATOM     14  N   UNL     1       1.912   1.566   1.155  1.00  0.00    -0.331 N 
ATOM     15  C   UNL     1       1.610   3.004   1.151  1.00  0.00     0.291 C 
ATOM     16  C   UNL     1       2.188   1.051  -0.188  1.00  0.00     0.302 C 
ATOM     17  H   UNL     1       2.815   1.428   1.608  1.00  0.00     0.348 HD
ATOM     18  C   UNL     1       0.922   3.604  -0.098  1.00  0.00     0.222 C 
ATOM     19  O   UNL     1       1.268   3.020  -1.353  1.00  0.00    -0.359 OA
BRANCH  14  20
ATOM     20  C   UNL     1       1.102   0.777   2.083  1.00  0.00     0.258 C 
ATOM     21  C   UNL     1       1.146  -0.741   1.914  1.00  0.00     0.071 C 
ENDBRANCH  14  20
ENDBRANCH   8  13
ENDBRANCH   4   7
ENDBRANCH   2   3
ENDBRANCH   1   2
BRANCH   1  22
ATOM     22  C   UNL     1      -6.775  -2.414  -2.275  1.00  0.00     0.118 C 
BRANCH  22  23
ATOM     23  N   UNL     1      -7.872  -1.794  -2.990  1.00  0.00    -0.352 N 
ATOM     24  C   UNL     1      -8.652  -2.301  -4.003  1.00  0.00     0.251 C 
ATOM     25  H   UNL     1      -8.091  -0.876  -2.710  1.00  0.00     0.163 HD
ATOM     26  O   UNL     1      -9.309  -1.522  -4.699  1.00  0.00    -0.269 OA
BRANCH  24  27
ATOM     27  C   UNL     1      -8.710  -3.757  -4.263  1.00  0.00     0.039 A 
ATOM     28  C   UNL     1      -8.809  -4.207  -5.582  1.00  0.00     0.014 A 
ATOM     29  C   UNL     1      -8.738  -4.678  -3.213  1.00  0.00     0.014 A 
ATOM     30  C   UNL     1      -8.902  -5.576  -5.848  1.00  0.00     0.010 A 
ATOM     31  C   UNL     1      -8.743  -6.044  -3.480  1.00  0.00     0.010 A 
ATOM     32  C   UNL     1      -8.851  -6.508  -4.799  1.00  0.00    -0.014 A 
BRANCH  32  33
ATOM     33  C   UNL     1      -8.951  -7.968  -5.051  1.00  0.00     0.031 A 
ATOM     34  C   UNL     1     -10.118  -8.747  -4.501  1.00  0.00     0.074 A 
ATOM     35  C   UNL     1      -7.965  -8.604  -5.714  1.00  0.00     0.049 A 
ATOM     36  N   UNL     1     -10.342 -10.036  -4.538  1.00  0.00    -0.248 NA
ATOM     37  C   UNL     1     -11.154  -7.980  -3.788  1.00  0.00     0.031 C 
ATOM     38  C   UNL     1      -6.762  -7.968  -6.258  1.00  0.00     0.029 A 
ATOM     39  N   UNL     1      -7.812  -9.930  -6.033  1.00  0.00    -0.354 N 
ATOM     40  C   UNL     1     -11.523 -10.235  -3.831  1.00  0.00     0.074 A 
ATOM     41  C   UNL     1     -11.946  -8.943  -3.340  1.00  0.00     0.031 C 
ATOM     42  C   UNL     1      -6.007  -8.901  -6.861  1.00  0.00     0.029 A 
ATOM     43  C   UNL     1      -6.650 -10.203  -6.715  1.00  0.00     0.049 A 
ATOM     44  H   UNL     1      -8.472 -10.620  -5.795  1.00  0.00     0.167 HD
ATOM     45  C   UNL     1     -12.205 -11.387  -3.625  1.00  0.00     0.031 A 
ATOM     46  C   UNL     1      -6.154 -11.370  -7.168  1.00  0.00     0.031 A 
ATOM     47  C   UNL     1     -11.797 -12.666  -4.142  1.00  0.00     0.049 A 
ATOM     48  C   UNL     1      -6.942 -12.633  -6.951  1.00  0.00     0.074 A 
ATOM     49  C   UNL     1     -12.450 -13.882  -4.045  1.00  0.00     0.029 A 
ATOM     50  N   UNL     1     -10.632 -12.892  -4.859  1.00  0.00    -0.354 N 
ATOM     51  N   UNL     1      -8.086 -12.792  -6.329  1.00  0.00    -0.248 NA
ATOM     52  C   UNL     1      -6.379 -13.870  -7.508  1.00  0.00     0.031 C 
ATOM     53  C   UNL     1     -11.659 -14.852  -4.670  1.00  0.00     0.029 A 
ATOM     54  C   UNL     1     -10.538 -14.231  -5.199  1.00  0.00     0.049 A 
ATOM     55  H   UNL     1      -9.969 -12.203  -5.092  1.00  0.00     0.167 HD
ATOM     56  C   UNL     1      -8.392 -14.143  -6.440  1.00  0.00     0.074 A 
ATOM     57  C   UNL     1      -7.320 -14.753  -7.201  1.00  0.00     0.031 C 
ATOM     58  C   UNL     1      -9.464 -14.818  -5.957  1.00  0.00     0.031 A 
BRANCH  45  59
ATOM     59  C   UNL     1     -13.465 -11.315  -2.802  1.00  0.00    -0.014 A 
ATOM     60  C   UNL     1     -14.625 -10.695  -3.301  1.00  0.00     0.010 A 
ATOM     61  C   UNL     1     -13.501 -11.904  -1.525  1.00  0.00     0.010 A 
ATOM     62  C   UNL     1     -15.783 -10.626  -2.522  1.00  0.00     0.020 A 
ATOM     63  C   UNL     1     -14.666 -11.861  -0.753  1.00  0.00     0.020 A 
ATOM     64  C   UNL     1     -15.794 -11.206  -1.250  1.00  0.00     0.054 A 
BRANCH  64  65
ATOM     65  S   UNL     1     -17.316 -11.118  -0.266  1.00  0.00     0.124 S 
ATOM     66  O   UNL     1     -17.314  -9.723   0.166  1.00  0.00    -0.237 OA
ATOM     67  O   UNL     1     -18.348 -11.472  -1.238  1.00  0.00    -0.237 OA
ATOM     68  O   UNL     1     -17.101 -12.099   0.794  1.00  0.00    -0.744 OA
ENDBRANCH  64  65
ENDBRANCH  45  59
BRANCH  46  69
ATOM     69  C   UNL     1      -4.854 -11.392  -7.891  1.00  0.00    -0.014 A 
ATOM     70  C   UNL     1      -4.816 -11.601  -9.280  1.00  0.00     0.010 A 
ATOM     71  C   UNL     1      -3.650 -11.173  -7.198  1.00  0.00     0.010 A 
ATOM     72  C   UNL     1      -3.595 -11.606  -9.962  1.00  0.00     0.020 A 
ATOM     73  C   UNL     1      -2.430 -11.152  -7.880  1.00  0.00     0.020 A 
ATOM     74  C   UNL     1      -2.410 -11.379  -9.258  1.00  0.00     0.054 A 
BRANCH  74  75
ATOM     75  S   UNL     1      -0.843 -11.327 -10.172  1.00  0.00     0.124 S 
ATOM     76  O   UNL     1      -0.600 -12.741 -10.438  1.00  0.00    -0.237 OA
ATOM     77  O   UNL     1      -1.183 -10.513 -11.336  1.00  0.00    -0.237 OA
ATOM     78  O   UNL     1       0.080 -10.697  -9.230  1.00  0.00    -0.744 OA
ENDBRANCH  74  75
ENDBRANCH  46  69
BRANCH  58  79
ATOM     79  C   UNL     1      -9.548 -16.289  -6.262  1.00  0.00    -0.014 A 
ATOM     80  C   UNL     1      -8.720 -17.215  -5.604  1.00  0.00     0.010 A 
ATOM     81  C   UNL     1     -10.509 -16.752  -7.178  1.00  0.00     0.010 A 
ATOM     82  C   UNL     1      -8.834 -18.580  -5.880  1.00  0.00     0.020 A 
ATOM     83  C   UNL     1     -10.642 -18.118  -7.438  1.00  0.00     0.020 A 
ATOM     84  C   UNL     1      -9.793 -19.023  -6.797  1.00  0.00     0.054 A 
BRANCH  84  85
ATOM     85  S   UNL     1      -9.953 -20.803  -7.105  1.00  0.00     0.124 S 
ATOM     86  O   UNL     1      -8.793 -21.069  -7.952  1.00  0.00    -0.237 OA
ATOM     87  O   UNL     1      -9.892 -21.369  -5.760  1.00  0.00    -0.237 OA
ATOM     88  O   UNL     1     -11.250 -20.924  -7.767  1.00  0.00    -0.744 OA
ENDBRANCH  84  85
ENDBRANCH  58  79
ENDBRANCH  32  33
ENDBRANCH  24  27
ENDBRANCH  22  23
ENDBRANCH   1  22
TORSDOF 15
