REMARK SMILES O=C(NCCCNC(=O)c1c(F)cccc1N[C@H]1CCCc2ccccc21)c1ccc(-c2c3nc(c(-c4ccc(S(=O)(=O)[O-])cc4)c4ccc([nH]4)c(-c4ccc(S(=O)(=O)[O-])cc4)c4nc(c(-c5ccc(S(=O)(=O)[O-])cc5)c5ccc2[nH]5)C=C4)C=C3)cc1
REMARK SMILES IDX 4 1 3 2 1 3 2 4 28 6 29 7 87 8 30 9 86 10 31 11 32 12 33 13
REMARK SMILES IDX 80 14 34 15 85 16 79 17 81 18 35 19 84 20 78 21 77 22 36 24
REMARK SMILES IDX 66 25 47 26 65 27 48 28 51 29 64 30 82 31 49 32 50 33 63 35
REMARK SMILES IDX 83 36 52 37 37 38 38 39 46 40 39 41 45 42 40 43 41 44 42 45
REMARK SMILES IDX 43 46 44 47 67 48 68 49 76 50 69 51 75 52 70 53 71 54 72 55
REMARK SMILES IDX 73 56 74 57 53 58 54 59 62 60 55 61 61 62 56 63 57 64 58 65
REMARK SMILES IDX 59 66 60 67 5 68 6 69 7 70 8 71 9 73 10 74 11 75 16 76 12 77
REMARK SMILES IDX 13 78 15 79 14 80 17 81 18 83 19 84 27 85 20 86 22 87 26 88
REMARK SMILES IDX 21 89 23 90 25 91 24 92
REMARK H PARENT 3 5 81 23 51 34 7 72 17 82
REMARK Flexibility Score: inf
ROOT
ATOM      1  C   UNL     1      11.707   6.273  -0.333  1.00  0.00     0.118 C 
ENDROOT
BRANCH   1   2
ATOM      2  N   UNL     1      12.417   7.399   0.265  1.00  0.00    -0.352 N 
ATOM      3  O   UNL     1      12.818   9.124   1.650  1.00  0.00    -0.269 OA
ATOM      4  C   UNL     1      12.195   8.085   1.436  1.00  0.00     0.251 C 
ATOM      5  H   UNL     1      13.186   7.721  -0.258  1.00  0.00     0.163 HD
BRANCH   4   6
ATOM      6  C   UNL     1      11.207   7.602   2.426  1.00  0.00     0.039 A 
ATOM      7  C   UNL     1      11.075   6.242   2.699  1.00  0.00     0.014 A 
ATOM      8  C   UNL     1      10.420   8.526   3.124  1.00  0.00     0.014 A 
ATOM      9  C   UNL     1      10.045   5.796   3.517  1.00  0.00     0.010 A 
ATOM     10  C   UNL     1       9.458   8.080   4.038  1.00  0.00     0.010 A 
ATOM     11  C   UNL     1       9.235   6.707   4.215  1.00  0.00    -0.014 A 
BRANCH  11  12
ATOM     12  C   UNL     1       8.222   6.173   5.163  1.00  0.00     0.031 A 
ATOM     13  C   UNL     1       6.749   6.395   4.951  1.00  0.00     0.074 A 
ATOM     14  C   UNL     1       8.648   5.405   6.187  1.00  0.00     0.049 A 
ATOM     15  N   UNL     1       5.741   5.907   5.631  1.00  0.00    -0.248 NA
ATOM     16  C   UNL     1       6.350   7.280   3.845  1.00  0.00     0.031 C 
ATOM     17  C   UNL     1      10.054   5.136   6.509  1.00  0.00     0.029 A 
ATOM     18  N   UNL     1       7.953   4.675   7.116  1.00  0.00    -0.354 N 
ATOM     19  C   UNL     1       4.594   6.429   5.046  1.00  0.00     0.074 A 
ATOM     20  C   UNL     1       5.029   7.298   3.973  1.00  0.00     0.031 C 
ATOM     21  C   UNL     1      10.116   4.247   7.510  1.00  0.00     0.029 A 
ATOM     22  C   UNL     1       8.761   3.931   7.944  1.00  0.00     0.049 A 
ATOM     23  H   UNL     1       6.971   4.683   7.184  1.00  0.00     0.167 HD
ATOM     24  C   UNL     1       3.297   6.198   5.367  1.00  0.00     0.031 A 
ATOM     25  C   UNL     1       8.453   3.089   8.948  1.00  0.00     0.031 A 
ATOM     26  C   UNL     1       2.867   5.335   6.438  1.00  0.00     0.049 A 
ATOM     27  C   UNL     1       7.010   2.849   9.277  1.00  0.00     0.074 A 
ATOM     28  C   UNL     1       1.576   5.039   6.841  1.00  0.00     0.029 A 
ATOM     29  N   UNL     1       3.717   4.624   7.272  1.00  0.00    -0.354 N 
ATOM     30  N   UNL     1       5.942   3.346   8.700  1.00  0.00    -0.248 NA
ATOM     31  C   UNL     1       6.729   1.934  10.391  1.00  0.00     0.031 C 
ATOM     32  C   UNL     1       1.646   4.179   7.942  1.00  0.00     0.029 A 
ATOM     33  C   UNL     1       2.979   3.899   8.194  1.00  0.00     0.049 A 
ATOM     34  H   UNL     1       4.699   4.633   7.218  1.00  0.00     0.167 HD
ATOM     35  C   UNL     1       4.860   2.804   9.382  1.00  0.00     0.074 A 
ATOM     36  C   UNL     1       5.404   1.913  10.388  1.00  0.00     0.031 C 
ATOM     37  C   UNL     1       3.537   3.031   9.199  1.00  0.00     0.031 A 
BRANCH  24  38
ATOM     38  C   UNL     1       2.240   6.900   4.553  1.00  0.00    -0.014 A 
ATOM     39  C   UNL     1       1.954   6.495   3.237  1.00  0.00     0.010 A 
ATOM     40  C   UNL     1       1.483   7.937   5.129  1.00  0.00     0.010 A 
ATOM     41  C   UNL     1       0.951   7.134   2.502  1.00  0.00     0.020 A 
ATOM     42  C   UNL     1       0.464   8.563   4.405  1.00  0.00     0.020 A 
ATOM     43  C   UNL     1       0.213   8.166   3.090  1.00  0.00     0.054 A 
BRANCH  43  44
ATOM     44  S   UNL     1      -1.103   8.957   2.123  1.00  0.00     0.124 S 
ATOM     45  O   UNL     1      -0.337   9.772   1.183  1.00  0.00    -0.237 OA
ATOM     46  O   UNL     1      -1.802   7.816   1.538  1.00  0.00    -0.237 OA
ATOM     47  O   UNL     1      -1.864   9.706   3.119  1.00  0.00    -0.744 OA
ENDBRANCH  43  44
ENDBRANCH  24  38
BRANCH  25  48
ATOM     48  C   UNL     1       9.542   2.436   9.722  1.00  0.00    -0.014 A 
ATOM     49  C   UNL     1       9.777   1.054   9.618  1.00  0.00     0.010 A 
ATOM     50  C   UNL     1      10.369   3.210  10.557  1.00  0.00     0.010 A 
ATOM     51  C   UNL     1      10.807   0.456  10.349  1.00  0.00     0.020 A 
ATOM     52  C   UNL     1      11.418   2.622  11.265  1.00  0.00     0.020 A 
ATOM     53  C   UNL     1      11.621   1.245  11.169  1.00  0.00     0.054 A 
BRANCH  53  54
ATOM     54  S   UNL     1      12.986   0.463  12.073  1.00  0.00     0.124 S 
ATOM     55  O   UNL     1      12.289  -0.150  13.199  1.00  0.00    -0.237 OA
ATOM     56  O   UNL     1      13.533  -0.465  11.086  1.00  0.00    -0.237 OA
ATOM     57  O   UNL     1      13.857   1.587  12.409  1.00  0.00    -0.744 OA
ENDBRANCH  53  54
ENDBRANCH  25  48
BRANCH  37  58
ATOM     58  C   UNL     1       2.591   2.293  10.107  1.00  0.00    -0.014 A 
ATOM     59  C   UNL     1       2.461   2.652  11.460  1.00  0.00     0.010 A 
ATOM     60  C   UNL     1       1.819   1.234   9.598  1.00  0.00     0.010 A 
ATOM     61  C   UNL     1       1.608   1.934  12.301  1.00  0.00     0.020 A 
ATOM     62  C   UNL     1       0.946   0.530  10.430  1.00  0.00     0.020 A 
ATOM     63  C   UNL     1       0.862   0.872  11.782  1.00  0.00     0.054 A 
BRANCH  63  64
ATOM     64  S   UNL     1      -0.248  -0.041  12.888  1.00  0.00     0.124 S 
ATOM     65  O   UNL     1       0.687  -0.884  13.627  1.00  0.00    -0.237 OA
ATOM     66  O   UNL     1      -0.881   1.024  13.662  1.00  0.00    -0.237 OA
ATOM     67  O   UNL     1      -1.140  -0.751  11.974  1.00  0.00    -0.744 OA
ENDBRANCH  63  64
ENDBRANCH  37  58
ENDBRANCH  11  12
ENDBRANCH   4   6
ENDBRANCH   1   2
BRANCH   1  68
ATOM     68  C   UNL     1      10.956   6.654  -1.601  1.00  0.00     0.042 C 
BRANCH  68  69
ATOM     69  C   UNL     1      11.864   7.063  -2.750  1.00  0.00     0.118 C 
BRANCH  69  70
ATOM     70  N   UNL     1      12.676   5.957  -3.248  1.00  0.00    -0.352 N 
ATOM     71  C   UNL     1      12.530   5.198  -4.388  1.00  0.00     0.256 C 
ATOM     72  H   UNL     1      13.445   5.717  -2.683  1.00  0.00     0.163 HD
ATOM     73  O   UNL     1      13.254   4.221  -4.568  1.00  0.00    -0.269 OA
BRANCH  71  74
ATOM     74  C   UNL     1      11.469   5.519  -5.364  1.00  0.00     0.098 A 
ATOM     75  C   UNL     1      11.420   6.811  -5.896  1.00  0.00     0.138 A 
ATOM     76  C   UNL     1      10.531   4.541  -5.761  1.00  0.00     0.050 A 
ATOM     77  F   UNL     1      12.385   7.705  -5.625  1.00  0.00    -0.206 F 
ATOM     78  C   UNL     1      10.359   7.217  -6.691  1.00  0.00     0.040 A 
ATOM     79  C   UNL     1       9.426   4.998  -6.498  1.00  0.00     0.027 A 
ATOM     80  C   UNL     1       9.338   6.317  -6.961  1.00  0.00     0.005 A 
BRANCH  76  81
ATOM     81  N   UNL     1      10.681   3.204  -5.407  1.00  0.00    -0.377 N 
ATOM     82  H   UNL     1      11.347   2.997  -4.712  1.00  0.00     0.161 HD
BRANCH  81  83
ATOM     83  C   UNL     1       9.941   2.074  -5.976  1.00  0.00     0.110 C 
ATOM     84  C   UNL     1      10.213   1.973  -7.491  1.00  0.00     0.030 C 
ATOM     85  C   UNL     1      10.317   0.771  -5.264  1.00  0.00    -0.023 A 
ATOM     86  C   UNL     1       9.617   0.695  -8.061  1.00  0.00     0.007 C 
ATOM     87  C   UNL     1      10.469  -0.441  -5.976  1.00  0.00    -0.043 A 
ATOM     88  C   UNL     1      10.448   0.742  -3.863  1.00  0.00     0.006 A 
ATOM     89  C   UNL     1      10.334  -0.512  -7.476  1.00  0.00     0.036 C 
ATOM     90  C   UNL     1      10.804  -1.621  -5.289  1.00  0.00     0.004 A 
ATOM     91  C   UNL     1      10.772  -0.439  -3.192  1.00  0.00     0.000 A 
ATOM     92  C   UNL     1      10.957  -1.618  -3.906  1.00  0.00     0.000 A 
ENDBRANCH  81  83
ENDBRANCH  76  81
ENDBRANCH  71  74
ENDBRANCH  69  70
ENDBRANCH  68  69
ENDBRANCH   1  68
TORSDOF 15
