REMARK SMILES Cc1cc(Cl)c2c(c1)C=C(C(=O)NCCCNC(=O)c1ccc(-c3c4nc(c(-c5ccc(S(=O)(=O)[O-])cc5)c5ccc([nH]5)c(-c5ccc(S(=O)(=O)[O-])cc5)c5nc(c(-c6ccc(S(=O)(=O)[O-])cc6)c6ccc3[nH]6)C=C5)C=C4)cc1)[C@@H](C(F)(F)F)O2
REMARK SMILES IDX 16 1 15 2 14 3 13 4 11 5 12 6 10 8 1 9 2 10 3 11 8 12 4 13
REMARK SMILES IDX 7 14 5 15 6 16 9 17 85 18 80 19 81 20 82 21 83 22 84 23
REMARK SMILES IDX 17 24 18 25 19 27 20 28 21 29 79 30 22 31 78 32 23 33 24 34
REMARK SMILES IDX 25 35 72 36 26 37 77 38 71 39 73 40 27 41 76 42 70 43 69 44
REMARK SMILES IDX 28 46 58 47 39 48 57 49 40 50 43 51 56 52 74 53 41 54 42 55
REMARK SMILES IDX 55 57 75 58 44 59 29 60 30 61 38 62 31 63 37 64 32 65 33 66
REMARK SMILES IDX 34 67 35 68 36 69 59 70 60 71 68 72 61 73 67 74 62 75 63 76
REMARK SMILES IDX 64 77 65 78 66 79 45 80 46 81 54 82 47 83 53 84 48 85 49 86
REMARK SMILES IDX 50 87 51 88 52 89
REMARK H PARENT 13 7 17 26 73 45 43 56
REMARK Flexibility Score: inf
ROOT
ATOM      1  C   UNL     1      -1.301  -0.420  10.943  1.00  0.00     0.118 C 
ENDROOT
BRANCH   1   2
ATOM      2  C   UNL     1      -0.981  -1.194   9.671  1.00  0.00     0.042 C 
BRANCH   2   3
ATOM      3  C   UNL     1      -2.032  -0.985   8.591  1.00  0.00     0.118 C 
BRANCH   3   4
ATOM      4  N   UNL     1      -1.868   0.289   7.906  1.00  0.00    -0.352 N 
ATOM      5  C   UNL     1      -1.470   0.713   6.685  1.00  0.00     0.251 C 
ATOM      6  O   UNL     1      -1.506   1.936   6.514  1.00  0.00    -0.270 OA
ATOM      7  H   UNL     1      -2.112   1.045   8.488  1.00  0.00     0.163 HD
BRANCH   5   8
ATOM      8  C   UNL     1      -1.015  -0.174   5.575  1.00  0.00     0.067 C 
ATOM      9  C   UNL     1       1.056   0.113  -0.257  1.00  0.00     0.044 C 
ATOM     10  C   UNL     1       0.672  -0.526   1.044  1.00  0.00    -0.049 A 
ATOM     11  C   UNL     1       0.827  -1.907   1.212  1.00  0.00     0.028 A 
ATOM     12  C   UNL     1       0.214   0.248   2.120  1.00  0.00     0.015 A 
ATOM     13  C   UNL     1       0.516  -2.507   2.431  1.00  0.00     0.084 A 
ATOM     14  C   UNL     1      -0.104  -0.353   3.344  1.00  0.00     0.019 A 
ATOM     15  Cl  UNL     1       0.718  -4.215   2.585  1.00  0.00    -0.080 Cl
ATOM     16  C   UNL     1       0.045  -1.733   3.496  1.00  0.00     0.146 A 
ATOM     17  C   UNL     1      -0.548   0.451   4.478  1.00  0.00     0.025 C 
ATOM     18  O   UNL     1      -0.205  -2.357   4.686  1.00  0.00    -0.474 OA
ATOM     19  C   UNL     1      -1.084  -1.673   5.615  1.00  0.00     0.314 C 
BRANCH  19  20
ATOM     20  C   UNL     1      -2.520  -2.202   5.436  1.00  0.00     0.429 C 
ATOM     21  F   UNL     1      -2.615  -3.485   5.865  1.00  0.00    -0.167 F 
ATOM     22  F   UNL     1      -3.431  -1.494   6.146  1.00  0.00    -0.167 F 
ATOM     23  F   UNL     1      -2.927  -2.173   4.147  1.00  0.00    -0.167 F 
ENDBRANCH  19  20
ENDBRANCH   5   8
ENDBRANCH   3   4
ENDBRANCH   2   3
ENDBRANCH   1   2
BRANCH   1  24
ATOM     24  N   UNL     1      -2.543  -0.881  11.559  1.00  0.00    -0.352 N 
ATOM     25  C   UNL     1      -2.744  -1.649  12.676  1.00  0.00     0.251 C 
ATOM     26  H   UNL     1      -3.365  -0.594  11.099  1.00  0.00     0.163 HD
ATOM     27  O   UNL     1      -3.843  -2.171  12.865  1.00  0.00    -0.269 OA
BRANCH  25  28
ATOM     28  C   UNL     1      -1.651  -1.847  13.646  1.00  0.00     0.039 A 
ATOM     29  C   UNL     1      -1.477  -3.099  14.242  1.00  0.00     0.014 A 
ATOM     30  C   UNL     1      -0.813  -0.783  13.988  1.00  0.00     0.014 A 
ATOM     31  C   UNL     1      -0.422  -3.295  15.134  1.00  0.00     0.010 A 
ATOM     32  C   UNL     1       0.293  -1.005  14.796  1.00  0.00     0.010 A 
ATOM     33  C   UNL     1       0.490  -2.258  15.392  1.00  0.00    -0.014 A 
BRANCH  33  34
ATOM     34  C   UNL     1       1.640  -2.448  16.308  1.00  0.00     0.031 A 
ATOM     35  C   UNL     1       1.738  -1.623  17.563  1.00  0.00     0.074 A 
ATOM     36  C   UNL     1       2.620  -3.314  15.978  1.00  0.00     0.049 A 
ATOM     37  N   UNL     1       2.696  -1.589  18.451  1.00  0.00    -0.248 NA
ATOM     38  C   UNL     1       0.629  -0.693  17.846  1.00  0.00     0.031 C 
ATOM     39  C   UNL     1       2.655  -4.132  14.762  1.00  0.00     0.029 A 
ATOM     40  N   UNL     1       3.779  -3.646  16.632  1.00  0.00    -0.354 N 
ATOM     41  C   UNL     1       2.316  -0.628  19.381  1.00  0.00     0.074 A 
ATOM     42  C   UNL     1       1.067  -0.064  18.927  1.00  0.00     0.031 C 
ATOM     43  C   UNL     1       3.764  -4.891  14.774  1.00  0.00     0.029 A 
ATOM     44  C   UNL     1       4.538  -4.584  15.971  1.00  0.00     0.049 A 
ATOM     45  H   UNL     1       4.043  -3.250  17.494  1.00  0.00     0.167 HD
ATOM     46  C   UNL     1       2.941  -0.270  20.525  1.00  0.00     0.031 A 
ATOM     47  C   UNL     1       5.729  -5.128  16.291  1.00  0.00     0.031 A 
ATOM     48  C   UNL     1       4.163  -0.865  20.991  1.00  0.00     0.049 A 
ATOM     49  C   UNL     1       6.398  -4.711  17.573  1.00  0.00     0.074 A 
ATOM     50  C   UNL     1       4.837  -0.621  22.174  1.00  0.00     0.029 A 
ATOM     51  N   UNL     1       4.889  -1.823  20.303  1.00  0.00    -0.354 N 
ATOM     52  N   UNL     1       5.983  -3.853  18.475  1.00  0.00    -0.248 NA
ATOM     53  C   UNL     1       7.689  -5.339  17.886  1.00  0.00     0.031 C 
ATOM     54  C   UNL     1       6.001  -1.391  22.176  1.00  0.00     0.029 A 
ATOM     55  C   UNL     1       6.020  -2.161  21.024  1.00  0.00     0.049 A 
ATOM     56  H   UNL     1       4.638  -2.207  19.431  1.00  0.00     0.167 HD
ATOM     57  C   UNL     1       6.953  -3.856  19.472  1.00  0.00     0.074 A 
ATOM     58  C   UNL     1       7.961  -4.816  19.073  1.00  0.00     0.031 C 
ATOM     59  C   UNL     1       7.007  -3.125  20.612  1.00  0.00     0.031 A 
BRANCH  46  60
ATOM     60  C   UNL     1       2.312   0.800  21.376  1.00  0.00    -0.014 A 
ATOM     61  C   UNL     1       1.150   0.536  22.124  1.00  0.00     0.010 A 
ATOM     62  C   UNL     1       2.953   2.044  21.520  1.00  0.00     0.010 A 
ATOM     63  C   UNL     1       0.641   1.498  22.999  1.00  0.00     0.020 A 
ATOM     64  C   UNL     1       2.461   2.999  22.414  1.00  0.00     0.020 A 
ATOM     65  C   UNL     1       1.307   2.718  23.148  1.00  0.00     0.054 A 
BRANCH  65  66
ATOM     66  S   UNL     1       0.673   3.906  24.363  1.00  0.00     0.124 S 
ATOM     67  O   UNL     1      -0.587   4.322  23.751  1.00  0.00    -0.237 OA
ATOM     68  O   UNL     1       0.546   3.090  25.567  1.00  0.00    -0.237 OA
ATOM     69  O   UNL     1       1.707   4.936  24.416  1.00  0.00    -0.744 OA
ENDBRANCH  65  66
ENDBRANCH  46  60
BRANCH  47  70
ATOM     70  C   UNL     1       6.366  -6.123  15.384  1.00  0.00    -0.014 A 
ATOM     71  C   UNL     1       6.501  -7.468  15.773  1.00  0.00     0.010 A 
ATOM     72  C   UNL     1       6.853  -5.727  14.124  1.00  0.00     0.010 A 
ATOM     73  C   UNL     1       7.138  -8.389  14.935  1.00  0.00     0.020 A 
ATOM     74  C   UNL     1       7.462  -6.651  13.271  1.00  0.00     0.020 A 
ATOM     75  C   UNL     1       7.616  -7.973  13.689  1.00  0.00     0.054 A 
BRANCH  75  76
ATOM     76  S   UNL     1       8.421  -9.191  12.611  1.00  0.00     0.124 S 
ATOM     77  O   UNL     1       9.680  -9.428  13.309  1.00  0.00    -0.237 OA
ATOM     78  O   UNL     1       7.470 -10.299  12.625  1.00  0.00    -0.237 OA
ATOM     79  O   UNL     1       8.535  -8.493  11.332  1.00  0.00    -0.744 OA
ENDBRANCH  75  76
ENDBRANCH  47  70
BRANCH  59  80
ATOM     80  C   UNL     1       8.181  -3.343  21.527  1.00  0.00    -0.014 A 
ATOM     81  C   UNL     1       9.459  -2.865  21.190  1.00  0.00     0.010 A 
ATOM     82  C   UNL     1       7.981  -3.952  22.780  1.00  0.00     0.010 A 
ATOM     83  C   UNL     1      10.522  -3.011  22.083  1.00  0.00     0.020 A 
ATOM     84  C   UNL     1       9.035  -4.072  23.687  1.00  0.00     0.020 A 
ATOM     85  C   UNL     1      10.302  -3.609  23.328  1.00  0.00     0.054 A 
BRANCH  85  86
ATOM     86  S   UNL     1      11.688  -3.728  24.491  1.00  0.00     0.124 S 
ATOM     87  O   UNL     1      12.534  -4.734  23.854  1.00  0.00    -0.237 OA
ATOM     88  O   UNL     1      12.222  -2.368  24.491  1.00  0.00    -0.237 OA
ATOM     89  O   UNL     1      11.059  -4.146  25.742  1.00  0.00    -0.744 OA
ENDBRANCH  85  86
ENDBRANCH  59  80
ENDBRANCH  33  34
ENDBRANCH  25  28
ENDBRANCH   1  24
TORSDOF 14
