REMARK SMILES Cc1ncc(CO)c([C@H]2[NH2+][C@@H](C(=O)NCCCNC(=O)c3ccc(-c4c5nc(c(-c6ccc(S(=O)(=O)[O-])cc6)c6ccc([nH]6)c(-c6ccc(S(=O)(=O)[O-])cc6)c6nc(c(-c7ccc(S(=O)(=O)[O-])cc7)c7ccc4[nH]7)C=C6)C=C5)cc3)Cc3[nH]cnc32)c1O
REMARK SMILES IDX 16 1 15 2 14 3 12 4 13 5 11 7 9 8 10 9 86 10 82 13 85 14
REMARK SMILES IDX 81 15 83 16 84 17 8 19 1 20 2 21 3 22 87 23 4 24 5 25 88 26
REMARK SMILES IDX 6 28 7 29 17 31 18 32 19 33 20 35 21 36 22 37 80 38 23 39
REMARK SMILES IDX 79 40 24 41 25 42 26 43 73 44 27 45 78 46 72 47 74 48 28 49
REMARK SMILES IDX 77 50 71 51 70 52 29 54 59 55 40 56 58 57 41 58 44 59 57 60
REMARK SMILES IDX 75 61 42 62 43 63 56 65 76 66 45 67 30 68 31 69 39 70 32 71
REMARK SMILES IDX 38 72 33 73 34 74 35 75 36 76 37 77 60 78 61 79 69 80 62 81
REMARK SMILES IDX 68 82 63 83 64 84 65 85 66 86 67 87 46 88 47 89 55 90 48 91
REMARK SMILES IDX 54 92 49 93 50 94 51 95 52 96 53 97
REMARK H PARENT 14 6 10 11 10 12 83 18 88 27 7 30 18 34 74 53 44 64
REMARK Flexibility Score: inf
ROOT
ATOM      1  C   UNL     1      -5.313   2.931   0.106  1.00  0.00     0.042 C 
ENDROOT
BRANCH   1   2
ATOM      2  C   UNL     1      -4.780   4.189   0.800  1.00  0.00     0.118 C 
BRANCH   2   3
ATOM      3  N   UNL     1      -4.149   3.924   2.087  1.00  0.00    -0.351 N 
ATOM      4  C   UNL     1      -2.815   3.910   2.415  1.00  0.00     0.278 C 
ATOM      5  O   UNL     1      -2.493   3.763   3.591  1.00  0.00    -0.268 OA
ATOM      6  H   UNL     1      -4.767   3.728   2.828  1.00  0.00     0.163 HD
BRANCH   4   7
ATOM      7  C   UNL     1      -1.809   4.038   1.276  1.00  0.00     0.279 C 
ATOM      8  C   UNL     1      -0.150   2.874   0.025  1.00  0.00     0.270 C 
ATOM      9  N   UNL     1      -0.744   3.008   1.377  1.00  0.00    -0.324 N 
ATOM     10  C   UNL     1       0.502   4.183  -0.325  1.00  0.00     0.124 A 
ATOM     11  H   UNL     1      -0.032   3.303   2.045  1.00  0.00     0.347 HD
ATOM     12  H   UNL     1      -1.123   2.119   1.701  1.00  0.00     0.347 HD
ATOM     13  C   UNL     1      -0.058   5.365   0.160  1.00  0.00     0.051 A 
ATOM     14  N   UNL     1       1.352   4.473  -1.363  1.00  0.00    -0.235 NA
ATOM     15  C   UNL     1      -1.184   5.449   1.152  1.00  0.00     0.131 C 
ATOM     16  N   UNL     1       0.523   6.378  -0.535  1.00  0.00    -0.348 N 
ATOM     17  C   UNL     1       1.366   5.790  -1.443  1.00  0.00     0.197 A 
ATOM     18  H   UNL     1       0.370   7.343  -0.410  1.00  0.00     0.167 HD
BRANCH   8  19
ATOM     19  C   UNL     1       0.464   1.512  -0.150  1.00  0.00     0.066 A 
ATOM     20  C   UNL     1      -1.166  -1.981  -0.108  1.00  0.00     0.071 C 
ATOM     21  C   UNL     1      -0.141  -0.886  -0.187  1.00  0.00     0.079 A 
ATOM     22  N   UNL     1       1.153  -1.252  -0.193  1.00  0.00    -0.257 NA
ATOM     23  C   UNL     1      -0.505   0.456  -0.206  1.00  0.00     0.146 A 
ATOM     24  C   UNL     1       2.074  -0.258  -0.136  1.00  0.00     0.118 A 
ATOM     25  C   UNL     1       1.806   1.122  -0.083  1.00  0.00     0.009 A 
BRANCH  23  26
ATOM     26  O   UNL     1      -1.856   0.739  -0.173  1.00  0.00    -0.505 OA
ATOM     27  H   UNL     1      -2.482   0.043  -0.210  1.00  0.00     0.293 HD
ENDBRANCH  23  26
BRANCH  25  28
ATOM     28  C   UNL     1       2.988   2.031   0.071  1.00  0.00     0.194 C 
BRANCH  28  29
ATOM     29  O   UNL     1       3.736   1.667   1.230  1.00  0.00    -0.392 OA
ATOM     30  H   UNL     1       3.173   1.744   2.016  1.00  0.00     0.211 HD
ENDBRANCH  28  29
ENDBRANCH  25  28
ENDBRANCH   8  19
ENDBRANCH   4   7
ENDBRANCH   2   3
ENDBRANCH   1   2
BRANCH   1  31
ATOM     31  C   UNL     1      -6.565   2.402   0.784  1.00  0.00     0.118 C 
BRANCH  31  32
ATOM     32  N   UNL     1      -7.692   3.346   0.721  1.00  0.00    -0.352 N 
ATOM     33  C   UNL     1      -8.972   3.198   1.221  1.00  0.00     0.251 C 
ATOM     34  H   UNL     1      -7.510   4.197   0.262  1.00  0.00     0.163 HD
ATOM     35  O   UNL     1      -9.882   3.931   0.828  1.00  0.00    -0.269 OA
BRANCH  33  36
ATOM     36  C   UNL     1      -9.223   2.157   2.229  1.00  0.00     0.039 A 
ATOM     37  C   UNL     1     -10.388   1.385   2.253  1.00  0.00     0.014 A 
ATOM     38  C   UNL     1      -8.206   1.926   3.145  1.00  0.00     0.014 A 
ATOM     39  C   UNL     1     -10.471   0.335   3.167  1.00  0.00     0.010 A 
ATOM     40  C   UNL     1      -8.180   0.757   3.842  1.00  0.00     0.010 A 
ATOM     41  C   UNL     1      -9.348   0.021   3.948  1.00  0.00    -0.014 A 
BRANCH  41  42
ATOM     42  C   UNL     1      -9.297  -1.128   4.838  1.00  0.00     0.031 A 
ATOM     43  C   UNL     1      -9.549  -2.422   4.159  1.00  0.00     0.074 A 
ATOM     44  C   UNL     1      -8.804  -1.043   6.096  1.00  0.00     0.049 A 
ATOM     45  N   UNL     1     -10.607  -3.154   4.246  1.00  0.00    -0.248 NA
ATOM     46  C   UNL     1      -8.600  -2.866   3.123  1.00  0.00     0.031 C 
ATOM     47  C   UNL     1      -8.219   0.127   6.773  1.00  0.00     0.029 A 
ATOM     48  N   UNL     1      -8.604  -2.029   7.008  1.00  0.00    -0.354 N 
ATOM     49  C   UNL     1     -10.345  -4.283   3.480  1.00  0.00     0.074 A 
ATOM     50  C   UNL     1      -9.220  -3.948   2.645  1.00  0.00     0.031 C 
ATOM     51  C   UNL     1      -7.523  -0.273   7.861  1.00  0.00     0.029 A 
ATOM     52  C   UNL     1      -7.767  -1.687   8.067  1.00  0.00     0.049 A 
ATOM     53  H   UNL     1      -9.020  -2.918   6.926  1.00  0.00     0.167 HD
ATOM     54  C   UNL     1     -10.886  -5.491   3.803  1.00  0.00     0.031 A 
ATOM     55  C   UNL     1      -7.304  -2.510   9.043  1.00  0.00     0.031 A 
ATOM     56  C   UNL     1     -11.915  -5.353   4.805  1.00  0.00     0.049 A 
ATOM     57  C   UNL     1      -8.224  -3.673   9.081  1.00  0.00     0.074 A 
ATOM     58  C   UNL     1     -13.128  -4.699   4.875  1.00  0.00     0.029 A 
ATOM     59  N   UNL     1     -11.534  -5.599   6.104  1.00  0.00    -0.354 N 
ATOM     60  N   UNL     1      -9.485  -3.571   9.402  1.00  0.00    -0.248 NA
ATOM     61  C   UNL     1      -7.875  -4.843   8.292  1.00  0.00     0.031 C 
ATOM     62  C   UNL     1     -13.190  -4.183   6.203  1.00  0.00     0.029 A 
ATOM     63  C   UNL     1     -12.058  -4.614   6.900  1.00  0.00     0.049 A 
ATOM     64  H   UNL     1     -10.980  -6.354   6.410  1.00  0.00     0.167 HD
ATOM     65  C   UNL     1     -10.148  -4.394   8.502  1.00  0.00     0.074 A 
ATOM     66  C   UNL     1      -9.099  -5.228   7.914  1.00  0.00     0.031 C 
ATOM     67  C   UNL     1     -11.431  -4.124   8.114  1.00  0.00     0.031 A 
BRANCH  54  68
ATOM     68  C   UNL     1     -10.200  -6.814   3.560  1.00  0.00    -0.014 A 
ATOM     69  C   UNL     1     -10.887  -7.998   3.897  1.00  0.00     0.010 A 
ATOM     70  C   UNL     1      -8.823  -6.931   3.282  1.00  0.00     0.010 A 
ATOM     71  C   UNL     1     -10.213  -9.220   4.020  1.00  0.00     0.020 A 
ATOM     72  C   UNL     1      -8.150  -8.152   3.359  1.00  0.00     0.020 A 
ATOM     73  C   UNL     1      -8.845  -9.284   3.761  1.00  0.00     0.054 A 
BRANCH  73  74
ATOM     74  S   UNL     1      -7.968 -10.844   4.018  1.00  0.00     0.124 S 
ATOM     75  O   UNL     1      -8.092 -11.025   5.461  1.00  0.00    -0.237 OA
ATOM     76  O   UNL     1      -8.740 -11.769   3.192  1.00  0.00    -0.237 OA
ATOM     77  O   UNL     1      -6.619 -10.562   3.534  1.00  0.00    -0.744 OA
ENDBRANCH  73  74
ENDBRANCH  54  68
BRANCH  55  78
ATOM     78  C   UNL     1      -5.970  -2.508   9.700  1.00  0.00    -0.014 A 
ATOM     79  C   UNL     1      -5.730  -3.207  10.899  1.00  0.00     0.010 A 
ATOM     80  C   UNL     1      -4.846  -2.041   8.986  1.00  0.00     0.010 A 
ATOM     81  C   UNL     1      -4.417  -3.465  11.342  1.00  0.00     0.020 A 
ATOM     82  C   UNL     1      -3.537  -2.295   9.420  1.00  0.00     0.020 A 
ATOM     83  C   UNL     1      -3.327  -3.022  10.589  1.00  0.00     0.054 A 
BRANCH  83  84
ATOM     84  S   UNL     1      -1.638  -3.486  11.087  1.00  0.00     0.124 S 
ATOM     85  O   UNL     1      -1.451  -2.715  12.312  1.00  0.00    -0.237 OA
ATOM     86  O   UNL     1      -1.742  -4.932  11.262  1.00  0.00    -0.237 OA
ATOM     87  O   UNL     1      -0.816  -3.061   9.956  1.00  0.00    -0.744 OA
ENDBRANCH  83  84
ENDBRANCH  55  78
BRANCH  67  88
ATOM     88  C   UNL     1     -12.209  -3.077   8.885  1.00  0.00    -0.014 A 
ATOM     89  C   UNL     1     -11.883  -1.705   8.904  1.00  0.00     0.010 A 
ATOM     90  C   UNL     1     -13.419  -3.482   9.472  1.00  0.00     0.010 A 
ATOM     91  C   UNL     1     -12.744  -0.770   9.504  1.00  0.00     0.020 A 
ATOM     92  C   UNL     1     -14.288  -2.557  10.055  1.00  0.00     0.020 A 
ATOM     93  C   UNL     1     -13.945  -1.204  10.074  1.00  0.00     0.054 A 
BRANCH  93  94
ATOM     94  S   UNL     1     -15.091   0.008  10.794  1.00  0.00     0.124 S 
ATOM     95  O   UNL     1     -14.369   0.465  11.978  1.00  0.00    -0.237 OA
ATOM     96  O   UNL     1     -15.236   0.994   9.726  1.00  0.00    -0.237 OA
ATOM     97  O   UNL     1     -16.297  -0.773  11.069  1.00  0.00    -0.744 OA
ENDBRANCH  93  94
ENDBRANCH  67  88
ENDBRANCH  41  42
ENDBRANCH  33  36
ENDBRANCH  31  32
ENDBRANCH   1  31
TORSDOF 17
