REMARK SMILES COc1ccccc1[C@@H]1C[N@@H+](Cc2cn3cc(C)ccc3n2)C[C@H]1C(=O)NCCCNC(=O)c1ccc(-c2c3nc(c(-c4ccc(S(=O)(=O)[O-])cc4)c4ccc([nH]4)c(-c4ccc(S(=O)(=O)[O-])cc4)c4nc(c(-c5ccc(S(=O)(=O)[O-])cc5)c5ccc2[nH]5)C=C4)C=C3)cc1
REMARK SMILES IDX 29 1 28 2 27 3 25 4 26 5 24 7 9 8 10 9 11 10 23 11 8 13 3 14
REMARK SMILES IDX 4 15 5 16 7 17 6 18 2 19 1 20 12 21 13 22 14 23 22 24 15 25
REMARK SMILES IDX 21 26 16 27 20 28 17 29 19 30 18 31 30 32 31 33 32 34 33 36
REMARK SMILES IDX 34 37 35 38 93 39 36 40 92 41 37 42 38 43 39 44 86 45 40 46
REMARK SMILES IDX 91 47 85 48 87 49 41 50 90 51 84 52 83 53 42 55 72 56 53 57
REMARK SMILES IDX 71 58 54 59 57 60 70 61 88 62 55 63 56 64 69 66 89 67 58 68
REMARK SMILES IDX 43 69 44 70 52 71 45 72 51 73 46 74 47 75 48 76 49 77 50 78
REMARK SMILES IDX 73 79 74 80 82 81 75 82 81 83 76 84 77 85 78 86 79 87 80 88
REMARK SMILES IDX 59 89 60 90 68 91 61 92 67 93 62 94 63 95 64 96 65 97 66 98
REMARK H PARENT 27 6 11 12 31 35 87 54 57 65
REMARK Flexibility Score: inf
ROOT
ATOM      1  C   UNL     1       6.916  -2.835  -0.058  1.00  0.00     0.042 C 
ENDROOT
BRANCH   1   2
ATOM      2  C   UNL     1       5.487  -3.017  -0.621  1.00  0.00     0.117 C 
BRANCH   2   3
ATOM      3  N   UNL     1       4.352  -3.194   0.295  1.00  0.00    -0.356 N 
ATOM      4  C   UNL     1       3.245  -2.511   0.708  1.00  0.00     0.229 C 
ATOM      5  O   UNL     1       2.521  -3.167   1.478  1.00  0.00    -0.275 OA
ATOM      6  H   UNL     1       4.406  -4.067   0.746  1.00  0.00     0.163 HD
BRANCH   4   7
ATOM      7  C   UNL     1       2.754  -1.095   0.326  1.00  0.00     0.146 C 
ATOM      8  C   UNL     1       2.637  -0.082   1.512  1.00  0.00     0.096 C 
ATOM      9  C   UNL     1       3.110   1.263   0.937  1.00  0.00     0.272 C 
ATOM     10  N   UNL     1       4.086   0.917  -0.103  1.00  0.00    -0.329 N 
ATOM     11  C   UNL     1       3.521  -0.294  -0.722  1.00  0.00     0.276 C 
ATOM     12  H   UNL     1       4.201   1.662  -0.790  1.00  0.00     0.348 HD
BRANCH   8  13
ATOM     13  C   UNL     1       1.498   0.037   2.512  1.00  0.00     0.004 A 
ATOM     14  C   UNL     1       0.232   0.600   2.312  1.00  0.00     0.122 A 
ATOM     15  C   UNL     1      -0.641   0.785   3.403  1.00  0.00     0.047 A 
ATOM     16  C   UNL     1      -0.267   0.452   4.705  1.00  0.00     0.004 A 
ATOM     17  C   UNL     1       1.845  -0.285   3.855  1.00  0.00     0.008 A 
ATOM     18  C   UNL     1       0.992  -0.070   4.935  1.00  0.00     0.001 A 
BRANCH  14  19
ATOM     19  O   UNL     1      -0.195   1.192   1.155  1.00  0.00    -0.496 OA
ATOM     20  C   UNL     1      -0.322   0.307   0.054  1.00  0.00     0.278 C 
ENDBRANCH  14  19
ENDBRANCH   8  13
BRANCH  10  21
ATOM     21  C   UNL     1       5.500   0.825   0.356  1.00  0.00     0.321 C 
BRANCH  21  22
ATOM     22  C   UNL     1       5.772   0.106   1.656  1.00  0.00     0.114 A 
ATOM     23  C   UNL     1       6.413   0.497   2.821  1.00  0.00     0.122 A 
ATOM     24  N   UNL     1       5.360  -1.189   1.805  1.00  0.00    -0.228 NA
ATOM     25  N   UNL     1       6.248  -0.542   3.722  1.00  0.00    -0.306 N 
ATOM     26  C   UNL     1       5.527  -1.516   3.061  1.00  0.00     0.137 A 
ATOM     27  C   UNL     1       6.654  -0.688   5.047  1.00  0.00     0.096 A 
ATOM     28  C   UNL     1       5.059  -2.635   3.799  1.00  0.00     0.048 A 
ATOM     29  C   UNL     1       6.287  -1.791   5.737  1.00  0.00    -0.034 A 
ATOM     30  C   UNL     1       5.414  -2.768   5.087  1.00  0.00     0.009 A 
ATOM     31  C   UNL     1       6.689  -2.063   7.149  1.00  0.00     0.046 C 
ENDBRANCH  21  22
ENDBRANCH  10  21
ENDBRANCH   4   7
ENDBRANCH   2   3
ENDBRANCH   1   2
BRANCH   1  32
ATOM     32  C   UNL     1       7.329  -3.891   0.942  1.00  0.00     0.118 C 
BRANCH  32  33
ATOM     33  N   UNL     1       8.706  -4.352   0.791  1.00  0.00    -0.352 N 
ATOM     34  C   UNL     1       9.544  -5.031   1.660  1.00  0.00     0.251 C 
ATOM     35  H   UNL     1       9.110  -4.143  -0.082  1.00  0.00     0.163 HD
ATOM     36  O   UNL     1      10.702  -5.215   1.327  1.00  0.00    -0.269 OA
BRANCH  34  37
ATOM     37  C   UNL     1       9.056  -5.555   2.967  1.00  0.00     0.039 A 
ATOM     38  C   UNL     1       9.962  -6.085   3.900  1.00  0.00     0.014 A 
ATOM     39  C   UNL     1       7.700  -5.601   3.260  1.00  0.00     0.014 A 
ATOM     40  C   UNL     1       9.473  -6.742   5.034  1.00  0.00     0.010 A 
ATOM     41  C   UNL     1       7.235  -6.047   4.457  1.00  0.00     0.010 A 
ATOM     42  C   UNL     1       8.094  -6.769   5.253  1.00  0.00    -0.014 A 
BRANCH  42  43
ATOM     43  C   UNL     1       7.447  -7.508   6.319  1.00  0.00     0.031 A 
ATOM     44  C   UNL     1       7.742  -6.983   7.664  1.00  0.00     0.074 A 
ATOM     45  C   UNL     1       6.401  -8.334   6.089  1.00  0.00     0.049 A 
ATOM     46  N   UNL     1       8.510  -7.491   8.564  1.00  0.00    -0.248 NA
ATOM     47  C   UNL     1       7.265  -5.627   7.971  1.00  0.00     0.031 C 
ATOM     48  C   UNL     1       5.716  -8.636   4.821  1.00  0.00     0.029 A 
ATOM     49  N   UNL     1       5.629  -8.982   6.996  1.00  0.00    -0.354 N 
ATOM     50  C   UNL     1       8.415  -6.632   9.650  1.00  0.00     0.074 A 
ATOM     51  C   UNL     1       7.863  -5.402   9.141  1.00  0.00     0.031 C 
ATOM     52  C   UNL     1       4.521  -9.218   5.076  1.00  0.00     0.029 A 
ATOM     53  C   UNL     1       4.432  -9.484   6.500  1.00  0.00     0.049 A 
ATOM     54  H   UNL     1       5.897  -9.088   7.938  1.00  0.00     0.167 HD
ATOM     55  C   UNL     1       8.513  -7.087  10.929  1.00  0.00     0.031 A 
ATOM     56  C   UNL     1       3.434 -10.047   7.227  1.00  0.00     0.031 A 
ATOM     57  C   UNL     1       8.968  -8.456  10.970  1.00  0.00     0.049 A 
ATOM     58  C   UNL     1       4.033 -10.450   8.526  1.00  0.00     0.074 A 
ATOM     59  C   UNL     1      10.091  -9.116  10.512  1.00  0.00     0.029 A 
ATOM     60  N   UNL     1       8.004  -9.425  11.145  1.00  0.00    -0.354 N 
ATOM     61  N   UNL     1       4.966 -11.357   8.634  1.00  0.00    -0.248 NA
ATOM     62  C   UNL     1       3.944  -9.520   9.641  1.00  0.00     0.031 C 
ATOM     63  C   UNL     1       9.598 -10.341   9.971  1.00  0.00     0.029 A 
ATOM     64  C   UNL     1       8.221 -10.402  10.204  1.00  0.00     0.049 A 
ATOM     65  H   UNL     1       7.289  -9.419  11.822  1.00  0.00     0.167 HD
ATOM     66  C   UNL     1       5.842 -10.861   9.591  1.00  0.00     0.074 A 
ATOM     67  C   UNL     1       5.106  -9.781  10.248  1.00  0.00     0.031 C 
ATOM     68  C   UNL     1       7.173 -11.178   9.566  1.00  0.00     0.031 A 
BRANCH  55  69
ATOM     69  C   UNL     1       7.814  -6.442  12.098  1.00  0.00    -0.014 A 
ATOM     70  C   UNL     1       8.083  -6.921  13.394  1.00  0.00     0.010 A 
ATOM     71  C   UNL     1       6.721  -5.561  11.955  1.00  0.00     0.010 A 
ATOM     72  C   UNL     1       7.261  -6.584  14.476  1.00  0.00     0.020 A 
ATOM     73  C   UNL     1       5.925  -5.180  13.034  1.00  0.00     0.020 A 
ATOM     74  C   UNL     1       6.179  -5.724  14.283  1.00  0.00     0.054 A 
BRANCH  74  75
ATOM     75  S   UNL     1       5.057  -5.386  15.660  1.00  0.00     0.124 S 
ATOM     76  O   UNL     1       4.447  -6.694  15.874  1.00  0.00    -0.237 OA
ATOM     77  O   UNL     1       5.975  -4.934  16.701  1.00  0.00    -0.237 OA
ATOM     78  O   UNL     1       4.167  -4.356  15.129  1.00  0.00    -0.744 OA
ENDBRANCH  74  75
ENDBRANCH  55  69
BRANCH  56  79
ATOM     79  C   UNL     1       1.967  -9.989   6.999  1.00  0.00    -0.014 A 
ATOM     80  C   UNL     1       1.089 -10.842   7.695  1.00  0.00     0.010 A 
ATOM     81  C   UNL     1       1.403  -8.896   6.308  1.00  0.00     0.010 A 
ATOM     82  C   UNL     1      -0.290 -10.572   7.755  1.00  0.00     0.020 A 
ATOM     83  C   UNL     1       0.029  -8.623   6.360  1.00  0.00     0.020 A 
ATOM     84  C   UNL     1      -0.808  -9.449   7.106  1.00  0.00     0.054 A 
BRANCH  84  85
ATOM     85  S   UNL     1      -2.555  -9.000   7.350  1.00  0.00     0.124 S 
ATOM     86  O   UNL     1      -3.252 -10.040   6.600  1.00  0.00    -0.237 OA
ATOM     87  O   UNL     1      -2.700  -9.063   8.801  1.00  0.00    -0.237 OA
ATOM     88  O   UNL     1      -2.648  -7.656   6.780  1.00  0.00    -0.744 OA
ENDBRANCH  84  85
ENDBRANCH  56  79
BRANCH  68  89
ATOM     89  C   UNL     1       7.632 -12.273   8.622  1.00  0.00    -0.014 A 
ATOM     90  C   UNL     1       7.508 -12.203   7.219  1.00  0.00     0.010 A 
ATOM     91  C   UNL     1       8.367 -13.339   9.168  1.00  0.00     0.010 A 
ATOM     92  C   UNL     1       8.083 -13.182   6.391  1.00  0.00     0.020 A 
ATOM     93  C   UNL     1       8.958 -14.307   8.350  1.00  0.00     0.020 A 
ATOM     94  C   UNL     1       8.806 -14.230   6.965  1.00  0.00     0.054 A 
BRANCH  94  95
ATOM     95  S   UNL     1       9.591 -15.468   5.894  1.00  0.00     0.124 S 
ATOM     96  O   UNL     1       8.445 -16.189   5.349  1.00  0.00    -0.237 OA
ATOM     97  O   UNL     1      10.332 -14.649   4.937  1.00  0.00    -0.237 OA
ATOM     98  O   UNL     1      10.428 -16.242   6.811  1.00  0.00    -0.744 OA
ENDBRANCH  94  95
ENDBRANCH  68  89
ENDBRANCH  42  43
ENDBRANCH  34  37
ENDBRANCH  32  33
ENDBRANCH   1  32
TORSDOF 17
