REMARK SMILES COc1cc(CC(=O)N[C@@H](CC(=O)NCCCNC(=O)c2ccc(-c3c4nc(c(-c5ccc(S(=O)(=O)[O-])cc5)c5ccc([nH]5)c(-c5ccc(S(=O)(=O)[O-])cc5)c5nc(c(-c6ccc(S(=O)(=O)[O-])cc6)c6ccc3[nH]6)C=C5)C=C4)cc2)c2cccs2)ccc1C
REMARK SMILES IDX 15 1 14 2 12 3 13 4 11 6 10 7 9 8 7 9 8 10 6 12 5 13 3 14
REMARK SMILES IDX 4 15 88 16 87 17 89 18 86 19 2 20 1 21 81 22 82 23 85 24
REMARK SMILES IDX 83 25 84 26 16 27 17 28 18 29 19 30 20 32 21 33 22 34 80 35
REMARK SMILES IDX 23 36 79 37 24 38 25 39 26 40 73 41 27 42 78 43 72 44 74 45
REMARK SMILES IDX 28 46 77 47 71 48 70 49 29 51 59 52 40 53 58 54 41 55 44 56
REMARK SMILES IDX 57 57 75 58 42 59 43 60 56 62 76 63 45 64 30 65 31 66 39 67
REMARK SMILES IDX 32 68 38 69 33 70 34 71 35 72 36 73 37 74 60 75 61 76 69 77
REMARK SMILES IDX 62 78 68 79 63 80 64 81 65 82 66 83 67 84 46 85 47 86 55 87
REMARK SMILES IDX 48 88 54 89 49 90 50 91 51 92 52 93 53 94
REMARK H PARENT 14 5 9 11 18 31 74 50 44 61
REMARK Flexibility Score: inf
ROOT
ATOM      1  C   UNL     1       3.835   5.157  -5.551  1.00  0.00     0.117 C 
ENDROOT
BRANCH   1   2
ATOM      2  N   UNL     1       3.909   3.878  -6.244  1.00  0.00    -0.356 N 
ATOM      3  C   UNL     1       3.694   2.617  -5.776  1.00  0.00     0.222 C 
ATOM      4  O   UNL     1       3.825   1.673  -6.559  1.00  0.00    -0.275 OA
ATOM      5  H   UNL     1       4.152   3.933  -7.196  1.00  0.00     0.163 HD
BRANCH   3   6
ATOM      6  C   UNL     1       3.252   2.376  -4.344  1.00  0.00     0.130 C 
BRANCH   6   7
ATOM      7  C   UNL     1       4.359   2.103  -3.314  1.00  0.00     0.131 C 
BRANCH   7   8
ATOM      8  N   UNL     1       5.025   3.308  -2.829  1.00  0.00    -0.348 N 
ATOM      9  C   UNL     1       4.815   4.127  -1.770  1.00  0.00     0.224 C 
ATOM     10  O   UNL     1       5.558   5.107  -1.669  1.00  0.00    -0.275 OA
ATOM     11  H   UNL     1       5.786   3.583  -3.389  1.00  0.00     0.164 HD
BRANCH   9  12
ATOM     12  C   UNL     1       3.845   3.813  -0.657  1.00  0.00     0.135 C 
BRANCH  12  13
ATOM     13  C   UNL     1       2.428   3.480  -1.033  1.00  0.00    -0.035 A 
ATOM     14  C   UNL     1       0.618   1.841  -1.065  1.00  0.00     0.122 A 
ATOM     15  C   UNL     1       1.925   2.204  -0.736  1.00  0.00     0.051 A 
ATOM     16  C   UNL     1      -0.212   2.775  -1.703  1.00  0.00    -0.009 A 
ATOM     17  C   UNL     1       0.277   4.068  -1.964  1.00  0.00     0.007 A 
ATOM     18  C   UNL     1      -1.632   2.458  -2.081  1.00  0.00     0.048 C 
ATOM     19  C   UNL     1       1.587   4.420  -1.631  1.00  0.00     0.005 A 
BRANCH  14  20
ATOM     20  O   UNL     1       0.090   0.599  -0.827  1.00  0.00    -0.496 OA
ATOM     21  C   UNL     1       0.783  -0.222   0.106  1.00  0.00     0.278 C 
ENDBRANCH  14  20
ENDBRANCH  12  13
ENDBRANCH   9  12
ENDBRANCH   7   8
BRANCH   7  22
ATOM     22  C   UNL     1       5.416   1.131  -3.800  1.00  0.00     0.027 A 
ATOM     23  C   UNL     1       6.642   1.375  -4.399  1.00  0.00     0.017 A 
ATOM     24  S   UNL     1       5.145  -0.561  -3.632  1.00  0.00    -0.147 S 
ATOM     25  C   UNL     1       7.358   0.180  -4.697  1.00  0.00     0.012 A 
ATOM     26  C   UNL     1       6.651  -0.945  -4.344  1.00  0.00     0.065 A 
ENDBRANCH   7  22
ENDBRANCH   6   7
ENDBRANCH   3   6
ENDBRANCH   1   2
BRANCH   1  27
ATOM     27  C   UNL     1       5.206   5.601  -5.070  1.00  0.00     0.042 C 
BRANCH  27  28
ATOM     28  C   UNL     1       5.928   6.551  -6.013  1.00  0.00     0.118 C 
BRANCH  28  29
ATOM     29  N   UNL     1       6.263   7.786  -5.307  1.00  0.00    -0.352 N 
ATOM     30  C   UNL     1       7.440   8.521  -5.279  1.00  0.00     0.251 C 
ATOM     31  H   UNL     1       5.532   8.159  -4.762  1.00  0.00     0.163 HD
ATOM     32  O   UNL     1       7.700   9.371  -4.480  1.00  0.00    -0.269 OA
BRANCH  30  33
ATOM     33  C   UNL     1       8.338   8.260  -6.420  1.00  0.00     0.039 A 
ATOM     34  C   UNL     1       8.091   9.043  -7.554  1.00  0.00     0.014 A 
ATOM     35  C   UNL     1       8.967   7.021  -6.481  1.00  0.00     0.014 A 
ATOM     36  C   UNL     1       8.264   8.475  -8.804  1.00  0.00     0.010 A 
ATOM     37  C   UNL     1       9.058   6.432  -7.722  1.00  0.00     0.010 A 
ATOM     38  C   UNL     1       8.636   7.135  -8.863  1.00  0.00    -0.014 A 
BRANCH  38  39
ATOM     39  C   UNL     1       8.557   6.355 -10.083  1.00  0.00     0.031 A 
ATOM     40  C   UNL     1       9.824   6.061 -10.782  1.00  0.00     0.074 A 
ATOM     41  C   UNL     1       7.373   5.864 -10.521  1.00  0.00     0.049 A 
ATOM     42  N   UNL     1       9.903   5.771 -12.033  1.00  0.00    -0.248 NA
ATOM     43  C   UNL     1      11.131   6.122 -10.125  1.00  0.00     0.031 C 
ATOM     44  C   UNL     1       7.178   4.873 -11.579  1.00  0.00     0.029 A 
ATOM     45  N   UNL     1       6.062   6.220 -10.201  1.00  0.00    -0.354 N 
ATOM     46  C   UNL     1      11.174   5.300 -12.259  1.00  0.00     0.074 A 
ATOM     47  C   UNL     1      11.928   5.630 -11.076  1.00  0.00     0.031 C 
ATOM     48  C   UNL     1       5.909   4.954 -12.016  1.00  0.00     0.029 A 
ATOM     49  C   UNL     1       5.314   6.117 -11.383  1.00  0.00     0.049 A 
ATOM     50  H   UNL     1       5.727   6.492  -9.316  1.00  0.00     0.167 HD
ATOM     51  C   UNL     1      11.407   4.541 -13.364  1.00  0.00     0.031 A 
ATOM     52  C   UNL     1       4.801   7.190 -12.064  1.00  0.00     0.031 A 
ATOM     53  C   UNL     1      10.216   4.436 -14.204  1.00  0.00     0.049 A 
ATOM     54  C   UNL     1       5.381   7.356 -13.474  1.00  0.00     0.074 A 
ATOM     55  C   UNL     1       9.256   3.459 -14.411  1.00  0.00     0.029 A 
ATOM     56  N   UNL     1       9.682   5.603 -14.726  1.00  0.00    -0.354 N 
ATOM     57  N   UNL     1       6.309   6.590 -13.983  1.00  0.00    -0.248 NA
ATOM     58  C   UNL     1       5.028   8.447 -14.386  1.00  0.00     0.031 C 
ATOM     59  C   UNL     1       8.141   4.061 -15.066  1.00  0.00     0.029 A 
ATOM     60  C   UNL     1       8.435   5.395 -15.279  1.00  0.00     0.049 A 
ATOM     61  H   UNL     1      10.138   6.476 -14.704  1.00  0.00     0.167 HD
ATOM     62  C   UNL     1       6.723   7.080 -15.195  1.00  0.00     0.074 A 
ATOM     63  C   UNL     1       5.878   8.242 -15.410  1.00  0.00     0.031 C 
ATOM     64  C   UNL     1       7.757   6.526 -15.899  1.00  0.00     0.031 A 
BRANCH  51  65
ATOM     65  C   UNL     1      12.640   3.691 -13.517  1.00  0.00    -0.014 A 
ATOM     66  C   UNL     1      12.549   2.470 -14.212  1.00  0.00     0.010 A 
ATOM     67  C   UNL     1      13.898   4.012 -12.970  1.00  0.00     0.010 A 
ATOM     68  C   UNL     1      13.626   1.577 -14.285  1.00  0.00     0.020 A 
ATOM     69  C   UNL     1      14.974   3.111 -13.001  1.00  0.00     0.020 A 
ATOM     70  C   UNL     1      14.828   1.893 -13.657  1.00  0.00     0.054 A 
BRANCH  70  71
ATOM     71  S   UNL     1      16.189   0.701 -13.727  1.00  0.00     0.124 S 
ATOM     72  O   UNL     1      15.585  -0.500 -13.156  1.00  0.00    -0.237 OA
ATOM     73  O   UNL     1      16.478   0.643 -15.157  1.00  0.00    -0.237 OA
ATOM     74  O   UNL     1      17.231   1.315 -12.906  1.00  0.00    -0.744 OA
ENDBRANCH  70  71
ENDBRANCH  51  65
BRANCH  52  75
ATOM     75  C   UNL     1       4.341   8.301 -11.182  1.00  0.00    -0.014 A 
ATOM     76  C   UNL     1       3.209   8.064 -10.371  1.00  0.00     0.010 A 
ATOM     77  C   UNL     1       5.204   9.356 -10.842  1.00  0.00     0.010 A 
ATOM     78  C   UNL     1       3.043   8.741  -9.158  1.00  0.00     0.020 A 
ATOM     79  C   UNL     1       5.035  10.042  -9.629  1.00  0.00     0.020 A 
ATOM     80  C   UNL     1       3.990   9.686  -8.769  1.00  0.00     0.054 A 
BRANCH  80  81
ATOM     81  S   UNL     1       3.951  10.281  -7.049  1.00  0.00     0.124 S 
ATOM     82  O   UNL     1       2.758  11.120  -7.039  1.00  0.00    -0.237 OA
ATOM     83  O   UNL     1       3.848   9.034  -6.288  1.00  0.00    -0.237 OA
ATOM     84  O   UNL     1       5.223  10.982  -6.912  1.00  0.00    -0.744 OA
ENDBRANCH  80  81
ENDBRANCH  52  75
BRANCH  64  85
ATOM     85  C   UNL     1       8.285   7.028 -17.226  1.00  0.00    -0.014 A 
ATOM     86  C   UNL     1       7.475   7.590 -18.222  1.00  0.00     0.010 A 
ATOM     87  C   UNL     1       9.650   6.831 -17.557  1.00  0.00     0.010 A 
ATOM     88  C   UNL     1       8.018   8.012 -19.448  1.00  0.00     0.020 A 
ATOM     89  C   UNL     1      10.199   7.229 -18.776  1.00  0.00     0.020 A 
ATOM     90  C   UNL     1       9.380   7.841 -19.710  1.00  0.00     0.054 A 
BRANCH  90  91
ATOM     91  S   UNL     1      10.061   8.385 -21.295  1.00  0.00     0.124 S 
ATOM     92  O   UNL     1       9.140   7.784 -22.257  1.00  0.00    -0.237 OA
ATOM     93  O   UNL     1       9.983   9.838 -21.174  1.00  0.00    -0.237 OA
ATOM     94  O   UNL     1      11.413   7.833 -21.305  1.00  0.00    -0.744 OA
ENDBRANCH  90  91
ENDBRANCH  64  85
ENDBRANCH  38  39
ENDBRANCH  30  33
ENDBRANCH  28  29
ENDBRANCH  27  28
ENDBRANCH   1  27
TORSDOF 19
