REMARK SMILES COc1cc(Cl)c2c(c1)C=C(C(=O)NCCCNC(=O)c1ccc(-c3c4nc(c(-c5ccc(S(=O)(=O)[O-])cc5)c5ccc([nH]5)c(-c5ccc(S(=O)(=O)[O-])cc5)c5nc(c(-c6ccc(S(=O)(=O)[O-])cc6)c6ccc3[nH]6)C=C5)C=C4)cc1)[C@@H](C(F)(F)F)O2
REMARK SMILES IDX 17 1 16 2 15 3 14 4 12 5 13 6 11 8 3 9 4 10 9 11 5 12 8 13
REMARK SMILES IDX 6 14 7 15 10 16 86 17 81 18 2 19 1 20 82 21 83 22 84 23
REMARK SMILES IDX 85 24 18 25 19 26 20 28 21 29 22 30 80 31 23 32 79 33 24 34
REMARK SMILES IDX 25 35 26 36 73 37 27 38 78 39 72 40 74 41 28 42 77 43 71 44
REMARK SMILES IDX 70 45 29 47 59 48 40 49 58 50 41 51 44 52 57 53 75 54 42 55
REMARK SMILES IDX 43 56 56 58 76 59 45 60 30 61 31 62 39 63 32 64 38 65 33 66
REMARK SMILES IDX 34 67 35 68 36 69 37 70 60 71 61 72 69 73 62 74 68 75 63 76
REMARK SMILES IDX 64 77 65 78 66 79 67 80 46 81 47 82 55 83 48 84 54 85 49 86
REMARK SMILES IDX 50 87 51 88 52 89 53 90
REMARK H PARENT 14 7 18 27 74 46 44 57
REMARK Flexibility Score: inf
ROOT
ATOM      1  C   UNL     1       0.378   9.743   7.344  1.00  0.00     0.118 C 
ENDROOT
BRANCH   1   2
ATOM      2  C   UNL     1       1.181   8.603   6.729  1.00  0.00     0.042 C 
BRANCH   2   3
ATOM      3  C   UNL     1       0.553   7.245   7.013  1.00  0.00     0.118 C 
BRANCH   3   4
ATOM      4  N   UNL     1      -0.584   6.980   6.143  1.00  0.00    -0.352 N 
ATOM      5  C   UNL     1      -0.864   6.178   5.091  1.00  0.00     0.251 C 
ATOM      6  O   UNL     1      -2.011   6.278   4.644  1.00  0.00    -0.270 OA
ATOM      7  H   UNL     1      -1.359   7.534   6.388  1.00  0.00     0.163 HD
BRANCH   5   8
ATOM      8  C   UNL     1       0.087   5.211   4.470  1.00  0.00     0.067 C 
ATOM      9  C   UNL     1       0.855   1.828   1.094  1.00  0.00     0.121 A 
ATOM     10  C   UNL     1       2.190   1.730   1.484  1.00  0.00     0.070 A 
ATOM     11  C   UNL     1       0.023   2.775   1.700  1.00  0.00     0.058 A 
ATOM     12  C   UNL     1       2.681   2.562   2.492  1.00  0.00     0.087 A 
ATOM     13  C   UNL     1       0.508   3.599   2.722  1.00  0.00     0.022 A 
ATOM     14  Cl  UNL     1       4.339   2.406   2.951  1.00  0.00    -0.080 Cl
ATOM     15  C   UNL     1       1.841   3.486   3.120  1.00  0.00     0.146 A 
ATOM     16  C   UNL     1      -0.351   4.590   3.359  1.00  0.00     0.025 C 
ATOM     17  O   UNL     1       2.371   4.295   4.085  1.00  0.00    -0.474 OA
ATOM     18  C   UNL     1       1.440   4.880   5.032  1.00  0.00     0.314 C 
BRANCH   9  19
ATOM     19  O   UNL     1       0.264   1.080   0.113  1.00  0.00    -0.497 OA
ATOM     20  C   UNL     1       0.880  -0.171  -0.172  1.00  0.00     0.278 C 
ENDBRANCH   9  19
BRANCH  18  21
ATOM     21  C   UNL     1       1.358   3.984   6.283  1.00  0.00     0.429 C 
ATOM     22  F   UNL     1       2.525   4.014   6.972  1.00  0.00    -0.167 F 
ATOM     23  F   UNL     1       0.392   4.378   7.147  1.00  0.00    -0.167 F 
ATOM     24  F   UNL     1       1.100   2.691   5.977  1.00  0.00    -0.167 F 
ENDBRANCH  18  21
ENDBRANCH   5   8
ENDBRANCH   3   4
ENDBRANCH   2   3
ENDBRANCH   1   2
BRANCH   1  25
ATOM     25  N   UNL     1       0.390   9.673   8.803  1.00  0.00    -0.352 N 
ATOM     26  C   UNL     1       1.171  10.355   9.699  1.00  0.00     0.251 C 
ATOM     27  H   UNL     1      -0.257   9.046   9.200  1.00  0.00     0.163 HD
ATOM     28  O   UNL     1       1.283   9.939  10.854  1.00  0.00    -0.269 OA
BRANCH  26  29
ATOM     29  C   UNL     1       1.866  11.586   9.282  1.00  0.00     0.039 A 
ATOM     30  C   UNL     1       3.180  11.815   9.697  1.00  0.00     0.014 A 
ATOM     31  C   UNL     1       1.189  12.540   8.517  1.00  0.00     0.014 A 
ATOM     32  C   UNL     1       3.831  12.986   9.306  1.00  0.00     0.010 A 
ATOM     33  C   UNL     1       1.859  13.670   8.069  1.00  0.00     0.010 A 
ATOM     34  C   UNL     1       3.177  13.913   8.480  1.00  0.00    -0.014 A 
BRANCH  34  35
ATOM     35  C   UNL     1       3.813  15.193   8.096  1.00  0.00     0.031 A 
ATOM     36  C   UNL     1       3.253  16.478   8.642  1.00  0.00     0.074 A 
ATOM     37  C   UNL     1       4.835  15.205   7.221  1.00  0.00     0.049 A 
ATOM     38  N   UNL     1       3.590  17.707   8.357  1.00  0.00    -0.248 NA
ATOM     39  C   UNL     1       2.154  16.367   9.619  1.00  0.00     0.031 C 
ATOM     40  C   UNL     1       5.443  14.021   6.609  1.00  0.00     0.029 A 
ATOM     41  N   UNL     1       5.535  16.254   6.684  1.00  0.00    -0.354 N 
ATOM     42  C   UNL     1       2.737  18.512   9.102  1.00  0.00     0.074 A 
ATOM     43  C   UNL     1       1.839  17.638   9.821  1.00  0.00     0.031 C 
ATOM     44  C   UNL     1       6.436  14.411   5.792  1.00  0.00     0.029 A 
ATOM     45  C   UNL     1       6.511  15.869   5.795  1.00  0.00     0.049 A 
ATOM     46  H   UNL     1       5.356  17.195   6.913  1.00  0.00     0.167 HD
ATOM     47  C   UNL     1       2.720  19.860   9.194  1.00  0.00     0.031 A 
ATOM     48  C   UNL     1       7.363  16.610   5.060  1.00  0.00     0.031 A 
ATOM     49  C   UNL     1       3.637  20.723   8.504  1.00  0.00     0.049 A 
ATOM     50  C   UNL     1       7.316  18.109   5.173  1.00  0.00     0.074 A 
ATOM     51  C   UNL     1       3.739  22.100   8.581  1.00  0.00     0.029 A 
ATOM     52  N   UNL     1       4.612  20.293   7.619  1.00  0.00    -0.354 N 
ATOM     53  N   UNL     1       6.529  18.851   5.914  1.00  0.00    -0.248 NA
ATOM     54  C   UNL     1       8.271  18.870   4.355  1.00  0.00     0.031 C 
ATOM     55  C   UNL     1       4.750  22.508   7.708  1.00  0.00     0.029 A 
ATOM     56  C   UNL     1       5.307  21.380   7.124  1.00  0.00     0.049 A 
ATOM     57  H   UNL     1       4.784  19.354   7.379  1.00  0.00     0.167 HD
ATOM     58  C   UNL     1       6.903  20.166   5.664  1.00  0.00     0.074 A 
ATOM     59  C   UNL     1       7.994  20.118   4.712  1.00  0.00     0.031 C 
ATOM     60  C   UNL     1       6.388  21.310   6.177  1.00  0.00     0.031 A 
BRANCH  47  61
ATOM     61  C   UNL     1       1.689  20.494  10.084  1.00  0.00    -0.014 A 
ATOM     62  C   UNL     1       1.837  20.471  11.481  1.00  0.00     0.010 A 
ATOM     63  C   UNL     1       0.615  21.199   9.514  1.00  0.00     0.010 A 
ATOM     64  C   UNL     1       0.924  21.143  12.296  1.00  0.00     0.020 A 
ATOM     65  C   UNL     1      -0.289  21.890  10.326  1.00  0.00     0.020 A 
ATOM     66  C   UNL     1      -0.126  21.859  11.712  1.00  0.00     0.054 A 
BRANCH  66  67
ATOM     67  S   UNL     1      -1.254  22.773  12.798  1.00  0.00     0.124 S 
ATOM     68  O   UNL     1      -1.815  21.707  13.624  1.00  0.00    -0.237 OA
ATOM     69  O   UNL     1      -0.350  23.691  13.486  1.00  0.00    -0.237 OA
ATOM     70  O   UNL     1      -2.196  23.400  11.874  1.00  0.00    -0.744 OA
ENDBRANCH  66  67
ENDBRANCH  47  61
BRANCH  48  71
ATOM     71  C   UNL     1       8.334  15.937   4.158  1.00  0.00    -0.014 A 
ATOM     72  C   UNL     1       9.695  15.870   4.501  1.00  0.00     0.010 A 
ATOM     73  C   UNL     1       7.896  15.328   2.968  1.00  0.00     0.010 A 
ATOM     74  C   UNL     1      10.603  15.207   3.670  1.00  0.00     0.020 A 
ATOM     75  C   UNL     1       8.797  14.647   2.144  1.00  0.00     0.020 A 
ATOM     76  C   UNL     1      10.145  14.591   2.501  1.00  0.00     0.054 A 
BRANCH  76  77
ATOM     77  S   UNL     1      11.338  13.695   1.468  1.00  0.00     0.124 S 
ATOM     78  O   UNL     1      12.274  14.750   1.092  1.00  0.00    -0.237 OA
ATOM     79  O   UNL     1      11.854  12.692   2.396  1.00  0.00    -0.237 OA
ATOM     80  O   UNL     1      10.522  13.166   0.378  1.00  0.00    -0.744 OA
ENDBRANCH  76  77
ENDBRANCH  48  71
BRANCH  60  81
ATOM     81  C   UNL     1       6.993  22.612   5.737  1.00  0.00    -0.014 A 
ATOM     82  C   UNL     1       6.678  23.161   4.482  1.00  0.00     0.010 A 
ATOM     83  C   UNL     1       7.785  23.349   6.636  1.00  0.00     0.010 A 
ATOM     84  C   UNL     1       7.150  24.428   4.133  1.00  0.00     0.020 A 
ATOM     85  C   UNL     1       8.240  24.625   6.298  1.00  0.00     0.020 A 
ATOM     86  C   UNL     1       7.918  25.157   5.047  1.00  0.00     0.054 A 
BRANCH  86  87
ATOM     87  S   UNL     1       8.461  26.824   4.585  1.00  0.00     0.124 S 
ATOM     88  O   UNL     1       9.290  26.564   3.411  1.00  0.00    -0.237 OA
ATOM     89  O   UNL     1       7.195  27.504   4.323  1.00  0.00    -0.237 OA
ATOM     90  O   UNL     1       9.186  27.294   5.764  1.00  0.00    -0.744 OA
ENDBRANCH  86  87
ENDBRANCH  60  81
ENDBRANCH  34  35
ENDBRANCH  26  29
ENDBRANCH   1  25
TORSDOF 15
