REMARK SMILES C[C@H](C(=O)NCCCNC(=O)c1ccc(-c2c3nc(c(-c4ccc(S(=O)(=O)[O-])cc4)c4ccc([nH]4)c(-c4ccc(S(=O)(=O)[O-])cc4)c4nc(c(-c5ccc(S(=O)(=O)[O-])cc5)c5ccc2[nH]5)C=C4)C=C3)cc1)n1ccc(C(=O)N(C)Cc2cnn(C)c2)n1
REMARK SMILES IDX 6 1 5 2 3 3 4 4 2 6 1 7 72 8 73 9 87 10 74 11 75 12 76 13
REMARK SMILES IDX 77 14 78 15 79 16 80 17 81 18 82 19 86 20 83 21 84 22 85 23
REMARK SMILES IDX 7 24 8 25 9 26 10 27 11 29 12 30 13 31 71 32 14 33 70 34
REMARK SMILES IDX 15 35 16 36 17 37 64 38 18 39 69 40 63 41 65 42 19 43 68 44
REMARK SMILES IDX 62 45 61 46 20 48 50 49 31 50 49 51 32 52 35 53 48 54 66 55
REMARK SMILES IDX 33 56 34 57 47 59 67 60 36 61 21 62 22 63 30 64 23 65 29 66
REMARK SMILES IDX 24 67 25 68 26 69 27 70 28 71 51 72 52 73 60 74 53 75 59 76
REMARK SMILES IDX 54 77 55 78 56 79 57 80 58 81 37 82 38 83 46 84 39 85 45 86
REMARK SMILES IDX 40 87 41 88 42 89 43 90 44 91
REMARK H PARENT 5 5 9 28 65 47 35 58
REMARK Flexibility Score: inf
ROOT
ATOM      1  C   UNL     1       1.032  -2.641   0.481  1.00  0.00     0.117 C 
ENDROOT
BRANCH   1   2
ATOM      2  N   UNL     1       1.251  -1.372  -0.191  1.00  0.00    -0.354 N 
ATOM      3  C   UNL     1       1.006  -0.090   0.215  1.00  0.00     0.244 C 
ATOM      4  O   UNL     1       1.273   0.803  -0.593  1.00  0.00    -0.273 OA
ATOM      5  H   UNL     1       1.642  -1.448  -1.091  1.00  0.00     0.163 HD
BRANCH   3   6
ATOM      6  C   UNL     1       0.489   0.201   1.621  1.00  0.00     0.193 C 
ATOM      7  C   UNL     1       1.099   1.511   2.134  1.00  0.00     0.044 C 
BRANCH   6   8
ATOM      8  N   UNL     1      -0.972   0.201   1.661  1.00  0.00    -0.260 N 
ATOM      9  C   UNL     1      -1.770  -0.883   1.889  1.00  0.00     0.110 A 
ATOM     10  N   UNL     1      -1.664   1.358   1.638  1.00  0.00    -0.167 NA
ATOM     11  C   UNL     1      -3.055  -0.408   1.916  1.00  0.00     0.056 A 
ATOM     12  C   UNL     1      -2.954   1.006   1.778  1.00  0.00     0.150 A 
BRANCH  12  13
ATOM     13  C   UNL     1      -4.120   1.916   1.845  1.00  0.00     0.274 C 
ATOM     14  O   UNL     1      -5.208   1.436   2.178  1.00  0.00    -0.267 OA
BRANCH  13  15
ATOM     15  N   UNL     1      -4.036   3.283   1.533  1.00  0.00    -0.336 N 
ATOM     16  C   UNL     1      -2.842   4.050   1.212  1.00  0.00     0.147 C 
BRANCH  15  17
ATOM     17  C   UNL     1      -5.283   4.040   1.567  1.00  0.00     0.158 C 
BRANCH  17  18
ATOM     18  C   UNL     1      -5.999   3.963   0.259  1.00  0.00     0.009 A 
ATOM     19  C   UNL     1      -6.363   2.805  -0.472  1.00  0.00     0.140 A 
ATOM     20  C   UNL     1      -6.535   4.998  -0.487  1.00  0.00     0.113 A 
ATOM     21  N   UNL     1      -7.053   3.086  -1.579  1.00  0.00    -0.181 NA
ATOM     22  N   UNL     1      -7.172   4.420  -1.547  1.00  0.00    -0.275 N 
ATOM     23  C   UNL     1      -7.967   5.074  -2.556  1.00  0.00     0.173 C 
ENDBRANCH  17  18
ENDBRANCH  15  17
ENDBRANCH  13  15
ENDBRANCH  12  13
ENDBRANCH   6   8
ENDBRANCH   3   6
ENDBRANCH   1   2
BRANCH   1  24
ATOM     24  C   UNL     1      -0.135  -3.411  -0.128  1.00  0.00     0.042 C 
BRANCH  24  25
ATOM     25  C   UNL     1       0.114  -3.885  -1.555  1.00  0.00     0.118 C 
BRANCH  25  26
ATOM     26  N   UNL     1       1.169  -4.886  -1.636  1.00  0.00    -0.352 N 
ATOM     27  C   UNL     1       1.104  -6.198  -2.041  1.00  0.00     0.251 C 
ATOM     28  H   UNL     1       2.062  -4.578  -1.359  1.00  0.00     0.163 HD
ATOM     29  O   UNL     1       2.066  -6.939  -1.852  1.00  0.00    -0.269 OA
BRANCH  27  30
ATOM     30  C   UNL     1      -0.123  -6.720  -2.679  1.00  0.00     0.039 A 
ATOM     31  C   UNL     1      -0.615  -7.970  -2.293  1.00  0.00     0.014 A 
ATOM     32  C   UNL     1      -0.789  -5.978  -3.658  1.00  0.00     0.014 A 
ATOM     33  C   UNL     1      -1.815  -8.440  -2.832  1.00  0.00     0.010 A 
ATOM     34  C   UNL     1      -2.025  -6.407  -4.129  1.00  0.00     0.010 A 
ATOM     35  C   UNL     1      -2.551  -7.643  -3.724  1.00  0.00    -0.014 A 
BRANCH  35  36
ATOM     36  C   UNL     1      -3.872  -8.070  -4.252  1.00  0.00     0.031 A 
ATOM     37  C   UNL     1      -4.061  -8.260  -5.732  1.00  0.00     0.074 A 
ATOM     38  C   UNL     1      -4.924  -8.180  -3.418  1.00  0.00     0.049 A 
ATOM     39  N   UNL     1      -5.160  -8.494  -6.402  1.00  0.00    -0.248 NA
ATOM     40  C   UNL     1      -2.858  -8.140  -6.573  1.00  0.00     0.031 C 
ATOM     41  C   UNL     1      -4.881  -7.978  -1.968  1.00  0.00     0.029 A 
ATOM     42  N   UNL     1      -6.244  -8.461  -3.674  1.00  0.00    -0.354 N 
ATOM     43  C   UNL     1      -4.788  -8.518  -7.741  1.00  0.00     0.074 A 
ATOM     44  C   UNL     1      -3.371  -8.229  -7.790  1.00  0.00     0.031 C 
ATOM     45  C   UNL     1      -6.114  -8.145  -1.464  1.00  0.00     0.029 A 
ATOM     46  C   UNL     1      -7.044  -8.417  -2.557  1.00  0.00     0.049 A 
ATOM     47  H   UNL     1      -6.585  -8.675  -4.573  1.00  0.00     0.167 HD
ATOM     48  C   UNL     1      -5.552  -8.770  -8.830  1.00  0.00     0.031 A 
ATOM     49  C   UNL     1      -8.378  -8.554  -2.424  1.00  0.00     0.031 A 
ATOM     50  C   UNL     1      -6.960  -9.059  -8.773  1.00  0.00     0.049 A 
ATOM     51  C   UNL     1      -9.213  -8.828  -3.644  1.00  0.00     0.074 A 
ATOM     52  C   UNL     1      -7.813  -9.390  -9.811  1.00  0.00     0.029 A 
ATOM     53  N   UNL     1      -7.725  -9.044  -7.615  1.00  0.00    -0.354 N 
ATOM     54  N   UNL     1      -8.832  -8.923  -4.895  1.00  0.00    -0.248 NA
ATOM     55  C   UNL     1     -10.654  -9.025  -3.435  1.00  0.00     0.031 C 
ATOM     56  C   UNL     1      -9.104  -9.519  -9.289  1.00  0.00     0.029 A 
ATOM     57  C   UNL     1      -9.044  -9.333  -7.916  1.00  0.00     0.049 A 
ATOM     58  H   UNL     1      -7.379  -8.854  -6.713  1.00  0.00     0.167 HD
ATOM     59  C   UNL     1      -9.981  -9.215  -5.621  1.00  0.00     0.074 A 
ATOM     60  C   UNL     1     -11.070  -9.290  -4.668  1.00  0.00     0.031 C 
ATOM     61  C   UNL     1     -10.118  -9.409  -6.956  1.00  0.00     0.031 A 
BRANCH  48  62
ATOM     62  C   UNL     1      -4.876  -8.720 -10.176  1.00  0.00    -0.014 A 
ATOM     63  C   UNL     1      -3.910  -9.675 -10.545  1.00  0.00     0.010 A 
ATOM     64  C   UNL     1      -5.211  -7.702 -11.088  1.00  0.00     0.010 A 
ATOM     65  C   UNL     1      -3.244  -9.573 -11.769  1.00  0.00     0.020 A 
ATOM     66  C   UNL     1      -4.572  -7.617 -12.329  1.00  0.00     0.020 A 
ATOM     67  C   UNL     1      -3.573  -8.538 -12.649  1.00  0.00     0.054 A 
BRANCH  67  68
ATOM     68  S   UNL     1      -2.679  -8.418 -14.222  1.00  0.00     0.124 S 
ATOM     69  O   UNL     1      -1.375  -7.922 -13.789  1.00  0.00    -0.237 OA
ATOM     70  O   UNL     1      -2.696  -9.796 -14.708  1.00  0.00    -0.237 OA
ATOM     71  O   UNL     1      -3.475  -7.476 -15.004  1.00  0.00    -0.744 OA
ENDBRANCH  67  68
ENDBRANCH  48  62
BRANCH  49  72
ATOM     72  C   UNL     1      -8.993  -8.432  -1.074  1.00  0.00    -0.014 A 
ATOM     73  C   UNL     1      -9.475  -9.568  -0.401  1.00  0.00     0.010 A 
ATOM     74  C   UNL     1      -9.046  -7.182  -0.429  1.00  0.00     0.010 A 
ATOM     75  C   UNL     1      -9.995  -9.457   0.892  1.00  0.00     0.020 A 
ATOM     76  C   UNL     1      -9.540  -7.071   0.874  1.00  0.00     0.020 A 
ATOM     77  C   UNL     1     -10.016  -8.211   1.525  1.00  0.00     0.054 A 
BRANCH  77  78
ATOM     78  S   UNL     1     -10.611  -8.110   3.237  1.00  0.00     0.124 S 
ATOM     79  O   UNL     1     -12.050  -8.285   3.070  1.00  0.00    -0.237 OA
ATOM     80  O   UNL     1      -9.909  -9.219   3.879  1.00  0.00    -0.237 OA
ATOM     81  O   UNL     1     -10.185  -6.781   3.670  1.00  0.00    -0.744 OA
ENDBRANCH  77  78
ENDBRANCH  49  72
BRANCH  61  82
ATOM     82  C   UNL     1     -11.486  -9.761  -7.479  1.00  0.00    -0.014 A 
ATOM     83  C   UNL     1     -12.501  -8.794  -7.579  1.00  0.00     0.010 A 
ATOM     84  C   UNL     1     -11.720 -11.057  -7.975  1.00  0.00     0.010 A 
ATOM     85  C   UNL     1     -13.729  -9.120  -8.163  1.00  0.00     0.020 A 
ATOM     86  C   UNL     1     -12.937 -11.379  -8.582  1.00  0.00     0.020 A 
ATOM     87  C   UNL     1     -13.936 -10.408  -8.668  1.00  0.00     0.054 A 
BRANCH  87  88
ATOM     88  S   UNL     1     -15.505 -10.778  -9.500  1.00  0.00     0.124 S 
ATOM     89  O   UNL     1     -16.439 -10.830  -8.379  1.00  0.00    -0.237 OA
ATOM     90  O   UNL     1     -15.666  -9.639 -10.401  1.00  0.00    -0.237 OA
ATOM     91  O   UNL     1     -15.254 -12.057 -10.162  1.00  0.00    -0.744 OA
ENDBRANCH  87  88
ENDBRANCH  61  82
ENDBRANCH  35  36
ENDBRANCH  27  30
ENDBRANCH  25  26
ENDBRANCH  24  25
ENDBRANCH   1  24
TORSDOF 18
