REMARK SMILES Cc1ccc(S(=O)(=O)n2cc(C(=O)C(=O)N[C@@H](Cc3cnc[nH]3)C(=O)NCCCNC(=O)c3ccc(-c4c5nc(c(-c6ccc(S(=O)(=O)[O-])cc6)c6ccc([nH]6)c(-c6ccc(S(=O)(=O)[O-])cc6)c6nc(c(-c7ccc(S(=O)(=O)[O-])cc7)c7ccc4[nH]7)C=C6)C=C5)cc3)c3ccccc32)cc1
REMARK SMILES IDX 27 1 26 2 24 3 25 4 17 6 16 7 14 8 15 9 12 11 13 12 11 13
REMARK SMILES IDX 9 14 10 15 98 16 93 17 97 18 94 19 96 20 95 21 6 22 7 23
REMARK SMILES IDX 8 24 5 25 1 26 2 27 3 28 100 29 4 30 99 31 18 32 19 33 20 34
REMARK SMILES IDX 23 35 21 36 22 37 28 39 29 40 30 41 31 42 32 44 33 45 34 46
REMARK SMILES IDX 92 47 35 48 91 49 36 50 37 51 38 52 85 53 39 54 90 55 84 56
REMARK SMILES IDX 86 57 40 58 89 59 83 60 82 61 41 63 71 64 52 65 70 66 53 67
REMARK SMILES IDX 56 68 69 69 87 70 54 71 55 72 68 74 88 75 57 76 42 77 43 78
REMARK SMILES IDX 51 79 44 80 50 81 45 82 46 83 47 84 48 85 49 86 72 87 73 88
REMARK SMILES IDX 81 89 74 90 80 91 75 92 76 93 77 94 78 95 79 96 58 97 59 98
REMARK SMILES IDX 67 99 60 100 66 101 61 102 62 103 63 104 64 105 65 106
REMARK H PARENT 26 5 16 10 23 38 30 43 86 62 56 73
REMARK Flexibility Score: inf
ROOT
ATOM      1  C   UNL     1      -8.775   6.221   5.867  1.00  0.00     0.117 C 
ENDROOT
BRANCH   1   2
ATOM      2  N   UNL     1      -7.756   7.049   5.250  1.00  0.00    -0.354 N 
ATOM      3  C   UNL     1      -7.498   7.280   3.931  1.00  0.00     0.242 C 
ATOM      4  O   UNL     1      -6.808   8.268   3.654  1.00  0.00    -0.273 OA
ATOM      5  H   UNL     1      -7.159   7.515   5.880  1.00  0.00     0.163 HD
BRANCH   3   6
ATOM      6  C   UNL     1      -8.097   6.421   2.789  1.00  0.00     0.177 C 
BRANCH   6   7
ATOM      7  N   UNL     1      -7.885   4.978   2.997  1.00  0.00    -0.337 N 
ATOM      8  C   UNL     1      -6.964   4.106   2.439  1.00  0.00     0.293 C 
ATOM      9  O   UNL     1      -6.839   2.997   2.951  1.00  0.00    -0.265 OA
ATOM     10  H   UNL     1      -8.502   4.562   3.642  1.00  0.00     0.164 HD
BRANCH   8  11
ATOM     11  C   UNL     1      -6.140   4.469   1.168  1.00  0.00     0.252 C 
ATOM     12  O   UNL     1      -6.270   5.589   0.686  1.00  0.00    -0.283 OA
BRANCH  11  13
ATOM     13  C   UNL     1      -5.264   3.494   0.480  1.00  0.00     0.054 A 
ATOM     14  N   UNL     1      -4.171   1.639  -0.129  1.00  0.00    -0.240 N 
ATOM     15  C   UNL     1      -4.967   2.192   0.844  1.00  0.00     0.117 A 
ATOM     16  C   UNL     1      -3.917   2.538  -1.141  1.00  0.00     0.065 A 
ATOM     17  C   UNL     1      -4.550   3.729  -0.758  1.00  0.00     0.012 A 
ATOM     18  C   UNL     1      -3.183   2.436  -2.339  1.00  0.00     0.028 A 
ATOM     19  C   UNL     1      -4.408   4.856  -1.599  1.00  0.00     0.011 A 
ATOM     20  C   UNL     1      -3.062   3.572  -3.143  1.00  0.00     0.002 A 
ATOM     21  C   UNL     1      -3.659   4.770  -2.776  1.00  0.00     0.001 A 
BRANCH  14  22
ATOM     22  S   UNL     1      -3.587   0.038  -0.092  1.00  0.00     0.268 S 
ATOM     23  O   UNL     1      -3.923  -0.519  -1.383  1.00  0.00    -0.201 OA
ATOM     24  O   UNL     1      -4.084  -0.543   1.147  1.00  0.00    -0.201 OA
BRANCH  22  25
ATOM     25  C   UNL     1      -1.817   0.086   0.028  1.00  0.00     0.088 A 
ATOM     26  C   UNL     1       2.485  -0.035   0.069  1.00  0.00     0.044 C 
ATOM     27  C   UNL     1       0.985   0.013   0.062  1.00  0.00    -0.051 A 
ATOM     28  C   UNL     1       0.251  -1.170  -0.080  1.00  0.00     0.005 A 
ATOM     29  C   UNL     1       0.302   1.226   0.217  1.00  0.00     0.005 A 
ATOM     30  C   UNL     1      -1.144  -1.135  -0.104  1.00  0.00     0.022 A 
ATOM     31  C   UNL     1      -1.096   1.267   0.211  1.00  0.00     0.022 A 
ENDBRANCH  22  25
ENDBRANCH  14  22
ENDBRANCH  11  13
ENDBRANCH   8  11
ENDBRANCH   6   7
BRANCH   6  32
ATOM     32  C   UNL     1      -9.526   6.822   2.350  1.00  0.00     0.090 C 
BRANCH  32  33
ATOM     33  C   UNL     1     -10.658   6.428   3.240  1.00  0.00     0.037 A 
ATOM     34  C   UNL     1     -11.300   5.223   3.442  1.00  0.00     0.134 A 
ATOM     35  N   UNL     1     -11.278   7.297   4.115  1.00  0.00    -0.348 N 
ATOM     36  N   UNL     1     -12.205   5.316   4.465  1.00  0.00    -0.245 NA
ATOM     37  C   UNL     1     -12.157   6.566   4.867  1.00  0.00     0.196 A 
ATOM     38  H   UNL     1     -11.118   8.266   4.185  1.00  0.00     0.167 HD
ENDBRANCH  32  33
ENDBRANCH   6  32
ENDBRANCH   3   6
ENDBRANCH   1   2
BRANCH   1  39
ATOM     39  C   UNL     1      -8.246   5.023   6.622  1.00  0.00     0.042 C 
BRANCH  39  40
ATOM     40  C   UNL     1      -8.248   5.266   8.115  1.00  0.00     0.118 C 
BRANCH  40  41
ATOM     41  N   UNL     1      -9.488   4.907   8.802  1.00  0.00    -0.352 N 
ATOM     42  C   UNL     1      -9.782   5.042  10.155  1.00  0.00     0.251 C 
ATOM     43  H   UNL     1     -10.200   4.524   8.240  1.00  0.00     0.163 HD
ATOM     44  O   UNL     1     -10.800   4.563  10.635  1.00  0.00    -0.269 OA
BRANCH  42  45
ATOM     45  C   UNL     1      -8.849   5.836  10.987  1.00  0.00     0.039 A 
ATOM     46  C   UNL     1      -9.326   6.967  11.657  1.00  0.00     0.014 A 
ATOM     47  C   UNL     1      -7.486   5.622  10.845  1.00  0.00     0.014 A 
ATOM     48  C   UNL     1      -8.437   7.994  11.978  1.00  0.00     0.010 A 
ATOM     49  C   UNL     1      -6.651   6.705  10.981  1.00  0.00     0.010 A 
ATOM     50  C   UNL     1      -7.122   7.905  11.529  1.00  0.00    -0.014 A 
BRANCH  50  51
ATOM     51  C   UNL     1      -6.138   8.984  11.542  1.00  0.00     0.031 A 
ATOM     52  C   UNL     1      -4.895   8.807  12.343  1.00  0.00     0.074 A 
ATOM     53  C   UNL     1      -6.249  10.023  10.680  1.00  0.00     0.049 A 
ATOM     54  N   UNL     1      -4.024   9.730  12.561  1.00  0.00    -0.248 NA
ATOM     55  C   UNL     1      -4.550   7.547  13.003  1.00  0.00     0.031 C 
ATOM     56  C   UNL     1      -5.173  10.913  10.248  1.00  0.00     0.029 A 
ATOM     57  N   UNL     1      -7.398  10.626  10.163  1.00  0.00    -0.354 N 
ATOM     58  C   UNL     1      -2.906   9.138  13.109  1.00  0.00     0.074 A 
ATOM     59  C   UNL     1      -3.301   7.786  13.408  1.00  0.00     0.031 C 
ATOM     60  C   UNL     1      -5.710  12.068   9.827  1.00  0.00     0.029 A 
ATOM     61  C   UNL     1      -7.129  12.007  10.124  1.00  0.00     0.049 A 
ATOM     62  H   UNL     1      -8.227  10.176   9.882  1.00  0.00     0.167 HD
ATOM     63  C   UNL     1      -1.735   9.831  13.145  1.00  0.00     0.031 A 
ATOM     64  C   UNL     1      -7.818  12.947  10.838  1.00  0.00     0.031 A 
ATOM     65  C   UNL     1      -1.932  11.216  12.733  1.00  0.00     0.049 A 
ATOM     66  C   UNL     1      -6.936  13.748  11.775  1.00  0.00     0.074 A 
ATOM     67  C   UNL     1      -1.725  11.901  11.547  1.00  0.00     0.029 A 
ATOM     68  N   UNL     1      -2.712  12.036  13.535  1.00  0.00    -0.354 N 
ATOM     69  N   UNL     1      -5.711  13.417  12.078  1.00  0.00    -0.248 NA
ATOM     70  C   UNL     1      -7.365  14.956  12.478  1.00  0.00     0.031 C 
ATOM     71  C   UNL     1      -2.472  13.109  11.610  1.00  0.00     0.029 A 
ATOM     72  C   UNL     1      -3.096  13.167  12.844  1.00  0.00     0.049 A 
ATOM     73  H   UNL     1      -2.957  11.838  14.468  1.00  0.00     0.167 HD
ATOM     74  C   UNL     1      -5.197  14.301  12.988  1.00  0.00     0.074 A 
ATOM     75  C   UNL     1      -6.268  15.258  13.197  1.00  0.00     0.031 C 
ATOM     76  C   UNL     1      -3.940  14.155  13.502  1.00  0.00     0.031 A 
BRANCH  63  77
ATOM     77  C   UNL     1      -0.373   9.210  13.346  1.00  0.00    -0.014 A 
ATOM     78  C   UNL     1       0.766   9.875  12.846  1.00  0.00     0.010 A 
ATOM     79  C   UNL     1      -0.141   7.967  13.964  1.00  0.00     0.010 A 
ATOM     80  C   UNL     1       2.046   9.304  12.893  1.00  0.00     0.020 A 
ATOM     81  C   UNL     1       1.128   7.368  13.993  1.00  0.00     0.020 A 
ATOM     82  C   UNL     1       2.216   8.039  13.448  1.00  0.00     0.054 A 
BRANCH  82  83
ATOM     83  S   UNL     1       3.864   7.289  13.452  1.00  0.00     0.124 S 
ATOM     84  O   UNL     1       4.198   7.258  12.030  1.00  0.00    -0.237 OA
ATOM     85  O   UNL     1       4.635   8.227  14.261  1.00  0.00    -0.237 OA
ATOM     86  O   UNL     1       3.647   5.977  14.061  1.00  0.00    -0.744 OA
ENDBRANCH  82  83
ENDBRANCH  63  77
BRANCH  64  87
ATOM     87  C   UNL     1      -9.250  12.609  11.067  1.00  0.00    -0.014 A 
ATOM     88  C   UNL     1     -10.095  12.674   9.939  1.00  0.00     0.010 A 
ATOM     89  C   UNL     1      -9.617  11.792  12.152  1.00  0.00     0.010 A 
ATOM     90  C   UNL     1     -11.151  11.773   9.797  1.00  0.00     0.020 A 
ATOM     91  C   UNL     1     -10.685  10.893  12.014  1.00  0.00     0.020 A 
ATOM     92  C   UNL     1     -11.381  10.833  10.802  1.00  0.00     0.054 A 
BRANCH  92  93
ATOM     93  S   UNL     1     -12.402   9.386  10.384  1.00  0.00     0.124 S 
ATOM     94  O   UNL     1     -13.656   9.998   9.959  1.00  0.00    -0.237 OA
ATOM     95  O   UNL     1     -11.611   8.770   9.319  1.00  0.00    -0.237 OA
ATOM     96  O   UNL     1     -12.453   8.641  11.637  1.00  0.00    -0.744 OA
ENDBRANCH  92  93
ENDBRANCH  64  87
BRANCH  76  97
ATOM     97  C   UNL     1      -3.340  14.930  14.651  1.00  0.00    -0.014 A 
ATOM     98  C   UNL     1      -4.087  15.574  15.648  1.00  0.00     0.010 A 
ATOM     99  C   UNL     1      -1.933  14.888  14.831  1.00  0.00     0.010 A 
ATOM    100  C   UNL     1      -3.459  16.185  16.745  1.00  0.00     0.020 A 
ATOM    101  C   UNL     1      -1.303  15.451  15.943  1.00  0.00     0.020 A 
ATOM    102  C   UNL     1      -2.071  16.119  16.885  1.00  0.00     0.054 A 
BRANCH 102 103
ATOM    103  S   UNL     1      -1.275  16.843  18.342  1.00  0.00     0.124 S 
ATOM    104  O   UNL     1      -1.025  18.211  17.898  1.00  0.00    -0.237 OA
ATOM    105  O   UNL     1      -2.294  16.698  19.379  1.00  0.00    -0.237 OA
ATOM    106  O   UNL     1      -0.087  16.014  18.527  1.00  0.00    -0.744 OA
ENDBRANCH 102 103
ENDBRANCH  76  97
ENDBRANCH  50  51
ENDBRANCH  42  45
ENDBRANCH  40  41
ENDBRANCH  39  40
ENDBRANCH   1  39
TORSDOF 20
