REMARK SMILES COc1ccc(CC(=O)Nc2ccc(N3CC[NH+](C)CC3)cc2C(=O)NCCCNC(=O)c2ccc(-c3c4nc(c(-c5ccc(S(=O)(=O)[O-])cc5)c5ccc([nH]5)c(-c5ccc(S(=O)(=O)[O-])cc5)c5nc(c(-c6ccc(S(=O)(=O)[O-])cc6)c6ccc3[nH]6)C=C5)C=C4)cc2)cc1
REMARK SMILES IDX 27 1 26 2 24 3 25 4 23 6 11 7 12 8 13 9 22 10 14 11 10 12
REMARK SMILES IDX 8 13 9 14 7 16 6 17 3 18 4 19 94 20 5 21 93 22 2 23 1 24
REMARK SMILES IDX 15 25 16 26 21 27 17 28 20 29 18 30 19 31 28 33 29 34 30 35
REMARK SMILES IDX 31 36 32 38 33 39 34 40 92 41 35 42 91 43 36 44 37 45 38 46
REMARK SMILES IDX 85 47 39 48 90 49 84 50 86 51 40 52 89 53 83 54 82 55 41 57
REMARK SMILES IDX 71 58 52 59 70 60 53 61 56 62 69 63 87 64 54 65 55 66 68 68
REMARK SMILES IDX 88 69 57 70 42 71 43 72 51 73 44 74 50 75 45 76 46 77 47 78
REMARK SMILES IDX 48 79 49 80 72 81 73 82 81 83 74 84 80 85 75 86 76 87 77 88
REMARK SMILES IDX 78 89 79 90 58 91 59 92 67 93 60 94 66 95 61 96 62 97 63 98
REMARK SMILES IDX 64 99 65 100
REMARK H PARENT 26 5 10 15 18 32 30 37 86 56 56 67
REMARK Flexibility Score: inf
ROOT
ATOM      1  C   UNL     1       0.977  -4.961   5.845  1.00  0.00     0.118 C 
ENDROOT
BRANCH   1   2
ATOM      2  N   UNL     1       0.861  -3.761   5.038  1.00  0.00    -0.352 N 
ATOM      3  C   UNL     1       1.760  -2.982   4.359  1.00  0.00     0.253 C 
ATOM      4  O   UNL     1       1.301  -1.927   3.910  1.00  0.00    -0.269 OA
ATOM      5  H   UNL     1      -0.065  -3.435   4.963  1.00  0.00     0.163 HD
BRANCH   3   6
ATOM      6  C   UNL     1       3.229  -3.247   4.223  1.00  0.00     0.065 A 
ATOM      7  C   UNL     1       3.917  -4.453   4.386  1.00  0.00     0.054 A 
ATOM      8  C   UNL     1       5.293  -4.410   4.614  1.00  0.00     0.029 A 
ATOM      9  C   UNL     1       6.012  -3.233   4.395  1.00  0.00     0.028 A 
ATOM     10  C   UNL     1       3.998  -2.083   3.944  1.00  0.00     0.042 A 
ATOM     11  C   UNL     1       5.398  -2.066   3.932  1.00  0.00     0.038 A 
BRANCH   7  12
ATOM     12  N   UNL     1       3.377  -5.742   4.337  1.00  0.00    -0.325 N 
ATOM     13  C   UNL     1       2.685  -6.371   3.334  1.00  0.00     0.228 C 
ATOM     14  O   UNL     1       2.136  -7.445   3.607  1.00  0.00    -0.274 OA
ATOM     15  H   UNL     1       3.516  -6.282   5.149  1.00  0.00     0.169 HD
BRANCH  13  16
ATOM     16  C   UNL     1       2.770  -5.915   1.893  1.00  0.00     0.135 C 
BRANCH  16  17
ATOM     17  C   UNL     1       2.086  -4.640   1.491  1.00  0.00    -0.038 A 
ATOM     18  C   UNL     1       0.867  -2.243   0.648  1.00  0.00     0.118 A 
ATOM     19  C   UNL     1       0.101  -3.282   1.184  1.00  0.00     0.047 A 
ATOM     20  C   UNL     1       2.244  -2.413   0.517  1.00  0.00     0.047 A 
ATOM     21  C   UNL     1       0.701  -4.476   1.600  1.00  0.00     0.008 A 
ATOM     22  C   UNL     1       2.845  -3.604   0.927  1.00  0.00     0.008 A 
BRANCH  18  23
ATOM     23  O   UNL     1       0.164  -1.122   0.296  1.00  0.00    -0.497 OA
ATOM     24  C   UNL     1       0.924  -0.021  -0.186  1.00  0.00     0.278 C 
ENDBRANCH  18  23
ENDBRANCH  16  17
ENDBRANCH  13  16
ENDBRANCH   7  12
BRANCH  11  25
ATOM     25  N   UNL     1       6.134  -0.998   3.463  1.00  0.00    -0.360 N 
ATOM     26  C   UNL     1       5.665   0.400   3.439  1.00  0.00     0.178 C 
ATOM     27  C   UNL     1       7.508  -1.176   2.961  1.00  0.00     0.178 C 
ATOM     28  C   UNL     1       5.904   1.044   2.048  1.00  0.00     0.283 C 
ATOM     29  C   UNL     1       7.678  -0.509   1.578  1.00  0.00     0.283 C 
ATOM     30  N   UNL     1       7.306   0.919   1.583  1.00  0.00    -0.334 N 
ATOM     31  C   UNL     1       7.471   1.494   0.250  1.00  0.00     0.332 C 
ATOM     32  H   UNL     1       7.917   1.435   2.216  1.00  0.00     0.347 HD
ENDBRANCH  11  25
ENDBRANCH   3   6
ENDBRANCH   1   2
BRANCH   1  33
ATOM     33  C   UNL     1      -0.338  -5.353   6.503  1.00  0.00     0.042 C 
BRANCH  33  34
ATOM     34  C   UNL     1      -1.385  -5.771   5.468  1.00  0.00     0.118 C 
BRANCH  34  35
ATOM     35  N   UNL     1      -1.239  -7.148   5.003  1.00  0.00    -0.352 N 
ATOM     36  C   UNL     1      -1.909  -8.297   5.365  1.00  0.00     0.251 C 
ATOM     37  H   UNL     1      -0.546  -7.277   4.315  1.00  0.00     0.163 HD
ATOM     38  O   UNL     1      -1.573  -9.380   4.902  1.00  0.00    -0.269 OA
BRANCH  36  39
ATOM     39  C   UNL     1      -2.998  -8.239   6.366  1.00  0.00     0.039 A 
ATOM     40  C   UNL     1      -3.002  -9.167   7.411  1.00  0.00     0.014 A 
ATOM     41  C   UNL     1      -3.990  -7.264   6.302  1.00  0.00     0.014 A 
ATOM     42  C   UNL     1      -3.929  -9.039   8.450  1.00  0.00     0.010 A 
ATOM     43  C   UNL     1      -4.831  -7.064   7.391  1.00  0.00     0.010 A 
ATOM     44  C   UNL     1      -4.808  -7.944   8.483  1.00  0.00    -0.014 A 
BRANCH  44  45
ATOM     45  C   UNL     1      -5.702  -7.689   9.645  1.00  0.00     0.031 A 
ATOM     46  C   UNL     1      -7.192  -7.582   9.444  1.00  0.00     0.074 A 
ATOM     47  C   UNL     1      -5.170  -7.450  10.862  1.00  0.00     0.049 A 
ATOM     48  N   UNL     1      -8.117  -7.222  10.297  1.00  0.00    -0.248 NA
ATOM     49  C   UNL     1      -7.703  -7.872   8.094  1.00  0.00     0.031 C 
ATOM     50  C   UNL     1      -3.740  -7.455  11.186  1.00  0.00     0.029 A 
ATOM     51  N   UNL     1      -5.774  -7.146  12.057  1.00  0.00    -0.354 N 
ATOM     52  C   UNL     1      -9.305  -7.193   9.576  1.00  0.00     0.074 A 
ATOM     53  C   UNL     1      -8.977  -7.530   8.208  1.00  0.00     0.031 C 
ATOM     54  C   UNL     1      -3.582  -7.208  12.496  1.00  0.00     0.029 A 
ATOM     55  C   UNL     1      -4.890  -6.982  13.099  1.00  0.00     0.049 A 
ATOM     56  H   UNL     1      -6.749  -7.053  12.160  1.00  0.00     0.167 HD
ATOM     57  C   UNL     1     -10.560  -6.930  10.013  1.00  0.00     0.031 A 
ATOM     58  C   UNL     1      -5.106  -6.683  14.394  1.00  0.00     0.031 A 
ATOM     59  C   UNL     1     -10.894  -6.656  11.383  1.00  0.00     0.049 A 
ATOM     60  C   UNL     1      -6.515  -6.473  14.873  1.00  0.00     0.074 A 
ATOM     61  C   UNL     1     -12.144  -6.453  11.942  1.00  0.00     0.029 A 
ATOM     62  N   UNL     1      -9.974  -6.566  12.416  1.00  0.00    -0.354 N 
ATOM     63  N   UNL     1      -7.629  -6.494  14.183  1.00  0.00    -0.248 NA
ATOM     64  C   UNL     1      -6.695  -6.209  16.307  1.00  0.00     0.031 C 
ATOM     65  C   UNL     1     -11.977  -6.220  13.312  1.00  0.00     0.029 A 
ATOM     66  C   UNL     1     -10.627  -6.313  13.610  1.00  0.00     0.049 A 
ATOM     67  H   UNL     1      -9.000  -6.668  12.316  1.00  0.00     0.167 HD
ATOM     68  C   UNL     1      -8.646  -6.267  15.102  1.00  0.00     0.074 A 
ATOM     69  C   UNL     1      -8.016  -6.126  16.399  1.00  0.00     0.031 C 
ATOM     70  C   UNL     1      -9.982  -6.183  14.891  1.00  0.00     0.031 A 
BRANCH  57  71
ATOM     71  C   UNL     1     -11.663  -6.940   8.989  1.00  0.00    -0.014 A 
ATOM     72  C   UNL     1     -12.096  -8.143   8.400  1.00  0.00     0.010 A 
ATOM     73  C   UNL     1     -12.282  -5.734   8.614  1.00  0.00     0.010 A 
ATOM     74  C   UNL     1     -13.087  -8.133   7.417  1.00  0.00     0.020 A 
ATOM     75  C   UNL     1     -13.295  -5.724   7.650  1.00  0.00     0.020 A 
ATOM     76  C   UNL     1     -13.674  -6.922   7.041  1.00  0.00     0.054 A 
BRANCH  76  77
ATOM     77  S   UNL     1     -14.961  -6.934   5.763  1.00  0.00     0.124 S 
ATOM     78  O   UNL     1     -14.170  -7.060   4.542  1.00  0.00    -0.237 OA
ATOM     79  O   UNL     1     -15.758  -8.106   6.117  1.00  0.00    -0.237 OA
ATOM     80  O   UNL     1     -15.636  -5.651   5.940  1.00  0.00    -0.744 OA
ENDBRANCH  76  77
ENDBRANCH  57  71
BRANCH  58  81
ATOM     81  C   UNL     1      -3.960  -6.603  15.338  1.00  0.00    -0.014 A 
ATOM     82  C   UNL     1      -3.733  -7.638  16.262  1.00  0.00     0.010 A 
ATOM     83  C   UNL     1      -3.078  -5.508  15.307  1.00  0.00     0.010 A 
ATOM     84  C   UNL     1      -2.655  -7.574  17.149  1.00  0.00     0.020 A 
ATOM     85  C   UNL     1      -1.986  -5.450  16.178  1.00  0.00     0.020 A 
ATOM     86  C   UNL     1      -1.788  -6.479  17.102  1.00  0.00     0.054 A 
BRANCH  86  87
ATOM     87  S   UNL     1      -0.359  -6.443  18.221  1.00  0.00     0.124 S 
ATOM     88  O   UNL     1      -0.972  -6.035  19.481  1.00  0.00    -0.237 OA
ATOM     89  O   UNL     1       0.123  -7.821  18.169  1.00  0.00    -0.237 OA
ATOM     90  O   UNL     1       0.529  -5.459  17.606  1.00  0.00    -0.744 OA
ENDBRANCH  86  87
ENDBRANCH  58  81
BRANCH  70  91
ATOM     91  C   UNL     1     -10.856  -5.960  16.093  1.00  0.00    -0.014 A 
ATOM     92  C   UNL     1     -10.945  -4.694  16.699  1.00  0.00     0.010 A 
ATOM     93  C   UNL     1     -11.637  -7.019  16.589  1.00  0.00     0.010 A 
ATOM     94  C   UNL     1     -11.783  -4.499  17.799  1.00  0.00     0.020 A 
ATOM     95  C   UNL     1     -12.491  -6.822  17.676  1.00  0.00     0.020 A 
ATOM     96  C   UNL     1     -12.549  -5.565  18.282  1.00  0.00     0.054 A 
BRANCH  96  97
ATOM     97  S   UNL     1     -13.666  -5.279  19.683  1.00  0.00     0.124 S 
ATOM     98  O   UNL     1     -12.742  -5.293  20.814  1.00  0.00    -0.237 OA
ATOM     99  O   UNL     1     -14.254  -3.979  19.368  1.00  0.00    -0.237 OA
ATOM    100  O   UNL     1     -14.594  -6.406  19.620  1.00  0.00    -0.744 OA
ENDBRANCH  96  97
ENDBRANCH  70  91
ENDBRANCH  44  45
ENDBRANCH  36  39
ENDBRANCH  34  35
ENDBRANCH  33  34
ENDBRANCH   1  33
TORSDOF 18
