REMARK SMILES CC(C)(C)c1cc2c(cc1Cl)C=C(C(=O)NCCCNC(=O)c1ccc(-c3c4nc(c(-c5ccc(S(=O)(=O)[O-])cc5)c5ccc([nH]5)c(-c5ccc(S(=O)(=O)[O-])cc5)c5nc(c(-c6ccc(S(=O)(=O)[O-])cc6)c6ccc3[nH]6)C=C5)C=C4)cc1)[C@@H](C(F)(F)F)O2
REMARK SMILES IDX 19 1 18 2 17 3 16 4 14 5 15 6 13 8 5 9 6 10 10 11 7 12 9 13
REMARK SMILES IDX 11 14 8 15 88 16 12 17 83 18 2 19 1 20 3 21 4 22 84 23 85 24
REMARK SMILES IDX 86 25 87 26 20 27 21 28 22 30 23 31 24 32 82 33 25 34 81 35
REMARK SMILES IDX 26 36 27 37 28 38 75 39 29 40 80 41 74 42 76 43 30 44 79 45
REMARK SMILES IDX 73 46 72 47 31 49 61 50 42 51 60 52 43 53 46 54 59 55 77 56
REMARK SMILES IDX 44 57 45 58 58 60 78 61 47 62 32 63 33 64 41 65 34 66 40 67
REMARK SMILES IDX 35 68 36 69 37 70 38 71 39 72 62 73 63 74 71 75 64 76 70 77
REMARK SMILES IDX 65 78 66 79 67 80 68 81 69 82 48 83 49 84 57 85 50 86 56 87
REMARK SMILES IDX 51 88 52 89 53 90 54 91 55 92
REMARK H PARENT 16 7 20 29 76 48 46 59
REMARK Flexibility Score: inf
ROOT
ATOM      1  C   UNL     1      -0.191  11.167   4.651  1.00  0.00     0.118 C 
ENDROOT
BRANCH   1   2
ATOM      2  C   UNL     1      -0.145  10.112   3.552  1.00  0.00     0.042 C 
BRANCH   2   3
ATOM      3  C   UNL     1       1.266   9.607   3.291  1.00  0.00     0.118 C 
BRANCH   3   4
ATOM      4  N   UNL     1       1.710   8.671   4.314  1.00  0.00    -0.352 N 
ATOM      5  C   UNL     1       1.879   7.334   4.432  1.00  0.00     0.251 C 
ATOM      6  O   UNL     1       2.304   6.953   5.528  1.00  0.00    -0.270 OA
ATOM      7  H   UNL     1       1.955   9.138   5.145  1.00  0.00     0.163 HD
BRANCH   5   8
ATOM      8  C   UNL     1       1.597   6.333   3.364  1.00  0.00     0.067 C 
ATOM      9  C   UNL     1       0.903   2.021   0.740  1.00  0.00    -0.020 A 
ATOM     10  C   UNL     1       0.542   3.386   0.591  1.00  0.00     0.053 A 
ATOM     11  C   UNL     1       1.599   1.699   1.926  1.00  0.00     0.045 A 
ATOM     12  C   UNL     1       0.859   4.357   1.538  1.00  0.00     0.128 A 
ATOM     13  C   UNL     1       1.895   2.687   2.890  1.00  0.00     0.032 A 
ATOM     14  Cl  UNL     1       2.159   0.122   2.360  1.00  0.00    -0.084 Cl
ATOM     15  C   UNL     1       1.526   4.015   2.702  1.00  0.00     0.019 A 
ATOM     16  O   UNL     1       0.442   5.630   1.274  1.00  0.00    -0.475 OA
ATOM     17  C   UNL     1       1.778   5.042   3.705  1.00  0.00     0.025 C 
ATOM     18  C   UNL     1       1.166   6.683   1.967  1.00  0.00     0.314 C 
BRANCH   9  19
ATOM     19  C   UNL     1       0.458   1.073  -0.402  1.00  0.00    -0.012 C 
ATOM     20  C   UNL     1       0.872  -0.408  -0.313  1.00  0.00     0.016 C 
ATOM     21  C   UNL     1       1.029   1.585  -1.751  1.00  0.00     0.016 C 
ATOM     22  C   UNL     1      -1.090   1.083  -0.475  1.00  0.00     0.016 C 
ENDBRANCH   9  19
BRANCH  18  23
ATOM     23  C   UNL     1       2.345   7.153   1.091  1.00  0.00     0.429 C 
ATOM     24  F   UNL     1       1.892   7.788  -0.018  1.00  0.00    -0.167 F 
ATOM     25  F   UNL     1       3.153   8.030   1.733  1.00  0.00    -0.167 F 
ATOM     26  F   UNL     1       3.132   6.133   0.679  1.00  0.00    -0.167 F 
ENDBRANCH  18  23
ENDBRANCH   5   8
ENDBRANCH   3   4
ENDBRANCH   2   3
ENDBRANCH   1   2
BRANCH   1  27
ATOM     27  N   UNL     1       0.481  12.403   4.255  1.00  0.00    -0.352 N 
ATOM     28  C   UNL     1      -0.036  13.642   3.958  1.00  0.00     0.251 C 
ATOM     29  H   UNL     1       1.461  12.339   4.190  1.00  0.00     0.163 HD
ATOM     30  O   UNL     1       0.677  14.483   3.416  1.00  0.00    -0.269 OA
BRANCH  28  31
ATOM     31  C   UNL     1      -1.446  13.952   4.272  1.00  0.00     0.039 A 
ATOM     32  C   UNL     1      -2.006  13.524   5.475  1.00  0.00     0.014 A 
ATOM     33  C   UNL     1      -2.217  14.678   3.360  1.00  0.00     0.014 A 
ATOM     34  C   UNL     1      -3.373  13.644   5.678  1.00  0.00     0.010 A 
ATOM     35  C   UNL     1      -3.575  14.895   3.618  1.00  0.00     0.010 A 
ATOM     36  C   UNL     1      -4.176  14.335   4.756  1.00  0.00    -0.014 A 
BRANCH  36  37
ATOM     37  C   UNL     1      -5.633  14.458   5.020  1.00  0.00     0.031 A 
ATOM     38  C   UNL     1      -6.640  13.838   4.088  1.00  0.00     0.074 A 
ATOM     39  C   UNL     1      -6.041  15.062   6.155  1.00  0.00     0.049 A 
ATOM     40  N   UNL     1      -7.945  13.829   4.185  1.00  0.00    -0.248 NA
ATOM     41  C   UNL     1      -6.127  13.141   2.896  1.00  0.00     0.031 C 
ATOM     42  C   UNL     1      -5.152  15.680   7.144  1.00  0.00     0.029 A 
ATOM     43  N   UNL     1      -7.293  15.221   6.694  1.00  0.00    -0.354 N 
ATOM     44  C   UNL     1      -8.407  13.147   3.065  1.00  0.00     0.074 A 
ATOM     45  C   UNL     1      -7.248  12.776   2.286  1.00  0.00     0.031 C 
ATOM     46  C   UNL     1      -5.877  16.083   8.197  1.00  0.00     0.029 A 
ATOM     47  C   UNL     1      -7.288  15.830   7.928  1.00  0.00     0.049 A 
ATOM     48  H   UNL     1      -8.116  14.928   6.240  1.00  0.00     0.167 HD
ATOM     49  C   UNL     1      -9.683  12.848   2.729  1.00  0.00     0.031 A 
ATOM     50  C   UNL     1      -8.301  16.164   8.751  1.00  0.00     0.031 A 
ATOM     51  C   UNL     1     -10.829  13.197   3.526  1.00  0.00     0.049 A 
ATOM     52  C   UNL     1      -9.708  15.844   8.340  1.00  0.00     0.074 A 
ATOM     53  C   UNL     1     -12.163  12.935   3.264  1.00  0.00     0.029 A 
ATOM     54  N   UNL     1     -10.783  13.863   4.742  1.00  0.00    -0.354 N 
ATOM     55  N   UNL     1     -10.121  15.217   7.265  1.00  0.00    -0.248 NA
ATOM     56  C   UNL     1     -10.784  16.277   9.240  1.00  0.00     0.031 C 
ATOM     57  C   UNL     1     -12.927  13.486   4.295  1.00  0.00     0.029 A 
ATOM     58  C   UNL     1     -12.066  14.035   5.232  1.00  0.00     0.049 A 
ATOM     59  H   UNL     1      -9.961  14.167   5.189  1.00  0.00     0.167 HD
ATOM     60  C   UNL     1     -11.507  15.182   7.358  1.00  0.00     0.074 A 
ATOM     61  C   UNL     1     -11.860  15.823   8.608  1.00  0.00     0.031 C 
ATOM     62  C   UNL     1     -12.403  14.675   6.478  1.00  0.00     0.031 A 
BRANCH  49  63
ATOM     63  C   UNL     1      -9.938  12.096   1.450  1.00  0.00    -0.014 A 
ATOM     64  C   UNL     1     -10.581  12.743   0.378  1.00  0.00     0.010 A 
ATOM     65  C   UNL     1      -9.690  10.715   1.366  1.00  0.00     0.010 A 
ATOM     66  C   UNL     1     -11.014  12.016  -0.734  1.00  0.00     0.020 A 
ATOM     67  C   UNL     1     -10.100   9.988   0.244  1.00  0.00     0.020 A 
ATOM     68  C   UNL     1     -10.785  10.638  -0.785  1.00  0.00     0.054 A 
BRANCH  68  69
ATOM     69  S   UNL     1     -11.409   9.699  -2.207  1.00  0.00     0.124 S 
ATOM     70  O   UNL     1     -12.840   9.634  -1.929  1.00  0.00    -0.237 OA
ATOM     71  O   UNL     1     -11.021  10.538  -3.339  1.00  0.00    -0.237 OA
ATOM     72  O   UNL     1     -10.694   8.427  -2.115  1.00  0.00    -0.744 OA
ENDBRANCH  68  69
ENDBRANCH  49  63
BRANCH  50  73
ATOM     73  C   UNL     1      -7.996  16.853  10.035  1.00  0.00    -0.014 A 
ATOM     74  C   UNL     1      -7.454  18.153  10.027  1.00  0.00     0.010 A 
ATOM     75  C   UNL     1      -8.165  16.192  11.264  1.00  0.00     0.010 A 
ATOM     76  C   UNL     1      -7.034  18.756  11.213  1.00  0.00     0.020 A 
ATOM     77  C   UNL     1      -7.775  16.808  12.459  1.00  0.00     0.020 A 
ATOM     78  C   UNL     1      -7.184  18.073  12.421  1.00  0.00     0.054 A 
BRANCH  78  79
ATOM     79  S   UNL     1      -6.600  18.859  13.949  1.00  0.00     0.124 S 
ATOM     80  O   UNL     1      -5.168  18.580  13.898  1.00  0.00    -0.237 OA
ATOM     81  O   UNL     1      -6.976  20.258  13.756  1.00  0.00    -0.237 OA
ATOM     82  O   UNL     1      -7.339  18.158  14.995  1.00  0.00    -0.744 OA
ENDBRANCH  78  79
ENDBRANCH  50  73
BRANCH  62  83
ATOM     83  C   UNL     1     -13.864  14.788   6.812  1.00  0.00    -0.014 A 
ATOM     84  C   UNL     1     -14.602  13.629   7.117  1.00  0.00     0.010 A 
ATOM     85  C   UNL     1     -14.534  16.017   6.684  1.00  0.00     0.010 A 
ATOM     86  C   UNL     1     -15.990  13.691   7.252  1.00  0.00     0.020 A 
ATOM     87  C   UNL     1     -15.920  16.086   6.843  1.00  0.00     0.020 A 
ATOM     88  C   UNL     1     -16.642  14.918   7.100  1.00  0.00     0.054 A 
BRANCH  88  89
ATOM     89  S   UNL     1     -18.449  14.973   7.238  1.00  0.00     0.124 S 
ATOM     90  O   UNL     1     -18.872  14.455   5.940  1.00  0.00    -0.237 OA
ATOM     91  O   UNL     1     -18.713  14.101   8.380  1.00  0.00    -0.237 OA
ATOM     92  O   UNL     1     -18.731  16.388   7.468  1.00  0.00    -0.744 OA
ENDBRANCH  88  89
ENDBRANCH  62  83
ENDBRANCH  36  37
ENDBRANCH  28  31
ENDBRANCH   1  27
TORSDOF 15
