REMARK SMILES CC(=O)N1C[C@@H]2C[N@H+](CC(=O)NCc3ccccc3)C[C@]2(C(=O)NCCCNC(=O)c2ccc(-c3c4nc(c(-c5ccc(S(=O)(=O)[O-])cc5)c5ccc([nH]5)c(-c5ccc(S(=O)(=O)[O-])cc5)c5nc(c(-c6ccc(S(=O)(=O)[O-])cc6)c6ccc3[nH]6)C=C5)C=C4)cc2)C1
REMARK SMILES IDX 25 1 24 2 22 3 23 4 21 6 4 7 5 8 91 9 6 10 7 11 20 12 8 13
REMARK SMILES IDX 2 15 1 16 3 17 9 18 10 19 11 20 12 21 13 23 14 24 15 25
REMARK SMILES IDX 19 26 16 27 18 28 17 29 26 30 27 31 28 32 29 33 30 35 31 36
REMARK SMILES IDX 32 37 90 38 33 39 89 40 34 41 35 42 36 43 83 44 37 45 88 46
REMARK SMILES IDX 82 47 84 48 38 49 87 50 81 51 80 52 39 54 69 55 50 56 68 57
REMARK SMILES IDX 51 58 54 59 67 60 85 61 52 62 53 63 66 65 86 66 55 67 40 68
REMARK SMILES IDX 41 69 49 70 42 71 48 72 43 73 44 74 45 75 46 76 47 77 70 78
REMARK SMILES IDX 71 79 79 80 72 81 78 82 73 83 74 84 75 85 76 86 77 87 56 88
REMARK SMILES IDX 57 89 65 90 58 91 64 92 59 93 60 94 61 95 62 96 63 97
REMARK H PARENT 24 5 8 14 12 22 28 34 84 53 54 64
REMARK Flexibility Score: inf
ROOT
ATOM      1  C   UNL     1       4.758   3.248  -5.030  1.00  0.00     0.117 C 
ENDROOT
BRANCH   1   2
ATOM      2  N   UNL     1       4.599   3.977  -3.770  1.00  0.00    -0.355 N 
ATOM      3  C   UNL     1       3.480   4.284  -3.008  1.00  0.00     0.234 C 
ATOM      4  O   UNL     1       3.669   5.016  -2.034  1.00  0.00    -0.274 OA
ATOM      5  H   UNL     1       5.444   4.312  -3.393  1.00  0.00     0.163 HD
BRANCH   3   6
ATOM      6  C   UNL     1       2.062   3.712  -3.405  1.00  0.00     0.125 C 
ATOM      7  N   UNL     1       0.500   2.535  -1.794  1.00  0.00    -0.341 N 
ATOM      8  C   UNL     1      -0.407   3.259  -2.589  1.00  0.00     0.130 C 
ATOM      9  C   UNL     1       1.826   3.117  -1.927  1.00  0.00     0.143 C 
ATOM     10  C   UNL     1       0.478   4.299  -3.238  1.00  0.00     0.087 C 
ATOM     11  C   UNL     1      -0.159   4.587  -4.608  1.00  0.00     0.269 C 
ATOM     12  C   UNL     1       2.047   4.691  -4.620  1.00  0.00     0.282 C 
ATOM     13  N   UNL     1       0.944   4.362  -5.505  1.00  0.00    -0.326 N 
ATOM     14  H   UNL     1       0.870   4.914  -6.360  1.00  0.00     0.348 HD
BRANCH   7  15
ATOM     15  C   UNL     1       0.069   1.407  -1.147  1.00  0.00     0.219 C 
ATOM     16  C   UNL     1       0.566   1.167   0.247  1.00  0.00     0.114 C 
ATOM     17  O   UNL     1      -0.804   0.673  -1.615  1.00  0.00    -0.275 OA
ENDBRANCH   7  15
BRANCH  13  18
ATOM     18  C   UNL     1       1.058   3.018  -6.155  1.00  0.00     0.363 C 
BRANCH  18  19
ATOM     19  C   UNL     1       0.472   1.809  -5.408  1.00  0.00     0.275 C 
ATOM     20  O   UNL     1      -0.753   1.631  -5.416  1.00  0.00    -0.268 OA
ATOM     21  N   UNL     1       1.195   0.903  -4.690  1.00  0.00    -0.347 N 
ATOM     22  H   UNL     1       0.684   0.509  -3.947  1.00  0.00     0.164 HD
BRANCH  21  23
ATOM     23  C   UNL     1       2.558   0.385  -4.778  1.00  0.00     0.151 C 
BRANCH  23  24
ATOM     24  C   UNL     1       3.219   0.148  -3.427  1.00  0.00    -0.029 A 
ATOM     25  C   UNL     1       4.569   0.463  -3.205  1.00  0.00     0.005 A 
ATOM     26  C   UNL     1       2.539  -0.461  -2.365  1.00  0.00     0.005 A 
ATOM     27  C   UNL     1       5.160   0.368  -1.939  1.00  0.00     0.000 A 
ATOM     28  C   UNL     1       3.149  -0.624  -1.111  1.00  0.00     0.000 A 
ATOM     29  C   UNL     1       4.439  -0.160  -0.881  1.00  0.00     0.000 A 
ENDBRANCH  23  24
ENDBRANCH  21  23
ENDBRANCH  18  19
ENDBRANCH  13  18
ENDBRANCH   3   6
ENDBRANCH   1   2
BRANCH   1  30
ATOM     30  C   UNL     1       5.226   4.074  -6.226  1.00  0.00     0.042 C 
BRANCH  30  31
ATOM     31  C   UNL     1       6.296   3.352  -7.044  1.00  0.00     0.118 C 
BRANCH  31  32
ATOM     32  N   UNL     1       5.882   2.091  -7.663  1.00  0.00    -0.352 N 
ATOM     33  C   UNL     1       6.293   1.565  -8.876  1.00  0.00     0.251 C 
ATOM     34  H   UNL     1       5.233   1.553  -7.155  1.00  0.00     0.163 HD
ATOM     35  O   UNL     1       5.851   0.490  -9.272  1.00  0.00    -0.269 OA
BRANCH  33  36
ATOM     36  C   UNL     1       7.231   2.350  -9.707  1.00  0.00     0.039 A 
ATOM     37  C   UNL     1       6.888   2.670 -11.023  1.00  0.00     0.014 A 
ATOM     38  C   UNL     1       8.366   2.902  -9.117  1.00  0.00     0.014 A 
ATOM     39  C   UNL     1       7.612   3.656 -11.700  1.00  0.00     0.010 A 
ATOM     40  C   UNL     1       8.998   3.966  -9.742  1.00  0.00     0.010 A 
ATOM     41  C   UNL     1       8.625   4.366 -11.037  1.00  0.00    -0.014 A 
BRANCH  41  42
ATOM     42  C   UNL     1       9.334   5.525 -11.643  1.00  0.00     0.031 A 
ATOM     43  C   UNL     1      10.840   5.503 -11.709  1.00  0.00     0.074 A 
ATOM     44  C   UNL     1       8.659   6.639 -11.995  1.00  0.00     0.049 A 
ATOM     45  N   UNL     1      11.674   6.480 -11.948  1.00  0.00    -0.248 NA
ATOM     46  C   UNL     1      11.493   4.219 -11.394  1.00  0.00     0.031 C 
ATOM     47  C   UNL     1       7.205   6.817 -11.933  1.00  0.00     0.029 A 
ATOM     48  N   UNL     1       9.116   7.849 -12.460  1.00  0.00    -0.354 N 
ATOM     49  C   UNL     1      12.941   5.946 -11.745  1.00  0.00     0.074 A 
ATOM     50  C   UNL     1      12.763   4.580 -11.309  1.00  0.00     0.031 C 
ATOM     51  C   UNL     1       6.890   8.047 -12.375  1.00  0.00     0.029 A 
ATOM     52  C   UNL     1       8.117   8.765 -12.701  1.00  0.00     0.049 A 
ATOM     53  H   UNL     1      10.070   8.042 -12.607  1.00  0.00     0.167 HD
ATOM     54  C   UNL     1      14.149   6.529 -11.932  1.00  0.00     0.031 A 
ATOM     55  C   UNL     1       8.184  10.042 -13.127  1.00  0.00     0.031 A 
ATOM     56  C   UNL     1      14.318   7.861 -12.442  1.00  0.00     0.049 A 
ATOM     57  C   UNL     1       9.535  10.649 -13.399  1.00  0.00     0.074 A 
ATOM     58  C   UNL     1      15.493   8.523 -12.749  1.00  0.00     0.029 A 
ATOM     59  N   UNL     1      13.276   8.723 -12.750  1.00  0.00    -0.354 N 
ATOM     60  N   UNL     1      10.724  10.118 -13.234  1.00  0.00    -0.248 NA
ATOM     61  C   UNL     1       9.555  12.022 -13.924  1.00  0.00     0.031 C 
ATOM     62  C   UNL     1      15.162   9.797 -13.222  1.00  0.00     0.029 A 
ATOM     63  C   UNL     1      13.780   9.910 -13.250  1.00  0.00     0.049 A 
ATOM     64  H   UNL     1      12.320   8.521 -12.630  1.00  0.00     0.167 HD
ATOM     65  C   UNL     1      11.630  11.079 -13.669  1.00  0.00     0.074 A 
ATOM     66  C   UNL     1      10.853  12.220 -14.108  1.00  0.00     0.031 C 
ATOM     67  C   UNL     1      12.984  11.021 -13.704  1.00  0.00     0.031 A 
BRANCH  54  68
ATOM     68  C   UNL     1      15.371   5.716 -11.598  1.00  0.00    -0.014 A 
ATOM     69  C   UNL     1      15.722   4.585 -12.359  1.00  0.00     0.010 A 
ATOM     70  C   UNL     1      16.182   6.085 -10.510  1.00  0.00     0.010 A 
ATOM     71  C   UNL     1      16.822   3.804 -12.001  1.00  0.00     0.020 A 
ATOM     72  C   UNL     1      17.304   5.325 -10.169  1.00  0.00     0.020 A 
ATOM     73  C   UNL     1      17.602   4.175 -10.903  1.00  0.00     0.054 A 
BRANCH  73  74
ATOM     74  S   UNL     1      19.027   3.143 -10.461  1.00  0.00     0.124 S 
ATOM     75  O   UNL     1      18.380   1.998  -9.824  1.00  0.00    -0.237 OA
ATOM     76  O   UNL     1      19.644   2.874 -11.757  1.00  0.00    -0.237 OA
ATOM     77  O   UNL     1      19.807   3.995  -9.567  1.00  0.00    -0.744 OA
ENDBRANCH  73  74
ENDBRANCH  54  68
BRANCH  55  78
ATOM     78  C   UNL     1       6.937  10.822 -13.361  1.00  0.00    -0.014 A 
ATOM     79  C   UNL     1       6.520  11.108 -14.674  1.00  0.00     0.010 A 
ATOM     80  C   UNL     1       6.154  11.275 -12.284  1.00  0.00     0.010 A 
ATOM     81  C   UNL     1       5.357  11.849 -14.906  1.00  0.00     0.020 A 
ATOM     82  C   UNL     1       4.976  11.995 -12.512  1.00  0.00     0.020 A 
ATOM     83  C   UNL     1       4.592  12.287 -13.822  1.00  0.00     0.054 A 
BRANCH  83  84
ATOM     84  S   UNL     1       3.061  13.206 -14.149  1.00  0.00     0.124 S 
ATOM     85  O   UNL     1       3.571  14.513 -14.551  1.00  0.00    -0.237 OA
ATOM     86  O   UNL     1       2.438  12.416 -15.209  1.00  0.00    -0.237 OA
ATOM     87  O   UNL     1       2.363  13.172 -12.866  1.00  0.00    -0.744 OA
ENDBRANCH  83  84
ENDBRANCH  55  78
BRANCH  67  88
ATOM     88  C   UNL     1      13.717  12.194 -14.292  1.00  0.00    -0.014 A 
ATOM     89  C   UNL     1      13.867  13.393 -13.575  1.00  0.00     0.010 A 
ATOM     90  C   UNL     1      14.342  12.055 -15.545  1.00  0.00     0.010 A 
ATOM     91  C   UNL     1      14.620  14.441 -14.111  1.00  0.00     0.020 A 
ATOM     92  C   UNL     1      15.114  13.091 -16.072  1.00  0.00     0.020 A 
ATOM     93  C   UNL     1      15.241  14.282 -15.354  1.00  0.00     0.054 A 
BRANCH  93  94
ATOM     94  S   UNL     1      16.273  15.629 -15.995  1.00  0.00     0.124 S 
ATOM     95  O   UNL     1      15.271  16.597 -16.433  1.00  0.00    -0.237 OA
ATOM     96  O   UNL     1      17.055  16.020 -14.824  1.00  0.00    -0.237 OA
ATOM     97  O   UNL     1      17.041  14.998 -17.066  1.00  0.00    -0.744 OA
ENDBRANCH  93  94
ENDBRANCH  67  88
ENDBRANCH  41  42
ENDBRANCH  33  36
ENDBRANCH  31  32
ENDBRANCH  30  31
ENDBRANCH   1  30
TORSDOF 18
