REMARK SMILES Cc1ccc(O)c(C(=O)NCc2ccc(C(=O)NCCCNC(=O)c3ccc(-c4c5nc(c(-c6ccc(S(=O)(=O)[O-])cc6)c6ccc([nH]6)c(-c6ccc(S(=O)(=O)[O-])cc6)c6nc(c(-c7ccc(S(=O)(=O)[O-])cc7)c7ccc4[nH]7)C=C6)C=C5)cc3)o2)c1
REMARK SMILES IDX 19 1 18 2 16 3 17 4 15 6 12 7 13 8 85 9 14 10 11 11 10 12
REMARK SMILES IDX 8 13 9 14 7 16 1 17 2 18 3 19 86 20 4 21 5 22 6 23 20 25
REMARK SMILES IDX 21 26 22 27 23 28 24 30 25 31 26 32 84 33 27 34 83 35 28 36
REMARK SMILES IDX 29 37 30 38 77 39 31 40 82 41 76 42 78 43 32 44 81 45 75 46
REMARK SMILES IDX 74 47 33 49 63 50 44 51 62 52 45 53 48 54 61 55 79 56 46 57
REMARK SMILES IDX 47 58 60 60 80 61 49 62 34 63 35 64 43 65 36 66 42 67 37 68
REMARK SMILES IDX 38 69 39 70 40 71 41 72 64 73 65 74 73 75 66 76 72 77 67 78
REMARK SMILES IDX 68 79 69 80 70 81 71 82 50 83 51 84 59 85 52 86 58 87 53 88
REMARK SMILES IDX 54 89 55 90 56 91 57 92
REMARK H PARENT 18 5 10 15 6 24 22 29 78 48 48 59
REMARK Flexibility Score: inf
ROOT
ATOM      1  C   UNL     1       3.119  -6.853   5.159  1.00  0.00     0.118 C 
ENDROOT
BRANCH   1   2
ATOM      2  N   UNL     1       2.369  -7.671   4.229  1.00  0.00    -0.349 N 
ATOM      3  C   UNL     1       1.747  -7.365   3.044  1.00  0.00     0.286 C 
ATOM      4  O   UNL     1       1.257  -8.328   2.440  1.00  0.00    -0.266 OA
ATOM      5  H   UNL     1       2.290  -8.616   4.494  1.00  0.00     0.163 HD
BRANCH   3   6
ATOM      6  C   UNL     1       1.690  -6.011   2.531  1.00  0.00     0.191 A 
ATOM      7  C   UNL     1       1.255  -4.549   0.916  1.00  0.00     0.124 A 
ATOM      8  C   UNL     1       1.680  -3.816   2.002  1.00  0.00     0.048 A 
ATOM      9  O   UNL     1       1.280  -5.874   1.226  1.00  0.00    -0.454 OA
ATOM     10  C   UNL     1       1.920  -4.745   3.043  1.00  0.00     0.056 A 
BRANCH   7  11
ATOM     11  C   UNL     1       0.737  -4.212  -0.432  1.00  0.00     0.191 C 
BRANCH  11  12
ATOM     12  N   UNL     1      -0.614  -3.716  -0.281  1.00  0.00    -0.345 N 
ATOM     13  C   UNL     1      -1.192  -2.486  -0.144  1.00  0.00     0.255 C 
ATOM     14  O   UNL     1      -2.424  -2.482  -0.033  1.00  0.00    -0.269 OA
ATOM     15  H   UNL     1      -1.279  -4.442  -0.276  1.00  0.00     0.164 HD
BRANCH  13  16
ATOM     16  C   UNL     1      -0.488  -1.165  -0.124  1.00  0.00     0.081 A 
ATOM     17  C   UNL     1       2.995   0.410   0.076  1.00  0.00     0.044 C 
ATOM     18  C   UNL     1       1.502   0.270  -0.016  1.00  0.00    -0.050 A 
ATOM     19  C   UNL     1       0.696   1.409  -0.037  1.00  0.00     0.007 A 
ATOM     20  C   UNL     1       0.902  -1.001  -0.062  1.00  0.00     0.021 A 
ATOM     21  C   UNL     1      -0.687   1.277  -0.095  1.00  0.00     0.047 A 
ATOM     22  C   UNL     1      -1.270   0.009  -0.132  1.00  0.00     0.128 A 
BRANCH  22  23
ATOM     23  O   UNL     1      -2.642   0.010  -0.167  1.00  0.00    -0.507 OA
ATOM     24  H   UNL     1      -3.110   0.822  -0.170  1.00  0.00     0.293 HD
ENDBRANCH  22  23
ENDBRANCH  13  16
ENDBRANCH  11  12
ENDBRANCH   7  11
ENDBRANCH   3   6
ENDBRANCH   1   2
BRANCH   1  25
ATOM     25  C   UNL     1       2.287  -6.482   6.383  1.00  0.00     0.042 C 
BRANCH  25  26
ATOM     26  C   UNL     1       2.089  -7.651   7.347  1.00  0.00     0.118 C 
BRANCH  26  27
ATOM     27  N   UNL     1       3.353  -8.109   7.913  1.00  0.00    -0.352 N 
ATOM     28  C   UNL     1       3.784  -8.145   9.214  1.00  0.00     0.251 C 
ATOM     29  H   UNL     1       4.002  -8.448   7.254  1.00  0.00     0.163 HD
ATOM     30  O   UNL     1       4.977  -8.325   9.445  1.00  0.00    -0.269 OA
BRANCH  28  31
ATOM     31  C   UNL     1       2.831  -7.969  10.329  1.00  0.00     0.039 A 
ATOM     32  C   UNL     1       3.231  -7.242  11.453  1.00  0.00     0.014 A 
ATOM     33  C   UNL     1       1.565  -8.560  10.293  1.00  0.00     0.014 A 
ATOM     34  C   UNL     1       2.342  -7.061  12.515  1.00  0.00     0.010 A 
ATOM     35  C   UNL     1       0.653  -8.312  11.315  1.00  0.00     0.010 A 
ATOM     36  C   UNL     1       1.035  -7.568  12.440  1.00  0.00    -0.014 A 
BRANCH  36  37
ATOM     37  C   UNL     1       0.053  -7.327  13.528  1.00  0.00     0.031 A 
ATOM     38  C   UNL     1      -0.516  -8.482  14.307  1.00  0.00     0.074 A 
ATOM     39  C   UNL     1      -0.372  -6.071  13.770  1.00  0.00     0.049 A 
ATOM     40  N   UNL     1      -1.423  -8.473  15.250  1.00  0.00    -0.248 NA
ATOM     41  C   UNL     1      -0.022  -9.826  13.965  1.00  0.00     0.031 C 
ATOM     42  C   UNL     1       0.074  -4.873  13.053  1.00  0.00     0.029 A 
ATOM     43  N   UNL     1      -1.279  -5.592  14.681  1.00  0.00    -0.354 N 
ATOM     44  C   UNL     1      -1.618  -9.803  15.603  1.00  0.00     0.074 A 
ATOM     45  C   UNL     1      -0.775 -10.597  14.735  1.00  0.00     0.031 C 
ATOM     46  C   UNL     1      -0.539  -3.797  13.570  1.00  0.00     0.029 A 
ATOM     47  C   UNL     1      -1.454  -4.229  14.620  1.00  0.00     0.049 A 
ATOM     48  H   UNL     1      -1.759  -6.169  15.318  1.00  0.00     0.167 HD
ATOM     49  C   UNL     1      -2.410 -10.317  16.574  1.00  0.00     0.031 A 
ATOM     50  C   UNL     1      -2.268  -3.418  15.324  1.00  0.00     0.031 A 
ATOM     51  C   UNL     1      -3.243  -9.520  17.436  1.00  0.00     0.049 A 
ATOM     52  C   UNL     1      -3.150  -4.013  16.387  1.00  0.00     0.074 A 
ATOM     53  C   UNL     1      -4.045  -9.938  18.484  1.00  0.00     0.029 A 
ATOM     54  N   UNL     1      -3.386  -8.143  17.349  1.00  0.00    -0.354 N 
ATOM     55  N   UNL     1      -3.270  -5.268  16.751  1.00  0.00    -0.248 NA
ATOM     56  C   UNL     1      -3.995  -3.081  17.144  1.00  0.00     0.031 C 
ATOM     57  C   UNL     1      -4.717  -8.822  18.992  1.00  0.00     0.029 A 
ATOM     58  C   UNL     1      -4.282  -7.699  18.306  1.00  0.00     0.049 A 
ATOM     59  H   UNL     1      -2.919  -7.567  16.701  1.00  0.00     0.167 HD
ATOM     60  C   UNL     1      -4.184  -5.272  17.798  1.00  0.00     0.074 A 
ATOM     61  C   UNL     1      -4.571  -3.893  18.020  1.00  0.00     0.031 C 
ATOM     62  C   UNL     1      -4.660  -6.322  18.512  1.00  0.00     0.031 A 
BRANCH  49  63
ATOM     63  C   UNL     1      -2.416 -11.814  16.751  1.00  0.00    -0.014 A 
ATOM     64  C   UNL     1      -1.285 -12.495  17.238  1.00  0.00     0.010 A 
ATOM     65  C   UNL     1      -3.581 -12.549  16.462  1.00  0.00     0.010 A 
ATOM     66  C   UNL     1      -1.303 -13.883  17.389  1.00  0.00     0.020 A 
ATOM     67  C   UNL     1      -3.614 -13.935  16.642  1.00  0.00     0.020 A 
ATOM     68  C   UNL     1      -2.467 -14.596  17.088  1.00  0.00     0.054 A 
BRANCH  68  69
ATOM     69  S   UNL     1      -2.466 -16.395  17.313  1.00  0.00     0.124 S 
ATOM     70  O   UNL     1      -1.610 -16.836  16.214  1.00  0.00    -0.237 OA
ATOM     71  O   UNL     1      -1.899 -16.550  18.650  1.00  0.00    -0.237 OA
ATOM     72  O   UNL     1      -3.874 -16.762  17.190  1.00  0.00    -0.744 OA
ENDBRANCH  68  69
ENDBRANCH  49  63
BRANCH  50  73
ATOM     73  C   UNL     1      -2.274  -1.955  15.049  1.00  0.00    -0.014 A 
ATOM     74  C   UNL     1      -1.751  -1.048  15.988  1.00  0.00     0.010 A 
ATOM     75  C   UNL     1      -2.787  -1.461  13.835  1.00  0.00     0.010 A 
ATOM     76  C   UNL     1      -1.758   0.326  15.726  1.00  0.00     0.020 A 
ATOM     77  C   UNL     1      -2.768  -0.092  13.557  1.00  0.00     0.020 A 
ATOM     78  C   UNL     1      -2.263   0.794  14.509  1.00  0.00     0.054 A 
BRANCH  78  79
ATOM     79  S   UNL     1      -2.211   2.576  14.170  1.00  0.00     0.124 S 
ATOM     80  O   UNL     1      -3.249   3.086  15.060  1.00  0.00    -0.237 OA
ATOM     81  O   UNL     1      -0.839   2.925  14.531  1.00  0.00    -0.237 OA
ATOM     82  O   UNL     1      -2.511   2.661  12.742  1.00  0.00    -0.744 OA
ENDBRANCH  78  79
ENDBRANCH  50  73
BRANCH  62  83
ATOM     83  C   UNL     1      -5.626  -6.020  19.628  1.00  0.00    -0.014 A 
ATOM     84  C   UNL     1      -6.940  -5.596  19.365  1.00  0.00     0.010 A 
ATOM     85  C   UNL     1      -5.223  -6.215  20.963  1.00  0.00     0.010 A 
ATOM     86  C   UNL     1      -7.823  -5.339  20.417  1.00  0.00     0.020 A 
ATOM     87  C   UNL     1      -6.112  -5.989  22.016  1.00  0.00     0.020 A 
ATOM     88  C   UNL     1      -7.403  -5.538  21.736  1.00  0.00     0.054 A 
BRANCH  88  89
ATOM     89  S   UNL     1      -8.581  -5.235  23.081  1.00  0.00     0.124 S 
ATOM     90  O   UNL     1      -8.668  -3.778  23.088  1.00  0.00    -0.237 OA
ATOM     91  O   UNL     1      -9.779  -5.934  22.620  1.00  0.00    -0.237 OA
ATOM     92  O   UNL     1      -7.933  -5.826  24.250  1.00  0.00    -0.744 OA
ENDBRANCH  88  89
ENDBRANCH  62  83
ENDBRANCH  36  37
ENDBRANCH  28  31
ENDBRANCH  26  27
ENDBRANCH  25  26
ENDBRANCH   1  25
TORSDOF 17
