REMARK SMILES O=C(NCCCNC(=O)[C@H](c1c[nH]c2ccc(Cl)cc12)[NH+]1CCN(c2ncc(Br)cn2)CC1)c1ccc(-c2c3nc(c(-c4ccc(S(=O)(=O)[O-])cc4)c4ccc([nH]4)c(-c4ccc(S(=O)(=O)[O-])cc4)c4nc(c(-c5ccc(S(=O)(=O)[O-])cc5)c5ccc2[nH]5)C=C4)C=C3)cc1
REMARK SMILES IDX 4 1 3 2 1 3 2 4 34 6 35 7 93 8 36 9 92 10 37 11 38 12 39 13
REMARK SMILES IDX 86 14 40 15 91 16 85 17 87 18 41 19 90 20 84 21 83 22 42 24
REMARK SMILES IDX 72 25 53 26 71 27 54 28 57 29 70 30 88 31 55 32 56 33 69 35
REMARK SMILES IDX 89 36 58 37 43 38 44 39 52 40 45 41 51 42 46 43 47 44 48 45
REMARK SMILES IDX 49 46 50 47 73 48 74 49 82 50 75 51 81 52 76 53 77 54 78 55
REMARK SMILES IDX 79 56 80 57 59 58 60 59 68 60 61 61 67 62 62 63 63 64 64 65
REMARK SMILES IDX 65 66 66 67 5 68 6 69 7 70 8 71 9 73 10 74 21 75 22 76 33 77
REMARK SMILES IDX 23 79 32 80 24 81 25 82 26 83 31 84 27 85 30 86 28 87 29 88
REMARK SMILES IDX 11 89 12 90 20 91 13 92 14 93 19 94 15 96 17 97 16 98 18 99
REMARK H PARENT 3 5 87 23 57 34 7 72 21 78 13 95
REMARK Flexibility Score: inf
ROOT
ATOM      1  C   UNL     1       9.034  -1.791   7.695  1.00  0.00     0.118 C 
ENDROOT
BRANCH   1   2
ATOM      2  N   UNL     1       9.002  -0.481   8.339  1.00  0.00    -0.352 N 
ATOM      3  O   UNL     1       8.754   1.081   9.912  1.00  0.00    -0.269 OA
ATOM      4  C   UNL     1       9.028  -0.093   9.658  1.00  0.00     0.251 C 
ATOM      5  H   UNL     1       8.950   0.271   7.706  1.00  0.00     0.163 HD
BRANCH   4   6
ATOM      6  C   UNL     1       9.366  -1.013  10.778  1.00  0.00     0.039 A 
ATOM      7  C   UNL     1      10.296  -2.046  10.660  1.00  0.00     0.014 A 
ATOM      8  C   UNL     1       8.820  -0.746  12.043  1.00  0.00     0.014 A 
ATOM      9  C   UNL     1      10.585  -2.874  11.751  1.00  0.00     0.010 A 
ATOM     10  C   UNL     1       9.186  -1.513  13.159  1.00  0.00     0.010 A 
ATOM     11  C   UNL     1      10.057  -2.603  13.023  1.00  0.00    -0.014 A 
BRANCH  11  12
ATOM     12  C   UNL     1      10.497  -3.397  14.207  1.00  0.00     0.031 A 
ATOM     13  C   UNL     1       9.522  -4.187  15.039  1.00  0.00     0.074 A 
ATOM     14  C   UNL     1      11.796  -3.377  14.571  1.00  0.00     0.049 A 
ATOM     15  N   UNL     1       9.754  -4.955  16.077  1.00  0.00    -0.248 NA
ATOM     16  C   UNL     1       8.102  -4.089  14.674  1.00  0.00     0.031 C 
ATOM     17  C   UNL     1      12.853  -2.622  13.897  1.00  0.00     0.029 A 
ATOM     18  N   UNL     1      12.445  -4.001  15.608  1.00  0.00    -0.354 N 
ATOM     19  C   UNL     1       8.515  -5.444  16.472  1.00  0.00     0.074 A 
ATOM     20  C   UNL     1       7.533  -4.815  15.625  1.00  0.00     0.031 C 
ATOM     21  C   UNL     1      14.018  -2.838  14.525  1.00  0.00     0.029 A 
ATOM     22  C   UNL     1      13.784  -3.702  15.678  1.00  0.00     0.049 A 
ATOM     23  H   UNL     1      11.994  -4.605  16.241  1.00  0.00     0.167 HD
ATOM     24  C   UNL     1       8.208  -6.347  17.436  1.00  0.00     0.031 A 
ATOM     25  C   UNL     1      14.722  -4.055  16.578  1.00  0.00     0.031 A 
ATOM     26  C   UNL     1       9.161  -6.901  18.355  1.00  0.00     0.049 A 
ATOM     27  C   UNL     1      14.353  -4.956  17.721  1.00  0.00     0.074 A 
ATOM     28  C   UNL     1       8.950  -7.819  19.369  1.00  0.00     0.029 A 
ATOM     29  N   UNL     1      10.500  -6.549  18.402  1.00  0.00    -0.354 N 
ATOM     30  N   UNL     1      13.192  -5.500  17.996  1.00  0.00    -0.248 NA
ATOM     31  C   UNL     1      15.421  -5.296  18.670  1.00  0.00     0.031 C 
ATOM     32  C   UNL     1      10.149  -7.966  20.076  1.00  0.00     0.029 A 
ATOM     33  C   UNL     1      11.119  -7.192  19.458  1.00  0.00     0.049 A 
ATOM     34  H   UNL     1      10.944  -5.932  17.776  1.00  0.00     0.167 HD
ATOM     35  C   UNL     1      13.396  -6.271  19.135  1.00  0.00     0.074 A 
ATOM     36  C   UNL     1      14.792  -6.124  19.496  1.00  0.00     0.031 C 
ATOM     37  C   UNL     1      12.507  -7.038  19.813  1.00  0.00     0.031 A 
BRANCH  24  38
ATOM     38  C   UNL     1       6.765  -6.771  17.550  1.00  0.00    -0.014 A 
ATOM     39  C   UNL     1       6.184  -7.610  16.581  1.00  0.00     0.010 A 
ATOM     40  C   UNL     1       5.983  -6.338  18.635  1.00  0.00     0.010 A 
ATOM     41  C   UNL     1       4.835  -7.964  16.665  1.00  0.00     0.020 A 
ATOM     42  C   UNL     1       4.637  -6.706  18.734  1.00  0.00     0.020 A 
ATOM     43  C   UNL     1       4.066  -7.498  17.735  1.00  0.00     0.054 A 
BRANCH  43  44
ATOM     44  S   UNL     1       2.309  -7.946  17.805  1.00  0.00     0.124 S 
ATOM     45  O   UNL     1       1.746  -7.121  16.740  1.00  0.00    -0.237 OA
ATOM     46  O   UNL     1       2.333  -9.383  17.538  1.00  0.00    -0.237 OA
ATOM     47  O   UNL     1       1.909  -7.574  19.159  1.00  0.00    -0.744 OA
ENDBRANCH  43  44
ENDBRANCH  24  38
BRANCH  25  48
ATOM     48  C   UNL     1      16.105  -3.528  16.424  1.00  0.00    -0.014 A 
ATOM     49  C   UNL     1      17.149  -4.366  16.000  1.00  0.00     0.010 A 
ATOM     50  C   UNL     1      16.366  -2.161  16.638  1.00  0.00     0.010 A 
ATOM     51  C   UNL     1      18.429  -3.846  15.789  1.00  0.00     0.020 A 
ATOM     52  C   UNL     1      17.637  -1.633  16.401  1.00  0.00     0.020 A 
ATOM     53  C   UNL     1      18.663  -2.481  15.982  1.00  0.00     0.054 A 
BRANCH  53  54
ATOM     54  S   UNL     1      20.308  -1.813  15.613  1.00  0.00     0.124 S 
ATOM     55  O   UNL     1      21.092  -2.292  16.747  1.00  0.00    -0.237 OA
ATOM     56  O   UNL     1      20.617  -2.428  14.324  1.00  0.00    -0.237 OA
ATOM     57  O   UNL     1      20.088  -0.369  15.567  1.00  0.00    -0.744 OA
ENDBRANCH  53  54
ENDBRANCH  25  48
BRANCH  37  58
ATOM     58  C   UNL     1      13.011  -7.815  20.997  1.00  0.00    -0.014 A 
ATOM     59  C   UNL     1      13.303  -7.180  22.216  1.00  0.00     0.010 A 
ATOM     60  C   UNL     1      13.111  -9.216  20.909  1.00  0.00     0.010 A 
ATOM     61  C   UNL     1      13.703  -7.933  23.324  1.00  0.00     0.020 A 
ATOM     62  C   UNL     1      13.485  -9.973  22.021  1.00  0.00     0.020 A 
ATOM     63  C   UNL     1      13.788  -9.325  23.220  1.00  0.00     0.054 A 
BRANCH  63  64
ATOM     64  S   UNL     1      14.242 -10.287  24.689  1.00  0.00     0.124 S 
ATOM     65  O   UNL     1      15.677 -10.037  24.784  1.00  0.00    -0.237 OA
ATOM     66  O   UNL     1      13.426  -9.678  25.736  1.00  0.00    -0.237 OA
ATOM     67  O   UNL     1      13.870 -11.655  24.335  1.00  0.00    -0.744 OA
ENDBRANCH  63  64
ENDBRANCH  37  58
ENDBRANCH  11  12
ENDBRANCH   4   6
ENDBRANCH   1   2
BRANCH   1  68
ATOM     68  C   UNL     1       7.641  -2.294   7.323  1.00  0.00     0.042 C 
BRANCH  68  69
ATOM     69  C   UNL     1       7.073  -1.660   6.055  1.00  0.00     0.118 C 
BRANCH  69  70
ATOM     70  N   UNL     1       7.649  -2.174   4.827  1.00  0.00    -0.351 N 
ATOM     71  C   UNL     1       7.442  -3.147   3.917  1.00  0.00     0.283 C 
ATOM     72  H   UNL     1       8.441  -1.644   4.580  1.00  0.00     0.163 HD
ATOM     73  O   UNL     1       8.248  -3.021   2.969  1.00  0.00    -0.268 OA
BRANCH  71  74
ATOM     74  C   UNL     1       6.505  -4.391   3.890  1.00  0.00     0.307 C 
BRANCH  74  75
ATOM     75  N   UNL     1       5.467  -4.652   4.861  1.00  0.00    -0.318 N 
ATOM     76  C   UNL     1       5.287  -6.029   5.314  1.00  0.00     0.285 C 
ATOM     77  C   UNL     1       4.466  -3.774   5.404  1.00  0.00     0.285 C 
ATOM     78  H   UNL     1       6.031  -3.807   4.771  1.00  0.00     0.349 HD
ATOM     79  C   UNL     1       5.679  -6.064   6.791  1.00  0.00     0.181 C 
ATOM     80  C   UNL     1       4.500  -3.802   6.960  1.00  0.00     0.181 C 
ATOM     81  N   UNL     1       4.897  -5.089   7.545  1.00  0.00    -0.330 N 
BRANCH  81  82
ATOM     82  C   UNL     1       5.047  -5.106   8.917  1.00  0.00     0.225 A 
ATOM     83  N   UNL     1       4.315  -4.242   9.640  1.00  0.00    -0.220 NA
ATOM     84  N   UNL     1       5.882  -6.003   9.474  1.00  0.00    -0.220 NA
ATOM     85  C   UNL     1       4.322  -4.396  10.978  1.00  0.00     0.132 A 
ATOM     86  C   UNL     1       5.882  -6.103  10.819  1.00  0.00     0.132 A 
ATOM     87  C   UNL     1       5.066  -5.349  11.620  1.00  0.00     0.054 A 
ATOM     88  Br  UNL     1       4.875  -5.668  13.448  1.00  0.00    -0.047 Br
ENDBRANCH  81  82
ENDBRANCH  74  75
BRANCH  74  89
ATOM     89  C   UNL     1       5.965  -4.612   2.489  1.00  0.00     0.044 A 
ATOM     90  C   UNL     1       5.083  -3.803   1.794  1.00  0.00     0.094 A 
ATOM     91  C   UNL     1       6.344  -5.670   1.586  1.00  0.00     0.011 A 
ATOM     92  N   UNL     1       4.951  -4.294   0.524  1.00  0.00    -0.361 N 
ATOM     93  C   UNL     1       5.710  -5.430   0.366  1.00  0.00     0.046 A 
ATOM     94  C   UNL     1       7.191  -6.796   1.687  1.00  0.00     0.031 A 
ATOM     95  H   UNL     1       4.392  -3.890  -0.179  1.00  0.00     0.166 HD
ATOM     96  C   UNL     1       5.887  -6.245  -0.760  1.00  0.00     0.028 A 
ATOM     97  C   UNL     1       7.365  -7.625   0.574  1.00  0.00     0.041 A 
ATOM     98  C   UNL     1       6.729  -7.353  -0.633  1.00  0.00     0.022 A 
ATOM     99  Cl  UNL     1       8.389  -9.006   0.698  1.00  0.00    -0.084 Cl
ENDBRANCH  74  89
ENDBRANCH  71  74
ENDBRANCH  69  70
ENDBRANCH  68  69
ENDBRANCH   1  68
TORSDOF 16
