REMARK SMILES C[NH+]1CCN(c2nc3c(cc2F)c(=O)c(C(=O)NCCCNC(=O)c2ccc(-c4c5nc(c(-c6ccc(S(=O)(=O)[O-])cc6)c6ccc([nH]6)c(-c6ccc(S(=O)(=O)[O-])cc6)c6nc(c(-c7ccc(S(=O)(=O)[O-])cc7)c7ccc4[nH]7)C=C6)C=C5)cc2)cn3-c2ccc(F)cc2F)CC1
REMARK SMILES IDX 21 1 20 2 19 3 18 4 16 5 17 6 15 8 6 9 7 10 11 11 8 12 10 13
REMARK SMILES IDX 12 14 9 15 86 16 13 17 85 18 14 19 5 20 1 21 2 22 3 23 96 24
REMARK SMILES IDX 4 26 95 27 87 28 88 29 93 30 89 31 92 32 94 33 90 34 91 35
REMARK SMILES IDX 22 36 23 37 24 39 25 40 26 41 84 42 27 43 83 44 28 45 29 46
REMARK SMILES IDX 30 47 77 48 31 49 82 50 76 51 78 52 32 53 81 54 75 55 74 56
REMARK SMILES IDX 33 58 63 59 44 60 62 61 45 62 48 63 61 64 79 65 46 66 47 67
REMARK SMILES IDX 60 69 80 70 49 71 34 72 35 73 43 74 36 75 42 76 37 77 38 78
REMARK SMILES IDX 39 79 40 80 41 81 64 82 65 83 73 84 66 85 72 86 67 87 68 88
REMARK SMILES IDX 69 89 70 90 71 91 50 92 51 93 59 94 52 95 58 96 53 97 54 98
REMARK SMILES IDX 55 99 56 100 57 101
REMARK H PARENT 18 7 2 25 22 38 78 57 48 68
REMARK Flexibility Score: inf
ROOT
ATOM      1  C   UNL     1      -9.641  -0.467   6.729  1.00  0.00     0.118 C 
ENDROOT
BRANCH   1   2
ATOM      2  C   UNL     1      -8.492  -0.588   5.741  1.00  0.00     0.042 C 
BRANCH   2   3
ATOM      3  C   UNL     1      -8.916  -1.160   4.390  1.00  0.00     0.118 C 
BRANCH   3   4
ATOM      4  N   UNL     1      -9.573  -0.155   3.571  1.00  0.00    -0.352 N 
ATOM      5  C   UNL     1      -9.117   0.668   2.591  1.00  0.00     0.256 C 
ATOM      6  O   UNL     1      -9.958   1.398   2.056  1.00  0.00    -0.269 OA
ATOM      7  H   UNL     1     -10.534  -0.052   3.762  1.00  0.00     0.163 HD
BRANCH   5   8
ATOM      8  C   UNL     1      -7.713   0.662   2.094  1.00  0.00     0.104 A 
ATOM      9  C   UNL     1      -2.913  -0.102   0.610  1.00  0.00     0.167 A 
ATOM     10  N   UNL     1      -3.974   0.543   0.064  1.00  0.00    -0.209 NA
ATOM     11  C   UNL     1      -3.004  -0.708   1.866  1.00  0.00     0.166 A 
ATOM     12  C   UNL     1      -5.151   0.595   0.741  1.00  0.00     0.151 A 
ATOM     13  C   UNL     1      -4.171  -0.604   2.597  1.00  0.00     0.059 A 
ATOM     14  F   UNL     1      -1.957  -1.349   2.405  1.00  0.00    -0.203 F 
ATOM     15  C   UNL     1      -5.251   0.066   2.026  1.00  0.00     0.069 A 
ATOM     16  N   UNL     1      -6.311   1.194   0.150  1.00  0.00    -0.297 N 
ATOM     17  C   UNL     1      -6.482   0.258   2.806  1.00  0.00     0.203 A 
ATOM     18  C   UNL     1      -7.515   1.135   0.850  1.00  0.00     0.111 A 
ATOM     19  O   UNL     1      -6.410   0.109   4.017  1.00  0.00    -0.288 OA
BRANCH   9  20
ATOM     20  N   UNL     1      -1.749  -0.112  -0.114  1.00  0.00    -0.343 N 
ATOM     21  C   UNL     1       2.488   0.105   0.143  1.00  0.00     0.332 C 
ATOM     22  N   UNL     1       1.125   0.019  -0.376  1.00  0.00    -0.334 N 
ATOM     23  C   UNL     1       0.333   1.207   0.029  1.00  0.00     0.283 C 
ATOM     24  C   UNL     1       0.457  -1.200   0.136  1.00  0.00     0.283 C 
ATOM     25  H   UNL     1       1.179  -0.019  -1.394  1.00  0.00     0.347 HD
ATOM     26  C   UNL     1      -1.131   1.158  -0.485  1.00  0.00     0.179 C 
ATOM     27  C   UNL     1      -0.994  -1.330  -0.372  1.00  0.00     0.179 C 
ENDBRANCH   9  20
BRANCH  16  28
ATOM     28  C   UNL     1      -6.284   1.780  -1.152  1.00  0.00     0.083 A 
ATOM     29  C   UNL     1      -5.878   1.030  -2.270  1.00  0.00     0.033 A 
ATOM     30  C   UNL     1      -6.665   3.118  -1.356  1.00  0.00     0.150 A 
ATOM     31  C   UNL     1      -5.859   1.605  -3.543  1.00  0.00     0.041 A 
ATOM     32  C   UNL     1      -6.634   3.702  -2.618  1.00  0.00     0.080 A 
ATOM     33  F   UNL     1      -7.049   3.873  -0.316  1.00  0.00    -0.205 F 
ATOM     34  C   UNL     1      -6.232   2.936  -3.702  1.00  0.00     0.126 A 
ATOM     35  F   UNL     1      -6.202   3.485  -4.923  1.00  0.00    -0.207 F 
ENDBRANCH  16  28
ENDBRANCH   5   8
ENDBRANCH   3   4
ENDBRANCH   2   3
ENDBRANCH   1   2
BRANCH   1  36
ATOM     36  N   UNL     1     -10.017  -1.760   7.284  1.00  0.00    -0.352 N 
ATOM     37  C   UNL     1      -9.829  -2.239   8.557  1.00  0.00     0.251 C 
ATOM     38  H   UNL     1     -10.469  -2.374   6.661  1.00  0.00     0.163 HD
ATOM     39  O   UNL     1      -9.986  -3.434   8.791  1.00  0.00    -0.269 OA
BRANCH  37  40
ATOM     40  C   UNL     1      -9.427  -1.314   9.637  1.00  0.00     0.039 A 
ATOM     41  C   UNL     1      -8.395  -1.684  10.502  1.00  0.00     0.014 A 
ATOM     42  C   UNL     1     -10.084  -0.090   9.805  1.00  0.00     0.014 A 
ATOM     43  C   UNL     1      -7.992  -0.805  11.510  1.00  0.00     0.010 A 
ATOM     44  C   UNL     1      -9.636   0.813  10.764  1.00  0.00     0.010 A 
ATOM     45  C   UNL     1      -8.600   0.454  11.638  1.00  0.00    -0.014 A 
BRANCH  45  46
ATOM     46  C   UNL     1      -8.208   1.377  12.729  1.00  0.00     0.031 A 
ATOM     47  C   UNL     1      -9.172   1.648  13.851  1.00  0.00     0.074 A 
ATOM     48  C   UNL     1      -7.001   1.976  12.706  1.00  0.00     0.049 A 
ATOM     49  N   UNL     1      -9.009   2.398  14.909  1.00  0.00    -0.248 NA
ATOM     50  C   UNL     1     -10.495   1.006  13.769  1.00  0.00     0.031 C 
ATOM     51  C   UNL     1      -5.998   1.816  11.651  1.00  0.00     0.029 A 
ATOM     52  N   UNL     1      -6.410   2.832  13.600  1.00  0.00    -0.354 N 
ATOM     53  C   UNL     1     -10.203   2.316  15.614  1.00  0.00     0.074 A 
ATOM     54  C   UNL     1     -11.103   1.492  14.841  1.00  0.00     0.031 C 
ATOM     55  C   UNL     1      -4.902   2.522  11.978  1.00  0.00     0.029 A 
ATOM     56  C   UNL     1      -5.132   3.200  13.251  1.00  0.00     0.049 A 
ATOM     57  H   UNL     1      -6.859   3.153  14.416  1.00  0.00     0.167 HD
ATOM     58  C   UNL     1     -10.511   2.853  16.816  1.00  0.00     0.031 A 
ATOM     59  C   UNL     1      -4.241   3.984  13.890  1.00  0.00     0.031 A 
ATOM     60  C   UNL     1      -9.606   3.649  17.594  1.00  0.00     0.049 A 
ATOM     61  C   UNL     1      -4.611   4.585  15.218  1.00  0.00     0.074 A 
ATOM     62  C   UNL     1      -9.806   4.191  18.851  1.00  0.00     0.029 A 
ATOM     63  N   UNL     1      -8.330   4.012  17.194  1.00  0.00    -0.354 N 
ATOM     64  N   UNL     1      -5.724   4.447  15.898  1.00  0.00    -0.248 NA
ATOM     65  C   UNL     1      -3.610   5.442  15.871  1.00  0.00     0.031 C 
ATOM     66  C   UNL     1      -8.664   4.916  19.195  1.00  0.00     0.029 A 
ATOM     67  C   UNL     1      -7.738   4.790  18.170  1.00  0.00     0.049 A 
ATOM     68  H   UNL     1      -7.909   3.754  16.342  1.00  0.00     0.167 HD
ATOM     69  C   UNL     1      -5.551   5.181  17.064  1.00  0.00     0.074 A 
ATOM     70  C   UNL     1      -4.226   5.763  17.003  1.00  0.00     0.031 C 
ATOM     71  C   UNL     1      -6.414   5.353  18.094  1.00  0.00     0.031 A 
BRANCH  58  72
ATOM     72  C   UNL     1     -11.876   2.576  17.378  1.00  0.00    -0.014 A 
ATOM     73  C   UNL     1     -12.186   1.312  17.911  1.00  0.00     0.010 A 
ATOM     74  C   UNL     1     -12.834   3.603  17.439  1.00  0.00     0.010 A 
ATOM     75  C   UNL     1     -13.438   1.075  18.480  1.00  0.00     0.020 A 
ATOM     76  C   UNL     1     -14.081   3.375  18.027  1.00  0.00     0.020 A 
ATOM     77  C   UNL     1     -14.376   2.110  18.540  1.00  0.00     0.054 A 
BRANCH  77  78
ATOM     78  S   UNL     1     -15.980   1.774  19.316  1.00  0.00     0.124 S 
ATOM     79  O   UNL     1     -16.517   0.717  18.462  1.00  0.00    -0.237 OA
ATOM     80  O   UNL     1     -15.597   1.360  20.662  1.00  0.00    -0.237 OA
ATOM     81  O   UNL     1     -16.683   3.052  19.232  1.00  0.00    -0.744 OA
ENDBRANCH  77  78
ENDBRANCH  58  72
BRANCH  59  82
ATOM     82  C   UNL     1      -2.898   4.206  13.291  1.00  0.00    -0.014 A 
ATOM     83  C   UNL     1      -1.774   3.536  13.805  1.00  0.00     0.010 A 
ATOM     84  C   UNL     1      -2.745   5.041  12.170  1.00  0.00     0.010 A 
ATOM     85  C   UNL     1      -0.521   3.694  13.204  1.00  0.00     0.020 A 
ATOM     86  C   UNL     1      -1.497   5.187  11.556  1.00  0.00     0.020 A 
ATOM     87  C   UNL     1      -0.393   4.509  12.076  1.00  0.00     0.054 A 
BRANCH  87  88
ATOM     88  S   UNL     1       1.234   4.643  11.282  1.00  0.00     0.124 S 
ATOM     89  O   UNL     1       2.054   5.204  12.351  1.00  0.00    -0.237 OA
ATOM     90  O   UNL     1       1.518   3.255  10.928  1.00  0.00    -0.237 OA
ATOM     91  O   UNL     1       0.992   5.533  10.148  1.00  0.00    -0.744 OA
ENDBRANCH  87  88
ENDBRANCH  59  82
BRANCH  71  92
ATOM     92  C   UNL     1      -5.979   6.192  19.261  1.00  0.00    -0.014 A 
ATOM     93  C   UNL     1      -6.074   7.592  19.203  1.00  0.00     0.010 A 
ATOM     94  C   UNL     1      -5.661   5.567  20.481  1.00  0.00     0.010 A 
ATOM     95  C   UNL     1      -5.884   8.355  20.357  1.00  0.00     0.020 A 
ATOM     96  C   UNL     1      -5.487   6.327  21.640  1.00  0.00     0.020 A 
ATOM     97  C   UNL     1      -5.612   7.716  21.572  1.00  0.00     0.054 A 
BRANCH  97  98
ATOM     98  S   UNL     1      -5.494   8.729  23.073  1.00  0.00     0.124 S 
ATOM     99  O   UNL     1      -4.363   9.601  22.768  1.00  0.00    -0.237 OA
ATOM    100  O   UNL     1      -6.799   9.383  23.113  1.00  0.00    -0.237 OA
ATOM    101  O   UNL     1      -5.256   7.753  24.134  1.00  0.00    -0.744 OA
ENDBRANCH  97  98
ENDBRANCH  71  92
ENDBRANCH  45  46
ENDBRANCH  37  40
ENDBRANCH   1  36
TORSDOF 15
