REMARK SMILES [NH3+][C@H](C(=O)NCCCNC(=O)c1ccc(-c2c3nc(c(-c4ccc(S(=O)(=O)[O-])cc4)c4ccc([nH]4)c(-c4ccc(S(=O)(=O)[O-])cc4)c4nc(c(-c5ccc(S(=O)(=O)[O-])cc5)c5ccc2[nH]5)C=C4)C=C3)cc1)c1cccc(OCc2ccc(F)cc2)c1
REMARK SMILES IDX 6 1 5 2 3 3 4 4 2 6 1 7 72 11 73 12 86 13 74 14 76 15 75 16
REMARK SMILES IDX 77 17 78 18 79 19 80 20 85 21 81 22 84 23 82 24 83 25 7 26
REMARK SMILES IDX 8 27 9 28 10 29 11 31 12 32 13 33 71 34 14 35 70 36 15 37
REMARK SMILES IDX 16 38 17 39 64 40 18 41 69 42 63 43 65 44 19 45 68 46 62 47
REMARK SMILES IDX 61 48 20 50 50 51 31 52 49 53 32 54 35 55 48 56 66 57 33 58
REMARK SMILES IDX 34 59 47 61 67 62 36 63 21 64 22 65 30 66 23 67 29 68 24 69
REMARK SMILES IDX 25 70 26 71 27 72 28 73 51 74 52 75 60 76 53 77 59 78 54 79
REMARK SMILES IDX 55 80 56 81 57 82 58 83 37 84 38 85 46 86 39 87 45 88 40 89
REMARK SMILES IDX 41 90 42 91 43 92 44 93
REMARK H PARENT 5 5 1 8 1 9 1 10 9 30 65 49 35 60
REMARK Flexibility Score: inf
ROOT
ATOM      1  C   UNL     1       0.036  -2.233   1.020  1.00  0.00     0.118 C 
ENDROOT
BRANCH   1   2
ATOM      2  N   UNL     1       0.995  -1.210   0.567  1.00  0.00    -0.351 N 
ATOM      3  C   UNL     1       1.017   0.120   0.289  1.00  0.00     0.283 C 
ATOM      4  O   UNL     1       1.979   0.412  -0.455  1.00  0.00    -0.268 OA
ATOM      5  H   UNL     1       1.883  -1.608   0.424  1.00  0.00     0.163 HD
BRANCH   3   6
ATOM      6  C   UNL     1       0.184   1.325   0.916  1.00  0.00     0.302 C 
BRANCH   6   7
ATOM      7  N   UNL     1       0.843   2.563   0.364  1.00  0.00    -0.343 N 
ATOM      8  H   UNL     1       0.365   3.391   0.721  1.00  0.00     0.345 HD
ATOM      9  H   UNL     1       0.789   2.552  -0.654  1.00  0.00     0.345 HD
ATOM     10  H   UNL     1       1.822   2.585   0.652  1.00  0.00     0.345 HD
ENDBRANCH   6   7
BRANCH   6  11
ATOM     11  C   UNL     1      -1.319   1.448   0.688  1.00  0.00     0.023 A 
ATOM     12  C   UNL     1      -1.967   2.668   0.385  1.00  0.00     0.011 A 
ATOM     13  C   UNL     1      -2.152   0.354   0.840  1.00  0.00     0.057 A 
ATOM     14  C   UNL     1      -3.350   2.736   0.132  1.00  0.00     0.004 A 
ATOM     15  C   UNL     1      -3.489   0.383   0.447  1.00  0.00     0.120 A 
ATOM     16  C   UNL     1      -4.115   1.575   0.130  1.00  0.00     0.046 A 
BRANCH  15  17
ATOM     17  O   UNL     1      -4.098  -0.826   0.359  1.00  0.00    -0.489 OA
BRANCH  17  18
ATOM     18  C   UNL     1      -4.304  -1.317  -0.984  1.00  0.00     0.265 C 
BRANCH  18  19
ATOM     19  C   UNL     1      -3.220  -1.290  -2.073  1.00  0.00    -0.011 A 
ATOM     20  C   UNL     1      -3.113  -2.416  -2.900  1.00  0.00     0.010 A 
ATOM     21  C   UNL     1      -2.357  -0.227  -2.371  1.00  0.00     0.010 A 
ATOM     22  C   UNL     1      -2.098  -2.553  -3.853  1.00  0.00     0.039 A 
ATOM     23  C   UNL     1      -1.325  -0.357  -3.314  1.00  0.00     0.039 A 
ATOM     24  C   UNL     1      -1.186  -1.534  -4.026  1.00  0.00     0.123 A 
ATOM     25  F   UNL     1      -0.174  -1.688  -4.889  1.00  0.00    -0.207 F 
ENDBRANCH  18  19
ENDBRANCH  17  18
ENDBRANCH  15  17
ENDBRANCH   6  11
ENDBRANCH   3   6
ENDBRANCH   1   2
BRANCH   1  26
ATOM     26  C   UNL     1      -0.906  -2.663  -0.133  1.00  0.00     0.042 C 
BRANCH  26  27
ATOM     27  C   UNL     1      -0.863  -4.116  -0.662  1.00  0.00     0.118 C 
BRANCH  27  28
ATOM     28  N   UNL     1      -1.865  -4.998  -0.058  1.00  0.00    -0.352 N 
ATOM     29  C   UNL     1      -2.986  -5.687  -0.480  1.00  0.00     0.251 C 
ATOM     30  H   UNL     1      -1.694  -5.136   0.901  1.00  0.00     0.163 HD
ATOM     31  O   UNL     1      -3.562  -6.346   0.393  1.00  0.00    -0.269 OA
BRANCH  29  32
ATOM     32  C   UNL     1      -3.620  -5.670  -1.842  1.00  0.00     0.039 A 
ATOM     33  C   UNL     1      -5.028  -5.641  -1.886  1.00  0.00     0.014 A 
ATOM     34  C   UNL     1      -2.961  -5.748  -3.068  1.00  0.00     0.014 A 
ATOM     35  C   UNL     1      -5.748  -5.579  -3.105  1.00  0.00     0.010 A 
ATOM     36  C   UNL     1      -3.690  -5.638  -4.296  1.00  0.00     0.010 A 
ATOM     37  C   UNL     1      -5.097  -5.503  -4.346  1.00  0.00    -0.014 A 
BRANCH  37  38
ATOM     38  C   UNL     1      -5.874  -5.246  -5.638  1.00  0.00     0.031 A 
ATOM     39  C   UNL     1      -5.715  -6.130  -6.872  1.00  0.00     0.074 A 
ATOM     40  C   UNL     1      -6.716  -4.185  -5.770  1.00  0.00     0.049 A 
ATOM     41  N   UNL     1      -6.255  -6.000  -8.065  1.00  0.00    -0.248 NA
ATOM     42  C   UNL     1      -4.829  -7.296  -6.758  1.00  0.00     0.031 C 
ATOM     43  C   UNL     1      -7.003  -3.185  -4.738  1.00  0.00     0.029 A 
ATOM     44  N   UNL     1      -7.490  -3.757  -6.840  1.00  0.00    -0.354 N 
ATOM     45  C   UNL     1      -5.742  -7.032  -8.848  1.00  0.00     0.074 A 
ATOM     46  C   UNL     1      -4.827  -7.767  -7.999  1.00  0.00     0.031 C 
ATOM     47  C   UNL     1      -7.889  -2.291  -5.209  1.00  0.00     0.029 A 
ATOM     48  C   UNL     1      -8.210  -2.601  -6.601  1.00  0.00     0.049 A 
ATOM     49  H   UNL     1      -7.523  -4.237  -7.699  1.00  0.00     0.167 HD
ATOM     50  C   UNL     1      -6.003  -7.363 -10.141  1.00  0.00     0.031 A 
ATOM     51  C   UNL     1      -9.017  -1.847  -7.386  1.00  0.00     0.031 A 
ATOM     52  C   UNL     1      -6.950  -6.701 -11.006  1.00  0.00     0.049 A 
ATOM     53  C   UNL     1      -9.275  -2.227  -8.828  1.00  0.00     0.074 A 
ATOM     54  C   UNL     1      -7.336  -7.070 -12.288  1.00  0.00     0.029 A 
ATOM     55  N   UNL     1      -7.646  -5.545 -10.706  1.00  0.00    -0.354 N 
ATOM     56  N   UNL     1      -8.857  -3.275  -9.492  1.00  0.00    -0.248 NA
ATOM     57  C   UNL     1     -10.118  -1.317  -9.627  1.00  0.00     0.031 C 
ATOM     58  C   UNL     1      -8.203  -6.097 -12.791  1.00  0.00     0.029 A 
ATOM     59  C   UNL     1      -8.415  -5.160 -11.796  1.00  0.00     0.049 A 
ATOM     60  H   UNL     1      -7.604  -5.066  -9.847  1.00  0.00     0.167 HD
ATOM     61  C   UNL     1      -9.403  -3.159 -10.770  1.00  0.00     0.074 A 
ATOM     62  C   UNL     1     -10.205  -1.959 -10.785  1.00  0.00     0.031 C 
ATOM     63  C   UNL     1      -9.237  -3.979 -11.836  1.00  0.00     0.031 A 
BRANCH  50  64
ATOM     64  C   UNL     1      -5.250  -8.523 -10.751  1.00  0.00    -0.014 A 
ATOM     65  C   UNL     1      -5.542  -9.851 -10.395  1.00  0.00     0.010 A 
ATOM     66  C   UNL     1      -4.338  -8.282 -11.799  1.00  0.00     0.010 A 
ATOM     67  C   UNL     1      -4.919 -10.914 -11.057  1.00  0.00     0.020 A 
ATOM     68  C   UNL     1      -3.736  -9.342 -12.483  1.00  0.00     0.020 A 
ATOM     69  C   UNL     1      -4.024 -10.653 -12.100  1.00  0.00     0.054 A 
BRANCH  69  70
ATOM     70  S   UNL     1      -3.283 -12.059 -12.976  1.00  0.00     0.124 S 
ATOM     71  O   UNL     1      -2.377 -12.598 -11.967  1.00  0.00    -0.237 OA
ATOM     72  O   UNL     1      -4.441 -12.886 -13.290  1.00  0.00    -0.237 OA
ATOM     73  O   UNL     1      -2.628 -11.441 -14.132  1.00  0.00    -0.744 OA
ENDBRANCH  69  70
ENDBRANCH  50  64
BRANCH  51  74
ATOM     74  C   UNL     1      -9.639  -0.588  -6.859  1.00  0.00    -0.014 A 
ATOM     75  C   UNL     1     -11.037  -0.463  -6.743  1.00  0.00     0.010 A 
ATOM     76  C   UNL     1      -8.836   0.527  -6.554  1.00  0.00     0.010 A 
ATOM     77  C   UNL     1     -11.618   0.756  -6.374  1.00  0.00     0.020 A 
ATOM     78  C   UNL     1      -9.411   1.736  -6.147  1.00  0.00     0.020 A 
ATOM     79  C   UNL     1     -10.800   1.850  -6.079  1.00  0.00     0.054 A 
BRANCH  79  80
ATOM     80  S   UNL     1     -11.572   3.417  -5.585  1.00  0.00     0.124 S 
ATOM     81  O   UNL     1     -12.127   3.895  -6.847  1.00  0.00    -0.237 OA
ATOM     82  O   UNL     1     -12.546   2.988  -4.586  1.00  0.00    -0.237 OA
ATOM     83  O   UNL     1     -10.453   4.196  -5.058  1.00  0.00    -0.744 OA
ENDBRANCH  79  80
ENDBRANCH  51  74
BRANCH  63  84
ATOM     84  C   UNL     1      -9.951  -3.647 -13.126  1.00  0.00    -0.014 A 
ATOM     85  C   UNL     1      -9.551  -2.561 -13.924  1.00  0.00     0.010 A 
ATOM     86  C   UNL     1     -10.978  -4.489 -13.595  1.00  0.00     0.010 A 
ATOM     87  C   UNL     1     -10.168  -2.317 -15.157  1.00  0.00     0.020 A 
ATOM     88  C   UNL     1     -11.579  -4.265 -14.840  1.00  0.00     0.020 A 
ATOM     89  C   UNL     1     -11.173  -3.176 -15.611  1.00  0.00     0.054 A 
BRANCH  89  90
ATOM     90  S   UNL     1     -11.900  -2.882 -17.249  1.00  0.00     0.124 S 
ATOM     91  O   UNL     1     -12.668  -1.659 -17.029  1.00  0.00    -0.237 OA
ATOM     92  O   UNL     1     -10.720  -2.737 -18.101  1.00  0.00    -0.237 OA
ATOM     93  O   UNL     1     -12.697  -4.079 -17.498  1.00  0.00    -0.744 OA
ENDBRANCH  89  90
ENDBRANCH  63  84
ENDBRANCH  37  38
ENDBRANCH  29  32
ENDBRANCH  27  28
ENDBRANCH  26  27
ENDBRANCH   1  26
TORSDOF 18
