REMARK SMILES COc1cccc(NC(=O)[C@@H]2[C@@H](C(=O)NCCCNC(=O)c3ccc(-c4c5nc(c(-c6ccc(S(=O)(=O)[O-])cc6)c6ccc([nH]6)c(-c6ccc(S(=O)(=O)[O-])cc6)c6nc(c(-c7ccc(S(=O)(=O)[O-])cc7)c7ccc4[nH]7)C=C6)C=C5)cc3)[C@H]3C=C[C@@H]2C3)c1
REMARK SMILES IDX 17 1 16 2 15 3 13 4 14 5 12 7 11 8 85 9 82 10 84 11 86 12
REMARK SMILES IDX 83 13 9 14 8 15 10 17 7 18 3 19 4 20 87 21 5 22 6 23 2 24
REMARK SMILES IDX 1 25 18 26 19 27 20 28 21 30 22 31 23 32 81 33 24 34 80 35
REMARK SMILES IDX 25 36 26 37 27 38 74 39 28 40 79 41 73 42 75 43 29 44 78 45
REMARK SMILES IDX 72 46 71 47 30 49 60 50 41 51 59 52 42 53 45 54 58 55 76 56
REMARK SMILES IDX 43 57 44 58 57 60 77 61 46 62 31 63 32 64 40 65 33 66 39 67
REMARK SMILES IDX 34 68 35 69 36 70 37 71 38 72 61 73 62 74 70 75 63 76 69 77
REMARK SMILES IDX 64 78 65 79 66 80 67 81 68 82 47 83 48 84 56 85 49 86 55 87
REMARK SMILES IDX 50 88 51 89 52 90 53 91 54 92
REMARK H PARENT 15 6 8 16 19 29 75 48 45 59
REMARK Flexibility Score: inf
ROOT
ATOM      1  C   UNL     1       2.196   9.622   6.202  1.00  0.00     0.042 C 
ENDROOT
BRANCH   1   2
ATOM      2  C   UNL     1       2.391   8.138   6.459  1.00  0.00     0.117 C 
BRANCH   2   3
ATOM      3  N   UNL     1       2.214   7.337   5.266  1.00  0.00    -0.356 N 
ATOM      4  C   UNL     1       2.884   6.279   4.767  1.00  0.00     0.224 C 
ATOM      5  O   UNL     1       2.498   5.899   3.654  1.00  0.00    -0.275 OA
ATOM      6  H   UNL     1       1.454   7.622   4.709  1.00  0.00     0.163 HD
BRANCH   4   7
ATOM      7  C   UNL     1       4.057   5.561   5.413  1.00  0.00     0.098 C 
ATOM      8  C   UNL     1       3.763   4.029   5.618  1.00  0.00     0.099 C 
ATOM      9  C   UNL     1       4.476   3.748   6.977  1.00  0.00     0.025 C 
ATOM     10  C   UNL     1       4.655   5.968   6.779  1.00  0.00     0.025 C 
ATOM     11  C   UNL     1       3.600   4.351   8.049  1.00  0.00    -0.027 C 
ATOM     12  C   UNL     1       5.604   4.788   7.007  1.00  0.00     0.017 C 
ATOM     13  C   UNL     1       3.706   5.680   7.929  1.00  0.00    -0.027 C 
BRANCH   8  14
ATOM     14  C   UNL     1       4.364   3.167   4.527  1.00  0.00     0.228 C 
ATOM     15  N   UNL     1       3.657   2.590   3.520  1.00  0.00    -0.326 N 
ATOM     16  H   UNL     1       4.239   2.048   2.940  1.00  0.00     0.169 HD
ATOM     17  O   UNL     1       5.581   2.935   4.523  1.00  0.00    -0.274 OA
BRANCH  15  18
ATOM     18  C   UNL     1       2.319   2.553   3.077  1.00  0.00     0.044 A 
ATOM     19  C   UNL     1       0.806   1.707   1.346  1.00  0.00     0.120 A 
ATOM     20  C   UNL     1      -0.245   2.420   1.910  1.00  0.00     0.046 A 
ATOM     21  C   UNL     1       2.080   1.781   1.922  1.00  0.00     0.072 A 
ATOM     22  C   UNL     1      -0.034   3.165   3.063  1.00  0.00     0.006 A 
ATOM     23  C   UNL     1       1.238   3.221   3.644  1.00  0.00     0.026 A 
BRANCH  19  24
ATOM     24  O   UNL     1       0.501   1.028   0.198  1.00  0.00    -0.497 OA
ATOM     25  C   UNL     1       1.208  -0.191   0.007  1.00  0.00     0.278 C 
ENDBRANCH  19  24
ENDBRANCH  15  18
ENDBRANCH   8  14
ENDBRANCH   4   7
ENDBRANCH   2   3
ENDBRANCH   1   2
BRANCH   1  26
ATOM     26  C   UNL     1       0.750  10.016   5.948  1.00  0.00     0.118 C 
BRANCH  26  27
ATOM     27  N   UNL     1      -0.100   9.838   7.119  1.00  0.00    -0.352 N 
ATOM     28  C   UNL     1      -0.539  10.736   8.066  1.00  0.00     0.251 C 
ATOM     29  H   UNL     1      -0.415   8.915   7.257  1.00  0.00     0.163 HD
ATOM     30  O   UNL     1      -1.077  10.318   9.085  1.00  0.00    -0.269 OA
BRANCH  28  31
ATOM     31  C   UNL     1      -0.336  12.190   7.878  1.00  0.00     0.039 A 
ATOM     32  C   UNL     1       0.019  12.979   8.976  1.00  0.00     0.014 A 
ATOM     33  C   UNL     1      -0.497  12.784   6.627  1.00  0.00     0.014 A 
ATOM     34  C   UNL     1       0.312  14.334   8.792  1.00  0.00     0.010 A 
ATOM     35  C   UNL     1      -0.087  14.096   6.423  1.00  0.00     0.010 A 
ATOM     36  C   UNL     1       0.321  14.889   7.503  1.00  0.00    -0.014 A 
BRANCH  36  37
ATOM     37  C   UNL     1       0.764  16.286   7.251  1.00  0.00     0.031 A 
ATOM     38  C   UNL     1      -0.169  17.270   6.592  1.00  0.00     0.074 A 
ATOM     39  C   UNL     1       2.034  16.642   7.533  1.00  0.00     0.049 A 
ATOM     40  N   UNL     1       0.068  18.496   6.203  1.00  0.00    -0.248 NA
ATOM     41  C   UNL     1      -1.536  16.805   6.301  1.00  0.00     0.031 C 
ATOM     42  C   UNL     1       3.051  15.767   8.123  1.00  0.00     0.029 A 
ATOM     43  N   UNL     1       2.693  17.833   7.352  1.00  0.00    -0.354 N 
ATOM     44  C   UNL     1      -1.107  18.938   5.604  1.00  0.00     0.074 A 
ATOM     45  C   UNL     1      -2.036  17.831   5.629  1.00  0.00     0.031 C 
ATOM     46  C   UNL     1       4.190  16.459   8.285  1.00  0.00     0.029 A 
ATOM     47  C   UNL     1       4.006  17.808   7.763  1.00  0.00     0.049 A 
ATOM     48  H   UNL     1       2.266  18.631   6.963  1.00  0.00     0.167 HD
ATOM     49  C   UNL     1      -1.395  20.161   5.099  1.00  0.00     0.031 A 
ATOM     50  C   UNL     1       4.960  18.758   7.715  1.00  0.00     0.031 A 
ATOM     51  C   UNL     1      -0.471  21.264   5.094  1.00  0.00     0.049 A 
ATOM     52  C   UNL     1       4.618  20.105   7.141  1.00  0.00     0.074 A 
ATOM     53  C   UNL     1      -0.688  22.562   4.667  1.00  0.00     0.029 A 
ATOM     54  N   UNL     1       0.842  21.201   5.534  1.00  0.00    -0.354 N 
ATOM     55  N   UNL     1       3.476  20.525   6.648  1.00  0.00    -0.248 NA
ATOM     56  C   UNL     1       5.689  21.110   7.123  1.00  0.00     0.031 C 
ATOM     57  C   UNL     1       0.513  23.268   4.791  1.00  0.00     0.029 A 
ATOM     58  C   UNL     1       1.458  22.428   5.360  1.00  0.00     0.049 A 
ATOM     59  H   UNL     1       1.272  20.401   5.914  1.00  0.00     0.167 HD
ATOM     60  C   UNL     1       3.686  21.850   6.285  1.00  0.00     0.074 A 
ATOM     61  C   UNL     1       5.055  22.168   6.636  1.00  0.00     0.031 C 
ATOM     62  C   UNL     1       2.824  22.726   5.711  1.00  0.00     0.031 A 
BRANCH  49  63
ATOM     63  C   UNL     1      -2.765  20.372   4.509  1.00  0.00    -0.014 A 
ATOM     64  C   UNL     1      -3.914  20.389   5.322  1.00  0.00     0.010 A 
ATOM     65  C   UNL     1      -2.903  20.610   3.129  1.00  0.00     0.010 A 
ATOM     66  C   UNL     1      -5.176  20.605   4.763  1.00  0.00     0.020 A 
ATOM     67  C   UNL     1      -4.161  20.858   2.570  1.00  0.00     0.020 A 
ATOM     68  C   UNL     1      -5.291  20.839   3.389  1.00  0.00     0.054 A 
BRANCH  68  69
ATOM     69  S   UNL     1      -6.938  21.154   2.699  1.00  0.00     0.124 S 
ATOM     70  O   UNL     1      -7.561  19.836   2.792  1.00  0.00    -0.237 OA
ATOM     71  O   UNL     1      -7.474  22.168   3.604  1.00  0.00    -0.237 OA
ATOM     72  O   UNL     1      -6.664  21.618   1.341  1.00  0.00    -0.744 OA
ENDBRANCH  68  69
ENDBRANCH  49  63
BRANCH  50  73
ATOM     73  C   UNL     1       6.329  18.470   8.227  1.00  0.00    -0.014 A 
ATOM     74  C   UNL     1       6.807  19.104   9.388  1.00  0.00     0.010 A 
ATOM     75  C   UNL     1       7.164  17.556   7.557  1.00  0.00     0.010 A 
ATOM     76  C   UNL     1       8.101  18.849   9.855  1.00  0.00     0.020 A 
ATOM     77  C   UNL     1       8.446  17.274   8.039  1.00  0.00     0.020 A 
ATOM     78  C   UNL     1       8.911  17.933   9.178  1.00  0.00     0.054 A 
BRANCH  78  79
ATOM     79  S   UNL     1      10.570  17.588   9.825  1.00  0.00     0.124 S 
ATOM     80  O   UNL     1      11.286  18.817   9.498  1.00  0.00    -0.237 OA
ATOM     81  O   UNL     1      10.313  17.363  11.246  1.00  0.00    -0.237 OA
ATOM     82  O   UNL     1      10.987  16.401   9.081  1.00  0.00    -0.744 OA
ENDBRANCH  78  79
ENDBRANCH  50  73
BRANCH  62  83
ATOM     83  C   UNL     1       3.325  24.122   5.452  1.00  0.00    -0.014 A 
ATOM     84  C   UNL     1       4.272  24.381   4.446  1.00  0.00     0.010 A 
ATOM     85  C   UNL     1       2.799  25.196   6.192  1.00  0.00     0.010 A 
ATOM     86  C   UNL     1       4.710  25.686   4.208  1.00  0.00     0.020 A 
ATOM     87  C   UNL     1       3.209  26.506   5.935  1.00  0.00     0.020 A 
ATOM     88  C   UNL     1       4.174  26.741   4.954  1.00  0.00     0.054 A 
BRANCH  88  89
ATOM     89  S   UNL     1       4.727  28.430   4.595  1.00  0.00     0.124 S 
ATOM     90  O   UNL     1       6.084  28.427   5.135  1.00  0.00    -0.237 OA
ATOM     91  O   UNL     1       4.630  28.496   3.139  1.00  0.00    -0.237 OA
ATOM     92  O   UNL     1       3.772  29.269   5.316  1.00  0.00    -0.744 OA
ENDBRANCH  88  89
ENDBRANCH  62  83
ENDBRANCH  36  37
ENDBRANCH  28  31
ENDBRANCH  26  27
ENDBRANCH   1  26
TORSDOF 16
