REMARK SMILES CSc1ccccc1Sc1cc(C(=O)NCCCNC(=O)c2ccc(-c3c4nc(c(-c5ccc(S(=O)(=O)[O-])cc5)c5ccc([nH]5)c(-c5ccc(S(=O)(=O)[O-])cc5)c5nc(c(-c6ccc(S(=O)(=O)[O-])cc6)c6ccc3[nH]6)C=C5)C=C4)cc2)c2ccccc2n1
REMARK SMILES IDX 17 1 16 2 15 3 13 4 14 5 12 7 10 8 11 9 88 10 87 11 82 12
REMARK SMILES IDX 86 13 83 14 85 15 84 16 9 17 8 18 3 19 4 20 5 21 7 22 6 23
REMARK SMILES IDX 2 24 1 25 18 26 19 27 20 28 21 30 22 31 23 32 81 33 24 34
REMARK SMILES IDX 80 35 25 36 26 37 27 38 74 39 28 40 79 41 73 42 75 43 29 44
REMARK SMILES IDX 78 45 72 46 71 47 30 49 60 50 41 51 59 52 42 53 45 54 58 55
REMARK SMILES IDX 76 56 43 57 44 58 57 60 77 61 46 62 31 63 32 64 40 65 33 66
REMARK SMILES IDX 39 67 34 68 35 69 36 70 37 71 38 72 61 73 62 74 70 75 63 76
REMARK SMILES IDX 69 77 64 78 65 79 66 80 67 81 68 82 47 83 48 84 56 85 49 86
REMARK SMILES IDX 55 87 50 88 51 89 52 90 53 91 54 92
REMARK H PARENT 15 6 19 29 75 48 45 59
REMARK Flexibility Score: inf
ROOT
ATOM      1  C   UNL     1       0.291   3.083   3.173  1.00  0.00     0.042 C 
ENDROOT
BRANCH   1   2
ATOM      2  C   UNL     1      -0.334   3.495   1.838  1.00  0.00     0.118 C 
BRANCH   2   3
ATOM      3  N   UNL     1       0.486   4.493   1.167  1.00  0.00    -0.352 N 
ATOM      4  C   UNL     1       1.238   4.540   0.020  1.00  0.00     0.252 C 
ATOM      5  O   UNL     1       1.761   5.629  -0.211  1.00  0.00    -0.269 OA
ATOM      6  H   UNL     1       0.506   5.346   1.657  1.00  0.00     0.163 HD
BRANCH   4   7
ATOM      7  C   UNL     1       1.380   3.402  -0.944  1.00  0.00     0.051 A 
ATOM      8  C   UNL     1       1.407   1.092  -1.475  1.00  0.00     0.102 A 
ATOM      9  C   UNL     1       1.304   2.085  -0.516  1.00  0.00     0.050 A 
ATOM     10  N   UNL     1       1.258   1.328  -2.784  1.00  0.00    -0.241 NA
ATOM     11  C   UNL     1       1.575   2.546  -3.191  1.00  0.00     0.072 A 
ATOM     12  C   UNL     1       1.789   3.611  -2.295  1.00  0.00     0.013 A 
ATOM     13  C   UNL     1       1.883   2.665  -4.534  1.00  0.00     0.029 A 
ATOM     14  C   UNL     1       2.524   4.714  -2.795  1.00  0.00     0.011 A 
ATOM     15  C   UNL     1       2.627   3.742  -4.997  1.00  0.00     0.002 A 
ATOM     16  C   UNL     1       2.991   4.745  -4.112  1.00  0.00     0.001 A 
BRANCH   8  17
ATOM     17  S   UNL     1       2.454  -0.306  -1.065  1.00  0.00    -0.069 SA
BRANCH  17  18
ATOM     18  C   UNL     1       1.805  -1.615  -2.080  1.00  0.00     0.027 A 
ATOM     19  C   UNL     1       1.112  -2.720  -1.554  1.00  0.00     0.021 A 
ATOM     20  C   UNL     1       0.817  -3.787  -2.429  1.00  0.00     0.016 A 
ATOM     21  C   UNL     1       1.185  -3.765  -3.778  1.00  0.00     0.001 A 
ATOM     22  C   UNL     1       2.159  -1.599  -3.449  1.00  0.00     0.016 A 
ATOM     23  C   UNL     1       1.849  -2.664  -4.293  1.00  0.00     0.001 A 
BRANCH  19  24
ATOM     24  S   UNL     1       0.632  -3.058   0.154  1.00  0.00    -0.128 SA
ATOM     25  C   UNL     1       0.406  -1.450   0.965  1.00  0.00     0.091 C 
ENDBRANCH  19  24
ENDBRANCH  17  18
ENDBRANCH   8  17
ENDBRANCH   4   7
ENDBRANCH   2   3
ENDBRANCH   1   2
BRANCH   1  26
ATOM     26  C   UNL     1       0.264   4.182   4.240  1.00  0.00     0.118 C 
BRANCH  26  27
ATOM     27  N   UNL     1      -1.087   4.489   4.693  1.00  0.00    -0.352 N 
ATOM     28  C   UNL     1      -1.614   4.491   5.959  1.00  0.00     0.251 C 
ATOM     29  H   UNL     1      -1.719   4.734   3.979  1.00  0.00     0.163 HD
ATOM     30  O   UNL     1      -2.837   4.595   6.098  1.00  0.00    -0.269 OA
BRANCH  28  31
ATOM     31  C   UNL     1      -0.749   4.354   7.150  1.00  0.00     0.039 A 
ATOM     32  C   UNL     1      -1.178   3.549   8.209  1.00  0.00     0.014 A 
ATOM     33  C   UNL     1       0.465   5.040   7.246  1.00  0.00     0.014 A 
ATOM     34  C   UNL     1      -0.365   3.382   9.333  1.00  0.00     0.010 A 
ATOM     35  C   UNL     1       1.308   4.815   8.335  1.00  0.00     0.010 A 
ATOM     36  C   UNL     1       0.902   3.985   9.391  1.00  0.00    -0.014 A 
BRANCH  36  37
ATOM     37  C   UNL     1       1.817   3.748  10.540  1.00  0.00     0.031 A 
ATOM     38  C   UNL     1       2.239   4.888  11.429  1.00  0.00     0.074 A 
ATOM     39  C   UNL     1       2.316   2.513  10.748  1.00  0.00     0.049 A 
ATOM     40  N   UNL     1       3.061   4.879  12.448  1.00  0.00    -0.248 NA
ATOM     41  C   UNL     1       1.683   6.216  11.120  1.00  0.00     0.031 C 
ATOM     42  C   UNL     1       2.014   1.330   9.938  1.00  0.00     0.029 A 
ATOM     43  N   UNL     1       3.187   2.045  11.701  1.00  0.00    -0.354 N 
ATOM     44  C   UNL     1       3.137   6.196  12.888  1.00  0.00     0.074 A 
ATOM     45  C   UNL     1       2.314   6.985  11.996  1.00  0.00     0.031 C 
ATOM     46  C   UNL     1       2.659   0.270  10.448  1.00  0.00     0.029 A 
ATOM     47  C   UNL     1       3.459   0.701  11.590  1.00  0.00     0.049 A 
ATOM     48  H   UNL     1       3.579   2.618  12.399  1.00  0.00     0.167 HD
ATOM     49  C   UNL     1       3.816   6.701  13.946  1.00  0.00     0.031 A 
ATOM     50  C   UNL     1       4.265  -0.095  12.319  1.00  0.00     0.031 A 
ATOM     51  C   UNL     1       4.628   5.911  14.834  1.00  0.00     0.049 A 
ATOM     52  C   UNL     1       5.026   0.494  13.476  1.00  0.00     0.074 A 
ATOM     53  C   UNL     1       5.306   6.318  15.970  1.00  0.00     0.029 A 
ATOM     54  N   UNL     1       4.881   4.556  14.684  1.00  0.00    -0.354 N 
ATOM     55  N   UNL     1       5.025   1.728  13.920  1.00  0.00    -0.248 NA
ATOM     56  C   UNL     1       5.887  -0.421  14.237  1.00  0.00     0.031 C 
ATOM     57  C   UNL     1       6.021   5.225  16.469  1.00  0.00     0.029 A 
ATOM     58  C   UNL     1       5.731   4.118  15.686  1.00  0.00     0.049 A 
ATOM     59  H   UNL     1       4.511   3.988  13.969  1.00  0.00     0.167 HD
ATOM     60  C   UNL     1       5.860   1.730  15.032  1.00  0.00     0.074 A 
ATOM     61  C   UNL     1       6.335   0.372  15.200  1.00  0.00     0.031 C 
ATOM     62  C   UNL     1       6.200   2.764  15.842  1.00  0.00     0.031 A 
BRANCH  49  63
ATOM     63  C   UNL     1       3.725   8.187  14.192  1.00  0.00    -0.014 A 
ATOM     64  C   UNL     1       2.524   8.786  14.615  1.00  0.00     0.010 A 
ATOM     65  C   UNL     1       4.870   8.990  14.039  1.00  0.00     0.010 A 
ATOM     66  C   UNL     1       2.459  10.165  14.834  1.00  0.00     0.020 A 
ATOM     67  C   UNL     1       4.817  10.365  14.288  1.00  0.00     0.020 A 
ATOM     68  C   UNL     1       3.606  10.947  14.666  1.00  0.00     0.054 A 
BRANCH  68  69
ATOM     69  S   UNL     1       3.495  12.731  14.974  1.00  0.00     0.124 S 
ATOM     70  O   UNL     1       2.708  13.185  13.830  1.00  0.00    -0.237 OA
ATOM     71  O   UNL     1       2.817  12.790  16.266  1.00  0.00    -0.237 OA
ATOM     72  O   UNL     1       4.888  13.170  14.983  1.00  0.00    -0.744 OA
ENDBRANCH  68  69
ENDBRANCH  49  63
BRANCH  50  73
ATOM     73  C   UNL     1       4.381  -1.543  11.987  1.00  0.00    -0.014 A 
ATOM     74  C   UNL     1       3.857  -2.517  12.854  1.00  0.00     0.010 A 
ATOM     75  C   UNL     1       5.011  -1.955  10.798  1.00  0.00     0.010 A 
ATOM     76  C   UNL     1       3.976  -3.876  12.550  1.00  0.00     0.020 A 
ATOM     77  C   UNL     1       5.104  -3.312  10.474  1.00  0.00     0.020 A 
ATOM     78  C   UNL     1       4.597  -4.265  11.359  1.00  0.00     0.054 A 
BRANCH  78  79
ATOM     79  S   UNL     1       4.697  -6.033  10.963  1.00  0.00     0.124 S 
ATOM     80  O   UNL     1       5.695  -6.502  11.919  1.00  0.00    -0.237 OA
ATOM     81  O   UNL     1       3.329  -6.486  11.200  1.00  0.00    -0.237 OA
ATOM     82  O   UNL     1       5.116  -6.046   9.563  1.00  0.00    -0.744 OA
ENDBRANCH  78  79
ENDBRANCH  50  73
BRANCH  62  83
ATOM     83  C   UNL     1       7.100   2.462  17.012  1.00  0.00    -0.014 A 
ATOM     84  C   UNL     1       8.458   2.142  16.831  1.00  0.00     0.010 A 
ATOM     85  C   UNL     1       6.587   2.548  18.320  1.00  0.00     0.010 A 
ATOM     86  C   UNL     1       9.275   1.881  17.934  1.00  0.00     0.020 A 
ATOM     87  C   UNL     1       7.409   2.320  19.426  1.00  0.00     0.020 A 
ATOM     88  C   UNL     1       8.745   1.972  19.225  1.00  0.00     0.054 A 
BRANCH  88  89
ATOM     89  S   UNL     1       9.838   1.667  20.640  1.00  0.00     0.124 S 
ATOM     90  O   UNL     1      10.031   0.222  20.570  1.00  0.00    -0.237 OA
ATOM     91  O   UNL     1      11.012   2.474  20.317  1.00  0.00    -0.237 OA
ATOM     92  O   UNL     1       9.062   2.138  21.785  1.00  0.00    -0.744 OA
ENDBRANCH  88  89
ENDBRANCH  62  83
ENDBRANCH  36  37
ENDBRANCH  28  31
ENDBRANCH  26  27
ENDBRANCH   1  26
TORSDOF 16
