REMARK SMILES O=C(COc1csc(C(=O)NCCCNC(=O)c2ccc(-c3c4nc(c(-c5ccc(S(=O)(=O)[O-])cc5)c5ccc([nH]5)c(-c5ccc(S(=O)(=O)[O-])cc5)c5nc(c(-c6ccc(S(=O)(=O)[O-])cc6)c6ccc3[nH]6)C=C5)C=C4)cc2)c1)Nc1nccs1
REMARK SMILES IDX 12 1 11 2 9 3 10 4 8 6 5 7 6 8 78 9 7 10 4 11 3 12 2 13 1 14
REMARK SMILES IDX 79 15 80 17 81 18 84 19 82 20 83 21 13 22 14 23 15 24 16 25
REMARK SMILES IDX 17 27 18 28 19 29 77 30 20 31 76 32 21 33 22 34 23 35 70 36
REMARK SMILES IDX 24 37 75 38 69 39 71 40 25 41 74 42 68 43 67 44 26 46 56 47
REMARK SMILES IDX 37 48 55 49 38 50 41 51 54 52 72 53 39 54 40 55 53 57 73 58
REMARK SMILES IDX 42 59 27 60 28 61 36 62 29 63 35 64 30 65 31 66 32 67 33 68
REMARK SMILES IDX 34 69 57 70 58 71 66 72 59 73 65 74 60 75 61 76 62 77 63 78
REMARK SMILES IDX 64 79 43 80 44 81 52 82 45 83 51 84 46 85 47 86 48 87 49 88
REMARK SMILES IDX 50 89
REMARK H PARENT 11 5 79 16 15 26 71 45 41 56
REMARK Flexibility Score: inf
ROOT
ATOM      1  C   UNL     1       4.665   6.755   0.442  1.00  0.00     0.118 C 
ENDROOT
BRANCH   1   2
ATOM      2  N   UNL     1       3.483   6.980   1.248  1.00  0.00    -0.351 N 
ATOM      3  C   UNL     1       2.513   6.140   1.736  1.00  0.00     0.261 C 
ATOM      4  O   UNL     1       1.659   6.695   2.433  1.00  0.00    -0.268 OA
ATOM      5  H   UNL     1       3.349   7.923   1.497  1.00  0.00     0.163 HD
BRANCH   3   6
ATOM      6  C   UNL     1       2.531   4.704   1.482  1.00  0.00     0.096 A 
ATOM      7  C   UNL     1       2.969   2.523   0.763  1.00  0.00     0.131 A 
ATOM      8  C   UNL     1       2.126   2.275   1.817  1.00  0.00     0.112 A 
ATOM      9  C   UNL     1       3.161   3.913   0.536  1.00  0.00     0.072 A 
ATOM     10  S   UNL     1       1.577   3.719   2.537  1.00  0.00    -0.135 S 
BRANCH   7  11
ATOM     11  O   UNL     1       3.635   1.553   0.090  1.00  0.00    -0.483 OA
BRANCH  11  12
ATOM     12  C   UNL     1       2.806   0.846  -0.833  1.00  0.00     0.329 C 
BRANCH  12  13
ATOM     13  C   UNL     1       2.037  -0.318  -0.203  1.00  0.00     0.264 C 
ATOM     14  O   UNL     1       0.961  -0.685  -0.663  1.00  0.00    -0.271 OA
ATOM     15  N   UNL     1       2.707  -0.856   0.877  1.00  0.00    -0.299 N 
ATOM     16  H   UNL     1       3.632  -0.568   1.051  1.00  0.00     0.172 HD
BRANCH  15  17
ATOM     17  C   UNL     1       2.138  -1.771   1.712  1.00  0.00     0.189 A 
ATOM     18  N   UNL     1       0.977  -2.365   1.628  1.00  0.00    -0.229 NA
ATOM     19  S   UNL     1       3.066  -2.112   3.106  1.00  0.00    -0.105 S 
ATOM     20  C   UNL     1       0.776  -3.140   2.751  1.00  0.00     0.125 A 
ATOM     21  C   UNL     1       1.796  -3.114   3.679  1.00  0.00     0.088 A 
ENDBRANCH  15  17
ENDBRANCH  12  13
ENDBRANCH  11  12
ENDBRANCH   7  11
ENDBRANCH   3   6
ENDBRANCH   1   2
BRANCH   1  22
ATOM     22  C   UNL     1       4.420   7.145  -1.014  1.00  0.00     0.042 C 
BRANCH  22  23
ATOM     23  C   UNL     1       4.348   8.659  -1.220  1.00  0.00     0.118 C 
BRANCH  23  24
ATOM     24  N   UNL     1       5.623   9.309  -0.939  1.00  0.00    -0.352 N 
ATOM     25  C   UNL     1       6.463  10.005  -1.772  1.00  0.00     0.251 C 
ATOM     26  H   UNL     1       5.929   9.238  -0.006  1.00  0.00     0.163 HD
ATOM     27  O   UNL     1       7.607  10.255  -1.405  1.00  0.00    -0.269 OA
BRANCH  25  28
ATOM     28  C   UNL     1       5.998  10.444  -3.104  1.00  0.00     0.039 A 
ATOM     29  C   UNL     1       6.856  10.320  -4.200  1.00  0.00     0.014 A 
ATOM     30  C   UNL     1       4.727  11.002  -3.268  1.00  0.00     0.014 A 
ATOM     31  C   UNL     1       6.413  10.689  -5.472  1.00  0.00     0.010 A 
ATOM     32  C   UNL     1       4.262  11.302  -4.544  1.00  0.00     0.010 A 
ATOM     33  C   UNL     1       5.098  11.145  -5.660  1.00  0.00    -0.014 A 
BRANCH  33  34
ATOM     34  C   UNL     1       4.565  11.439  -7.014  1.00  0.00     0.031 A 
ATOM     35  C   UNL     1       4.128  12.833  -7.372  1.00  0.00     0.074 A 
ATOM     36  C   UNL     1       4.397  10.429  -7.891  1.00  0.00     0.049 A 
ATOM     37  N   UNL     1       3.563  13.262  -8.472  1.00  0.00    -0.248 NA
ATOM     38  C   UNL     1       4.329  13.876  -6.354  1.00  0.00     0.031 C 
ATOM     39  C   UNL     1       4.753   9.028  -7.649  1.00  0.00     0.029 A 
ATOM     40  N   UNL     1       3.875  10.422  -9.160  1.00  0.00    -0.354 N 
ATOM     41  C   UNL     1       3.321  14.616  -8.270  1.00  0.00     0.074 A 
ATOM     42  C   UNL     1       3.761  14.927  -6.927  1.00  0.00     0.031 C 
ATOM     43  C   UNL     1       4.466   8.306  -8.743  1.00  0.00     0.029 A 
ATOM     44  C   UNL     1       3.861   9.177  -9.745  1.00  0.00     0.049 A 
ATOM     45  H   UNL     1       3.541  11.232  -9.610  1.00  0.00     0.167 HD
ATOM     46  C   UNL     1       2.792  15.520  -9.129  1.00  0.00     0.031 A 
ATOM     47  C   UNL     1       3.402   8.778 -10.946  1.00  0.00     0.031 A 
ATOM     48  C   UNL     1       2.362  15.203 -10.466  1.00  0.00     0.049 A 
ATOM     49  C   UNL     1       2.791   9.795 -11.870  1.00  0.00     0.074 A 
ATOM     50  C   UNL     1       1.873  16.060 -11.437  1.00  0.00     0.029 A 
ATOM     51  N   UNL     1       2.359  13.930 -11.017  1.00  0.00    -0.354 N 
ATOM     52  N   UNL     1       2.638  11.085 -11.689  1.00  0.00    -0.248 NA
ATOM     53  C   UNL     1       2.295   9.303 -13.163  1.00  0.00     0.031 C 
ATOM     54  C   UNL     1       1.516  15.295 -12.552  1.00  0.00     0.029 A 
ATOM     55  C   UNL     1       1.844  13.972 -12.302  1.00  0.00     0.049 A 
ATOM     56  H   UNL     1       2.676  13.117 -10.562  1.00  0.00     0.167 HD
ATOM     57  C   UNL     1       2.055  11.564 -12.857  1.00  0.00     0.074 A 
ATOM     58  C   UNL     1       1.895  10.428 -13.742  1.00  0.00     0.031 C 
ATOM     59  C   UNL     1       1.690  12.832 -13.170  1.00  0.00     0.031 A 
BRANCH  46  60
ATOM     60  C   UNL     1       2.629  16.937  -8.640  1.00  0.00    -0.014 A 
ATOM     61  C   UNL     1       3.745  17.758  -8.394  1.00  0.00     0.010 A 
ATOM     62  C   UNL     1       1.339  17.467  -8.456  1.00  0.00     0.010 A 
ATOM     63  C   UNL     1       3.574  19.064  -7.927  1.00  0.00     0.020 A 
ATOM     64  C   UNL     1       1.163  18.783  -8.019  1.00  0.00     0.020 A 
ATOM     65  C   UNL     1       2.283  19.567  -7.738  1.00  0.00     0.054 A 
BRANCH  65  66
ATOM     66  S   UNL     1       2.092  21.269  -7.140  1.00  0.00     0.124 S 
ATOM     67  O   UNL     1       2.508  21.145  -5.745  1.00  0.00    -0.237 OA
ATOM     68  O   UNL     1       3.004  22.015  -8.003  1.00  0.00    -0.237 OA
ATOM     69  O   UNL     1       0.674  21.552  -7.344  1.00  0.00    -0.744 OA
ENDBRANCH  65  66
ENDBRANCH  46  60
BRANCH  47  70
ATOM     70  C   UNL     1       3.519   7.350 -11.351  1.00  0.00    -0.014 A 
ATOM     71  C   UNL     1       4.416   6.973 -12.366  1.00  0.00     0.010 A 
ATOM     72  C   UNL     1       2.751   6.358 -10.715  1.00  0.00     0.010 A 
ATOM     73  C   UNL     1       4.532   5.633 -12.748  1.00  0.00     0.020 A 
ATOM     74  C   UNL     1       2.885   5.014 -11.075  1.00  0.00     0.020 A 
ATOM     75  C   UNL     1       3.767   4.661 -12.097  1.00  0.00     0.054 A 
BRANCH  75  76
ATOM     76  S   UNL     1       3.977   2.923 -12.573  1.00  0.00     0.124 S 
ATOM     77  O   UNL     1       3.326   2.886 -13.879  1.00  0.00    -0.237 OA
ATOM     78  O   UNL     1       5.430   2.773 -12.584  1.00  0.00    -0.237 OA
ATOM     79  O   UNL     1       3.291   2.193 -11.509  1.00  0.00    -0.744 OA
ENDBRANCH  75  76
ENDBRANCH  47  70
BRANCH  59  80
ATOM     80  C   UNL     1       1.109  13.070 -14.539  1.00  0.00    -0.014 A 
ATOM     81  C   UNL     1      -0.186  12.631 -14.869  1.00  0.00     0.010 A 
ATOM     82  C   UNL     1       1.847  13.803 -15.486  1.00  0.00     0.010 A 
ATOM     83  C   UNL     1      -0.722  12.902 -16.131  1.00  0.00     0.020 A 
ATOM     84  C   UNL     1       1.303  14.101 -16.738  1.00  0.00     0.020 A 
ATOM     85  C   UNL     1       0.025  13.639 -17.056  1.00  0.00     0.054 A 
BRANCH  85  86
ATOM     86  S   UNL     1      -0.718  14.028 -18.664  1.00  0.00     0.124 S 
ATOM     87  O   UNL     1      -0.688  12.731 -19.335  1.00  0.00    -0.237 OA
ATOM     88  O   UNL     1      -2.044  14.514 -18.294  1.00  0.00    -0.237 OA
ATOM     89  O   UNL     1       0.177  15.039 -19.224  1.00  0.00    -0.744 OA
ENDBRANCH  85  86
ENDBRANCH  59  80
ENDBRANCH  33  34
ENDBRANCH  25  28
ENDBRANCH  23  24
ENDBRANCH  22  23
ENDBRANCH   1  22
TORSDOF 17
