REMARK SMILES CS(=O)(=O)c1ccc(C2=NN(c3ccc(C(=O)NCCCNC(=O)c4ccc(-c5c6nc(c(-c7ccc(S(=O)(=O)[O-])cc7)c7ccc([nH]7)c(-c7ccc(S(=O)(=O)[O-])cc7)c7nc(c(-c8ccc(S(=O)(=O)[O-])cc8)c8ccc5[nH]8)C=C7)C=C6)cc4)cc3)[C@H](c3cccs3)C2)cc1
REMARK SMILES IDX 20 1 19 2 18 3 16 4 17 5 15 7 12 8 13 9 86 10 14 11 85 12
REMARK SMILES IDX 11 13 9 14 10 15 93 16 87 17 8 18 5 19 6 20 95 21 7 22 94 23
REMARK SMILES IDX 2 24 1 25 3 26 4 27 88 28 89 29 92 30 90 31 91 32 21 33
REMARK SMILES IDX 22 34 23 35 24 37 25 38 26 39 84 40 27 41 83 42 28 43 29 44
REMARK SMILES IDX 30 45 77 46 31 47 82 48 76 49 78 50 32 51 81 52 75 53 74 54
REMARK SMILES IDX 33 56 63 57 44 58 62 59 45 60 48 61 61 62 79 63 46 64 47 65
REMARK SMILES IDX 60 67 80 68 49 69 34 70 35 71 43 72 36 73 42 74 37 75 38 76
REMARK SMILES IDX 39 77 40 78 41 79 64 80 65 81 73 82 66 83 72 84 67 85 68 86
REMARK SMILES IDX 69 87 70 88 71 89 50 90 51 91 59 92 52 93 58 94 53 95 54 96
REMARK SMILES IDX 55 97 56 98 57 99
REMARK H PARENT 18 6 22 36 78 55 48 66
REMARK Flexibility Score: inf
ROOT
ATOM      1  C   UNL     1       7.111   1.688  13.184  1.00  0.00     0.042 C 
ENDROOT
BRANCH   1   2
ATOM      2  C   UNL     1       7.090   3.175  12.835  1.00  0.00     0.118 C 
BRANCH   2   3
ATOM      3  N   UNL     1       8.127   3.505  11.873  1.00  0.00    -0.352 N 
ATOM      4  C   UNL     1       8.072   3.748  10.523  1.00  0.00     0.251 C 
ATOM      5  O   UNL     1       9.104   4.106   9.956  1.00  0.00    -0.269 OA
ATOM      6  H   UNL     1       9.031   3.566  12.258  1.00  0.00     0.163 HD
BRANCH   4   7
ATOM      7  C   UNL     1       6.807   3.659   9.747  1.00  0.00     0.039 A 
ATOM      8  C   UNL     1       4.408   3.678   8.262  1.00  0.00     0.060 A 
ATOM      9  C   UNL     1       5.466   4.523   7.914  1.00  0.00     0.029 A 
ATOM     10  C   UNL     1       4.596   2.774   9.309  1.00  0.00     0.029 A 
ATOM     11  C   UNL     1       6.654   4.521   8.653  1.00  0.00     0.016 A 
ATOM     12  C   UNL     1       5.791   2.745  10.027  1.00  0.00     0.016 A 
BRANCH   8  13
ATOM     13  N   UNL     1       3.213   3.685   7.571  1.00  0.00    -0.257 N 
ATOM     14  C   UNL     1       2.028   3.540   5.828  1.00  0.00     0.071 C 
ATOM     15  N   UNL     1       3.177   3.199   6.313  1.00  0.00    -0.176 NA
ATOM     16  C   UNL     1       1.168   4.409   6.702  1.00  0.00     0.091 C 
ATOM     17  C   UNL     1       2.021   4.433   7.983  1.00  0.00     0.154 C 
BRANCH  14  18
ATOM     18  C   UNL     1       1.588   3.087   4.507  1.00  0.00    -0.002 A 
ATOM     19  C   UNL     1       0.866   2.147   1.998  1.00  0.00     0.067 A 
ATOM     20  C   UNL     1       1.280   1.239   2.975  1.00  0.00     0.021 A 
ATOM     21  C   UNL     1       0.818   3.523   2.272  1.00  0.00     0.021 A 
ATOM     22  C   UNL     1       1.655   1.716   4.230  1.00  0.00     0.011 A 
ATOM     23  C   UNL     1       1.170   3.996   3.537  1.00  0.00     0.011 A 
BRANCH  19  24
ATOM     24  S   UNL     1       0.408   1.614   0.366  1.00  0.00     0.175 S 
ATOM     25  C   UNL     1       1.114   0.009   0.119  1.00  0.00     0.163 C 
ATOM     26  O   UNL     1       1.064   2.516  -0.561  1.00  0.00    -0.224 OA
ATOM     27  O   UNL     1      -1.036   1.475   0.375  1.00  0.00    -0.224 OA
ENDBRANCH  19  24
ENDBRANCH  14  18
BRANCH  17  28
ATOM     28  C   UNL     1       1.351   3.948   9.262  1.00  0.00     0.030 A 
ATOM     29  C   UNL     1       1.791   4.188  10.557  1.00  0.00     0.017 A 
ATOM     30  S   UNL     1      -0.056   2.966   9.286  1.00  0.00    -0.147 S 
ATOM     31  C   UNL     1       0.987   3.560  11.549  1.00  0.00     0.012 A 
ATOM     32  C   UNL     1      -0.072   2.882  10.991  1.00  0.00     0.065 A 
ENDBRANCH  17  28
ENDBRANCH   8  13
ENDBRANCH   4   7
ENDBRANCH   2   3
ENDBRANCH   1   2
BRANCH   1  33
ATOM     33  C   UNL     1       8.275   1.300  14.088  1.00  0.00     0.118 C 
BRANCH  33  34
ATOM     34  N   UNL     1       8.142   1.874  15.420  1.00  0.00    -0.352 N 
ATOM     35  C   UNL     1       8.067   1.253  16.641  1.00  0.00     0.251 C 
ATOM     36  H   UNL     1       8.100   2.857  15.449  1.00  0.00     0.163 HD
ATOM     37  O   UNL     1       7.713   1.899  17.624  1.00  0.00    -0.269 OA
BRANCH  35  38
ATOM     38  C   UNL     1       8.400  -0.182  16.775  1.00  0.00     0.039 A 
ATOM     39  C   UNL     1       7.624  -0.978  17.622  1.00  0.00     0.014 A 
ATOM     40  C   UNL     1       9.490  -0.736  16.099  1.00  0.00     0.014 A 
ATOM     41  C   UNL     1       7.909  -2.340  17.747  1.00  0.00     0.010 A 
ATOM     42  C   UNL     1       9.723  -2.107  16.162  1.00  0.00     0.010 A 
ATOM     43  C   UNL     1       8.940  -2.922  16.992  1.00  0.00    -0.014 A 
BRANCH  43  44
ATOM     44  C   UNL     1       9.211  -4.381  17.055  1.00  0.00     0.031 A 
ATOM     45  C   UNL     1      10.533  -4.886  17.568  1.00  0.00     0.074 A 
ATOM     46  C   UNL     1       8.289  -5.248  16.592  1.00  0.00     0.049 A 
ATOM     47  N   UNL     1      10.970  -6.117  17.645  1.00  0.00    -0.248 NA
ATOM     48  C   UNL     1      11.500  -3.877  18.031  1.00  0.00     0.031 C 
ATOM     49  C   UNL     1       6.984  -4.878  16.035  1.00  0.00     0.029 A 
ATOM     50  N   UNL     1       8.307  -6.617  16.508  1.00  0.00    -0.354 N 
ATOM     51  C   UNL     1      12.264  -6.029  18.149  1.00  0.00     0.074 A 
ATOM     52  C   UNL     1      12.559  -4.623  18.309  1.00  0.00     0.031 C 
ATOM     53  C   UNL     1       6.319  -5.993  15.695  1.00  0.00     0.029 A 
ATOM     54  C   UNL     1       7.163  -7.153  15.963  1.00  0.00     0.049 A 
ATOM     55  H   UNL     1       9.067  -7.165  16.810  1.00  0.00     0.167 HD
ATOM     56  C   UNL     1      13.121  -7.030  18.465  1.00  0.00     0.031 A 
ATOM     57  C   UNL     1       6.833  -8.432  15.698  1.00  0.00     0.031 A 
ATOM     58  C   UNL     1      12.818  -8.428  18.305  1.00  0.00     0.049 A 
ATOM     59  C   UNL     1       7.809  -9.524  16.040  1.00  0.00     0.074 A 
ATOM     60  C   UNL     1      13.597  -9.520  18.646  1.00  0.00     0.029 A 
ATOM     61  N   UNL     1      11.647  -8.928  17.754  1.00  0.00    -0.354 N 
ATOM     62  N   UNL     1       9.001  -9.424  16.579  1.00  0.00    -0.248 NA
ATOM     63  C   UNL     1       7.391 -10.902  15.749  1.00  0.00     0.031 C 
ATOM     64  C   UNL     1      12.924 -10.678  18.244  1.00  0.00     0.029 A 
ATOM     65  C   UNL     1      11.694 -10.311  17.719  1.00  0.00     0.049 A 
ATOM     66  H   UNL     1      10.894  -8.380  17.435  1.00  0.00     0.167 HD
ATOM     67  C   UNL     1       9.462 -10.728  16.721  1.00  0.00     0.074 A 
ATOM     68  C   UNL     1       8.416 -11.598  16.224  1.00  0.00     0.031 C 
ATOM     69  C   UNL     1      10.644 -11.165  17.222  1.00  0.00     0.031 A 
BRANCH  56  70
ATOM     70  C   UNL     1      14.475  -6.646  19.007  1.00  0.00    -0.014 A 
ATOM     71  C   UNL     1      14.612  -6.057  20.277  1.00  0.00     0.010 A 
ATOM     72  C   UNL     1      15.632  -6.919  18.253  1.00  0.00     0.010 A 
ATOM     73  C   UNL     1      15.875  -5.707  20.764  1.00  0.00     0.020 A 
ATOM     74  C   UNL     1      16.899  -6.600  18.750  1.00  0.00     0.020 A 
ATOM     75  C   UNL     1      17.011  -5.980  19.996  1.00  0.00     0.054 A 
BRANCH  75  76
ATOM     76  S   UNL     1      18.637  -5.535  20.664  1.00  0.00     0.124 S 
ATOM     77  O   UNL     1      18.610  -4.077  20.576  1.00  0.00    -0.237 OA
ATOM     78  O   UNL     1      18.588  -6.083  22.017  1.00  0.00    -0.237 OA
ATOM     79  O   UNL     1      19.577  -6.194  19.761  1.00  0.00    -0.744 OA
ENDBRANCH  75  76
ENDBRANCH  56  70
BRANCH  57  80
ATOM     80  C   UNL     1       5.512  -8.745  15.086  1.00  0.00    -0.014 A 
ATOM     81  C   UNL     1       4.518  -9.408  15.828  1.00  0.00     0.010 A 
ATOM     82  C   UNL     1       5.234  -8.366  13.759  1.00  0.00     0.010 A 
ATOM     83  C   UNL     1       3.279  -9.701  15.250  1.00  0.00     0.020 A 
ATOM     84  C   UNL     1       3.986  -8.629  13.188  1.00  0.00     0.020 A 
ATOM     85  C   UNL     1       3.019  -9.306  13.934  1.00  0.00     0.054 A 
BRANCH  85  86
ATOM     86  S   UNL     1       1.385  -9.650  13.224  1.00  0.00     0.124 S 
ATOM     87  O   UNL     1       1.435 -11.096  13.036  1.00  0.00    -0.237 OA
ATOM     88  O   UNL     1       0.482  -9.178  14.271  1.00  0.00    -0.237 OA
ATOM     89  O   UNL     1       1.372  -8.858  11.996  1.00  0.00    -0.744 OA
ENDBRANCH  85  86
ENDBRANCH  57  80
BRANCH  69  90
ATOM     90  C   UNL     1      10.859 -12.654  17.301  1.00  0.00    -0.014 A 
ATOM     91  C   UNL     1      11.067 -13.428  16.146  1.00  0.00     0.010 A 
ATOM     92  C   UNL     1      10.918 -13.276  18.562  1.00  0.00     0.010 A 
ATOM     93  C   UNL     1      11.301 -14.802  16.250  1.00  0.00     0.020 A 
ATOM     94  C   UNL     1      11.184 -14.643  18.672  1.00  0.00     0.020 A 
ATOM     95  C   UNL     1      11.361 -15.400  17.513  1.00  0.00     0.054 A 
BRANCH  95  96
ATOM     96  S   UNL     1      11.719 -17.174  17.621  1.00  0.00     0.124 S 
ATOM     97  O   UNL     1      10.475 -17.766  17.137  1.00  0.00    -0.237 OA
ATOM     98  O   UNL     1      12.872 -17.322  16.736  1.00  0.00    -0.237 OA
ATOM     99  O   UNL     1      11.998 -17.386  19.040  1.00  0.00    -0.744 OA
ENDBRANCH  95  96
ENDBRANCH  69  90
ENDBRANCH  43  44
ENDBRANCH  35  38
ENDBRANCH  33  34
ENDBRANCH   1  33
TORSDOF 17
