REMARK SMILES O=C(CCN1C(=O)/C(=C/c2cccc(Cl)c2Cl)SC1=S)Nc1ccc(C(=O)NCCCNC(=O)c2ccc(-c3c4nc(c(-c5ccc(S(=O)(=O)[O-])cc5)c5ccc([nH]5)c(-c5ccc(S(=O)(=O)[O-])cc5)c5nc(c(-c6ccc(S(=O)(=O)[O-])cc6)c6ccc3[nH]6)C=C5)C=C4)cc2)cc1
REMARK SMILES IDX 29 1 28 2 26 3 27 4 25 6 22 7 23 8 96 9 24 10 95 11 21 12
REMARK SMILES IDX 1 13 2 14 3 16 4 17 5 18 6 19 19 20 7 21 8 22 18 23 20 24
REMARK SMILES IDX 9 25 10 26 11 27 16 28 12 29 14 30 17 31 13 32 15 33 30 34
REMARK SMILES IDX 31 35 32 36 33 37 34 39 35 40 36 41 94 42 37 43 93 44 38 45
REMARK SMILES IDX 39 46 40 47 87 48 41 49 92 50 86 51 88 52 42 53 91 54 85 55
REMARK SMILES IDX 84 56 43 58 73 59 54 60 72 61 55 62 58 63 71 64 89 65 56 66
REMARK SMILES IDX 57 67 70 69 90 70 59 71 44 72 45 73 53 74 46 75 52 76 47 77
REMARK SMILES IDX 48 78 49 79 50 80 51 81 74 82 75 83 83 84 76 85 82 86 77 87
REMARK SMILES IDX 78 88 79 89 80 90 81 91 60 92 61 93 69 94 62 95 68 96 63 97
REMARK SMILES IDX 64 98 65 99 66 100 67 101
REMARK H PARENT 28 5 21 15 32 38 88 57 58 68
REMARK Flexibility Score: inf
ROOT
ATOM      1  C   UNL     1      -1.709   3.076   5.083  1.00  0.00     0.118 C 
ENDROOT
BRANCH   1   2
ATOM      2  N   UNL     1      -0.675   4.071   5.272  1.00  0.00    -0.352 N 
ATOM      3  C   UNL     1       0.598   4.156   4.780  1.00  0.00     0.251 C 
ATOM      4  O   UNL     1       1.281   5.121   5.121  1.00  0.00    -0.269 OA
ATOM      5  H   UNL     1      -0.934   4.819   5.859  1.00  0.00     0.163 HD
BRANCH   3   6
ATOM      6  C   UNL     1       1.148   3.180   3.799  1.00  0.00     0.039 A 
ATOM      7  C   UNL     1       2.188   1.555   1.764  1.00  0.00     0.041 A 
ATOM      8  C   UNL     1       2.673   2.849   1.943  1.00  0.00     0.027 A 
ATOM      9  C   UNL     1       1.234   1.048   2.634  1.00  0.00     0.027 A 
ATOM     10  C   UNL     1       2.131   3.666   2.933  1.00  0.00     0.016 A 
ATOM     11  C   UNL     1       0.761   1.842   3.680  1.00  0.00     0.016 A 
BRANCH   7  12
ATOM     12  N   UNL     1       2.742   0.788   0.737  1.00  0.00    -0.326 N 
ATOM     13  O   UNL     1       0.902  -0.448   0.067  1.00  0.00    -0.275 OA
ATOM     14  C   UNL     1       2.097  -0.177  -0.003  1.00  0.00     0.226 C 
ATOM     15  H   UNL     1       3.688   0.954   0.520  1.00  0.00     0.169 HD
BRANCH  14  16
ATOM     16  C   UNL     1       3.023  -0.962  -0.914  1.00  0.00     0.122 C 
BRANCH  16  17
ATOM     17  C   UNL     1       3.898  -0.134  -1.867  1.00  0.00     0.137 C 
BRANCH  17  18
ATOM     18  N   UNL     1       4.953   0.666  -1.213  1.00  0.00    -0.292 N 
ATOM     19  C   UNL     1       4.891   2.054  -1.268  1.00  0.00     0.266 C 
ATOM     20  C   UNL     1       6.068   0.134  -0.591  1.00  0.00     0.148 C 
ATOM     21  O   UNL     1       4.043   2.713  -1.855  1.00  0.00    -0.268 OA
ATOM     22  C   UNL     1       5.960   2.658  -0.425  1.00  0.00     0.081 C 
ATOM     23  S   UNL     1       6.965   1.416   0.206  1.00  0.00    -0.054 SA
ATOM     24  S   UNL     1       6.566  -1.454  -0.533  1.00  0.00    -0.052 S 
ATOM     25  C   UNL     1       6.010   3.976  -0.169  1.00  0.00     0.031 C 
BRANCH  25  26
ATOM     26  C   UNL     1       6.964   4.662   0.734  1.00  0.00    -0.004 A 
ATOM     27  C   UNL     1       8.342   4.468   0.542  1.00  0.00     0.010 A 
ATOM     28  C   UNL     1       6.544   5.523   1.773  1.00  0.00     0.066 A 
ATOM     29  C   UNL     1       9.277   5.040   1.404  1.00  0.00     0.002 A 
ATOM     30  C   UNL     1       7.492   6.088   2.644  1.00  0.00     0.060 A 
ATOM     31  Cl  UNL     1       4.864   5.909   1.958  1.00  0.00    -0.082 Cl
ATOM     32  C   UNL     1       8.852   5.835   2.463  1.00  0.00     0.022 A 
ATOM     33  Cl  UNL     1       7.052   7.110   3.970  1.00  0.00    -0.083 Cl
ENDBRANCH  25  26
ENDBRANCH  17  18
ENDBRANCH  16  17
ENDBRANCH  14  16
ENDBRANCH   7  12
ENDBRANCH   3   6
ENDBRANCH   1   2
BRANCH   1  34
ATOM     34  C   UNL     1      -1.670   2.051   6.215  1.00  0.00     0.042 C 
BRANCH  34  35
ATOM     35  C   UNL     1      -2.249   2.599   7.512  1.00  0.00     0.118 C 
BRANCH  35  36
ATOM     36  N   UNL     1      -3.670   2.875   7.375  1.00  0.00    -0.352 N 
ATOM     37  C   UNL     1      -4.733   2.360   8.065  1.00  0.00     0.251 C 
ATOM     38  H   UNL     1      -3.903   3.532   6.680  1.00  0.00     0.163 HD
ATOM     39  O   UNL     1      -5.864   2.484   7.602  1.00  0.00    -0.269 OA
BRANCH  37  40
ATOM     40  C   UNL     1      -4.527   1.674   9.357  1.00  0.00     0.039 A 
ATOM     41  C   UNL     1      -5.362   0.605   9.687  1.00  0.00     0.014 A 
ATOM     42  C   UNL     1      -3.563   2.119  10.267  1.00  0.00     0.014 A 
ATOM     43  C   UNL     1      -5.220  -0.025  10.922  1.00  0.00     0.010 A 
ATOM     44  C   UNL     1      -3.360   1.431  11.457  1.00  0.00     0.010 A 
ATOM     45  C   UNL     1      -4.206   0.372  11.810  1.00  0.00    -0.014 A 
BRANCH  45  46
ATOM     46  C   UNL     1      -4.044  -0.297  13.123  1.00  0.00     0.031 A 
ATOM     47  C   UNL     1      -4.255   0.472  14.399  1.00  0.00     0.074 A 
ATOM     48  C   UNL     1      -3.683  -1.594  13.159  1.00  0.00     0.049 A 
ATOM     49  N   UNL     1      -4.197   0.047  15.636  1.00  0.00    -0.248 NA
ATOM     50  C   UNL     1      -4.544   1.910  14.274  1.00  0.00     0.031 C 
ATOM     51  C   UNL     1      -3.417  -2.430  11.986  1.00  0.00     0.029 A 
ATOM     52  N   UNL     1      -3.496  -2.441  14.221  1.00  0.00    -0.354 N 
ATOM     53  C   UNL     1      -4.427   1.165  16.431  1.00  0.00     0.074 A 
ATOM     54  C   UNL     1      -4.561   2.296  15.540  1.00  0.00     0.031 C 
ATOM     55  C   UNL     1      -3.161  -3.684  12.390  1.00  0.00     0.029 A 
ATOM     56  C   UNL     1      -3.199  -3.730  13.848  1.00  0.00     0.049 A 
ATOM     57  H   UNL     1      -3.567  -2.154  15.160  1.00  0.00     0.167 HD
ATOM     58  C   UNL     1      -4.539   1.240  17.779  1.00  0.00     0.031 A 
ATOM     59  C   UNL     1      -2.994  -4.830  14.598  1.00  0.00     0.031 A 
ATOM     60  C   UNL     1      -4.398   0.107  18.655  1.00  0.00     0.049 A 
ATOM     61  C   UNL     1      -3.098  -4.720  16.093  1.00  0.00     0.074 A 
ATOM     62  C   UNL     1      -4.544   0.057  20.030  1.00  0.00     0.029 A 
ATOM     63  N   UNL     1      -4.067  -1.176  18.241  1.00  0.00    -0.354 N 
ATOM     64  N   UNL     1      -3.392  -3.671  16.825  1.00  0.00    -0.248 NA
ATOM     65  C   UNL     1      -2.854  -5.946  16.863  1.00  0.00     0.031 C 
ATOM     66  C   UNL     1      -4.235  -1.240  20.454  1.00  0.00     0.029 A 
ATOM     67  C   UNL     1      -3.971  -2.018  19.337  1.00  0.00     0.049 A 
ATOM     68  H   UNL     1      -3.922  -1.448  17.306  1.00  0.00     0.167 HD
ATOM     69  C   UNL     1      -3.404  -4.120  18.141  1.00  0.00     0.074 A 
ATOM     70  C   UNL     1      -3.097  -5.536  18.100  1.00  0.00     0.031 C 
ATOM     71  C   UNL     1      -3.656  -3.424  19.278  1.00  0.00     0.031 A 
BRANCH  58  72
ATOM     72  C   UNL     1      -4.799   2.600  18.379  1.00  0.00    -0.014 A 
ATOM     73  C   UNL     1      -6.007   3.286  18.147  1.00  0.00     0.010 A 
ATOM     74  C   UNL     1      -3.819   3.205  19.186  1.00  0.00     0.010 A 
ATOM     75  C   UNL     1      -6.199   4.575  18.651  1.00  0.00     0.020 A 
ATOM     76  C   UNL     1      -4.022   4.480  19.723  1.00  0.00     0.020 A 
ATOM     77  C   UNL     1      -5.201   5.168  19.429  1.00  0.00     0.054 A 
BRANCH  77  78
ATOM     78  S   UNL     1      -5.468   6.850  20.054  1.00  0.00     0.124 S 
ATOM     79  O   UNL     1      -5.335   7.647  18.837  1.00  0.00    -0.237 OA
ATOM     80  O   UNL     1      -6.816   6.774  20.610  1.00  0.00    -0.237 OA
ATOM     81  O   UNL     1      -4.401   7.030  21.035  1.00  0.00    -0.744 OA
ENDBRANCH  77  78
ENDBRANCH  58  72
BRANCH  59  82
ATOM     82  C   UNL     1      -2.726  -6.136  13.935  1.00  0.00    -0.014 A 
ATOM     83  C   UNL     1      -3.696  -7.153  13.959  1.00  0.00     0.010 A 
ATOM     84  C   UNL     1      -1.520  -6.357  13.245  1.00  0.00     0.010 A 
ATOM     85  C   UNL     1      -3.463  -8.371  13.315  1.00  0.00     0.020 A 
ATOM     86  C   UNL     1      -1.295  -7.563  12.575  1.00  0.00     0.020 A 
ATOM     87  C   UNL     1      -2.265  -8.565  12.621  1.00  0.00     0.054 A 
BRANCH  87  88
ATOM     88  S   UNL     1      -2.014 -10.130  11.738  1.00  0.00     0.124 S 
ATOM     89  O   UNL     1      -1.837 -11.074  12.837  1.00  0.00    -0.237 OA
ATOM     90  O   UNL     1      -3.256 -10.265  10.980  1.00  0.00    -0.237 OA
ATOM     91  O   UNL     1      -0.823  -9.880  10.929  1.00  0.00    -0.744 OA
ENDBRANCH  87  88
ENDBRANCH  59  82
BRANCH  71  92
ATOM     92  C   UNL     1      -3.648  -4.193  20.574  1.00  0.00    -0.014 A 
ATOM     93  C   UNL     1      -2.455  -4.693  21.125  1.00  0.00     0.010 A 
ATOM     94  C   UNL     1      -4.855  -4.372  21.276  1.00  0.00     0.010 A 
ATOM     95  C   UNL     1      -2.475  -5.389  22.337  1.00  0.00     0.020 A 
ATOM     96  C   UNL     1      -4.874  -5.037  22.503  1.00  0.00     0.020 A 
ATOM     97  C   UNL     1      -3.685  -5.555  23.019  1.00  0.00     0.054 A 
BRANCH  97  98
ATOM     98  S   UNL     1      -3.677  -6.424  24.611  1.00  0.00     0.124 S 
ATOM     99  O   UNL     1      -3.445  -7.806  24.202  1.00  0.00    -0.237 OA
ATOM    100  O   UNL     1      -2.571  -5.783  25.319  1.00  0.00    -0.237 OA
ATOM    101  O   UNL     1      -5.003  -6.151  25.162  1.00  0.00    -0.744 OA
ENDBRANCH  97  98
ENDBRANCH  71  92
ENDBRANCH  45  46
ENDBRANCH  37  40
ENDBRANCH  35  36
ENDBRANCH  34  35
ENDBRANCH   1  34
TORSDOF 18
