REMARK SMILES CC(=O)Oc1ccccc1C(=O)NCCCNC(=O)c1ccc(-c2c3nc(c(-c4ccc(S(=O)(=O)[O-])cc4)c4ccc([nH]4)c(-c4ccc(S(=O)(=O)[O-])cc4)c4nc(c(-c5ccc(S(=O)(=O)[O-])cc5)c5ccc2[nH]5)C=C4)C=C3)cc1
REMARK SMILES IDX 15 1 14 2 13 3 11 4 12 5 10 7 5 8 6 9 7 10 9 11 8 12 4 13
REMARK SMILES IDX 2 14 1 15 3 16 16 17 17 18 18 19 19 21 20 22 21 23 79 24
REMARK SMILES IDX 22 25 78 26 23 27 24 28 25 29 72 30 26 31 77 32 71 33 73 34
REMARK SMILES IDX 27 35 76 36 70 37 69 38 28 40 58 41 39 42 57 43 40 44 43 45
REMARK SMILES IDX 56 46 74 47 41 48 42 49 55 51 75 52 44 53 29 54 30 55 38 56
REMARK SMILES IDX 31 57 37 58 32 59 33 60 34 61 35 62 36 63 59 64 60 65 68 66
REMARK SMILES IDX 61 67 67 68 62 69 63 70 64 71 65 72 66 73 45 74 46 75 54 76
REMARK SMILES IDX 47 77 53 78 48 79 49 80 50 81 51 82 52 83
REMARK H PARENT 13 6 17 20 73 39 43 50
REMARK Flexibility Score: inf
ROOT
ATOM      1  C   UNL     1      -0.659  -0.416   2.006  1.00  0.00     0.042 C 
ENDROOT
BRANCH   1   2
ATOM      2  C   UNL     1      -0.363   0.894   1.312  1.00  0.00     0.118 C 
BRANCH   2   3
ATOM      3  N   UNL     1      -1.480   1.548   0.677  1.00  0.00    -0.352 N 
ATOM      4  C   UNL     1      -1.626   2.869   0.329  1.00  0.00     0.255 C 
ATOM      5  O   UNL     1      -2.644   3.188  -0.288  1.00  0.00    -0.269 OA
ATOM      6  H   UNL     1      -2.246   0.967   0.464  1.00  0.00     0.163 HD
BRANCH   4   7
ATOM      7  C   UNL     1      -0.687   3.938   0.773  1.00  0.00     0.082 A 
ATOM      8  C   UNL     1       0.714   3.896   0.825  1.00  0.00     0.143 A 
ATOM      9  C   UNL     1       1.443   4.956   1.385  1.00  0.00     0.048 A 
ATOM     10  C   UNL     1       0.790   6.095   1.848  1.00  0.00     0.004 A 
ATOM     11  C   UNL     1      -1.322   5.119   1.212  1.00  0.00     0.018 A 
ATOM     12  C   UNL     1      -0.594   6.185   1.747  1.00  0.00     0.001 A 
BRANCH   8  13
ATOM     13  O   UNL     1       1.507   2.792   0.472  1.00  0.00    -0.426 OA
BRANCH  13  14
ATOM     14  C   UNL     1       1.628   2.446  -0.868  1.00  0.00     0.308 C 
ATOM     15  C   UNL     1       2.506   1.228  -0.976  1.00  0.00     0.139 C 
ATOM     16  O   UNL     1       1.130   3.043  -1.818  1.00  0.00    -0.252 OA
ENDBRANCH  13  14
ENDBRANCH   8  13
ENDBRANCH   4   7
ENDBRANCH   2   3
ENDBRANCH   1   2
BRANCH   1  17
ATOM     17  C   UNL     1      -1.150  -1.526   1.086  1.00  0.00     0.118 C 
BRANCH  17  18
ATOM     18  N   UNL     1      -0.239  -1.860  -0.008  1.00  0.00    -0.352 N 
ATOM     19  C   UNL     1       0.609  -2.924  -0.224  1.00  0.00     0.251 C 
ATOM     20  H   UNL     1      -0.229  -1.194  -0.732  1.00  0.00     0.163 HD
ATOM     21  O   UNL     1       1.365  -2.890  -1.193  1.00  0.00    -0.269 OA
BRANCH  19  22
ATOM     22  C   UNL     1       0.660  -4.076   0.708  1.00  0.00     0.039 A 
ATOM     23  C   UNL     1       1.883  -4.711   0.953  1.00  0.00     0.014 A 
ATOM     24  C   UNL     1      -0.484  -4.542   1.347  1.00  0.00     0.014 A 
ATOM     25  C   UNL     1       1.967  -5.720   1.920  1.00  0.00     0.010 A 
ATOM     26  C   UNL     1      -0.375  -5.430   2.409  1.00  0.00     0.010 A 
ATOM     27  C   UNL     1       0.850  -6.041   2.707  1.00  0.00    -0.014 A 
BRANCH  27  28
ATOM     28  C   UNL     1       0.917  -7.010   3.836  1.00  0.00     0.031 A 
ATOM     29  C   UNL     1      -0.024  -8.191   3.873  1.00  0.00     0.074 A 
ATOM     30  C   UNL     1       1.738  -6.771   4.880  1.00  0.00     0.049 A 
ATOM     31  N   UNL     1      -0.220  -9.061   4.830  1.00  0.00    -0.248 NA
ATOM     32  C   UNL     1      -0.892  -8.394   2.700  1.00  0.00     0.031 C 
ATOM     33  C   UNL     1       2.648  -5.628   5.005  1.00  0.00     0.029 A 
ATOM     34  N   UNL     1       1.931  -7.469   6.047  1.00  0.00    -0.354 N 
ATOM     35  C   UNL     1      -1.258  -9.878   4.394  1.00  0.00     0.074 A 
ATOM     36  C   UNL     1      -1.690  -9.367   3.114  1.00  0.00     0.031 C 
ATOM     37  C   UNL     1       3.322  -5.722   6.162  1.00  0.00     0.029 A 
ATOM     38  C   UNL     1       2.861  -6.900   6.887  1.00  0.00     0.049 A 
ATOM     39  H   UNL     1       1.448  -8.300   6.263  1.00  0.00     0.167 HD
ATOM     40  C   UNL     1      -1.788 -10.972   4.990  1.00  0.00     0.031 A 
ATOM     41  C   UNL     1       3.289  -7.276   8.108  1.00  0.00     0.031 A 
ATOM     42  C   UNL     1      -1.319 -11.509   6.238  1.00  0.00     0.049 A 
ATOM     43  C   UNL     1       2.716  -8.520   8.730  1.00  0.00     0.074 A 
ATOM     44  C   UNL     1      -1.723 -12.666   6.881  1.00  0.00     0.029 A 
ATOM     45  N   UNL     1      -0.336 -10.932   7.028  1.00  0.00    -0.354 N 
ATOM     46  N   UNL     1       1.791  -9.323   8.262  1.00  0.00    -0.248 NA
ATOM     47  C   UNL     1       3.255  -8.917  10.039  1.00  0.00     0.031 C 
ATOM     48  C   UNL     1      -1.020 -12.761   8.086  1.00  0.00     0.029 A 
ATOM     49  C   UNL     1      -0.136 -11.697   8.163  1.00  0.00     0.049 A 
ATOM     50  H   UNL     1       0.147 -10.102   6.813  1.00  0.00     0.167 HD
ATOM     51  C   UNL     1       1.656 -10.336   9.206  1.00  0.00     0.074 A 
ATOM     52  C   UNL     1       2.607 -10.053  10.261  1.00  0.00     0.031 C 
ATOM     53  C   UNL     1       0.820 -11.403   9.200  1.00  0.00     0.031 A 
BRANCH  40  54
ATOM     54  C   UNL     1      -2.928 -11.670   4.294  1.00  0.00    -0.014 A 
ATOM     55  C   UNL     1      -2.730 -12.368   3.088  1.00  0.00     0.010 A 
ATOM     56  C   UNL     1      -4.207 -11.673   4.881  1.00  0.00     0.010 A 
ATOM     57  C   UNL     1      -3.796 -13.020   2.463  1.00  0.00     0.020 A 
ATOM     58  C   UNL     1      -5.269 -12.351   4.275  1.00  0.00     0.020 A 
ATOM     59  C   UNL     1      -5.059 -13.008   3.061  1.00  0.00     0.054 A 
BRANCH  59  60
ATOM     60  S   UNL     1      -6.413 -13.897   2.246  1.00  0.00     0.124 S 
ATOM     61  O   UNL     1      -6.690 -13.036   1.099  1.00  0.00    -0.237 OA
ATOM     62  O   UNL     1      -5.804 -15.187   1.931  1.00  0.00    -0.237 OA
ATOM     63  O   UNL     1      -7.463 -13.938   3.261  1.00  0.00    -0.744 OA
ENDBRANCH  59  60
ENDBRANCH  40  54
BRANCH  41  64
ATOM     64  C   UNL     1       4.326  -6.474   8.817  1.00  0.00    -0.014 A 
ATOM     65  C   UNL     1       5.626  -6.982   8.993  1.00  0.00     0.010 A 
ATOM     66  C   UNL     1       4.023  -5.194   9.314  1.00  0.00     0.010 A 
ATOM     67  C   UNL     1       6.594  -6.237   9.674  1.00  0.00     0.020 A 
ATOM     68  C   UNL     1       4.996  -4.433   9.969  1.00  0.00     0.020 A 
ATOM     69  C   UNL     1       6.273  -4.966  10.156  1.00  0.00     0.054 A 
BRANCH  69  70
ATOM     70  S   UNL     1       7.557  -3.998  10.998  1.00  0.00     0.124 S 
ATOM     71  O   UNL     1       7.661  -4.683  12.282  1.00  0.00    -0.237 OA
ATOM     72  O   UNL     1       8.702  -4.150  10.104  1.00  0.00    -0.237 OA
ATOM     73  O   UNL     1       6.991  -2.652  11.049  1.00  0.00    -0.744 OA
ENDBRANCH  69  70
ENDBRANCH  41  64
BRANCH  53  74
ATOM     74  C   UNL     1       0.920 -12.369  10.349  1.00  0.00    -0.014 A 
ATOM     75  C   UNL     1       0.454 -12.030  11.631  1.00  0.00     0.010 A 
ATOM     76  C   UNL     1       1.432 -13.660  10.123  1.00  0.00     0.010 A 
ATOM     77  C   UNL     1       0.527 -12.956  12.675  1.00  0.00     0.020 A 
ATOM     78  C   UNL     1       1.479 -14.598  11.156  1.00  0.00     0.020 A 
ATOM     79  C   UNL     1       1.039 -14.234  12.430  1.00  0.00     0.054 A 
BRANCH  79  80
ATOM     80  S   UNL     1       1.080 -15.432  13.791  1.00  0.00     0.124 S 
ATOM     81  O   UNL     1       2.176 -14.922  14.610  1.00  0.00    -0.237 OA
ATOM     82  O   UNL     1      -0.254 -15.302  14.373  1.00  0.00    -0.237 OA
ATOM     83  O   UNL     1       1.340 -16.706  13.124  1.00  0.00    -0.744 OA
ENDBRANCH  79  80
ENDBRANCH  53  74
ENDBRANCH  27  28
ENDBRANCH  19  22
ENDBRANCH  17  18
ENDBRANCH   1  17
TORSDOF 15
