REMARK SMILES [NH3+][C@]1(C(=O)NCCCNC(=O)c2ccc(-c3c4nc(c(-c5ccc(S(=O)(=O)[O-])cc5)c5ccc([nH]5)c(-c5ccc(S(=O)(=O)[O-])cc5)c5nc(c(-c6ccc(S(=O)(=O)[O-])cc6)c6ccc3[nH]6)C=C5)C=C4)cc2)CCC[C@@H]1CCOc1ccc(CO)cc1
REMARK SMILES IDX 3 1 4 2 5 3 2 5 72 6 75 7 73 8 74 9 1 10 76 14 77 15 78 16
REMARK SMILES IDX 79 17 80 18 86 19 81 20 85 21 82 22 83 23 84 24 6 26 7 27
REMARK SMILES IDX 8 28 9 29 10 30 11 32 12 33 13 34 71 35 14 36 70 37 15 38
REMARK SMILES IDX 16 39 17 40 64 41 18 42 69 43 63 44 65 45 19 46 68 47 62 48
REMARK SMILES IDX 61 49 20 51 50 52 31 53 49 54 32 55 35 56 48 57 66 58 33 59
REMARK SMILES IDX 34 60 47 62 67 63 36 64 21 65 22 66 30 67 23 68 29 69 24 70
REMARK SMILES IDX 25 71 26 72 27 73 28 74 51 75 52 76 60 77 53 78 59 79 54 80
REMARK SMILES IDX 55 81 56 82 57 83 58 84 37 85 38 86 46 87 39 88 45 89 40 90
REMARK SMILES IDX 41 91 42 92 43 93 44 94
REMARK H PARENT 5 4 1 11 1 12 1 13 84 25 9 31 65 50 35 61
REMARK Flexibility Score: inf
ROOT
ATOM      1  C   UNL     1       0.499  -0.464   0.713  1.00  0.00     0.281 C 
ATOM      2  O   UNL     1      -0.342  -0.635  -0.187  1.00  0.00    -0.268 OA
ATOM      3  N   UNL     1       1.665  -1.121   0.527  1.00  0.00    -0.351 N 
ATOM      4  H   UNL     1       1.745  -1.493  -0.381  1.00  0.00     0.163 HD
ENDROOT
BRANCH   1   5
ATOM      5  C   UNL     1       0.119   0.457   1.915  1.00  0.00     0.176 C 
ATOM      6  C   UNL     1       1.073   0.575   3.106  1.00  0.00     0.079 C 
ATOM      7  C   UNL     1       0.085   1.952   1.473  1.00  0.00     0.064 C 
ATOM      8  C   UNL     1       0.601   1.802   3.876  1.00  0.00     0.008 C 
ATOM      9  C   UNL     1       0.075   2.752   2.801  1.00  0.00     0.011 C 
BRANCH   5  10
ATOM     10  N   UNL     1      -1.199  -0.014   2.414  1.00  0.00    -0.345 N 
ATOM     11  H   UNL     1      -1.488   0.562   3.205  1.00  0.00     0.345 HD
ATOM     12  H   UNL     1      -1.122  -0.986   2.712  1.00  0.00     0.345 HD
ATOM     13  H   UNL     1      -1.891   0.060   1.669  1.00  0.00     0.345 HD
ENDBRANCH   5  10
BRANCH   7  14
ATOM     14  C   UNL     1      -1.033   2.395   0.504  1.00  0.00     0.052 C 
BRANCH  14  15
ATOM     15  C   UNL     1      -0.536   3.146  -0.746  1.00  0.00     0.230 C 
BRANCH  15  16
ATOM     16  O   UNL     1      -0.212   2.281  -1.835  1.00  0.00    -0.494 OA
BRANCH  16  17
ATOM     17  C   UNL     1       1.051   1.789  -1.980  1.00  0.00     0.119 A 
ATOM     18  C   UNL     1       1.177   0.766  -2.923  1.00  0.00     0.047 A 
ATOM     19  C   UNL     1       2.183   2.199  -1.285  1.00  0.00     0.047 A 
ATOM     20  C   UNL     1       2.393   0.101  -3.101  1.00  0.00     0.010 A 
ATOM     21  C   UNL     1       3.389   1.505  -1.423  1.00  0.00     0.010 A 
ATOM     22  C   UNL     1       3.497   0.422  -2.303  1.00  0.00    -0.022 A 
BRANCH  22  23
ATOM     23  C   UNL     1       4.791  -0.342  -2.395  1.00  0.00     0.191 C 
BRANCH  23  24
ATOM     24  O   UNL     1       4.583  -1.745  -2.491  1.00  0.00    -0.392 OA
ATOM     25  H   UNL     1       4.125  -2.059  -1.696  1.00  0.00     0.211 HD
ENDBRANCH  23  24
ENDBRANCH  22  23
ENDBRANCH  16  17
ENDBRANCH  15  16
ENDBRANCH  14  15
ENDBRANCH   7  14
ENDBRANCH   1   5
BRANCH   3  26
ATOM     26  C   UNL     1       2.826  -1.409   1.349  1.00  0.00     0.118 C 
BRANCH  26  27
ATOM     27  C   UNL     1       2.982  -2.901   1.616  1.00  0.00     0.042 C 
BRANCH  27  28
ATOM     28  C   UNL     1       3.416  -3.710   0.401  1.00  0.00     0.118 C 
BRANCH  28  29
ATOM     29  N   UNL     1       4.782  -3.419  -0.017  1.00  0.00    -0.352 N 
ATOM     30  C   UNL     1       5.901  -4.221  -0.023  1.00  0.00     0.251 C 
ATOM     31  H   UNL     1       4.927  -2.503  -0.347  1.00  0.00     0.163 HD
ATOM     32  O   UNL     1       7.005  -3.732  -0.215  1.00  0.00    -0.269 OA
BRANCH  30  33
ATOM     33  C   UNL     1       5.766  -5.673   0.226  1.00  0.00     0.039 A 
ATOM     34  C   UNL     1       6.681  -6.309   1.067  1.00  0.00     0.014 A 
ATOM     35  C   UNL     1       4.734  -6.405  -0.367  1.00  0.00     0.014 A 
ATOM     36  C   UNL     1       6.501  -7.656   1.391  1.00  0.00     0.010 A 
ATOM     37  C   UNL     1       4.502  -7.718   0.028  1.00  0.00     0.010 A 
ATOM     38  C   UNL     1       5.379  -8.356   0.917  1.00  0.00    -0.014 A 
BRANCH  38  39
ATOM     39  C   UNL     1       5.087  -9.744   1.358  1.00  0.00     0.031 A 
ATOM     40  C   UNL     1       5.034 -10.863   0.354  1.00  0.00     0.074 A 
ATOM     41  C   UNL     1       4.785  -9.978   2.651  1.00  0.00     0.049 A 
ATOM     42  N   UNL     1       4.717 -12.119   0.538  1.00  0.00    -0.248 NA
ATOM     43  C   UNL     1       5.348 -10.521  -1.043  1.00  0.00     0.031 C 
ATOM     44  C   UNL     1       4.746  -8.966   3.711  1.00  0.00     0.029 A 
ATOM     45  N   UNL     1       4.443 -11.141   3.295  1.00  0.00    -0.354 N 
ATOM     46  C   UNL     1       4.771 -12.710  -0.719  1.00  0.00     0.074 A 
ATOM     47  C   UNL     1       5.102 -11.666  -1.664  1.00  0.00     0.031 C 
ATOM     48  C   UNL     1       4.432  -9.557   4.875  1.00  0.00     0.029 A 
ATOM     49  C   UNL     1       4.205 -10.979   4.640  1.00  0.00     0.049 A 
ATOM     50  H   UNL     1       4.374 -12.009   2.837  1.00  0.00     0.167 HD
ATOM     51  C   UNL     1       4.583 -14.009  -1.056  1.00  0.00     0.031 A 
ATOM     52  C   UNL     1       3.839 -11.872   5.580  1.00  0.00     0.031 A 
ATOM     53  C   UNL     1       4.271 -15.047  -0.110  1.00  0.00     0.049 A 
ATOM     54  C   UNL     1       3.647 -13.310   5.185  1.00  0.00     0.074 A 
ATOM     55  C   UNL     1       4.122 -16.404  -0.340  1.00  0.00     0.029 A 
ATOM     56  N   UNL     1       4.063 -14.846   1.246  1.00  0.00    -0.354 N 
ATOM     57  N   UNL     1       3.769 -13.861   4.000  1.00  0.00    -0.248 NA
ATOM     58  C   UNL     1       3.279 -14.248   6.254  1.00  0.00     0.031 C 
ATOM     59  C   UNL     1       3.780 -17.016   0.871  1.00  0.00     0.029 A 
ATOM     60  C   UNL     1       3.769 -16.049   1.864  1.00  0.00     0.049 A 
ATOM     61  H   UNL     1       4.117 -13.975   1.703  1.00  0.00     0.167 HD
ATOM     62  C   UNL     1       3.516 -15.215   4.187  1.00  0.00     0.074 A 
ATOM     63  C   UNL     1       3.250 -15.401   5.599  1.00  0.00     0.031 C 
ATOM     64  C   UNL     1       3.506 -16.215   3.271  1.00  0.00     0.031 A 
BRANCH  51  65
ATOM     65  C   UNL     1       4.710 -14.375  -2.511  1.00  0.00    -0.014 A 
ATOM     66  C   UNL     1       5.960 -14.353  -3.158  1.00  0.00     0.010 A 
ATOM     67  C   UNL     1       3.573 -14.775  -3.236  1.00  0.00     0.010 A 
ATOM     68  C   UNL     1       6.062 -14.678  -4.513  1.00  0.00     0.020 A 
ATOM     69  C   UNL     1       3.676 -15.129  -4.585  1.00  0.00     0.020 A 
ATOM     70  C   UNL     1       4.918 -15.059  -5.219  1.00  0.00     0.054 A 
BRANCH  70  71
ATOM     71  S   UNL     1       5.084 -15.492  -6.973  1.00  0.00     0.124 S 
ATOM     72  O   UNL     1       5.269 -14.181  -7.590  1.00  0.00    -0.237 OA
ATOM     73  O   UNL     1       6.258 -16.360  -6.981  1.00  0.00    -0.237 OA
ATOM     74  O   UNL     1       3.821 -16.155  -7.287  1.00  0.00    -0.744 OA
ENDBRANCH  70  71
ENDBRANCH  51  65
BRANCH  52  75
ATOM     75  C   UNL     1       3.655 -11.434   6.990  1.00  0.00    -0.014 A 
ATOM     76  C   UNL     1       4.585 -11.804   7.977  1.00  0.00     0.010 A 
ATOM     77  C   UNL     1       2.559 -10.629   7.352  1.00  0.00     0.010 A 
ATOM     78  C   UNL     1       4.415 -11.392   9.302  1.00  0.00     0.020 A 
ATOM     79  C   UNL     1       2.400 -10.193   8.671  1.00  0.00     0.020 A 
ATOM     80  C   UNL     1       3.324 -10.588   9.640  1.00  0.00     0.054 A 
BRANCH  80  81
ATOM     81  S   UNL     1       3.154 -10.020  11.356  1.00  0.00     0.124 S 
ATOM     82  O   UNL     1       2.696 -11.229  12.032  1.00  0.00    -0.237 OA
ATOM     83  O   UNL     1       4.510  -9.586  11.682  1.00  0.00    -0.237 OA
ATOM     84  O   UNL     1       2.170  -8.943  11.262  1.00  0.00    -0.744 OA
ENDBRANCH  80  81
ENDBRANCH  52  75
BRANCH  64  85
ATOM     85  C   UNL     1       3.226 -17.606   3.771  1.00  0.00    -0.014 A 
ATOM     86  C   UNL     1       1.933 -17.992   4.163  1.00  0.00     0.010 A 
ATOM     87  C   UNL     1       4.264 -18.555   3.796  1.00  0.00     0.010 A 
ATOM     88  C   UNL     1       1.689 -19.296   4.601  1.00  0.00     0.020 A 
ATOM     89  C   UNL     1       4.019 -19.867   4.207  1.00  0.00     0.020 A 
ATOM     90  C   UNL     1       2.734 -20.225   4.620  1.00  0.00     0.054 A 
BRANCH  90  91
ATOM     91  S   UNL     1       2.382 -21.925   5.148  1.00  0.00     0.124 S 
ATOM     92  O   UNL     1       2.258 -21.773   6.595  1.00  0.00    -0.237 OA
ATOM     93  O   UNL     1       1.143 -22.232   4.439  1.00  0.00    -0.237 OA
ATOM     94  O   UNL     1       3.552 -22.676   4.698  1.00  0.00    -0.744 OA
ENDBRANCH  90  91
ENDBRANCH  64  85
ENDBRANCH  38  39
ENDBRANCH  30  33
ENDBRANCH  28  29
ENDBRANCH  27  28
ENDBRANCH  26  27
ENDBRANCH   3  26
TORSDOF 20
