REMARK SMILES CC1(C)CCCN(c2cncc(C(=O)NCCCNC(=O)c3ccc(-c4c5nc(c(-c6ccc(S(=O)(=O)[O-])cc6)c6ccc([nH]6)c(-c6ccc(S(=O)(=O)[O-])cc6)c6nc(c(-c7ccc(S(=O)(=O)[O-])cc7)c7ccc4[nH]7)C=C6)C=C5)cc3)n2)CC1
REMARK SMILES IDX 16 1 15 2 13 3 14 4 12 6 8 7 9 8 82 9 10 10 11 11 7 12 83 13
REMARK SMILES IDX 84 14 2 15 1 16 3 17 4 18 6 20 5 21 17 23 18 24 19 25 20 26
REMARK SMILES IDX 21 28 22 29 23 30 81 31 24 32 80 33 25 34 26 35 27 36 74 37
REMARK SMILES IDX 28 38 79 39 73 40 75 41 29 42 78 43 72 44 71 45 30 47 60 48
REMARK SMILES IDX 41 49 59 50 42 51 45 52 58 53 76 54 43 55 44 56 57 58 77 59
REMARK SMILES IDX 46 60 31 61 32 62 40 63 33 64 39 65 34 66 35 67 36 68 37 69
REMARK SMILES IDX 38 70 61 71 62 72 70 73 63 74 69 75 64 76 65 77 66 78 67 79
REMARK SMILES IDX 68 80 47 81 48 82 56 83 49 84 55 85 50 86 51 87 52 88 53 89
REMARK SMILES IDX 54 90
REMARK H PARENT 15 5 19 27 75 46 45 57
REMARK Flexibility Score: 80.00
ROOT
ATOM      1  C   UNL     1      -1.835   6.217  -3.720  1.00  0.00     0.118 C 
ENDROOT
BRANCH   1   2
ATOM      2  N   UNL     1      -2.973   7.096  -3.498  1.00  0.00    -0.351 N 
ATOM      3  C   UNL     1      -3.766   7.303  -2.392  1.00  0.00     0.271 C 
ATOM      4  O   UNL     1      -4.684   8.121  -2.499  1.00  0.00    -0.267 OA
ATOM      5  H   UNL     1      -3.220   7.641  -4.279  1.00  0.00     0.163 HD
BRANCH   3   6
ATOM      6  C   UNL     1      -3.572   6.600  -1.091  1.00  0.00     0.148 A 
ATOM      7  C   UNL     1      -2.424   5.104   0.246  1.00  0.00     0.148 A 
ATOM      8  C   UNL     1      -3.345   5.368   1.267  1.00  0.00     0.157 A 
ATOM      9  N   UNL     1      -2.538   5.737  -0.941  1.00  0.00    -0.222 NA
ATOM     10  N   UNL     1      -4.374   6.245   1.152  1.00  0.00    -0.258 NA
ATOM     11  C   UNL     1      -4.465   6.851  -0.058  1.00  0.00     0.145 A 
BRANCH   7  12
ATOM     12  N   UNL     1      -1.394   4.177   0.421  1.00  0.00    -0.355 N 
BRANCH  12  13
ATOM     13  C   UNL     1      -1.859   2.799   0.574  1.00  0.00     0.118 C 
BRANCH  13  14
ATOM     14  C   UNL     1      -0.977   1.726  -0.070  1.00  0.00     0.028 C 
BRANCH  14  15
ATOM     15  C   UNL     1       0.408   1.457   0.568  1.00  0.00    -0.034 C 
ATOM     16  C   UNL     1       0.945   0.133  -0.026  1.00  0.00     0.011 C 
ATOM     17  C   UNL     1       0.302   1.273   2.093  1.00  0.00     0.011 C 
BRANCH  15  18
ATOM     18  C   UNL     1       1.435   2.557   0.220  1.00  0.00     0.008 CG0
ATOM     19  G   UNL     1       1.050   3.991   0.570  1.00  0.00     0.000 G0
ENDBRANCH  15  18
ENDBRANCH  14  15
ENDBRANCH  13  14
ENDBRANCH  12  13
BRANCH  12  20
ATOM     20  C   UNL     1      -0.138   4.512  -0.235  1.00  0.00     0.118 C 
BRANCH  20  21
ATOM     21  C   UNL     1       1.050   3.991   0.570  1.00  0.00     0.022 CG0
ATOM     22  G   UNL     1       1.435   2.557   0.220  1.00  0.00     0.000 G0
ENDBRANCH  20  21
ENDBRANCH  12  20
ENDBRANCH   7  12
ENDBRANCH   3   6
ENDBRANCH   1   2
BRANCH   1  23
ATOM     23  C   UNL     1      -2.215   4.976  -4.521  1.00  0.00     0.042 C 
BRANCH  23  24
ATOM     24  C   UNL     1      -2.508   5.276  -5.990  1.00  0.00     0.118 C 
BRANCH  24  25
ATOM     25  N   UNL     1      -1.332   5.769  -6.702  1.00  0.00    -0.352 N 
ATOM     26  C   UNL     1      -0.661   5.237  -7.775  1.00  0.00     0.251 C 
ATOM     27  H   UNL     1      -0.964   6.616  -6.359  1.00  0.00     0.163 HD
ATOM     28  O   UNL     1       0.436   5.689  -8.093  1.00  0.00    -0.269 OA
BRANCH  26  29
ATOM     29  C   UNL     1      -1.253   4.120  -8.537  1.00  0.00     0.039 A 
ATOM     30  C   UNL     1      -0.445   3.043  -8.915  1.00  0.00     0.014 A 
ATOM     31  C   UNL     1      -2.604   4.143  -8.891  1.00  0.00     0.014 A 
ATOM     32  C   UNL     1      -1.010   1.956  -9.586  1.00  0.00     0.010 A 
ATOM     33  C   UNL     1      -3.179   3.029  -9.491  1.00  0.00     0.010 A 
ATOM     34  C   UNL     1      -2.389   1.925  -9.847  1.00  0.00    -0.014 A 
BRANCH  34  35
ATOM     35  C   UNL     1      -3.043   0.769 -10.512  1.00  0.00     0.031 A 
ATOM     36  C   UNL     1      -3.730   0.971 -11.836  1.00  0.00     0.074 A 
ATOM     37  C   UNL     1      -3.104  -0.425  -9.889  1.00  0.00     0.049 A 
ATOM     38  N   UNL     1      -4.518   0.158 -12.490  1.00  0.00    -0.248 NA
ATOM     39  C   UNL     1      -3.529   2.273 -12.495  1.00  0.00     0.031 C 
ATOM     40  C   UNL     1      -2.494  -0.744  -8.595  1.00  0.00     0.029 A 
ATOM     41  N   UNL     1      -3.732  -1.591 -10.253  1.00  0.00    -0.354 N 
ATOM     42  C   UNL     1      -4.921   0.855 -13.623  1.00  0.00     0.074 A 
ATOM     43  C   UNL     1      -4.332   2.173 -13.544  1.00  0.00     0.031 C 
ATOM     44  C   UNL     1      -2.774  -2.019  -8.278  1.00  0.00     0.029 A 
ATOM     45  C   UNL     1      -3.623  -2.594  -9.317  1.00  0.00     0.049 A 
ATOM     46  H   UNL     1      -4.216  -1.699 -11.104  1.00  0.00     0.167 HD
ATOM     47  C   UNL     1      -5.694   0.428 -14.649  1.00  0.00     0.031 A 
ATOM     48  C   UNL     1      -4.167  -3.827  -9.287  1.00  0.00     0.031 A 
ATOM     49  C   UNL     1      -6.261  -0.890 -14.734  1.00  0.00     0.049 A 
ATOM     50  C   UNL     1      -5.045  -4.268 -10.429  1.00  0.00     0.074 A 
ATOM     51  C   UNL     1      -7.042  -1.427 -15.742  1.00  0.00     0.029 A 
ATOM     52  N   UNL     1      -6.092  -1.885 -13.784  1.00  0.00    -0.354 N 
ATOM     53  N   UNL     1      -5.397  -3.601 -11.503  1.00  0.00    -0.248 NA
ATOM     54  C   UNL     1      -5.591  -5.632 -10.362  1.00  0.00     0.031 C 
ATOM     55  C   UNL     1      -7.375  -2.737 -15.385  1.00  0.00     0.029 A 
ATOM     56  C   UNL     1      -6.753  -3.033 -14.182  1.00  0.00     0.049 A 
ATOM     57  H   UNL     1      -5.578  -1.789 -12.949  1.00  0.00     0.167 HD
ATOM     58  C   UNL     1      -6.166  -4.480 -12.258  1.00  0.00     0.074 A 
ATOM     59  C   UNL     1      -6.226  -5.726 -11.523  1.00  0.00     0.031 C 
ATOM     60  C   UNL     1      -6.768  -4.275 -13.454  1.00  0.00     0.031 A 
BRANCH  47  61
ATOM     61  C   UNL     1      -5.959   1.391 -15.775  1.00  0.00    -0.014 A 
ATOM     62  C   UNL     1      -4.936   1.743 -16.674  1.00  0.00     0.010 A 
ATOM     63  C   UNL     1      -7.256   1.895 -15.982  1.00  0.00     0.010 A 
ATOM     64  C   UNL     1      -5.197   2.603 -17.743  1.00  0.00     0.020 A 
ATOM     65  C   UNL     1      -7.528   2.733 -17.067  1.00  0.00     0.020 A 
ATOM     66  C   UNL     1      -6.494   3.090 -17.935  1.00  0.00     0.054 A 
BRANCH  66  67
ATOM     67  S   UNL     1      -6.812   4.161 -19.363  1.00  0.00     0.124 S 
ATOM     68  O   UNL     1      -6.146   5.399 -18.965  1.00  0.00    -0.237 OA
ATOM     69  O   UNL     1      -6.179   3.431 -20.458  1.00  0.00    -0.237 OA
ATOM     70  O   UNL     1      -8.270   4.232 -19.425  1.00  0.00    -0.744 OA
ENDBRANCH  66  67
ENDBRANCH  47  61
BRANCH  48  71
ATOM     71  C   UNL     1      -3.916  -4.736  -8.133  1.00  0.00    -0.014 A 
ATOM     72  C   UNL     1      -3.159  -5.910  -8.300  1.00  0.00     0.010 A 
ATOM     73  C   UNL     1      -4.465  -4.453  -6.870  1.00  0.00     0.010 A 
ATOM     74  C   UNL     1      -2.997  -6.806  -7.239  1.00  0.00     0.020 A 
ATOM     75  C   UNL     1      -4.278  -5.330  -5.798  1.00  0.00     0.020 A 
ATOM     76  C   UNL     1      -3.564  -6.513  -5.996  1.00  0.00     0.054 A 
BRANCH  76  77
ATOM     77  S   UNL     1      -3.344  -7.689  -4.632  1.00  0.00     0.124 S 
ATOM     78  O   UNL     1      -4.267  -8.757  -5.001  1.00  0.00    -0.237 OA
ATOM     79  O   UNL     1      -1.923  -8.019  -4.723  1.00  0.00    -0.237 OA
ATOM     80  O   UNL     1      -3.720  -6.915  -3.451  1.00  0.00    -0.744 OA
ENDBRANCH  76  77
ENDBRANCH  48  71
BRANCH  60  81
ATOM     81  C   UNL     1      -7.476  -5.438 -14.094  1.00  0.00    -0.014 A 
ATOM     82  C   UNL     1      -8.719  -5.892 -13.620  1.00  0.00     0.010 A 
ATOM     83  C   UNL     1      -6.925  -6.023 -15.249  1.00  0.00     0.010 A 
ATOM     84  C   UNL     1      -9.390  -6.923 -14.283  1.00  0.00     0.020 A 
ATOM     85  C   UNL     1      -7.605  -7.034 -15.930  1.00  0.00     0.020 A 
ATOM     86  C   UNL     1      -8.832  -7.483 -15.437  1.00  0.00     0.054 A 
BRANCH  86  87
ATOM     87  S   UNL     1      -9.761  -8.764 -16.323  1.00  0.00     0.124 S 
ATOM     88  O   UNL     1      -9.605  -9.918 -15.442  1.00  0.00    -0.237 OA
ATOM     89  O   UNL     1     -11.106  -8.199 -16.387  1.00  0.00    -0.237 OA
ATOM     90  O   UNL     1      -9.073  -8.866 -17.609  1.00  0.00    -0.744 OA
ENDBRANCH  86  87
ENDBRANCH  60  81
ENDBRANCH  34  35
ENDBRANCH  26  29
ENDBRANCH  24  25
ENDBRANCH  23  24
ENDBRANCH   1  23
TORSDOF 14
