REMARK SMILES COc1cccc(S(=O)(=O)N[C@H](CC(C)C)C(=O)NCCCNC(=O)c2ccc(-c3c4nc(c(-c5ccc(S(=O)(=O)[O-])cc5)c5ccc([nH]5)c(-c5ccc(S(=O)(=O)[O-])cc5)c5nc(c(-c6ccc(S(=O)(=O)[O-])cc6)c6ccc3[nH]6)C=C5)C=C4)cc2)c1
REMARK SMILES IDX 20 1 19 2 17 3 18 4 12 6 11 7 8 9 9 10 10 11 7 12 3 13 4 14
REMARK SMILES IDX 86 15 5 16 6 17 2 18 1 19 13 20 14 21 15 22 16 23 21 24
REMARK SMILES IDX 22 25 23 26 24 27 25 29 26 30 27 31 85 32 28 33 84 34 29 35
REMARK SMILES IDX 30 36 31 37 78 38 32 39 83 40 77 41 79 42 33 43 82 44 76 45
REMARK SMILES IDX 75 46 34 48 64 49 45 50 63 51 46 52 49 53 62 54 80 55 47 56
REMARK SMILES IDX 48 57 61 59 81 60 50 61 35 62 36 63 44 64 37 65 43 66 38 67
REMARK SMILES IDX 39 68 40 69 41 70 42 71 65 72 66 73 74 74 67 75 73 76 68 77
REMARK SMILES IDX 69 78 70 79 71 80 72 81 51 82 52 83 60 84 53 85 59 86 54 87
REMARK SMILES IDX 55 88 56 89 57 90 58 91
REMARK H PARENT 19 5 11 8 23 28 79 47 49 58
REMARK Flexibility Score: inf
ROOT
ATOM      1  C   UNL     1       8.150  -0.843  -1.955  1.00  0.00     0.117 C 
ENDROOT
BRANCH   1   2
ATOM      2  N   UNL     1       6.804  -1.137  -1.474  1.00  0.00    -0.355 N 
ATOM      3  C   UNL     1       5.627  -0.823  -2.101  1.00  0.00     0.238 C 
ATOM      4  O   UNL     1       4.887  -1.781  -2.367  1.00  0.00    -0.273 OA
ATOM      5  H   UNL     1       6.734  -1.608  -0.613  1.00  0.00     0.163 HD
BRANCH   3   6
ATOM      6  C   UNL     1       5.131   0.625  -2.397  1.00  0.00     0.159 C 
BRANCH   6   7
ATOM      7  N   UNL     1       4.605   0.703  -3.784  1.00  0.00    -0.199 NA
ATOM      8  H   UNL     1       5.239   1.309  -4.304  1.00  0.00     0.142 HD
BRANCH   7   9
ATOM      9  S   UNL     1       3.038   1.276  -4.072  1.00  0.00     0.241 S 
ATOM     10  O   UNL     1       2.208   1.027  -2.922  1.00  0.00    -0.207 OA
ATOM     11  O   UNL     1       2.687   0.760  -5.384  1.00  0.00    -0.207 OA
BRANCH   9  12
ATOM     12  C   UNL     1       3.239   3.037  -4.247  1.00  0.00     0.086 A 
ATOM     13  C   UNL     1       3.680   5.175  -3.239  1.00  0.00     0.120 A 
ATOM     14  C   UNL     1       3.757   5.767  -4.499  1.00  0.00     0.046 A 
ATOM     15  C   UNL     1       3.355   3.828  -3.100  1.00  0.00     0.068 A 
ATOM     16  C   UNL     1       3.553   4.992  -5.641  1.00  0.00     0.005 A 
ATOM     17  C   UNL     1       3.301   3.623  -5.519  1.00  0.00     0.022 A 
BRANCH  13  18
ATOM     18  O   UNL     1       3.917   5.926  -2.120  1.00  0.00    -0.497 OA
ATOM     19  C   UNL     1       5.325   6.024  -1.874  1.00  0.00     0.278 C 
ENDBRANCH  13  18
ENDBRANCH   9  12
ENDBRANCH   7   9
ENDBRANCH   6   7
BRANCH   6  20
ATOM     20  C   UNL     1       6.006   1.827  -2.026  1.00  0.00     0.033 C 
BRANCH  20  21
ATOM     21  C   UNL     1       7.115   2.305  -2.995  1.00  0.00    -0.015 C 
ATOM     22  C   UNL     1       6.618   3.060  -4.224  1.00  0.00     0.007 C 
ATOM     23  C   UNL     1       8.104   3.230  -2.259  1.00  0.00     0.007 C 
ENDBRANCH  20  21
ENDBRANCH   6  20
ENDBRANCH   3   6
ENDBRANCH   1   2
BRANCH   1  24
ATOM     24  C   UNL     1       8.920   0.183  -1.129  1.00  0.00     0.042 C 
BRANCH  24  25
ATOM     25  C   UNL     1       9.755  -0.349   0.029  1.00  0.00     0.118 C 
BRANCH  25  26
ATOM     26  N   UNL     1      11.071  -0.768  -0.425  1.00  0.00    -0.352 N 
ATOM     27  C   UNL     1      12.298  -0.149  -0.381  1.00  0.00     0.251 C 
ATOM     28  H   UNL     1      11.086  -1.660  -0.841  1.00  0.00     0.163 HD
ATOM     29  O   UNL     1      13.156  -0.560  -1.165  1.00  0.00    -0.269 OA
BRANCH  27  30
ATOM     30  C   UNL     1      12.653   0.949   0.567  1.00  0.00     0.039 A 
ATOM     31  C   UNL     1      13.768   1.746   0.257  1.00  0.00     0.014 A 
ATOM     32  C   UNL     1      12.045   1.123   1.812  1.00  0.00     0.014 A 
ATOM     33  C   UNL     1      14.282   2.664   1.185  1.00  0.00     0.010 A 
ATOM     34  C   UNL     1      12.502   2.104   2.704  1.00  0.00     0.010 A 
ATOM     35  C   UNL     1      13.661   2.844   2.428  1.00  0.00    -0.014 A 
BRANCH  35  36
ATOM     36  C   UNL     1      14.276   3.704   3.481  1.00  0.00     0.031 A 
ATOM     37  C   UNL     1      14.774   3.083   4.768  1.00  0.00     0.074 A 
ATOM     38  C   UNL     1      14.388   5.036   3.303  1.00  0.00     0.049 A 
ATOM     39  N   UNL     1      15.337   3.656   5.804  1.00  0.00    -0.248 NA
ATOM     40  C   UNL     1      14.592   1.631   4.921  1.00  0.00     0.031 C 
ATOM     41  C   UNL     1      13.933   5.774   2.123  1.00  0.00     0.029 A 
ATOM     42  N   UNL     1      14.928   6.006   4.112  1.00  0.00    -0.354 N 
ATOM     43  C   UNL     1      15.540   2.643   6.738  1.00  0.00     0.074 A 
ATOM     44  C   UNL     1      14.999   1.431   6.165  1.00  0.00     0.031 C 
ATOM     45  C   UNL     1      14.249   7.072   2.268  1.00  0.00     0.029 A 
ATOM     46  C   UNL     1      14.901   7.265   3.561  1.00  0.00     0.049 A 
ATOM     47  H   UNL     1      15.300   5.817   5.004  1.00  0.00     0.167 HD
ATOM     48  C   UNL     1      16.137   2.704   7.954  1.00  0.00     0.031 A 
ATOM     49  C   UNL     1      15.361   8.441   4.032  1.00  0.00     0.031 A 
ATOM     50  C   UNL     1      16.710   3.900   8.512  1.00  0.00     0.049 A 
ATOM     51  C   UNL     1      16.049   8.483   5.370  1.00  0.00     0.074 A 
ATOM     52  C   UNL     1      17.396   4.053   9.705  1.00  0.00     0.029 A 
ATOM     53  N   UNL     1      16.670   5.149   7.911  1.00  0.00    -0.354 N 
ATOM     54  N   UNL     1      16.277   7.503   6.212  1.00  0.00    -0.248 NA
ATOM     55  C   UNL     1      16.561   9.789   5.810  1.00  0.00     0.031 C 
ATOM     56  C   UNL     1      17.737   5.404   9.843  1.00  0.00     0.029 A 
ATOM     57  C   UNL     1      17.307   6.081   8.713  1.00  0.00     0.049 A 
ATOM     58  H   UNL     1      16.251   5.344   7.042  1.00  0.00     0.167 HD
ATOM     59  C   UNL     1      16.991   8.067   7.264  1.00  0.00     0.074 A 
ATOM     60  C   UNL     1      17.162   9.471   6.948  1.00  0.00     0.031 C 
ATOM     61  C   UNL     1      17.470   7.474   8.386  1.00  0.00     0.031 A 
BRANCH  48  62
ATOM     62  C   UNL     1      16.184   1.435   8.769  1.00  0.00    -0.014 A 
ATOM     63  C   UNL     1      16.989   0.346   8.386  1.00  0.00     0.010 A 
ATOM     64  C   UNL     1      15.413   1.332   9.942  1.00  0.00     0.010 A 
ATOM     65  C   UNL     1      16.971  -0.843   9.121  1.00  0.00     0.020 A 
ATOM     66  C   UNL     1      15.416   0.155  10.698  1.00  0.00     0.020 A 
ATOM     67  C   UNL     1      16.175  -0.935  10.267  1.00  0.00     0.054 A 
BRANCH  67  68
ATOM     68  S   UNL     1      16.156  -2.493  11.195  1.00  0.00     0.124 S 
ATOM     69  O   UNL     1      15.317  -3.336  10.347  1.00  0.00    -0.237 OA
ATOM     70  O   UNL     1      17.569  -2.860  11.241  1.00  0.00    -0.237 OA
ATOM     71  O   UNL     1      15.569  -2.123  12.481  1.00  0.00    -0.744 OA
ENDBRANCH  67  68
ENDBRANCH  48  62
BRANCH  49  72
ATOM     72  C   UNL     1      15.240   9.671   3.201  1.00  0.00    -0.014 A 
ATOM     73  C   UNL     1      16.377  10.221   2.582  1.00  0.00     0.010 A 
ATOM     74  C   UNL     1      13.990  10.284   3.002  1.00  0.00     0.010 A 
ATOM     75  C   UNL     1      16.270  11.365   1.788  1.00  0.00     0.020 A 
ATOM     76  C   UNL     1      13.874  11.415   2.188  1.00  0.00     0.020 A 
ATOM     77  C   UNL     1      15.017  11.953   1.592  1.00  0.00     0.054 A 
BRANCH  77  78
ATOM     78  S   UNL     1      14.889  13.396   0.498  1.00  0.00     0.124 S 
ATOM     79  O   UNL     1      15.449  14.457   1.328  1.00  0.00    -0.237 OA
ATOM     80  O   UNL     1      15.699  12.995  -0.650  1.00  0.00    -0.237 OA
ATOM     81  O   UNL     1      13.456  13.496   0.233  1.00  0.00    -0.744 OA
ENDBRANCH  77  78
ENDBRANCH  49  72
BRANCH  61  82
ATOM     82  C   UNL     1      18.268   8.331   9.332  1.00  0.00    -0.014 A 
ATOM     83  C   UNL     1      17.652   9.307  10.134  1.00  0.00     0.010 A 
ATOM     84  C   UNL     1      19.657   8.132   9.438  1.00  0.00     0.010 A 
ATOM     85  C   UNL     1      18.418  10.101  10.993  1.00  0.00     0.020 A 
ATOM     86  C   UNL     1      20.422   8.905  10.314  1.00  0.00     0.020 A 
ATOM     87  C   UNL     1      19.799   9.899  11.072  1.00  0.00     0.054 A 
BRANCH  87  88
ATOM     88  S   UNL     1      20.773  10.928  12.205  1.00  0.00     0.124 S 
ATOM     89  O   UNL     1      20.862  12.187  11.470  1.00  0.00    -0.237 OA
ATOM     90  O   UNL     1      19.943  10.960  13.407  1.00  0.00    -0.237 OA
ATOM     91  O   UNL     1      22.030  10.196  12.343  1.00  0.00    -0.744 OA
ENDBRANCH  87  88
ENDBRANCH  61  82
ENDBRANCH  35  36
ENDBRANCH  27  30
ENDBRANCH  25  26
ENDBRANCH  24  25
ENDBRANCH   1  24
TORSDOF 19
