REMARK SMILES Cc1cc(/C=C2/C(=O)NC(=S)[NH+]=C2NCCCNC(=O)c2ccc(-c3c4nc(c(-c5ccc(S(=O)(=O)[O-])cc5)c5ccc([nH]5)c(-c5ccc(S(=O)(=O)[O-])cc5)c5nc(c(-c6ccc(S(=O)(=O)[O-])cc6)c6ccc3[nH]6)C=C5)C=C4)cc2)c(C)n1-c1cccc(C(=O)[O-])c1
REMARK SMILES IDX 16 1 15 2 14 3 5 4 6 5 7 6 13 7 8 8 9 9 12 10 10 11 11 15
REMARK SMILES IDX 4 16 1 17 2 18 3 19 83 20 81 21 82 22 84 23 85 24 92 25
REMARK SMILES IDX 86 26 88 27 87 28 89 29 90 30 91 31 17 32 18 33 19 34 20 36
REMARK SMILES IDX 21 37 22 38 80 39 23 40 79 41 24 42 25 43 26 44 73 45 27 46
REMARK SMILES IDX 78 47 72 48 74 49 28 50 77 51 71 52 70 53 29 55 59 56 40 57
REMARK SMILES IDX 58 58 41 59 44 60 57 61 75 62 42 63 43 64 56 66 76 67 45 68
REMARK SMILES IDX 30 69 31 70 39 71 32 72 38 73 33 74 34 75 35 76 36 77 37 78
REMARK SMILES IDX 60 79 61 80 69 81 62 82 68 83 63 84 64 85 65 86 66 87 67 88
REMARK SMILES IDX 46 89 47 90 55 91 48 92 54 93 49 94 50 95 51 96 52 97 53 98
REMARK H PARENT 9 12 12 13 14 14 18 35 74 54 44 65
REMARK Flexibility Score: inf
ROOT
ATOM      1  C   UNL     1      -2.449   0.894   3.361  1.00  0.00     0.059 C 
ENDROOT
BRANCH   1   2
ATOM      2  C   UNL     1      -2.249  -0.227   4.293  1.00  0.00     0.195 C 
BRANCH   2   3
ATOM      3  N   UNL     1      -1.582   0.237   5.454  1.00  0.00    -0.305 N 
ATOM      4  C   UNL     1       0.441  -1.943   4.423  1.00  0.00     0.032 C 
ATOM      5  C   UNL     1      -0.196  -1.830   5.634  1.00  0.00     0.128 C 
ATOM      6  C   UNL     1      -0.457  -3.053   6.467  1.00  0.00     0.319 C 
ATOM      7  C   UNL     1      -0.928  -0.660   6.213  1.00  0.00     0.234 C 
ATOM      8  O   UNL     1      -0.364  -4.199   6.039  1.00  0.00    -0.250 OA
ATOM      9  N   UNL     1      -0.913  -2.804   7.744  1.00  0.00    -0.229 N 
ATOM     10  N   UNL     1      -1.240  -0.510   7.465  1.00  0.00    -0.236 N 
ATOM     11  C   UNL     1      -1.182  -1.580   8.296  1.00  0.00     0.295 C 
ATOM     12  H   UNL     1      -1.061  -3.589   8.319  1.00  0.00     0.268 HD
ATOM     13  H   UNL     1      -1.516   0.370   7.807  1.00  0.00     0.268 HD
ATOM     14  H   UNL     1      -1.597   1.191   5.698  1.00  0.00     0.256 HD
ATOM     15  S   UNL     1      -1.626  -1.503   9.911  1.00  0.00    -0.005 S 
BRANCH   4  16
ATOM     16  C   UNL     1       0.579  -1.060   3.235  1.00  0.00    -0.003 A 
ATOM     17  C   UNL     1       0.985  -0.398  -0.445  1.00  0.00     0.065 C 
ATOM     18  C   UNL     1       0.663  -0.453   1.009  1.00  0.00     0.020 A 
ATOM     19  C   UNL     1       0.743  -1.530   1.892  1.00  0.00     0.031 A 
ATOM     20  N   UNL     1       0.151   0.623   1.736  1.00  0.00    -0.318 N 
ATOM     21  C   UNL     1       0.609   0.337   3.089  1.00  0.00     0.027 A 
ATOM     22  C   UNL     1       1.020   1.323   4.133  1.00  0.00     0.065 C 
BRANCH  20  23
ATOM     23  C   UNL     1      -0.487   1.880   1.102  1.00  0.00     0.046 A 
ATOM     24  C   UNL     1       0.784   3.096   1.146  1.00  0.00     0.026 A 
ATOM     25  C   UNL     1      -2.232   2.394   1.551  1.00  0.00     0.036 A 
ATOM     26  C   UNL     1       0.527   4.726   1.684  1.00  0.00     0.003 A 
ATOM     27  C   UNL     1      -2.492   4.222   2.260  1.00  0.00    -0.001 A 
ATOM     28  C   UNL     1      -1.010   5.285   2.251  1.00  0.00     0.010 A 
BRANCH  27  29
ATOM     29  C   UNL     1      -3.448   5.394   2.255  1.00  0.00     0.072 C 
ATOM     30  O   UNL     1      -3.227   6.420   1.626  1.00  0.00    -0.545 OA
ATOM     31  O   UNL     1      -4.617   5.219   2.834  1.00  0.00    -0.545 OA
ENDBRANCH  27  29
ENDBRANCH  20  23
ENDBRANCH   4  16
ENDBRANCH   2   3
ENDBRANCH   1   2
BRANCH   1  32
ATOM     32  C   UNL     1      -1.903   2.396   3.715  1.00  0.00     0.119 C 
BRANCH  32  33
ATOM     33  N   UNL     1      -0.917   3.276   2.447  1.00  0.00    -0.352 N 
ATOM     34  C   UNL     1      -1.546   3.859   0.636  1.00  0.00     0.251 C 
ATOM     35  H   UNL     1       0.017   3.484   2.679  1.00  0.00     0.163 HD
ATOM     36  O   UNL     1      -0.862   4.265  -0.322  1.00  0.00    -0.269 OA
BRANCH  34  37
ATOM     37  C   UNL     1      -3.516   3.777   0.270  1.00  0.00     0.039 A 
ATOM     38  C   UNL     1      -4.343   4.687  -0.382  1.00  0.00     0.014 A 
ATOM     39  C   UNL     1      -4.657   3.117   1.206  1.00  0.00     0.014 A 
ATOM     40  C   UNL     1      -5.944   4.945   0.063  1.00  0.00     0.010 A 
ATOM     41  C   UNL     1      -6.205   3.385   1.649  1.00  0.00     0.010 A 
ATOM     42  C   UNL     1      -7.003   4.380   1.138  1.00  0.00    -0.014 A 
BRANCH  42  43
ATOM     43  C   UNL     1      -8.845   4.695   1.398  1.00  0.00     0.031 A 
ATOM     44  C   UNL     1      -8.891   5.355   0.103  1.00  0.00     0.074 A 
ATOM     45  C   UNL     1     -10.237   5.051   2.118  1.00  0.00     0.049 A 
ATOM     46  N   UNL     1      -8.338   6.519   0.195  1.00  0.00    -0.248 NA
ATOM     47  C   UNL     1      -8.815   4.750  -1.217  1.00  0.00     0.031 C 
ATOM     48  C   UNL     1     -10.610   5.630   3.503  1.00  0.00     0.029 A 
ATOM     49  N   UNL     1     -11.828   5.162   1.641  1.00  0.00    -0.354 N 
ATOM     50  C   UNL     1      -8.047   6.963  -1.066  1.00  0.00     0.074 A 
ATOM     51  C   UNL     1      -8.315   5.786  -1.916  1.00  0.00     0.031 C 
ATOM     52  C   UNL     1     -11.975   5.784   3.800  1.00  0.00     0.029 A 
ATOM     53  C   UNL     1     -13.019   5.259   2.790  1.00  0.00     0.049 A 
ATOM     54  H   UNL     1     -12.060   5.170   0.684  1.00  0.00     0.167 HD
ATOM     55  C   UNL     1      -8.417   8.261  -1.125  1.00  0.00     0.031 A 
ATOM     56  C   UNL     1     -14.499   5.732   2.876  1.00  0.00     0.031 A 
ATOM     57  C   UNL     1      -9.864   8.240  -1.209  1.00  0.00     0.049 A 
ATOM     58  C   UNL     1     -14.730   6.695   1.809  1.00  0.00     0.074 A 
ATOM     59  C   UNL     1     -10.719   7.325  -1.829  1.00  0.00     0.029 A 
ATOM     60  N   UNL     1     -10.576   8.802  -0.187  1.00  0.00    -0.354 N 
ATOM     61  N   UNL     1     -14.607   7.970   1.900  1.00  0.00    -0.248 NA
ATOM     62  C   UNL     1     -15.078   6.152   0.506  1.00  0.00     0.031 C 
ATOM     63  C   UNL     1     -11.722   7.074  -0.897  1.00  0.00     0.029 A 
ATOM     64  C   UNL     1     -11.818   8.222  -0.140  1.00  0.00     0.049 A 
ATOM     65  H   UNL     1     -10.251   9.509   0.417  1.00  0.00     0.167 HD
ATOM     66  C   UNL     1     -14.020   8.179   0.690  1.00  0.00     0.074 A 
ATOM     67  C   UNL     1     -14.504   7.115  -0.200  1.00  0.00     0.031 C 
ATOM     68  C   UNL     1     -12.793   8.747   0.744  1.00  0.00     0.031 A 
BRANCH  55  69
ATOM     69  C   UNL     1      -7.548   9.039  -0.082  1.00  0.00    -0.014 A 
ATOM     70  C   UNL     1      -6.453   9.755  -0.582  1.00  0.00     0.010 A 
ATOM     71  C   UNL     1      -7.606   8.889   1.342  1.00  0.00     0.010 A 
ATOM     72  C   UNL     1      -5.505  10.343   0.277  1.00  0.00     0.020 A 
ATOM     73  C   UNL     1      -6.640   9.448   2.208  1.00  0.00     0.020 A 
ATOM     74  C   UNL     1      -5.614  10.211   1.664  1.00  0.00     0.054 A 
BRANCH  74  75
ATOM     75  S   UNL     1      -4.439  11.127   2.713  1.00  0.00     0.124 S 
ATOM     76  O   UNL     1      -3.139  10.666   2.228  1.00  0.00    -0.237 OA
ATOM     77  O   UNL     1      -4.760  12.513   2.381  1.00  0.00    -0.237 OA
ATOM     78  O   UNL     1      -4.768  10.709   4.073  1.00  0.00    -0.744 OA
ENDBRANCH  74  75
ENDBRANCH  55  69
BRANCH  56  79
ATOM     79  C   UNL     1     -16.231   5.345   3.102  1.00  0.00    -0.014 A 
ATOM     80  C   UNL     1     -17.364   6.207   2.596  1.00  0.00     0.010 A 
ATOM     81  C   UNL     1     -16.763   4.157   3.610  1.00  0.00     0.010 A 
ATOM     82  C   UNL     1     -18.774   5.819   2.445  1.00  0.00     0.020 A 
ATOM     83  C   UNL     1     -18.180   3.774   3.484  1.00  0.00     0.020 A 
ATOM     84  C   UNL     1     -19.166   4.558   2.857  1.00  0.00     0.054 A 
BRANCH  84  85
ATOM     85  S   UNL     1     -20.862   3.856   2.467  1.00  0.00     0.124 S 
ATOM     86  O   UNL     1     -21.775   4.641   3.294  1.00  0.00    -0.237 OA
ATOM     87  O   UNL     1     -20.994   4.068   1.027  1.00  0.00    -0.237 OA
ATOM     88  O   UNL     1     -20.740   2.452   2.859  1.00  0.00    -0.744 OA
ENDBRANCH  84  85
ENDBRANCH  56  79
BRANCH  68  89
ATOM     89  C   UNL     1     -12.504   9.816   1.763  1.00  0.00    -0.014 A 
ATOM     90  C   UNL     1     -12.677   9.711   3.158  1.00  0.00     0.010 A 
ATOM     91  C   UNL     1     -12.011  11.026   1.248  1.00  0.00     0.010 A 
ATOM     92  C   UNL     1     -12.441  10.814   3.995  1.00  0.00     0.020 A 
ATOM     93  C   UNL     1     -11.729  12.107   2.075  1.00  0.00     0.020 A 
ATOM     94  C   UNL     1     -11.995  12.014   3.437  1.00  0.00     0.054 A 
BRANCH  94  95
ATOM     95  S   UNL     1     -11.854  13.492   4.479  1.00  0.00     0.124 S 
ATOM     96  O   UNL     1     -13.245  13.734   4.855  1.00  0.00    -0.237 OA
ATOM     97  O   UNL     1     -10.983  13.043   5.560  1.00  0.00    -0.237 OA
ATOM     98  O   UNL     1     -11.282  14.493   3.581  1.00  0.00    -0.744 OA
ENDBRANCH  94  95
ENDBRANCH  68  89
ENDBRANCH  42  43
ENDBRANCH  34  37
ENDBRANCH  32  33
ENDBRANCH   1  32
TORSDOF 15
