REMARK SMILES C[C@H](CNc1cccc(F)c1C(=O)NCCCNC(=O)c1ccc(-c2c3nc(c(-c4ccc(S(=O)(=O)[O-])cc4)c4ccc([nH]4)c(-c4ccc(S(=O)(=O)[O-])cc4)c4nc(c(-c5ccc(S(=O)(=O)[O-])cc5)c5ccc2[nH]5)C=C4)C=C3)cc1)C[NH+]1CCCC1
REMARK SMILES IDX 15 1 14 2 12 3 13 4 11 6 5 7 6 8 7 9 9 10 8 11 10 12 4 13
REMARK SMILES IDX 3 15 2 16 1 17 81 18 82 19 83 20 86 21 84 23 85 24 16 25
REMARK SMILES IDX 17 26 18 27 19 28 20 30 21 31 22 32 80 33 23 34 79 35 24 36
REMARK SMILES IDX 25 37 26 38 73 39 27 40 78 41 72 42 74 43 28 44 77 45 71 46
REMARK SMILES IDX 70 47 29 49 59 50 40 51 58 52 41 53 44 54 57 55 75 56 42 57
REMARK SMILES IDX 43 58 56 60 76 61 45 62 30 63 31 64 39 65 32 66 38 67 33 68
REMARK SMILES IDX 34 69 35 70 36 71 37 72 60 73 61 74 69 75 62 76 68 77 63 78
REMARK SMILES IDX 64 79 65 80 66 81 67 82 46 83 47 84 55 85 48 86 54 87 49 88
REMARK SMILES IDX 50 89 51 90 52 91 53 92
REMARK H PARENT 14 5 4 14 82 22 18 29 74 48 44 59
REMARK Flexibility Score: inf
ROOT
ATOM      1  C   UNL     1       4.532   5.080  -0.732  1.00  0.00     0.118 C 
ENDROOT
BRANCH   1   2
ATOM      2  N   UNL     1       3.858   4.196  -1.665  1.00  0.00    -0.352 N 
ATOM      3  C   UNL     1       3.863   2.834  -1.812  1.00  0.00     0.256 C 
ATOM      4  O   UNL     1       3.359   2.380  -2.843  1.00  0.00    -0.269 OA
ATOM      5  H   UNL     1       3.289   4.665  -2.318  1.00  0.00     0.163 HD
BRANCH   3   6
ATOM      6  C   UNL     1       4.276   1.900  -0.734  1.00  0.00     0.098 A 
ATOM      7  C   UNL     1       3.405   0.821  -0.421  1.00  0.00     0.050 A 
ATOM      8  C   UNL     1       3.753  -0.028   0.639  1.00  0.00     0.027 A 
ATOM      9  C   UNL     1       4.952   0.139   1.339  1.00  0.00     0.005 A 
ATOM     10  C   UNL     1       5.486   2.030  -0.052  1.00  0.00     0.138 A 
ATOM     11  C   UNL     1       5.822   1.164   0.985  1.00  0.00     0.040 A 
ATOM     12  F   UNL     1       6.380   2.969  -0.385  1.00  0.00    -0.206 F 
BRANCH   7  13
ATOM     13  N   UNL     1       2.238   0.616  -1.148  1.00  0.00    -0.384 N 
ATOM     14  H   UNL     1       2.305   0.697  -2.127  1.00  0.00     0.160 HD
BRANCH  13  15
ATOM     15  C   UNL     1       0.932   0.295  -0.604  1.00  0.00     0.122 C 
BRANCH  15  16
ATOM     16  C   UNL     1       0.220   1.535  -0.031  1.00  0.00     0.060 C 
ATOM     17  C   UNL     1       0.239   2.701  -1.038  1.00  0.00     0.015 C 
BRANCH  16  18
ATOM     18  C   UNL     1      -1.263   1.268   0.335  1.00  0.00     0.267 C 
BRANCH  18  19
ATOM     19  N   UNL     1      -1.617   0.357   1.421  1.00  0.00    -0.335 N 
ATOM     20  C   UNL     1      -0.962   0.591   2.702  1.00  0.00     0.262 C 
ATOM     21  C   UNL     1      -1.566  -1.067   1.114  1.00  0.00     0.262 C 
ATOM     22  H   UNL     1      -2.598   0.618   1.522  1.00  0.00     0.348 HD
ATOM     23  C   UNL     1       0.035  -0.538   2.854  1.00  0.00     0.067 C 
ATOM     24  C   UNL     1      -0.597  -1.698   2.105  1.00  0.00     0.067 C 
ENDBRANCH  18  19
ENDBRANCH  16  18
ENDBRANCH  15  16
ENDBRANCH  13  15
ENDBRANCH   7  13
ENDBRANCH   3   6
ENDBRANCH   1   2
BRANCH   1  25
ATOM     25  C   UNL     1       5.792   5.646  -1.385  1.00  0.00     0.042 C 
BRANCH  25  26
ATOM     26  C   UNL     1       5.489   6.623  -2.519  1.00  0.00     0.118 C 
BRANCH  26  27
ATOM     27  N   UNL     1       5.096   7.932  -2.018  1.00  0.00    -0.352 N 
ATOM     28  C   UNL     1       5.669   9.152  -2.269  1.00  0.00     0.251 C 
ATOM     29  H   UNL     1       4.316   7.943  -1.418  1.00  0.00     0.163 HD
ATOM     30  O   UNL     1       5.355  10.128  -1.583  1.00  0.00    -0.269 OA
BRANCH  28  31
ATOM     31  C   UNL     1       6.670   9.297  -3.348  1.00  0.00     0.039 A 
ATOM     32  C   UNL     1       7.841  10.017  -3.096  1.00  0.00     0.014 A 
ATOM     33  C   UNL     1       6.448   8.738  -4.611  1.00  0.00     0.014 A 
ATOM     34  C   UNL     1       8.813  10.132  -4.093  1.00  0.00     0.010 A 
ATOM     35  C   UNL     1       7.443   8.803  -5.583  1.00  0.00     0.010 A 
ATOM     36  C   UNL     1       8.634   9.504  -5.337  1.00  0.00    -0.014 A 
BRANCH  36  37
ATOM     37  C   UNL     1       9.678   9.565  -6.391  1.00  0.00     0.031 A 
ATOM     38  C   UNL     1       9.401  10.272  -7.690  1.00  0.00     0.074 A 
ATOM     39  C   UNL     1      10.848   8.922  -6.210  1.00  0.00     0.049 A 
ATOM     40  N   UNL     1      10.151  10.358  -8.759  1.00  0.00    -0.248 NA
ATOM     41  C   UNL     1       8.101  10.951  -7.810  1.00  0.00     0.031 C 
ATOM     42  C   UNL     1      11.223   8.167  -5.012  1.00  0.00     0.029 A 
ATOM     43  N   UNL     1      11.933   8.786  -7.040  1.00  0.00    -0.354 N 
ATOM     44  C   UNL     1       9.409  11.084  -9.684  1.00  0.00     0.074 A 
ATOM     45  C   UNL     1       8.134  11.376  -9.065  1.00  0.00     0.031 C 
ATOM     46  C   UNL     1      12.452   7.655  -5.182  1.00  0.00     0.029 A 
ATOM     47  C   UNL     1      12.938   8.011  -6.512  1.00  0.00     0.049 A 
ATOM     48  H   UNL     1      11.986   9.204  -7.930  1.00  0.00     0.167 HD
ATOM     49  C   UNL     1       9.762  11.486 -10.929  1.00  0.00     0.031 A 
ATOM     50  C   UNL     1      14.111   7.614  -7.041  1.00  0.00     0.031 A 
ATOM     51  C   UNL     1      11.032  11.196 -11.540  1.00  0.00     0.049 A 
ATOM     52  C   UNL     1      14.480   8.060  -8.428  1.00  0.00     0.074 A 
ATOM     53  C   UNL     1      11.505  11.600 -12.777  1.00  0.00     0.029 A 
ATOM     54  N   UNL     1      12.030  10.424 -10.964  1.00  0.00    -0.354 N 
ATOM     55  N   UNL     1      13.791   8.801  -9.264  1.00  0.00    -0.248 NA
ATOM     56  C   UNL     1      15.786   7.625  -8.942  1.00  0.00     0.031 C 
ATOM     57  C   UNL     1      12.771  11.035 -12.966  1.00  0.00     0.029 A 
ATOM     58  C   UNL     1      13.107  10.319 -11.827  1.00  0.00     0.049 A 
ATOM     59  H   UNL     1      11.979  10.010 -10.072  1.00  0.00     0.167 HD
ATOM     60  C   UNL     1      14.585   8.932 -10.397  1.00  0.00     0.074 A 
ATOM     61  C   UNL     1      15.814   8.210 -10.133  1.00  0.00     0.031 C 
ATOM     62  C   UNL     1      14.319   9.589 -11.553  1.00  0.00     0.031 A 
BRANCH  49  63
ATOM     63  C   UNL     1       8.747  12.277 -11.711  1.00  0.00    -0.014 A 
ATOM     64  C   UNL     1       8.414  13.594 -11.342  1.00  0.00     0.010 A 
ATOM     65  C   UNL     1       8.126  11.705 -12.836  1.00  0.00     0.010 A 
ATOM     66  C   UNL     1       7.437  14.301 -12.048  1.00  0.00     0.020 A 
ATOM     67  C   UNL     1       7.168  12.420 -13.561  1.00  0.00     0.020 A 
ATOM     68  C   UNL     1       6.813  13.706 -13.147  1.00  0.00     0.054 A 
BRANCH  68  69
ATOM     69  S   UNL     1       5.542  14.643 -14.040  1.00  0.00     0.124 S 
ATOM     70  O   UNL     1       4.407  14.558 -13.124  1.00  0.00    -0.237 OA
ATOM     71  O   UNL     1       6.147  15.967 -14.167  1.00  0.00    -0.237 OA
ATOM     72  O   UNL     1       5.388  13.910 -15.294  1.00  0.00    -0.744 OA
ENDBRANCH  68  69
ENDBRANCH  49  63
BRANCH  50  73
ATOM     73  C   UNL     1      15.018   6.742  -6.247  1.00  0.00    -0.014 A 
ATOM     74  C   UNL     1      16.200   7.260  -5.689  1.00  0.00     0.010 A 
ATOM     75  C   UNL     1      14.681   5.397  -6.010  1.00  0.00     0.010 A 
ATOM     76  C   UNL     1      17.030   6.448  -4.912  1.00  0.00     0.020 A 
ATOM     77  C   UNL     1      15.497   4.588  -5.213  1.00  0.00     0.020 A 
ATOM     78  C   UNL     1      16.671   5.117  -4.675  1.00  0.00     0.054 A 
BRANCH  78  79
ATOM     79  S   UNL     1      17.724   4.103  -3.600  1.00  0.00     0.124 S 
ATOM     80  O   UNL     1      18.856   3.809  -4.473  1.00  0.00    -0.237 OA
ATOM     81  O   UNL     1      18.003   5.006  -2.485  1.00  0.00    -0.237 OA
ATOM     82  O   UNL     1      16.874   2.962  -3.268  1.00  0.00    -0.744 OA
ENDBRANCH  78  79
ENDBRANCH  50  73
BRANCH  62  83
ATOM     83  C   UNL     1      15.380   9.571 -12.620  1.00  0.00    -0.014 A 
ATOM     84  C   UNL     1      15.614   8.416 -13.387  1.00  0.00     0.010 A 
ATOM     85  C   UNL     1      16.105  10.743 -12.902  1.00  0.00     0.010 A 
ATOM     86  C   UNL     1      16.568   8.429 -14.408  1.00  0.00     0.020 A 
ATOM     87  C   UNL     1      17.044  10.766 -13.937  1.00  0.00     0.020 A 
ATOM     88  C   UNL     1      17.276   9.605 -14.678  1.00  0.00     0.054 A 
BRANCH  88  89
ATOM     89  S   UNL     1      18.467   9.613 -16.047  1.00  0.00     0.124 S 
ATOM     90  O   UNL     1      19.584   8.861 -15.483  1.00  0.00    -0.237 OA
ATOM     91  O   UNL     1      17.732   8.941 -17.116  1.00  0.00    -0.237 OA
ATOM     92  O   UNL     1      18.723  11.034 -16.274  1.00  0.00    -0.744 OA
ENDBRANCH  88  89
ENDBRANCH  62  83
ENDBRANCH  36  37
ENDBRANCH  28  31
ENDBRANCH  26  27
ENDBRANCH  25  26
ENDBRANCH   1  25
TORSDOF 18
