REMARK SMILES Cc1c(Br)c(C)c2c(c1Br)O[C@H](C(F)(F)F)C(C(=O)NCCCNC(=O)c1ccc(-c3c4nc(c(-c5ccc(S(=O)(=O)[O-])cc5)c5ccc([nH]5)c(-c5ccc(S(=O)(=O)[O-])cc5)c5nc(c(-c6ccc(S(=O)(=O)[O-])cc6)c6ccc3[nH]6)C=C5)C=C4)cc1)=C2
REMARK SMILES IDX 23 1 22 2 21 3 20 4 18 5 19 6 17 8 1 9 2 10 3 11 9 12 4 13
REMARK SMILES IDX 5 14 8 15 10 16 6 17 7 18 11 19 87 20 12 21 13 22 14 23
REMARK SMILES IDX 15 24 16 25 24 26 25 27 26 29 27 30 28 31 86 32 29 33 85 34
REMARK SMILES IDX 30 35 31 36 32 37 79 38 33 39 84 40 78 41 80 42 34 43 83 44
REMARK SMILES IDX 77 45 76 46 35 48 65 49 46 50 64 51 47 52 50 53 63 54 81 55
REMARK SMILES IDX 48 56 49 57 62 59 82 60 51 61 36 62 37 63 45 64 38 65 44 66
REMARK SMILES IDX 39 67 40 68 41 69 42 70 43 71 66 72 67 73 75 74 68 75 74 76
REMARK SMILES IDX 69 77 70 78 71 79 72 80 73 81 52 82 53 83 61 84 54 85 60 86
REMARK SMILES IDX 55 87 56 88 57 89 58 90 59 91
REMARK H PARENT 20 7 24 28 80 47 50 58
REMARK Flexibility Score: inf
ROOT
ATOM      1  C   UNL     1      -1.190  -4.821   9.844  1.00  0.00     0.118 C 
ENDROOT
BRANCH   1   2
ATOM      2  C   UNL     1      -0.909  -4.634   8.359  1.00  0.00     0.042 C 
BRANCH   2   3
ATOM      3  C   UNL     1      -2.029  -3.886   7.651  1.00  0.00     0.118 C 
BRANCH   3   4
ATOM      4  N   UNL     1      -1.972  -2.454   7.903  1.00  0.00    -0.352 N 
ATOM      5  C   UNL     1      -1.645  -1.337   7.213  1.00  0.00     0.251 C 
ATOM      6  O   UNL     1      -1.755  -0.279   7.840  1.00  0.00    -0.270 OA
ATOM      7  H   UNL     1      -2.245  -2.240   8.824  1.00  0.00     0.163 HD
BRANCH   5   8
ATOM      8  C   UNL     1      -1.188  -1.309   5.794  1.00  0.00     0.067 C 
ATOM      9  C   UNL     1       0.977   0.143  -0.222  1.00  0.00     0.047 C 
ATOM     10  C   UNL     1       0.483   0.117   1.206  1.00  0.00    -0.019 A 
ATOM     11  C   UNL     1       0.231   1.309   1.932  1.00  0.00     0.025 A 
ATOM     12  C   UNL     1       0.331  -1.111   1.877  1.00  0.00     0.064 A 
ATOM     13  Br  UNL     1       0.580   2.998   1.087  1.00  0.00    -0.050 Br
ATOM     14  C   UNL     1      -0.235   1.280   3.274  1.00  0.00    -0.026 A 
ATOM     15  C   UNL     1      -0.120  -1.151   3.204  1.00  0.00     0.142 A 
ATOM     16  Br  UNL     1       0.746  -2.774   1.018  1.00  0.00    -0.046 Br
ATOM     17  C   UNL     1      -0.537   2.539   4.058  1.00  0.00     0.046 C 
ATOM     18  C   UNL     1      -0.406   0.026   3.908  1.00  0.00     0.022 A 
ATOM     19  O   UNL     1      -0.213  -2.382   3.800  1.00  0.00    -0.474 OA
ATOM     20  C   UNL     1      -0.828  -0.106   5.310  1.00  0.00     0.026 C 
ATOM     21  C   UNL     1      -1.137  -2.510   4.904  1.00  0.00     0.314 C 
BRANCH  21  22
ATOM     22  C   UNL     1      -2.525  -2.926   4.384  1.00  0.00     0.429 C 
ATOM     23  F   UNL     1      -2.498  -4.194   3.906  1.00  0.00    -0.167 F 
ATOM     24  F   UNL     1      -3.472  -2.902   5.353  1.00  0.00    -0.167 F 
ATOM     25  F   UNL     1      -2.970  -2.126   3.389  1.00  0.00    -0.167 F 
ENDBRANCH  21  22
ENDBRANCH   5   8
ENDBRANCH   3   4
ENDBRANCH   2   3
ENDBRANCH   1   2
BRANCH   1  26
ATOM     26  N   UNL     1      -2.362  -5.664  10.070  1.00  0.00    -0.352 N 
ATOM     27  C   UNL     1      -2.445  -6.965  10.500  1.00  0.00     0.251 C 
ATOM     28  H   UNL     1      -3.227  -5.231   9.886  1.00  0.00     0.163 HD
ATOM     29  O   UNL     1      -3.494  -7.588  10.353  1.00  0.00    -0.269 OA
BRANCH  27  30
ATOM     30  C   UNL     1      -1.278  -7.607  11.131  1.00  0.00     0.039 A 
ATOM     31  C   UNL     1      -0.974  -8.936  10.827  1.00  0.00     0.014 A 
ATOM     32  C   UNL     1      -0.492  -6.896  12.041  1.00  0.00     0.014 A 
ATOM     33  C   UNL     1       0.160  -9.527  11.387  1.00  0.00     0.010 A 
ATOM     34  C   UNL     1       0.687  -7.450  12.518  1.00  0.00     0.010 A 
ATOM     35  C   UNL     1       1.018  -8.775  12.208  1.00  0.00    -0.014 A 
BRANCH  35  36
ATOM     36  C   UNL     1       2.255  -9.361  12.776  1.00  0.00     0.031 A 
ATOM     37  C   UNL     1       2.407  -9.482  14.269  1.00  0.00     0.074 A 
ATOM     38  C   UNL     1       3.257  -9.729  11.954  1.00  0.00     0.049 A 
ATOM     39  N   UNL     1       3.430  -9.914  14.959  1.00  0.00    -0.248 NA
ATOM     40  C   UNL     1       1.273  -9.035  15.097  1.00  0.00     0.031 C 
ATOM     41  C   UNL     1       3.238  -9.621  10.492  1.00  0.00     0.029 A 
ATOM     42  N   UNL     1       4.486 -10.272  12.228  1.00  0.00    -0.354 N 
ATOM     43  C   UNL     1       3.067  -9.781  16.294  1.00  0.00     0.074 A 
ATOM     44  C   UNL     1       1.759  -9.169  16.321  1.00  0.00     0.031 C 
ATOM     45  C   UNL     1       4.380 -10.124   9.998  1.00  0.00     0.029 A 
ATOM     46  C   UNL     1       5.230 -10.550  11.105  1.00  0.00     0.049 A 
ATOM     47  H   UNL     1       4.806 -10.447  13.143  1.00  0.00     0.167 HD
ATOM     48  C   UNL     1       3.749 -10.165  17.398  1.00  0.00     0.031 A 
ATOM     49  C   UNL     1       6.458 -11.090  10.982  1.00  0.00     0.031 A 
ATOM     50  C   UNL     1       5.041 -10.794  17.362  1.00  0.00     0.049 A 
ATOM     51  C   UNL     1       7.204 -11.491  12.226  1.00  0.00     0.074 A 
ATOM     52  C   UNL     1       5.798 -11.261  18.420  1.00  0.00     0.029 A 
ATOM     53  N   UNL     1       5.762 -11.050  16.206  1.00  0.00    -0.354 N 
ATOM     54  N   UNL     1       6.822 -11.402  13.478  1.00  0.00    -0.248 NA
ATOM     55  C   UNL     1       8.541 -12.071  12.041  1.00  0.00     0.031 C 
ATOM     56  C   UNL     1       7.000 -11.758  17.908  1.00  0.00     0.029 A 
ATOM     57  C   UNL     1       6.966 -11.652  16.526  1.00  0.00     0.049 A 
ATOM     58  H   UNL     1       5.462 -10.835  15.293  1.00  0.00     0.167 HD
ATOM     59  C   UNL     1       7.863 -11.937  14.229  1.00  0.00     0.074 A 
ATOM     60  C   UNL     1       8.883 -12.359  13.290  1.00  0.00     0.031 C 
ATOM     61  C   UNL     1       7.965 -12.066  15.574  1.00  0.00     0.031 A 
BRANCH  48  62
ATOM     62  C   UNL     1       3.100  -9.933  18.736  1.00  0.00    -0.014 A 
ATOM     63  C   UNL     1       1.979 -10.684  19.133  1.00  0.00     0.010 A 
ATOM     64  C   UNL     1       3.647  -8.994  19.630  1.00  0.00     0.010 A 
ATOM     65  C   UNL     1       1.397 -10.480  20.386  1.00  0.00     0.020 A 
ATOM     66  C   UNL     1       3.084  -8.807  20.897  1.00  0.00     0.020 A 
ATOM     67  C   UNL     1       1.956  -9.544  21.261  1.00  0.00     0.054 A 
BRANCH  67  68
ATOM     68  S   UNL     1       1.201  -9.334  22.897  1.00  0.00     0.124 S 
ATOM     69  O   UNL     1      -0.066  -8.688  22.563  1.00  0.00    -0.237 OA
ATOM     70  O   UNL     1       1.097 -10.709  23.379  1.00  0.00    -0.237 OA
ATOM     71  O   UNL     1       2.156  -8.495  23.616  1.00  0.00    -0.744 OA
ENDBRANCH  67  68
ENDBRANCH  48  62
BRANCH  49  72
ATOM     72  C   UNL     1       7.040 -11.313   9.631  1.00  0.00    -0.014 A 
ATOM     73  C   UNL     1       7.176 -12.618   9.124  1.00  0.00     0.010 A 
ATOM     74  C   UNL     1       7.438 -10.225   8.832  1.00  0.00     0.010 A 
ATOM     75  C   UNL     1       7.710 -12.832   7.850  1.00  0.00     0.020 A 
ATOM     76  C   UNL     1       7.947 -10.433   7.547  1.00  0.00     0.020 A 
ATOM     77  C   UNL     1       8.089 -11.737   7.067  1.00  0.00     0.054 A 
BRANCH  77  78
ATOM     78  S   UNL     1       8.731 -12.039   5.397  1.00  0.00     0.124 S 
ATOM     79  O   UNL     1      10.037 -12.627   5.675  1.00  0.00    -0.237 OA
ATOM     80  O   UNL     1       7.733 -12.947   4.838  1.00  0.00    -0.237 OA
ATOM     81  O   UNL     1       8.758 -10.708   4.795  1.00  0.00    -0.744 OA
ENDBRANCH  77  78
ENDBRANCH  49  72
BRANCH  61  82
ATOM     82  C   UNL     1       9.210 -12.708  16.121  1.00  0.00    -0.014 A 
ATOM     83  C   UNL     1      10.431 -12.013  16.143  1.00  0.00     0.010 A 
ATOM     84  C   UNL     1       9.132 -13.984  16.710  1.00  0.00     0.010 A 
ATOM     85  C   UNL     1      11.558 -12.590  16.735  1.00  0.00     0.020 A 
ATOM     86  C   UNL     1      10.249 -14.552  17.325  1.00  0.00     0.020 A 
ATOM     87  C   UNL     1      11.457 -13.852  17.328  1.00  0.00     0.054 A 
BRANCH  87  88
ATOM     88  S   UNL     1      12.918 -14.543  18.152  1.00  0.00     0.124 S 
ATOM     89  O   UNL     1      13.786 -14.857  17.021  1.00  0.00    -0.237 OA
ATOM     90  O   UNL     1      13.360 -13.435  18.996  1.00  0.00    -0.237 OA
ATOM     91  O   UNL     1      12.394 -15.699  18.876  1.00  0.00    -0.744 OA
ENDBRANCH  87  88
ENDBRANCH  61  82
ENDBRANCH  35  36
ENDBRANCH  27  30
ENDBRANCH   1  26
TORSDOF 14
