REMARK SMILES CC[NH2+][C@@]1(C(=O)NCCCNC(=O)c2ccc(-c3c4nc(c(-c5ccc(S(=O)(=O)[O-])cc5)c5ccc([nH]5)c(-c5ccc(S(=O)(=O)[O-])cc5)c5nc(c(-c6ccc(S(=O)(=O)[O-])cc6)c6ccc3[nH]6)C=C5)C=C4)cc2)CCC[C@@H]1CC[N@@H+](C)C1CCCC1
REMARK SMILES IDX 8 1 7 2 5 3 6 4 4 6 74 7 77 8 75 9 76 10 3 11 2 14 1 15
REMARK SMILES IDX 78 16 79 17 80 18 81 19 82 21 83 22 86 23 84 24 85 25 9 26
REMARK SMILES IDX 10 27 11 28 12 29 13 31 14 32 15 33 73 34 16 35 72 36 17 37
REMARK SMILES IDX 18 38 19 39 66 40 20 41 71 42 65 43 67 44 21 45 70 46 64 47
REMARK SMILES IDX 63 48 22 50 52 51 33 52 51 53 34 54 37 55 50 56 68 57 35 58
REMARK SMILES IDX 36 59 49 61 69 62 38 63 23 64 24 65 32 66 25 67 31 68 26 69
REMARK SMILES IDX 27 70 28 71 29 72 30 73 53 74 54 75 62 76 55 77 61 78 56 79
REMARK SMILES IDX 57 80 58 81 59 82 60 83 39 84 40 85 48 86 41 87 47 88 42 89
REMARK SMILES IDX 43 90 44 91 45 92 46 93
REMARK H PARENT 7 5 3 12 3 13 80 20 11 30 67 49 37 60
REMARK Flexibility Score: inf
ROOT
ATOM      1  C   UNL     1      -0.454  -2.841   6.229  1.00  0.00     0.118 C 
ENDROOT
BRANCH   1   2
ATOM      2  N   UNL     1       0.400  -2.254   4.987  1.00  0.00    -0.351 N 
ATOM      3  C   UNL     1       0.882  -1.912   3.745  1.00  0.00     0.281 C 
ATOM      4  O   UNL     1       1.699  -0.973   4.012  1.00  0.00    -0.268 OA
ATOM      5  H   UNL     1       1.097  -1.804   5.518  1.00  0.00     0.163 HD
BRANCH   3   6
ATOM      6  C   UNL     1       0.906  -2.305   1.955  1.00  0.00     0.178 C 
ATOM      7  C   UNL     1      -0.262  -2.707   0.957  1.00  0.00     0.079 C 
ATOM      8  C   UNL     1       2.028  -3.286   1.404  1.00  0.00     0.066 C 
ATOM      9  C   UNL     1       0.094  -3.986   0.181  1.00  0.00     0.008 C 
ATOM     10  C   UNL     1       1.383  -4.497   0.736  1.00  0.00     0.011 C 
BRANCH   6  11
ATOM     11  N   UNL     1       1.397  -0.930   1.525  1.00  0.00    -0.334 N 
ATOM     12  H   UNL     1       0.945  -0.267   2.154  1.00  0.00     0.347 HD
ATOM     13  H   UNL     1       2.407  -1.072   1.548  1.00  0.00     0.347 HD
BRANCH  11  14
ATOM     14  C   UNL     1       1.230  -0.385   0.198  1.00  0.00     0.257 C 
ATOM     15  C   UNL     1       1.927   0.961   0.094  1.00  0.00     0.071 C 
ENDBRANCH  11  14
ENDBRANCH   6  11
BRANCH   8  16
ATOM     16  C   UNL     1       3.084  -3.798   2.328  1.00  0.00     0.072 C 
BRANCH  16  17
ATOM     17  C   UNL     1       2.575  -4.166   3.699  1.00  0.00     0.262 C 
BRANCH  17  18
ATOM     18  N   UNL     1       1.410  -5.046   3.966  1.00  0.00    -0.335 N 
ATOM     19  C   UNL     1       1.638  -5.398   5.390  1.00  0.00     0.332 C 
ATOM     20  H   UNL     1       1.462  -5.662   3.155  1.00  0.00     0.348 HD
BRANCH  18  21
ATOM     21  C   UNL     1      -0.090  -4.929   3.639  1.00  0.00     0.183 C 
ATOM     22  C   UNL     1      -1.262  -3.861   3.531  1.00  0.00     0.065 C 
ATOM     23  C   UNL     1      -0.721  -6.184   2.986  1.00  0.00     0.065 C 
ATOM     24  C   UNL     1      -2.513  -4.490   2.949  1.00  0.00     0.006 C 
ATOM     25  C   UNL     1      -2.087  -5.818   2.390  1.00  0.00     0.006 C 
ENDBRANCH  18  21
ENDBRANCH  17  18
ENDBRANCH  16  17
ENDBRANCH   8  16
ENDBRANCH   3   6
ENDBRANCH   1   2
BRANCH   1  26
ATOM     26  C   UNL     1      -1.132  -4.243   6.695  1.00  0.00     0.042 C 
BRANCH  26  27
ATOM     27  C   UNL     1      -0.556  -5.067   7.902  1.00  0.00     0.118 C 
BRANCH  27  28
ATOM     28  N   UNL     1      -1.559  -6.026   8.423  1.00  0.00    -0.352 N 
ATOM     29  C   UNL     1      -1.585  -7.348   8.817  1.00  0.00     0.251 C 
ATOM     30  H   UNL     1      -2.445  -5.606   8.513  1.00  0.00     0.163 HD
ATOM     31  O   UNL     1      -2.695  -7.801   9.115  1.00  0.00    -0.269 OA
BRANCH  29  32
ATOM     32  C   UNL     1      -0.411  -8.269   8.929  1.00  0.00     0.039 A 
ATOM     33  C   UNL     1      -0.657  -9.659   8.897  1.00  0.00     0.014 A 
ATOM     34  C   UNL     1       0.888  -7.847   9.204  1.00  0.00     0.014 A 
ATOM     35  C   UNL     1       0.365 -10.596   9.132  1.00  0.00     0.010 A 
ATOM     36  C   UNL     1       1.923  -8.787   9.392  1.00  0.00     0.010 A 
ATOM     37  C   UNL     1       1.676 -10.172   9.383  1.00  0.00    -0.014 A 
BRANCH  37  38
ATOM     38  C   UNL     1       2.759 -11.161   9.696  1.00  0.00     0.031 A 
ATOM     39  C   UNL     1       3.400 -11.191  11.066  1.00  0.00     0.074 A 
ATOM     40  C   UNL     1       3.188 -12.032   8.758  1.00  0.00     0.049 A 
ATOM     41  N   UNL     1       4.358 -11.963  11.521  1.00  0.00    -0.248 NA
ATOM     42  C   UNL     1       2.911 -10.210  12.046  1.00  0.00     0.031 C 
ATOM     43  C   UNL     1       2.688 -12.108   7.385  1.00  0.00     0.029 A 
ATOM     44  N   UNL     1       4.144 -13.021   8.815  1.00  0.00    -0.354 N 
ATOM     45  C   UNL     1       4.599 -11.546  12.828  1.00  0.00     0.074 A 
ATOM     46  C   UNL     1       3.719 -10.424  13.075  1.00  0.00     0.031 C 
ATOM     47  C   UNL     1       3.324 -13.098   6.737  1.00  0.00     0.029 A 
ATOM     48  C   UNL     1       4.296 -13.716   7.636  1.00  0.00     0.049 A 
ATOM     49  H   UNL     1       4.670 -13.215   9.624  1.00  0.00     0.167 HD
ATOM     50  C   UNL     1       5.457 -12.056  13.749  1.00  0.00     0.031 A 
ATOM     51  C   UNL     1       5.119 -14.733   7.308  1.00  0.00     0.031 A 
ATOM     52  C   UNL     1       6.325 -13.181  13.515  1.00  0.00     0.049 A 
ATOM     53  C   UNL     1       6.051 -15.299   8.346  1.00  0.00     0.074 A 
ATOM     54  C   UNL     1       7.196 -13.797  14.398  1.00  0.00     0.029 A 
ATOM     55  N   UNL     1       6.430 -13.862  12.312  1.00  0.00    -0.354 N 
ATOM     56  N   UNL     1       6.224 -14.919   9.590  1.00  0.00    -0.248 NA
ATOM     57  C   UNL     1       6.885 -16.440   7.943  1.00  0.00     0.031 C 
ATOM     58  C   UNL     1       7.857 -14.827  13.717  1.00  0.00     0.029 A 
ATOM     59  C   UNL     1       7.361 -14.883  12.424  1.00  0.00     0.049 A 
ATOM     60  H   UNL     1       5.919 -13.652  11.498  1.00  0.00     0.167 HD
ATOM     61  C   UNL     1       7.175 -15.784  10.122  1.00  0.00     0.074 A 
ATOM     62  C   UNL     1       7.524 -16.719   9.072  1.00  0.00     0.031 C 
ATOM     63  C   UNL     1       7.710 -15.800  11.368  1.00  0.00     0.031 A 
BRANCH  50  64
ATOM     64  C   UNL     1       5.499 -11.385  15.101  1.00  0.00    -0.014 A 
ATOM     65  C   UNL     1       4.416 -11.483  15.995  1.00  0.00     0.010 A 
ATOM     66  C   UNL     1       6.638 -10.655  15.491  1.00  0.00     0.010 A 
ATOM     67  C   UNL     1       4.443 -10.811  17.221  1.00  0.00     0.020 A 
ATOM     68  C   UNL     1       6.681 -10.006  16.730  1.00  0.00     0.020 A 
ATOM     69  C   UNL     1       5.572 -10.067  17.575  1.00  0.00     0.054 A 
BRANCH  69  70
ATOM     70  S   UNL     1       5.574  -9.189  19.164  1.00  0.00     0.124 S 
ATOM     71  O   UNL     1       4.697  -8.056  18.881  1.00  0.00    -0.237 OA
ATOM     72  O   UNL     1       5.033 -10.186  20.084  1.00  0.00    -0.237 OA
ATOM     73  O   UNL     1       6.980  -8.852  19.372  1.00  0.00    -0.744 OA
ENDBRANCH  69  70
ENDBRANCH  50  64
BRANCH  51  74
ATOM     74  C   UNL     1       5.077 -15.301   5.930  1.00  0.00    -0.014 A 
ATOM     75  C   UNL     1       4.497 -16.560   5.691  1.00  0.00     0.010 A 
ATOM     76  C   UNL     1       5.580 -14.565   4.841  1.00  0.00     0.010 A 
ATOM     77  C   UNL     1       4.420 -17.071   4.391  1.00  0.00     0.020 A 
ATOM     78  C   UNL     1       5.483 -15.062   3.538  1.00  0.00     0.020 A 
ATOM     79  C   UNL     1       4.907 -16.315   3.321  1.00  0.00     0.054 A 
BRANCH  79  80
ATOM     80  S   UNL     1       4.714 -16.960   1.635  1.00  0.00     0.124 S 
ATOM     81  O   UNL     1       5.743 -17.991   1.582  1.00  0.00    -0.237 OA
ATOM     82  O   UNL     1       3.335 -17.438   1.633  1.00  0.00    -0.237 OA
ATOM     83  O   UNL     1       4.958 -15.786   0.792  1.00  0.00    -0.744 OA
ENDBRANCH  79  80
ENDBRANCH  51  74
BRANCH  63  84
ATOM     84  C   UNL     1       8.723 -16.872  11.673  1.00  0.00    -0.014 A 
ATOM     85  C   UNL     1      10.026 -16.808  11.148  1.00  0.00     0.010 A 
ATOM     86  C   UNL     1       8.382 -17.930  12.534  1.00  0.00     0.010 A 
ATOM     87  C   UNL     1      10.960 -17.802  11.454  1.00  0.00     0.020 A 
ATOM     88  C   UNL     1       9.320 -18.913  12.861  1.00  0.00     0.020 A 
ATOM     89  C   UNL     1      10.600 -18.850  12.306  1.00  0.00     0.054 A 
BRANCH  89  90
ATOM     90  S   UNL     1      11.841 -20.108  12.719  1.00  0.00     0.124 S 
ATOM     91  O   UNL     1      11.883 -20.906  11.497  1.00  0.00    -0.237 OA
ATOM     92  O   UNL     1      13.034 -19.308  12.989  1.00  0.00    -0.237 OA
ATOM     93  O   UNL     1      11.275 -20.783  13.885  1.00  0.00    -0.744 OA
ENDBRANCH  89  90
ENDBRANCH  63  84
ENDBRANCH  37  38
ENDBRANCH  29  32
ENDBRANCH  27  28
ENDBRANCH  26  27
ENDBRANCH   1  26
TORSDOF 19
