REMARK SMILES C[C@@H]1[NH2+]CC[C@@H]1C(=O)Nc1ccccc1CC(=O)NCCCNC(=O)c1ccc(-c2c3nc(c(-c4ccc(S(=O)(=O)[O-])cc4)c4ccc([nH]4)c(-c4ccc(S(=O)(=O)[O-])cc4)c4nc(c(-c5ccc(S(=O)(=O)[O-])cc5)c5ccc2[nH]5)C=C4)C=C3)cc1
REMARK SMILES IDX 21 1 20 2 19 3 17 4 18 5 16 7 15 8 10 9 11 10 12 11 14 12
REMARK SMILES IDX 13 13 9 14 7 15 8 16 6 18 1 19 2 20 3 21 4 22 5 25 22 26
REMARK SMILES IDX 23 27 24 28 25 30 26 31 27 32 85 33 28 34 84 35 29 36 30 37
REMARK SMILES IDX 31 38 78 39 32 40 83 41 77 42 79 43 33 44 82 45 76 46 75 47
REMARK SMILES IDX 34 49 64 50 45 51 63 52 46 53 49 54 62 55 80 56 47 57 48 58
REMARK SMILES IDX 61 60 81 61 50 62 35 63 36 64 44 65 37 66 43 67 38 68 39 69
REMARK SMILES IDX 40 70 41 71 42 72 65 73 66 74 74 75 67 76 73 77 68 78 69 79
REMARK SMILES IDX 70 80 71 81 72 82 51 83 52 84 60 85 53 86 59 87 54 88 55 89
REMARK SMILES IDX 56 90 57 91 58 92
REMARK H PARENT 19 6 9 17 3 23 3 24 23 29 79 48 49 59
REMARK Flexibility Score: inf
ROOT
ATOM      1  C   UNL     1       2.997  -0.727  -3.998  1.00  0.00     0.042 C 
ENDROOT
BRANCH   1   2
ATOM      2  C   UNL     1       1.546  -0.963  -3.594  1.00  0.00     0.117 C 
BRANCH   2   3
ATOM      3  N   UNL     1       1.393  -2.251  -2.956  1.00  0.00    -0.356 N 
ATOM      4  C   UNL     1       1.665  -2.563  -1.657  1.00  0.00     0.224 C 
ATOM      5  O   UNL     1       1.828  -3.747  -1.358  1.00  0.00    -0.275 OA
ATOM      6  H   UNL     1       1.055  -2.983  -3.521  1.00  0.00     0.163 HD
BRANCH   4   7
ATOM      7  C   UNL     1       1.644  -1.473  -0.605  1.00  0.00     0.137 C 
BRANCH   7   8
ATOM      8  C   UNL     1       2.887  -0.632  -0.440  1.00  0.00    -0.015 A 
ATOM      9  C   UNL     1       2.972   0.749  -0.705  1.00  0.00     0.044 A 
ATOM     10  C   UNL     1       4.225   1.389  -0.624  1.00  0.00     0.026 A 
ATOM     11  C   UNL     1       5.364   0.720  -0.189  1.00  0.00     0.002 A 
ATOM     12  C   UNL     1       4.059  -1.295  -0.002  1.00  0.00     0.006 A 
ATOM     13  C   UNL     1       5.277  -0.624   0.137  1.00  0.00     0.000 A 
BRANCH   9  14
ATOM     14  N   UNL     1       1.962   1.599  -1.177  1.00  0.00    -0.325 N 
ATOM     15  C   UNL     1       0.614   1.660  -1.176  1.00  0.00     0.233 C 
ATOM     16  O   UNL     1       0.150   2.073  -2.255  1.00  0.00    -0.274 OA
ATOM     17  H   UNL     1       2.348   2.376  -1.643  1.00  0.00     0.169 HD
BRANCH  15  18
ATOM     18  C   UNL     1      -0.298   1.690   0.066  1.00  0.00     0.142 C 
ATOM     19  C   UNL     1       0.990   0.369   2.010  1.00  0.00     0.076 C 
ATOM     20  C   UNL     1      -0.285   0.862   1.357  1.00  0.00     0.192 C 
ATOM     21  N   UNL     1      -1.339  -0.165   1.253  1.00  0.00    -0.343 N 
ATOM     22  C   UNL     1      -1.974  -0.018  -0.052  1.00  0.00     0.261 C 
ATOM     23  H   UNL     1      -2.029  -0.030   1.992  1.00  0.00     0.346 HD
ATOM     24  H   UNL     1      -0.940  -1.098   1.353  1.00  0.00     0.346 HD
ATOM     25  C   UNL     1      -1.749   1.437  -0.404  1.00  0.00     0.081 C 
ENDBRANCH  15  18
ENDBRANCH   9  14
ENDBRANCH   7   8
ENDBRANCH   4   7
ENDBRANCH   2   3
ENDBRANCH   1   2
BRANCH   1  26
ATOM     26  C   UNL     1       3.510  -1.779  -4.968  1.00  0.00     0.118 C 
BRANCH  26  27
ATOM     27  N   UNL     1       2.790  -1.754  -6.228  1.00  0.00    -0.352 N 
ATOM     28  C   UNL     1       3.291  -1.847  -7.501  1.00  0.00     0.251 C 
ATOM     29  H   UNL     1       1.813  -1.657  -6.160  1.00  0.00     0.163 HD
ATOM     30  O   UNL     1       2.572  -1.605  -8.458  1.00  0.00    -0.269 OA
BRANCH  28  31
ATOM     31  C   UNL     1       4.707  -2.223  -7.694  1.00  0.00     0.039 A 
ATOM     32  C   UNL     1       5.450  -1.546  -8.661  1.00  0.00     0.014 A 
ATOM     33  C   UNL     1       5.289  -3.249  -6.942  1.00  0.00     0.014 A 
ATOM     34  C   UNL     1       6.783  -1.893  -8.867  1.00  0.00     0.010 A 
ATOM     35  C   UNL     1       6.642  -3.530  -7.085  1.00  0.00     0.010 A 
ATOM     36  C   UNL     1       7.391  -2.882  -8.075  1.00  0.00    -0.014 A 
BRANCH  36  37
ATOM     37  C   UNL     1       8.794  -3.287  -8.324  1.00  0.00     0.031 A 
ATOM     38  C   UNL     1       9.098  -4.683  -8.800  1.00  0.00     0.074 A 
ATOM     39  C   UNL     1       9.788  -2.402  -8.116  1.00  0.00     0.049 A 
ATOM     40  N   UNL     1      10.253  -5.213  -9.113  1.00  0.00    -0.248 NA
ATOM     41  C   UNL     1       7.963  -5.615  -8.916  1.00  0.00     0.031 C 
ATOM     42  C   UNL     1       9.615  -1.039  -7.607  1.00  0.00     0.029 A 
ATOM     43  N   UNL     1      11.138  -2.511  -8.320  1.00  0.00    -0.354 N 
ATOM     44  C   UNL     1       9.983  -6.535  -9.447  1.00  0.00     0.074 A 
ATOM     45  C   UNL     1       8.570  -6.747  -9.238  1.00  0.00     0.031 C 
ATOM     46  C   UNL     1      10.809  -0.425  -7.583  1.00  0.00     0.029 A 
ATOM     47  C   UNL     1      11.832  -1.358  -8.043  1.00  0.00     0.049 A 
ATOM     48  H   UNL     1      11.571  -3.338  -8.636  1.00  0.00     0.167 HD
ATOM     49  C   UNL     1      10.831  -7.481  -9.916  1.00  0.00     0.031 A 
ATOM     50  C   UNL     1      13.145  -1.081  -8.158  1.00  0.00     0.031 A 
ATOM     51  C   UNL     1      12.234  -7.257 -10.138  1.00  0.00     0.049 A 
ATOM     52  C   UNL     1      14.064  -2.143  -8.697  1.00  0.00     0.074 A 
ATOM     53  C   UNL     1      13.174  -8.126 -10.660  1.00  0.00     0.029 A 
ATOM     54  N   UNL     1      12.898  -6.073  -9.850  1.00  0.00    -0.354 N 
ATOM     55  N   UNL     1      13.779  -3.366  -9.076  1.00  0.00    -0.248 NA
ATOM     56  C   UNL     1      15.479  -1.778  -8.843  1.00  0.00     0.031 C 
ATOM     57  C   UNL     1      14.417  -7.486 -10.640  1.00  0.00     0.029 A 
ATOM     58  C   UNL     1      14.240  -6.196 -10.165  1.00  0.00     0.049 A 
ATOM     59  H   UNL     1      12.476  -5.265  -9.477  1.00  0.00     0.167 HD
ATOM     60  C   UNL     1      14.975  -3.909  -9.531  1.00  0.00     0.074 A 
ATOM     61  C   UNL     1      15.979  -2.872  -9.400  1.00  0.00     0.031 C 
ATOM     62  C   UNL     1      15.223  -5.153 -10.015  1.00  0.00     0.031 A 
BRANCH  49  63
ATOM     63  C   UNL     1      10.257  -8.843 -10.216  1.00  0.00    -0.014 A 
ATOM     64  C   UNL     1       9.362  -9.036 -11.285  1.00  0.00     0.010 A 
ATOM     65  C   UNL     1      10.637  -9.950  -9.437  1.00  0.00     0.010 A 
ATOM     66  C   UNL     1       8.823 -10.300 -11.540  1.00  0.00     0.020 A 
ATOM     67  C   UNL     1      10.126 -11.223  -9.708  1.00  0.00     0.020 A 
ATOM     68  C   UNL     1       9.208 -11.386 -10.747  1.00  0.00     0.054 A 
BRANCH  68  69
ATOM     69  S   UNL     1       8.512 -13.020 -11.116  1.00  0.00     0.124 S 
ATOM     70  O   UNL     1       7.134 -12.872 -10.653  1.00  0.00    -0.237 OA
ATOM     71  O   UNL     1       8.681 -13.120 -12.563  1.00  0.00    -0.237 OA
ATOM     72  O   UNL     1       9.338 -13.934 -10.331  1.00  0.00    -0.744 OA
ENDBRANCH  68  69
ENDBRANCH  49  63
BRANCH  50  73
ATOM     73  C   UNL     1      13.656   0.266  -7.786  1.00  0.00    -0.014 A 
ATOM     74  C   UNL     1      14.115   1.157  -8.772  1.00  0.00     0.010 A 
ATOM     75  C   UNL     1      13.673   0.671  -6.438  1.00  0.00     0.010 A 
ATOM     76  C   UNL     1      14.602   2.419  -8.416  1.00  0.00     0.020 A 
ATOM     77  C   UNL     1      14.131   1.942  -6.082  1.00  0.00     0.020 A 
ATOM     78  C   UNL     1      14.605   2.804  -7.073  1.00  0.00     0.054 A 
BRANCH  78  79
ATOM     79  S   UNL     1      15.196   4.463  -6.638  1.00  0.00     0.124 S 
ATOM     80  O   UNL     1      16.638   4.329  -6.821  1.00  0.00    -0.237 OA
ATOM     81  O   UNL     1      14.509   5.308  -7.612  1.00  0.00    -0.237 OA
ATOM     82  O   UNL     1      14.752   4.633  -5.256  1.00  0.00    -0.744 OA
ENDBRANCH  78  79
ENDBRANCH  50  73
BRANCH  62  83
ATOM     83  C   UNL     1      16.630  -5.443 -10.465  1.00  0.00    -0.014 A 
ATOM     84  C   UNL     1      17.683  -5.562  -9.540  1.00  0.00     0.010 A 
ATOM     85  C   UNL     1      16.896  -5.624 -11.834  1.00  0.00     0.010 A 
ATOM     86  C   UNL     1      18.986  -5.801  -9.983  1.00  0.00     0.020 A 
ATOM     87  C   UNL     1      18.191  -5.897 -12.278  1.00  0.00     0.020 A 
ATOM     88  C   UNL     1      19.233  -5.961 -11.350  1.00  0.00     0.054 A 
BRANCH  88  89
ATOM     89  S   UNL     1      20.931  -6.279 -11.900  1.00  0.00     0.124 S 
ATOM     90  O   UNL     1      21.549  -4.966 -11.747  1.00  0.00    -0.237 OA
ATOM     91  O   UNL     1      21.386  -7.302 -10.962  1.00  0.00    -0.237 OA
ATOM     92  O   UNL     1      20.769  -6.735 -13.279  1.00  0.00    -0.744 OA
ENDBRANCH  88  89
ENDBRANCH  62  83
ENDBRANCH  36  37
ENDBRANCH  28  31
ENDBRANCH  26  27
ENDBRANCH   1  26
TORSDOF 16
