REMARK SMILES O=C(NCCCNC(=O)[C@H]1C[C@](F)(c2cccc(F)c2)C1)c1ccc(-c2c3nc(c(-c4ccc(S(=O)(=O)[O-])cc4)c4ccc([nH]4)c(-c4ccc(S(=O)(=O)[O-])cc4)c4nc(c(-c5ccc(S(=O)(=O)[O-])cc5)c5ccc2[nH]5)C=C4)C=C3)cc1
REMARK SMILES IDX 4 1 3 2 1 3 2 4 22 6 23 7 81 8 24 9 80 10 25 11 26 12 27 13
REMARK SMILES IDX 74 14 28 15 79 16 73 17 75 18 29 19 78 20 72 21 71 22 30 24
REMARK SMILES IDX 60 25 41 26 59 27 42 28 45 29 58 30 76 31 43 32 44 33 57 35
REMARK SMILES IDX 77 36 46 37 31 38 32 39 40 40 33 41 39 42 34 43 35 44 36 45
REMARK SMILES IDX 37 46 38 47 61 48 62 49 70 50 63 51 69 52 64 53 65 54 66 55
REMARK SMILES IDX 67 56 68 57 47 58 48 59 56 60 49 61 55 62 50 63 51 64 52 65
REMARK SMILES IDX 53 66 54 67 5 68 6 69 7 70 8 71 9 73 10 74 11 75 21 76 12 77
REMARK SMILES IDX 13 78 14 79 15 80 20 81 16 82 18 83 17 84 19 85
REMARK H PARENT 3 5 75 23 45 34 7 72
REMARK Flexibility Score: inf
ROOT
ATOM      1  C   UNL     1       4.262   0.873  -1.120  1.00  0.00     0.118 C 
ENDROOT
BRANCH   1   2
ATOM      2  N   UNL     1       2.882   0.800  -0.669  1.00  0.00    -0.352 N 
ATOM      3  O   UNL     1       1.081  -0.076   0.350  1.00  0.00    -0.269 OA
ATOM      4  C   UNL     1       2.303  -0.037   0.258  1.00  0.00     0.251 C 
ATOM      5  H   UNL     1       2.269   1.446  -1.090  1.00  0.00     0.163 HD
BRANCH   4   6
ATOM      6  C   UNL     1       3.144  -0.894   1.128  1.00  0.00     0.039 A 
ATOM      7  C   UNL     1       4.340  -0.416   1.664  1.00  0.00     0.014 A 
ATOM      8  C   UNL     1       2.709  -2.185   1.447  1.00  0.00     0.014 A 
ATOM      9  C   UNL     1       5.168  -1.268   2.384  1.00  0.00     0.010 A 
ATOM     10  C   UNL     1       3.494  -3.007   2.266  1.00  0.00     0.010 A 
ATOM     11  C   UNL     1       4.742  -2.563   2.724  1.00  0.00    -0.014 A 
BRANCH  11  12
ATOM     12  C   UNL     1       5.592  -3.368   3.640  1.00  0.00     0.031 A 
ATOM     13  C   UNL     1       6.234  -4.653   3.200  1.00  0.00     0.074 A 
ATOM     14  C   UNL     1       5.834  -2.874   4.872  1.00  0.00     0.049 A 
ATOM     15  N   UNL     1       7.076  -5.412   3.856  1.00  0.00    -0.248 NA
ATOM     16  C   UNL     1       5.887  -5.160   1.864  1.00  0.00     0.031 C 
ATOM     17  C   UNL     1       5.242  -1.647   5.418  1.00  0.00     0.029 A 
ATOM     18  N   UNL     1       6.664  -3.310   5.871  1.00  0.00    -0.354 N 
ATOM     19  C   UNL     1       7.357  -6.486   3.019  1.00  0.00     0.074 A 
ATOM     20  C   UNL     1       6.569  -6.298   1.819  1.00  0.00     0.031 C 
ATOM     21  C   UNL     1       5.782  -1.392   6.617  1.00  0.00     0.029 A 
ATOM     22  C   UNL     1       6.704  -2.467   6.957  1.00  0.00     0.049 A 
ATOM     23  H   UNL     1       7.182  -4.146   5.817  1.00  0.00     0.167 HD
ATOM     24  C   UNL     1       8.200  -7.527   3.230  1.00  0.00     0.031 A 
ATOM     25  C   UNL     1       7.398  -2.548   8.107  1.00  0.00     0.031 A 
ATOM     26  C   UNL     1       8.974  -7.711   4.432  1.00  0.00     0.049 A 
ATOM     27  C   UNL     1       8.322  -3.712   8.313  1.00  0.00     0.074 A 
ATOM     28  C   UNL     1       9.856  -8.732   4.742  1.00  0.00     0.029 A 
ATOM     29  N   UNL     1       8.963  -6.853   5.522  1.00  0.00    -0.354 N 
ATOM     30  N   UNL     1       8.583  -4.707   7.498  1.00  0.00    -0.248 NA
ATOM     31  C   UNL     1       9.046  -3.764   9.588  1.00  0.00     0.031 C 
ATOM     32  C   UNL     1      10.345  -8.514   6.035  1.00  0.00     0.029 A 
ATOM     33  C   UNL     1       9.810  -7.328   6.510  1.00  0.00     0.049 A 
ATOM     34  H   UNL     1       8.430  -6.027   5.585  1.00  0.00     0.167 HD
ATOM     35  C   UNL     1       9.503  -5.505   8.165  1.00  0.00     0.074 A 
ATOM     36  C   UNL     1       9.782  -4.854   9.430  1.00  0.00     0.031 C 
ATOM     37  C   UNL     1      10.060  -6.677   7.771  1.00  0.00     0.031 A 
BRANCH  24  38
ATOM     38  C   UNL     1       8.324  -8.560   2.140  1.00  0.00    -0.014 A 
ATOM     39  C   UNL     1       9.011  -8.274   0.946  1.00  0.00     0.010 A 
ATOM     40  C   UNL     1       7.805  -9.853   2.334  1.00  0.00     0.010 A 
ATOM     41  C   UNL     1       9.152  -9.252  -0.043  1.00  0.00     0.020 A 
ATOM     42  C   UNL     1       7.963 -10.841   1.357  1.00  0.00     0.020 A 
ATOM     43  C   UNL     1       8.625 -10.529   0.168  1.00  0.00     0.054 A 
BRANCH  43  44
ATOM     44  S   UNL     1       8.852 -11.788  -1.120  1.00  0.00     0.124 S 
ATOM     45  O   UNL     1       7.923 -11.334  -2.151  1.00  0.00    -0.237 OA
ATOM     46  O   UNL     1      10.269 -11.658  -1.450  1.00  0.00    -0.237 OA
ATOM     47  O   UNL     1       8.482 -13.036  -0.455  1.00  0.00    -0.744 OA
ENDBRANCH  43  44
ENDBRANCH  24  38
BRANCH  25  48
ATOM     48  C   UNL     1       7.216  -1.508   9.156  1.00  0.00    -0.014 A 
ATOM     49  C   UNL     1       8.249  -0.611   9.476  1.00  0.00     0.010 A 
ATOM     50  C   UNL     1       5.984  -1.402   9.829  1.00  0.00     0.010 A 
ATOM     51  C   UNL     1       8.060   0.359  10.465  1.00  0.00     0.020 A 
ATOM     52  C   UNL     1       5.781  -0.414  10.794  1.00  0.00     0.020 A 
ATOM     53  C   UNL     1       6.827   0.451  11.118  1.00  0.00     0.054 A 
BRANCH  53  54
ATOM     54  S   UNL     1       6.584   1.743  12.368  1.00  0.00     0.124 S 
ATOM     55  O   UNL     1       7.289   1.187  13.518  1.00  0.00    -0.237 OA
ATOM     56  O   UNL     1       7.206   2.909  11.745  1.00  0.00    -0.237 OA
ATOM     57  O   UNL     1       5.130   1.819  12.499  1.00  0.00    -0.744 OA
ENDBRANCH  53  54
ENDBRANCH  25  48
BRANCH  37  58
ATOM     58  C   UNL     1      11.030  -7.318   8.725  1.00  0.00    -0.014 A 
ATOM     59  C   UNL     1      10.584  -7.915   9.918  1.00  0.00     0.010 A 
ATOM     60  C   UNL     1      12.403  -7.326   8.423  1.00  0.00     0.010 A 
ATOM     61  C   UNL     1      11.501  -8.464  10.818  1.00  0.00     0.020 A 
ATOM     62  C   UNL     1      13.320  -7.899   9.307  1.00  0.00     0.020 A 
ATOM     63  C   UNL     1      12.864  -8.445  10.509  1.00  0.00     0.054 A 
BRANCH  63  64
ATOM     64  S   UNL     1      14.037  -9.169  11.688  1.00  0.00     0.124 S 
ATOM     65  O   UNL     1      14.098  -8.141  12.723  1.00  0.00    -0.237 OA
ATOM     66  O   UNL     1      13.377 -10.414  12.077  1.00  0.00    -0.237 OA
ATOM     67  O   UNL     1      15.257  -9.338  10.903  1.00  0.00    -0.744 OA
ENDBRANCH  63  64
ENDBRANCH  37  58
ENDBRANCH  11  12
ENDBRANCH   4   6
ENDBRANCH   1   2
BRANCH   1  68
ATOM     68  C   UNL     1       4.411   0.539  -2.595  1.00  0.00     0.042 C 
BRANCH  68  69
ATOM     69  C   UNL     1       3.915   1.636  -3.532  1.00  0.00     0.117 C 
BRANCH  69  70
ATOM     70  N   UNL     1       4.791   2.789  -3.517  1.00  0.00    -0.356 N 
ATOM     71  C   UNL     1       5.855   3.117  -4.318  1.00  0.00     0.223 C 
ATOM     72  H   UNL     1       4.589   3.448  -2.813  1.00  0.00     0.163 HD
ATOM     73  O   UNL     1       6.423   4.185  -4.044  1.00  0.00    -0.275 OA
BRANCH  71  74
ATOM     74  C   UNL     1       6.308   2.242  -5.506  1.00  0.00     0.085 C 
ATOM     75  C   UNL     1       6.118   0.720  -5.596  1.00  0.00     0.059 C 
ATOM     76  C   UNL     1       7.835   1.996  -5.590  1.00  0.00     0.059 C 
ATOM     77  C   UNL     1       7.587   0.542  -6.063  1.00  0.00     0.137 C 
ATOM     78  F   UNL     1       8.268  -0.377  -5.328  1.00  0.00    -0.239 F 
BRANCH  77  79
ATOM     79  C   UNL     1       7.788   0.129  -7.586  1.00  0.00    -0.008 A 
ATOM     80  C   UNL     1       7.162  -1.033  -8.098  1.00  0.00     0.007 A 
ATOM     81  C   UNL     1       8.613   0.830  -8.483  1.00  0.00     0.046 A 
ATOM     82  C   UNL     1       7.328  -1.459  -9.419  1.00  0.00     0.003 A 
ATOM     83  C   UNL     1       8.780   0.405  -9.800  1.00  0.00     0.123 A 
ATOM     84  C   UNL     1       8.142  -0.732 -10.276  1.00  0.00     0.039 A 
ATOM     85  F   UNL     1       9.576   1.104 -10.620  1.00  0.00    -0.207 F 
ENDBRANCH  77  79
ENDBRANCH  71  74
ENDBRANCH  69  70
ENDBRANCH  68  69
ENDBRANCH   1  68
TORSDOF 14
