REMARK SMILES CN(CCc1cccs1)C(=O)c1cccn1CC(=O)NCCCNC(=O)c1ccc(-c2c3nc(c(-c4ccc(S(=O)(=O)[O-])cc4)c4ccc([nH]4)c(-c4ccc(S(=O)(=O)[O-])cc4)c4nc(c(-c5ccc(S(=O)(=O)[O-])cc5)c5ccc2[nH]5)C=C4)C=C3)cc1
REMARK SMILES IDX 18 1 19 2 20 3 17 5 16 6 12 7 13 8 14 9 15 10 10 11 11 12
REMARK SMILES IDX 2 13 1 14 3 15 4 16 5 17 6 18 9 19 7 20 8 21 21 22 22 23
REMARK SMILES IDX 23 24 24 25 25 26 26 28 27 29 28 30 86 31 29 32 85 33 30 34
REMARK SMILES IDX 31 35 32 36 79 37 33 38 84 39 78 40 80 41 34 42 83 43 77 44
REMARK SMILES IDX 76 45 35 47 65 48 46 49 64 50 47 51 50 52 63 53 81 54 48 55
REMARK SMILES IDX 49 56 62 58 82 59 51 60 36 61 37 62 45 63 38 64 44 65 39 66
REMARK SMILES IDX 40 67 41 68 42 69 43 70 66 71 67 72 75 73 68 74 74 75 69 76
REMARK SMILES IDX 70 77 71 78 72 79 73 80 52 81 53 82 61 83 54 84 60 85 55 86
REMARK SMILES IDX 56 87 57 88 58 89 59 90
REMARK H PARENT 20 4 24 27 80 46 50 57
REMARK Flexibility Score: inf
ROOT
ATOM      1  C   UNL     1       3.980   3.346   4.330  1.00  0.00     0.239 C 
ATOM      2  O   UNL     1       4.677   3.697   5.284  1.00  0.00    -0.273 OA
ATOM      3  N   UNL     1       4.063   4.058   3.162  1.00  0.00    -0.354 N 
ATOM      4  H   UNL     1       4.632   4.861   3.197  1.00  0.00     0.163 HD
ENDROOT
BRANCH   1   5
ATOM      5  C   UNL     1       3.067   2.134   4.432  1.00  0.00     0.222 C 
BRANCH   5   6
ATOM      6  N   UNL     1       1.667   2.533   4.411  1.00  0.00    -0.334 N 
ATOM      7  C   UNL     1       0.733   2.278   3.404  1.00  0.00     0.107 A 
ATOM      8  C   UNL     1      -0.205   3.287   3.579  1.00  0.00     0.033 A 
ATOM      9  C   UNL     1       0.009   3.938   4.815  1.00  0.00     0.020 A 
ATOM     10  C   UNL     1       1.143   3.393   5.348  1.00  0.00     0.087 A 
BRANCH   7  11
ATOM     11  C   UNL     1       0.880   1.170   2.451  1.00  0.00     0.270 C 
ATOM     12  O   UNL     1       1.623   0.232   2.732  1.00  0.00    -0.267 OA
BRANCH  11  13
ATOM     13  N   UNL     1       0.228   1.130   1.202  1.00  0.00    -0.340 N 
ATOM     14  C   UNL     1       0.542  -0.030   0.373  1.00  0.00     0.147 C 
BRANCH  13  15
ATOM     15  C   UNL     1      -0.811   2.021   0.679  1.00  0.00     0.125 C 
BRANCH  15  16
ATOM     16  C   UNL     1      -2.253   1.501   0.866  1.00  0.00     0.068 C 
BRANCH  16  17
ATOM     17  C   UNL     1      -2.766   1.625   2.272  1.00  0.00     0.006 A 
ATOM     18  C   UNL     1      -3.426   2.695   2.850  1.00  0.00     0.015 A 
ATOM     19  S   UNL     1      -2.541   0.352   3.400  1.00  0.00    -0.149 S 
ATOM     20  C   UNL     1      -3.573   2.538   4.260  1.00  0.00     0.012 A 
ATOM     21  C   UNL     1      -3.105   1.318   4.693  1.00  0.00     0.065 A 
ENDBRANCH  16  17
ENDBRANCH  15  16
ENDBRANCH  13  15
ENDBRANCH  11  13
ENDBRANCH   7  11
ENDBRANCH   5   6
ENDBRANCH   1   5
BRANCH   3  22
ATOM     22  C   UNL     1       3.431   3.797   1.880  1.00  0.00     0.117 C 
BRANCH  22  23
ATOM     23  C   UNL     1       2.234   4.712   1.601  1.00  0.00     0.042 C 
BRANCH  23  24
ATOM     24  C   UNL     1       2.627   6.077   1.053  1.00  0.00     0.118 C 
BRANCH  24  25
ATOM     25  N   UNL     1       3.157   5.977  -0.298  1.00  0.00    -0.352 N 
ATOM     26  C   UNL     1       3.591   6.961  -1.149  1.00  0.00     0.251 C 
ATOM     27  H   UNL     1       3.211   5.062  -0.657  1.00  0.00     0.163 HD
ATOM     28  O   UNL     1       3.750   6.680  -2.335  1.00  0.00    -0.269 OA
BRANCH  26  29
ATOM     29  C   UNL     1       3.813   8.350  -0.685  1.00  0.00     0.039 A 
ATOM     30  C   UNL     1       3.450   9.388  -1.555  1.00  0.00     0.014 A 
ATOM     31  C   UNL     1       4.404   8.651   0.546  1.00  0.00     0.014 A 
ATOM     32  C   UNL     1       3.598  10.715  -1.159  1.00  0.00     0.010 A 
ATOM     33  C   UNL     1       4.528   9.977   0.958  1.00  0.00     0.010 A 
ATOM     34  C   UNL     1       4.100  11.009   0.114  1.00  0.00    -0.014 A 
BRANCH  34  35
ATOM     35  C   UNL     1       4.032  12.401   0.619  1.00  0.00     0.031 A 
ATOM     36  C   UNL     1       2.652  12.775   1.172  1.00  0.00     0.074 A 
ATOM     37  C   UNL     1       5.163  13.160   0.533  1.00  0.00     0.049 A 
ATOM     38  N   UNL     1       2.134  13.948   1.376  1.00  0.00    -0.248 NA
ATOM     39  C   UNL     1       1.681  11.694   1.496  1.00  0.00     0.031 C 
ATOM     40  C   UNL     1       6.447  12.680  -0.018  1.00  0.00     0.029 A 
ATOM     41  N   UNL     1       5.474  14.459   0.886  1.00  0.00    -0.354 N 
ATOM     42  C   UNL     1       0.876  13.758   1.989  1.00  0.00     0.074 A 
ATOM     43  C   UNL     1       0.615  12.351   1.958  1.00  0.00     0.031 C 
ATOM     44  C   UNL     1       7.367  13.668  -0.015  1.00  0.00     0.029 A 
ATOM     45  C   UNL     1       6.786  14.870   0.550  1.00  0.00     0.049 A 
ATOM     46  H   UNL     1       4.833  15.053   1.338  1.00  0.00     0.167 HD
ATOM     47  C   UNL     1       0.171  14.758   2.592  1.00  0.00     0.031 A 
ATOM     48  C   UNL     1       7.378  16.092   0.689  1.00  0.00     0.031 A 
ATOM     49  C   UNL     1       0.836  16.006   2.444  1.00  0.00     0.049 A 
ATOM     50  C   UNL     1       6.463  16.943   1.464  1.00  0.00     0.074 A 
ATOM     51  C   UNL     1       1.012  16.863   1.390  1.00  0.00     0.029 A 
ATOM     52  N   UNL     1       1.680  16.374   3.464  1.00  0.00    -0.354 N 
ATOM     53  N   UNL     1       6.237  16.817   2.734  1.00  0.00    -0.248 NA
ATOM     54  C   UNL     1       5.745  18.032   0.791  1.00  0.00     0.031 C 
ATOM     55  C   UNL     1       2.265  17.462   1.642  1.00  0.00     0.029 A 
ATOM     56  C   UNL     1       2.740  17.022   2.882  1.00  0.00     0.049 A 
ATOM     57  H   UNL     1       1.549  16.206   4.425  1.00  0.00     0.167 HD
ATOM     58  C   UNL     1       5.070  17.519   2.900  1.00  0.00     0.074 A 
ATOM     59  C   UNL     1       5.005  18.466   1.809  1.00  0.00     0.031 C 
ATOM     60  C   UNL     1       4.030  16.911   3.526  1.00  0.00     0.031 A 
BRANCH  47  61
ATOM     61  C   UNL     1      -0.998  14.719   3.541  1.00  0.00    -0.014 A 
ATOM     62  C   UNL     1      -1.698  15.935   3.750  1.00  0.00     0.010 A 
ATOM     63  C   UNL     1      -1.208  13.683   4.463  1.00  0.00     0.010 A 
ATOM     64  C   UNL     1      -2.456  16.161   4.900  1.00  0.00     0.020 A 
ATOM     65  C   UNL     1      -2.002  13.890   5.604  1.00  0.00     0.020 A 
ATOM     66  C   UNL     1      -2.570  15.145   5.842  1.00  0.00     0.054 A 
BRANCH  66  67
ATOM     67  S   UNL     1      -3.393  15.518   7.415  1.00  0.00     0.124 S 
ATOM     68  O   UNL     1      -2.390  16.328   8.100  1.00  0.00    -0.237 OA
ATOM     69  O   UNL     1      -4.591  16.238   6.986  1.00  0.00    -0.237 OA
ATOM     70  O   UNL     1      -3.642  14.200   7.991  1.00  0.00    -0.744 OA
ENDBRANCH  66  67
ENDBRANCH  47  61
BRANCH  48  71
ATOM     71  C   UNL     1       8.633  16.776   0.208  1.00  0.00    -0.014 A 
ATOM     72  C   UNL     1       9.498  16.278  -0.771  1.00  0.00     0.010 A 
ATOM     73  C   UNL     1       8.853  18.124   0.615  1.00  0.00     0.010 A 
ATOM     74  C   UNL     1      10.424  17.124  -1.419  1.00  0.00     0.020 A 
ATOM     75  C   UNL     1       9.721  18.985  -0.058  1.00  0.00     0.020 A 
ATOM     76  C   UNL     1      10.483  18.485  -1.100  1.00  0.00     0.054 A 
BRANCH  76  77
ATOM     77  S   UNL     1      11.404  19.646  -2.148  1.00  0.00     0.124 S 
ATOM     78  O   UNL     1      12.693  19.726  -1.469  1.00  0.00    -0.237 OA
ATOM     79  O   UNL     1      11.416  18.979  -3.449  1.00  0.00    -0.237 OA
ATOM     80  O   UNL     1      10.589  20.859  -2.095  1.00  0.00    -0.744 OA
ENDBRANCH  76  77
ENDBRANCH  48  71
BRANCH  60  81
ATOM     81  C   UNL     1       4.439  15.807   4.498  1.00  0.00    -0.014 A 
ATOM     82  C   UNL     1       5.288  16.103   5.581  1.00  0.00     0.010 A 
ATOM     83  C   UNL     1       4.106  14.454   4.290  1.00  0.00     0.010 A 
ATOM     84  C   UNL     1       5.805  15.091   6.405  1.00  0.00     0.020 A 
ATOM     85  C   UNL     1       4.608  13.433   5.115  1.00  0.00     0.020 A 
ATOM     86  C   UNL     1       5.465  13.758   6.165  1.00  0.00     0.054 A 
BRANCH  86  87
ATOM     87  S   UNL     1       6.184  12.465   7.220  1.00  0.00     0.124 S 
ATOM     88  O   UNL     1       7.619  12.631   7.003  1.00  0.00    -0.237 OA
ATOM     89  O   UNL     1       5.707  12.838   8.548  1.00  0.00    -0.237 OA
ATOM     90  O   UNL     1       5.622  11.225   6.686  1.00  0.00    -0.744 OA
ENDBRANCH  86  87
ENDBRANCH  60  81
ENDBRANCH  34  35
ENDBRANCH  26  29
ENDBRANCH  24  25
ENDBRANCH  23  24
ENDBRANCH  22  23
ENDBRANCH   3  22
TORSDOF 19
