REMARK SMILES Cc1nc(C[N@H+]2Cc3ccccc3C[C@@H]2C(=O)NCCCNC(=O)c2ccc(-c3c4nc(c(-c5ccc(S(=O)(=O)[O-])cc5)c5ccc([nH]5)c(-c5ccc(S(=O)(=O)[O-])cc5)c5nc(c(-c6ccc(S(=O)(=O)[O-])cc6)c6ccc3[nH]6)C=C5)C=C4)cc2)sc1C
REMARK SMILES IDX 20 1 19 2 18 3 16 4 17 5 15 7 6 8 7 9 8 11 14 12 9 13 13 14
REMARK SMILES IDX 10 15 12 16 11 17 5 18 4 19 1 20 2 21 3 22 86 23 85 24 87 25
REMARK SMILES IDX 21 26 22 27 23 28 24 30 25 31 26 32 84 33 27 34 83 35 28 36
REMARK SMILES IDX 29 37 30 38 77 39 31 40 82 41 76 42 78 43 32 44 81 45 75 46
REMARK SMILES IDX 74 47 33 49 63 50 44 51 62 52 45 53 48 54 61 55 79 56 46 57
REMARK SMILES IDX 47 58 60 60 80 61 49 62 34 63 35 64 43 65 36 66 42 67 37 68
REMARK SMILES IDX 38 69 39 70 40 71 41 72 64 73 65 74 73 75 66 76 72 77 67 78
REMARK SMILES IDX 68 79 69 80 70 81 71 82 50 83 51 84 59 85 52 86 58 87 53 88
REMARK SMILES IDX 54 89 55 90 56 91 57 92
REMARK H PARENT 18 6 6 10 22 29 78 48 48 59
REMARK Flexibility Score: inf
ROOT
ATOM      1  C   UNL     1      -3.477   6.262   1.534  1.00  0.00     0.042 C 
ENDROOT
BRANCH   1   2
ATOM      2  C   UNL     1      -2.409   6.008   0.474  1.00  0.00     0.118 C 
BRANCH   2   3
ATOM      3  N   UNL     1      -1.077   6.218   1.000  1.00  0.00    -0.351 N 
ATOM      4  C   UNL     1      -0.110   5.362   1.424  1.00  0.00     0.278 C 
ATOM      5  O   UNL     1       0.905   5.916   1.872  1.00  0.00    -0.268 OA
ATOM      6  H   UNL     1      -0.821   7.167   1.063  1.00  0.00     0.163 HD
BRANCH   4   7
ATOM      7  C   UNL     1      -0.150   3.822   1.211  1.00  0.00     0.279 C 
ATOM      8  N   UNL     1      -1.525   3.249   1.252  1.00  0.00    -0.315 N 
ATOM      9  C   UNL     1      -1.920   2.611   2.517  1.00  0.00     0.300 C 
ATOM     10  H   UNL     1      -2.121   4.074   1.190  1.00  0.00     0.349 HD
ATOM     11  C   UNL     1      -1.139   3.047   3.733  1.00  0.00     0.010 A 
ATOM     12  C   UNL     1       0.826   3.165   2.219  1.00  0.00     0.111 C 
ATOM     13  C   UNL     1      -1.732   3.143   4.995  1.00  0.00     0.010 A 
ATOM     14  C   UNL     1       0.243   3.252   3.604  1.00  0.00    -0.033 A 
ATOM     15  C   UNL     1      -0.952   3.449   6.112  1.00  0.00     0.001 A 
ATOM     16  C   UNL     1       1.024   3.537   4.725  1.00  0.00     0.004 A 
ATOM     17  C   UNL     1       0.423   3.640   5.977  1.00  0.00     0.000 A 
BRANCH   8  18
ATOM     18  C   UNL     1      -1.811   2.373   0.085  1.00  0.00     0.332 C 
BRANCH  18  19
ATOM     19  C   UNL     1      -0.873   1.199  -0.096  1.00  0.00     0.148 A 
ATOM     20  C   UNL     1       2.530   0.085  -0.253  1.00  0.00     0.068 C 
ATOM     21  C   UNL     1       1.045   0.093  -0.235  1.00  0.00     0.052 A 
ATOM     22  N   UNL     1       0.420   1.320  -0.318  1.00  0.00    -0.240 NA
ATOM     23  C   UNL     1       0.185  -0.982  -0.095  1.00  0.00     0.025 A 
ATOM     24  S   UNL     1      -1.435  -0.420  -0.000  1.00  0.00    -0.118 S 
ATOM     25  C   UNL     1       0.502  -2.429   0.016  1.00  0.00     0.058 C 
ENDBRANCH  18  19
ENDBRANCH   8  18
ENDBRANCH   4   7
ENDBRANCH   2   3
ENDBRANCH   1   2
BRANCH   1  26
ATOM     26  C   UNL     1      -3.534   7.715   2.008  1.00  0.00     0.118 C 
BRANCH  26  27
ATOM     27  N   UNL     1      -3.846   8.645   0.928  1.00  0.00    -0.352 N 
ATOM     28  C   UNL     1      -4.865   9.555   0.807  1.00  0.00     0.251 C 
ATOM     29  H   UNL     1      -3.226   8.615   0.164  1.00  0.00     0.163 HD
ATOM     30  O   UNL     1      -5.060  10.102  -0.278  1.00  0.00    -0.269 OA
BRANCH  28  31
ATOM     31  C   UNL     1      -5.733   9.869   1.960  1.00  0.00     0.039 A 
ATOM     32  C   UNL     1      -7.108  10.010   1.753  1.00  0.00     0.014 A 
ATOM     33  C   UNL     1      -5.196  10.051   3.237  1.00  0.00     0.014 A 
ATOM     34  C   UNL     1      -7.950  10.267   2.837  1.00  0.00     0.010 A 
ATOM     35  C   UNL     1      -6.044  10.231   4.327  1.00  0.00     0.010 A 
ATOM     36  C   UNL     1      -7.430  10.342   4.139  1.00  0.00    -0.014 A 
BRANCH  36  37
ATOM     37  C   UNL     1      -8.318  10.524   5.316  1.00  0.00     0.031 A 
ATOM     38  C   UNL     1      -8.194  11.752   6.178  1.00  0.00     0.074 A 
ATOM     39  C   UNL     1      -9.189   9.550   5.649  1.00  0.00     0.049 A 
ATOM     40  N   UNL     1      -8.831  12.051   7.281  1.00  0.00    -0.248 NA
ATOM     41  C   UNL     1      -7.212  12.764   5.759  1.00  0.00     0.031 C 
ATOM     42  C   UNL     1      -9.380   8.297   4.914  1.00  0.00     0.029 A 
ATOM     43  N   UNL     1     -10.073   9.457   6.695  1.00  0.00    -0.354 N 
ATOM     44  C   UNL     1      -8.316  13.274   7.696  1.00  0.00     0.074 A 
ATOM     45  C   UNL     1      -7.280  13.637   6.754  1.00  0.00     0.031 C 
ATOM     46  C   UNL     1     -10.338   7.574   5.517  1.00  0.00     0.029 A 
ATOM     47  C   UNL     1     -10.795   8.286   6.706  1.00  0.00     0.049 A 
ATOM     48  H   UNL     1     -10.181  10.162   7.373  1.00  0.00     0.167 HD
ATOM     49  C   UNL     1      -8.684  14.034   8.756  1.00  0.00     0.031 A 
ATOM     50  C   UNL     1     -11.712   7.828   7.580  1.00  0.00     0.031 A 
ATOM     51  C   UNL     1      -9.717  13.670   9.689  1.00  0.00     0.049 A 
ATOM     52  C   UNL     1     -12.085   8.679   8.763  1.00  0.00     0.074 A 
ATOM     53  C   UNL     1     -10.199  14.396  10.764  1.00  0.00     0.029 A 
ATOM     54  N   UNL     1     -10.426  12.478   9.663  1.00  0.00    -0.354 N 
ATOM     55  N   UNL     1     -11.632   9.863   9.102  1.00  0.00    -0.248 NA
ATOM     56  C   UNL     1     -13.101   8.138   9.676  1.00  0.00     0.031 C 
ATOM     57  C   UNL     1     -11.154  13.617  11.425  1.00  0.00     0.029 A 
ATOM     58  C   UNL     1     -11.320  12.435  10.720  1.00  0.00     0.049 A 
ATOM     59  H   UNL     1     -10.310  11.766   8.992  1.00  0.00     0.167 HD
ATOM     60  C   UNL     1     -12.331  10.221  10.250  1.00  0.00     0.074 A 
ATOM     61  C   UNL     1     -13.246   9.135  10.538  1.00  0.00     0.031 C 
ATOM     62  C   UNL     1     -12.227  11.349  10.995  1.00  0.00     0.031 A 
BRANCH  49  63
ATOM     63  C   UNL     1      -7.953  15.335   8.970  1.00  0.00    -0.014 A 
ATOM     64  C   UNL     1      -8.110  16.415   8.080  1.00  0.00     0.010 A 
ATOM     65  C   UNL     1      -7.132  15.498  10.101  1.00  0.00     0.010 A 
ATOM     66  C   UNL     1      -7.428  17.615   8.295  1.00  0.00     0.020 A 
ATOM     67  C   UNL     1      -6.473  16.709  10.336  1.00  0.00     0.020 A 
ATOM     68  C   UNL     1      -6.613  17.754   9.422  1.00  0.00     0.054 A 
BRANCH  68  69
ATOM     69  S   UNL     1      -5.760  19.333   9.686  1.00  0.00     0.124 S 
ATOM     70  O   UNL     1      -4.745  19.307   8.636  1.00  0.00    -0.237 OA
ATOM     71  O   UNL     1      -6.830  20.309   9.501  1.00  0.00    -0.237 OA
ATOM     72  O   UNL     1      -5.246  19.227  11.050  1.00  0.00    -0.744 OA
ENDBRANCH  68  69
ENDBRANCH  49  63
BRANCH  50  73
ATOM     73  C   UNL     1     -12.347   6.498   7.364  1.00  0.00    -0.014 A 
ATOM     74  C   UNL     1     -13.706   6.402   7.014  1.00  0.00     0.010 A 
ATOM     75  C   UNL     1     -11.592   5.318   7.495  1.00  0.00     0.010 A 
ATOM     76  C   UNL     1     -14.302   5.152   6.820  1.00  0.00     0.020 A 
ATOM     77  C   UNL     1     -12.176   4.069   7.271  1.00  0.00     0.020 A 
ATOM     78  C   UNL     1     -13.531   3.993   6.946  1.00  0.00     0.054 A 
BRANCH  78  79
ATOM     79  S   UNL     1     -14.314   2.385   6.641  1.00  0.00     0.124 S 
ATOM     80  O   UNL     1     -15.165   2.233   7.817  1.00  0.00    -0.237 OA
ATOM     81  O   UNL     1     -15.013   2.610   5.378  1.00  0.00    -0.237 OA
ATOM     82  O   UNL     1     -13.183   1.463   6.562  1.00  0.00    -0.744 OA
ENDBRANCH  78  79
ENDBRANCH  50  73
BRANCH  62  83
ATOM     83  C   UNL     1     -13.152  11.493  12.175  1.00  0.00    -0.014 A 
ATOM     84  C   UNL     1     -12.991  10.714  13.335  1.00  0.00     0.010 A 
ATOM     85  C   UNL     1     -14.165  12.471  12.143  1.00  0.00     0.010 A 
ATOM     86  C   UNL     1     -13.843  10.891  14.428  1.00  0.00     0.020 A 
ATOM     87  C   UNL     1     -14.998  12.672  13.246  1.00  0.00     0.020 A 
ATOM     88  C   UNL     1     -14.840  11.871  14.378  1.00  0.00     0.054 A 
BRANCH  88  89
ATOM     89  S   UNL     1     -15.899  12.114  15.830  1.00  0.00     0.124 S 
ATOM     90  O   UNL     1     -16.739  10.920  15.796  1.00  0.00    -0.237 OA
ATOM     91  O   UNL     1     -14.933  12.172  16.924  1.00  0.00    -0.237 OA
ATOM     92  O   UNL     1     -16.590  13.370  15.550  1.00  0.00    -0.744 OA
ENDBRANCH  88  89
ENDBRANCH  62  83
ENDBRANCH  36  37
ENDBRANCH  28  31
ENDBRANCH  26  27
ENDBRANCH   1  26
TORSDOF 15
