REMARK SMILES COc1ccc(CCNC(=O)c2cccnc2C(=O)NCCCNC(=O)c2ccc(-c3c4nc(c(-c5ccc(S(=O)(=O)[O-])cc5)c5ccc([nH]5)c(-c5ccc(S(=O)(=O)[O-])cc5)c5nc(c(-c6ccc(S(=O)(=O)[O-])cc6)c6ccc3[nH]6)C=C5)C=C4)cc2)cc1OC
REMARK SMILES IDX 21 1 20 2 18 3 19 4 17 6 12 7 13 8 14 9 16 10 15 11 10 12
REMARK SMILES IDX 9 13 11 15 8 16 7 17 6 18 3 19 4 20 88 21 5 22 87 23 2 24
REMARK SMILES IDX 1 25 89 26 90 27 22 28 23 29 24 30 25 31 26 33 27 34 28 35
REMARK SMILES IDX 86 36 29 37 85 38 30 39 31 40 32 41 79 42 33 43 84 44 78 45
REMARK SMILES IDX 80 46 34 47 83 48 77 49 76 50 35 52 65 53 46 54 64 55 47 56
REMARK SMILES IDX 50 57 63 58 81 59 48 60 49 61 62 63 82 64 51 65 36 66 37 67
REMARK SMILES IDX 45 68 38 69 44 70 39 71 40 72 41 73 42 74 43 75 66 76 67 77
REMARK SMILES IDX 75 78 68 79 74 80 69 81 70 82 71 83 72 84 73 85 52 86 53 87
REMARK SMILES IDX 61 88 54 89 60 90 55 91 56 92 57 93 58 94 59 95
REMARK H PARENT 20 5 9 14 24 32 80 51 50 62
REMARK Flexibility Score: inf
ROOT
ATOM      1  C   UNL     1      -1.816   4.129   6.823  1.00  0.00     0.118 C 
ENDROOT
BRANCH   1   2
ATOM      2  N   UNL     1      -2.176   4.460   8.175  1.00  0.00    -0.351 N 
ATOM      3  C   UNL     1      -1.517   5.172   9.152  1.00  0.00     0.270 C 
ATOM      4  O   UNL     1      -2.187   5.351  10.180  1.00  0.00    -0.267 OA
ATOM      5  H   UNL     1      -3.055   4.114   8.453  1.00  0.00     0.163 HD
BRANCH   3   6
ATOM      6  C   UNL     1      -0.078   5.673   9.135  1.00  0.00     0.140 A 
ATOM      7  C   UNL     1       0.742   6.064   8.073  1.00  0.00     0.071 A 
ATOM      8  C   UNL     1       2.006   6.618   8.364  1.00  0.00     0.018 A 
ATOM      9  C   UNL     1       2.448   6.732   9.675  1.00  0.00     0.021 A 
ATOM     10  N   UNL     1       0.388   5.770  10.429  1.00  0.00    -0.250 NA
ATOM     11  C   UNL     1       1.607   6.292  10.670  1.00  0.00     0.112 A 
BRANCH   7  12
ATOM     12  C   UNL     1       0.366   6.135   6.660  1.00  0.00     0.253 C 
ATOM     13  N   UNL     1       1.054   5.414   5.707  1.00  0.00    -0.352 N 
ATOM     14  H   UNL     1       0.753   5.567   4.782  1.00  0.00     0.163 HD
ATOM     15  O   UNL     1      -0.576   6.868   6.335  1.00  0.00    -0.269 OA
BRANCH  13  16
ATOM     16  C   UNL     1       2.161   4.455   5.837  1.00  0.00     0.121 C 
BRANCH  16  17
ATOM     17  C   UNL     1       1.813   2.990   5.493  1.00  0.00     0.057 C 
BRANCH  17  18
ATOM     18  C   UNL     1       1.589   2.678   4.027  1.00  0.00    -0.042 A 
ATOM     19  C   UNL     1       1.262   2.140   1.257  1.00  0.00     0.160 A 
ATOM     20  C   UNL     1       0.264   2.792   1.992  1.00  0.00     0.051 A 
ATOM     21  C   UNL     1       2.423   1.718   1.910  1.00  0.00     0.160 A 
ATOM     22  C   UNL     1       0.424   3.059   3.359  1.00  0.00     0.008 A 
ATOM     23  C   UNL     1       2.559   1.976   3.291  1.00  0.00     0.054 A 
BRANCH  19  24
ATOM     24  O   UNL     1       1.118   2.154  -0.105  1.00  0.00    -0.493 OA
ATOM     25  C   UNL     1       0.527   0.975  -0.645  1.00  0.00     0.278 C 
ENDBRANCH  19  24
BRANCH  21  26
ATOM     26  O   UNL     1       3.521   1.086   1.404  1.00  0.00    -0.493 OA
ATOM     27  C   UNL     1       3.642   0.873   0.007  1.00  0.00     0.278 C 
ENDBRANCH  21  26
ENDBRANCH  17  18
ENDBRANCH  16  17
ENDBRANCH  13  16
ENDBRANCH   7  12
ENDBRANCH   3   6
ENDBRANCH   1   2
BRANCH   1  28
ATOM     28  C   UNL     1      -2.096   2.702   6.397  1.00  0.00     0.042 C 
BRANCH  28  29
ATOM     29  C   UNL     1      -3.532   2.393   6.021  1.00  0.00     0.118 C 
BRANCH  29  30
ATOM     30  N   UNL     1      -4.027   3.160   4.880  1.00  0.00    -0.352 N 
ATOM     31  C   UNL     1      -4.163   2.870   3.543  1.00  0.00     0.251 C 
ATOM     32  H   UNL     1      -4.323   4.069   5.117  1.00  0.00     0.163 HD
ATOM     33  O   UNL     1      -4.519   3.772   2.780  1.00  0.00    -0.269 OA
BRANCH  31  34
ATOM     34  C   UNL     1      -3.844   1.535   2.983  1.00  0.00     0.039 A 
ATOM     35  C   UNL     1      -3.274   1.458   1.705  1.00  0.00     0.014 A 
ATOM     36  C   UNL     1      -4.110   0.355   3.675  1.00  0.00     0.014 A 
ATOM     37  C   UNL     1      -2.853   0.224   1.198  1.00  0.00     0.010 A 
ATOM     38  C   UNL     1      -3.603  -0.859   3.218  1.00  0.00     0.010 A 
ATOM     39  C   UNL     1      -2.957  -0.934   1.981  1.00  0.00    -0.014 A 
BRANCH  39  40
ATOM     40  C   UNL     1      -2.391  -2.225   1.521  1.00  0.00     0.031 A 
ATOM     41  C   UNL     1      -3.290  -3.378   1.191  1.00  0.00     0.074 A 
ATOM     42  C   UNL     1      -1.053  -2.388   1.493  1.00  0.00     0.049 A 
ATOM     43  N   UNL     1      -2.964  -4.577   0.786  1.00  0.00    -0.248 NA
ATOM     44  C   UNL     1      -4.731  -3.185   1.414  1.00  0.00     0.031 C 
ATOM     45  C   UNL     1      -0.082  -1.402   1.962  1.00  0.00     0.029 A 
ATOM     46  N   UNL     1      -0.276  -3.422   1.033  1.00  0.00    -0.354 N 
ATOM     47  C   UNL     1      -4.145  -5.308   0.792  1.00  0.00     0.074 A 
ATOM     48  C   UNL     1      -5.194  -4.412   1.230  1.00  0.00     0.031 C 
ATOM     49  C   UNL     1       1.155  -1.824   1.649  1.00  0.00     0.029 A 
ATOM     50  C   UNL     1       1.067  -3.115   0.983  1.00  0.00     0.049 A 
ATOM     51  H   UNL     1      -0.641  -4.296   0.764  1.00  0.00     0.167 HD
ATOM     52  C   UNL     1      -4.326  -6.614   0.489  1.00  0.00     0.031 A 
ATOM     53  C   UNL     1       2.094  -3.785   0.421  1.00  0.00     0.031 A 
ATOM     54  C   UNL     1      -3.272  -7.489   0.048  1.00  0.00     0.049 A 
ATOM     55  C   UNL     1       1.831  -5.166  -0.116  1.00  0.00     0.074 A 
ATOM     56  C   UNL     1      -3.355  -8.821  -0.318  1.00  0.00     0.029 A 
ATOM     57  N   UNL     1      -1.942  -7.119  -0.092  1.00  0.00    -0.354 N 
ATOM     58  N   UNL     1       0.696  -5.821  -0.176  1.00  0.00    -0.248 NA
ATOM     59  C   UNL     1       2.991  -5.918  -0.613  1.00  0.00     0.031 C 
ATOM     60  C   UNL     1      -2.067  -9.270  -0.631  1.00  0.00     0.029 A 
ATOM     61  C   UNL     1      -1.192  -8.201  -0.522  1.00  0.00     0.049 A 
ATOM     62  H   UNL     1      -1.584  -6.220   0.088  1.00  0.00     0.167 HD
ATOM     63  C   UNL     1       1.016  -7.080  -0.666  1.00  0.00     0.074 A 
ATOM     64  C   UNL     1       2.431  -7.064  -0.974  1.00  0.00     0.031 C 
ATOM     65  C   UNL     1       0.222  -8.171  -0.797  1.00  0.00     0.031 A 
BRANCH  52  66
ATOM     66  C   UNL     1      -5.705  -7.185   0.678  1.00  0.00    -0.014 A 
ATOM     67  C   UNL     1      -6.777  -6.807  -0.150  1.00  0.00     0.010 A 
ATOM     68  C   UNL     1      -5.927  -8.135   1.692  1.00  0.00     0.010 A 
ATOM     69  C   UNL     1      -8.052  -7.338   0.058  1.00  0.00     0.020 A 
ATOM     70  C   UNL     1      -7.193  -8.693   1.883  1.00  0.00     0.020 A 
ATOM     71  C   UNL     1      -8.252  -8.277   1.074  1.00  0.00     0.054 A 
BRANCH  71  72
ATOM     72  S   UNL     1      -9.912  -8.970   1.301  1.00  0.00     0.124 S 
ATOM     73  O   UNL     1     -10.634  -7.837   1.876  1.00  0.00    -0.237 OA
ATOM     74  O   UNL     1     -10.295  -9.332  -0.061  1.00  0.00    -0.237 OA
ATOM     75  O   UNL     1      -9.698 -10.096   2.207  1.00  0.00    -0.744 OA
ENDBRANCH  71  72
ENDBRANCH  52  66
BRANCH  53  76
ATOM     76  C   UNL     1       3.444  -3.165   0.278  1.00  0.00    -0.014 A 
ATOM     77  C   UNL     1       3.953  -2.903  -1.010  1.00  0.00     0.010 A 
ATOM     78  C   UNL     1       4.231  -2.832   1.393  1.00  0.00     0.010 A 
ATOM     79  C   UNL     1       5.221  -2.341  -1.181  1.00  0.00     0.020 A 
ATOM     80  C   UNL     1       5.486  -2.232   1.229  1.00  0.00     0.020 A 
ATOM     81  C   UNL     1       5.978  -2.002  -0.058  1.00  0.00     0.054 A 
BRANCH  81  82
ATOM     82  S   UNL     1       7.569  -1.161  -0.297  1.00  0.00     0.124 S 
ATOM     83  O   UNL     1       8.445  -2.268  -0.665  1.00  0.00    -0.237 OA
ATOM     84  O   UNL     1       7.266  -0.212  -1.366  1.00  0.00    -0.237 OA
ATOM     85  O   UNL     1       7.834  -0.554   1.005  1.00  0.00    -0.744 OA
ENDBRANCH  81  82
ENDBRANCH  53  76
BRANCH  65  86
ATOM     86  C   UNL     1       0.882  -9.446  -1.243  1.00  0.00    -0.014 A 
ATOM     87  C   UNL     1       1.756 -10.136  -0.382  1.00  0.00     0.010 A 
ATOM     88  C   UNL     1       0.592  -9.988  -2.507  1.00  0.00     0.010 A 
ATOM     89  C   UNL     1       2.352 -11.331  -0.789  1.00  0.00     0.020 A 
ATOM     90  C   UNL     1       1.165 -11.198  -2.907  1.00  0.00     0.020 A 
ATOM     91  C   UNL     1       2.051 -11.854  -2.050  1.00  0.00     0.054 A 
BRANCH  91  92
ATOM     92  S   UNL     1       2.806 -13.430  -2.536  1.00  0.00     0.124 S 
ATOM     93  O   UNL     1       4.196 -13.044  -2.761  1.00  0.00    -0.237 OA
ATOM     94  O   UNL     1       2.568 -14.272  -1.366  1.00  0.00    -0.237 OA
ATOM     95  O   UNL     1       2.064 -13.814  -3.735  1.00  0.00    -0.744 OA
ENDBRANCH  91  92
ENDBRANCH  65  86
ENDBRANCH  39  40
ENDBRANCH  31  34
ENDBRANCH  29  30
ENDBRANCH  28  29
ENDBRANCH   1  28
TORSDOF 19
