REMARK SMILES O=C(N[C@@H]1C=C[C@@H](C(=O)NCCCNC(=O)c2ccc(-c3c4nc(c(-c5ccc(S(=O)(=O)[O-])cc5)c5ccc([nH]5)c(-c5ccc(S(=O)(=O)[O-])cc5)c5nc(c(-c6ccc(S(=O)(=O)[O-])cc6)c6ccc3[nH]6)C=C5)C=C4)cc2)C1)Oc1ccccc1
REMARK SMILES IDX 12 1 11 2 10 3 8 4 9 5 7 7 4 8 5 9 77 10 6 11 3 12 1 13 2 14
REMARK SMILES IDX 78 16 79 17 80 18 84 19 81 20 83 21 82 22 13 23 14 24 15 25
REMARK SMILES IDX 16 27 17 28 18 29 76 30 19 31 75 32 20 33 21 34 22 35 69 36
REMARK SMILES IDX 23 37 74 38 68 39 70 40 24 41 73 42 67 43 66 44 25 46 55 47
REMARK SMILES IDX 36 48 54 49 37 50 40 51 53 52 71 53 38 54 39 55 52 57 72 58
REMARK SMILES IDX 41 59 26 60 27 61 35 62 28 63 34 64 29 65 30 66 31 67 32 68
REMARK SMILES IDX 33 69 56 70 57 71 65 72 58 73 64 74 59 75 60 76 61 77 62 78
REMARK SMILES IDX 63 79 42 80 43 81 51 82 44 83 50 84 45 85 46 86 47 87 48 88
REMARK SMILES IDX 49 89
REMARK H PARENT 10 6 3 15 14 26 70 45 40 56
REMARK Flexibility Score: inf
ROOT
ATOM      1  C   UNL     1       2.758   2.538   3.974  1.00  0.00     0.042 C 
ENDROOT
BRANCH   1   2
ATOM      2  C   UNL     1       4.046   3.189   3.483  1.00  0.00     0.117 C 
BRANCH   2   3
ATOM      3  N   UNL     1       5.176   2.873   4.330  1.00  0.00    -0.356 N 
ATOM      4  C   UNL     1       6.203   1.998   4.212  1.00  0.00     0.227 C 
ATOM      5  O   UNL     1       7.039   2.031   5.125  1.00  0.00    -0.274 OA
ATOM      6  H   UNL     1       5.204   3.401   5.160  1.00  0.00     0.163 HD
BRANCH   4   7
ATOM      7  C   UNL     1       6.447   1.070   3.015  1.00  0.00     0.103 C 
ATOM      8  C   UNL     1       5.154   0.977   0.916  1.00  0.00     0.109 C 
ATOM      9  C   UNL     1       6.452   1.704   0.758  1.00  0.00    -0.006 C 
ATOM     10  C   UNL     1       5.302   0.333   2.309  1.00  0.00     0.047 C 
ATOM     11  C   UNL     1       7.135   1.793   1.902  1.00  0.00    -0.016 C 
BRANCH   8  12
ATOM     12  N   UNL     1       5.019   0.046  -0.171  1.00  0.00    -0.315 N 
ATOM     13  O   UNL     1       4.465  -0.804  -2.162  1.00  0.00    -0.224 OA
ATOM     14  C   UNL     1       4.371   0.138  -1.376  1.00  0.00     0.413 C 
ATOM     15  H   UNL     1       5.475  -0.815  -0.024  1.00  0.00     0.167 HD
BRANCH  14  16
ATOM     16  O   UNL     1       3.590   1.266  -1.729  1.00  0.00    -0.410 OA
BRANCH  16  17
ATOM     17  C   UNL     1       3.382   2.546  -1.153  1.00  0.00     0.132 A 
ATOM     18  C   UNL     1       2.096   2.876  -0.734  1.00  0.00     0.047 A 
ATOM     19  C   UNL     1       4.433   3.450  -1.044  1.00  0.00     0.047 A 
ATOM     20  C   UNL     1       1.888   4.095  -0.089  1.00  0.00     0.004 A 
ATOM     21  C   UNL     1       4.232   4.643  -0.352  1.00  0.00     0.004 A 
ATOM     22  C   UNL     1       2.962   4.960   0.134  1.00  0.00     0.000 A 
ENDBRANCH  16  17
ENDBRANCH  14  16
ENDBRANCH   8  12
ENDBRANCH   4   7
ENDBRANCH   2   3
ENDBRANCH   1   2
BRANCH   1  23
ATOM     23  C   UNL     1       2.295   3.046   5.336  1.00  0.00     0.118 C 
BRANCH  23  24
ATOM     24  N   UNL     1       1.909   4.449   5.313  1.00  0.00    -0.352 N 
ATOM     25  C   UNL     1       0.748   5.048   5.740  1.00  0.00     0.251 C 
ATOM     26  H   UNL     1       2.581   5.061   4.935  1.00  0.00     0.163 HD
ATOM     27  O   UNL     1       0.549   6.228   5.474  1.00  0.00    -0.269 OA
BRANCH  25  28
ATOM     28  C   UNL     1      -0.263   4.272   6.495  1.00  0.00     0.039 A 
ATOM     29  C   UNL     1      -1.616   4.478   6.213  1.00  0.00     0.014 A 
ATOM     30  C   UNL     1       0.112   3.365   7.488  1.00  0.00     0.014 A 
ATOM     31  C   UNL     1      -2.587   3.737   6.893  1.00  0.00     0.010 A 
ATOM     32  C   UNL     1      -0.850   2.564   8.099  1.00  0.00     0.010 A 
ATOM     33  C   UNL     1      -2.212   2.754   7.822  1.00  0.00    -0.014 A 
BRANCH  33  34
ATOM     34  C   UNL     1      -3.228   1.935   8.533  1.00  0.00     0.031 A 
ATOM     35  C   UNL     1      -3.346   2.010  10.033  1.00  0.00     0.074 A 
ATOM     36  C   UNL     1      -4.004   1.079   7.841  1.00  0.00     0.049 A 
ATOM     37  N   UNL     1      -4.140   1.346  10.834  1.00  0.00    -0.248 NA
ATOM     38  C   UNL     1      -2.429   2.929  10.726  1.00  0.00     0.031 C 
ATOM     39  C   UNL     1      -3.955   0.874   6.392  1.00  0.00     0.029 A 
ATOM     40  N   UNL     1      -4.982   0.214   8.266  1.00  0.00    -0.354 N 
ATOM     41  C   UNL     1      -3.803   1.749  12.121  1.00  0.00     0.074 A 
ATOM     42  C   UNL     1      -2.692   2.668  11.997  1.00  0.00     0.031 C 
ATOM     43  C   UNL     1      -4.881  -0.035   6.046  1.00  0.00     0.029 A 
ATOM     44  C   UNL     1      -5.559  -0.508   7.249  1.00  0.00     0.049 A 
ATOM     45  H   UNL     1      -5.245   0.121   9.210  1.00  0.00     0.167 HD
ATOM     46  C   UNL     1      -4.375   1.404  13.300  1.00  0.00     0.031 A 
ATOM     47  C   UNL     1      -6.523  -1.450   7.277  1.00  0.00     0.031 A 
ATOM     48  C   UNL     1      -5.481   0.490  13.418  1.00  0.00     0.049 A 
ATOM     49  C   UNL     1      -7.153  -1.816   8.592  1.00  0.00     0.074 A 
ATOM     50  C   UNL     1      -6.174   0.120  14.557  1.00  0.00     0.029 A 
ATOM     51  N   UNL     1      -6.051  -0.204  12.361  1.00  0.00    -0.354 N 
ATOM     52  N   UNL     1      -6.871  -1.369   9.793  1.00  0.00    -0.248 NA
ATOM     53  C   UNL     1      -8.244  -2.798   8.553  1.00  0.00     0.031 C 
ATOM     54  C   UNL     1      -7.122  -0.844  14.197  1.00  0.00     0.029 A 
ATOM     55  C   UNL     1      -7.070  -1.021  12.823  1.00  0.00     0.049 A 
ATOM     56  H   UNL     1      -5.772  -0.128  11.419  1.00  0.00     0.167 HD
ATOM     57  C   UNL     1      -7.771  -1.993  10.650  1.00  0.00     0.074 A 
ATOM     58  C   UNL     1      -8.611  -2.840   9.827  1.00  0.00     0.031 C 
ATOM     59  C   UNL     1      -7.894  -1.868  11.996  1.00  0.00     0.031 A 
BRANCH  46  60
ATOM     60  C   UNL     1      -3.789   2.004  14.554  1.00  0.00    -0.014 A 
ATOM     61  C   UNL     1      -3.869   3.385  14.813  1.00  0.00     0.010 A 
ATOM     62  C   UNL     1      -3.141   1.174  15.487  1.00  0.00     0.010 A 
ATOM     63  C   UNL     1      -3.250   3.933  15.940  1.00  0.00     0.020 A 
ATOM     64  C   UNL     1      -2.552   1.713  16.635  1.00  0.00     0.020 A 
ATOM     65  C   UNL     1      -2.586   3.093  16.839  1.00  0.00     0.054 A 
BRANCH  65  66
ATOM     66  S   UNL     1      -1.772   3.833  18.281  1.00  0.00     0.124 S 
ATOM     67  O   UNL     1      -0.612   4.479  17.671  1.00  0.00    -0.237 OA
ATOM     68  O   UNL     1      -2.795   4.737  18.798  1.00  0.00    -0.237 OA
ATOM     69  O   UNL     1      -1.468   2.686  19.134  1.00  0.00    -0.744 OA
ENDBRANCH  65  66
ENDBRANCH  46  60
BRANCH  47  70
ATOM     70  C   UNL     1      -6.962  -2.083   6.003  1.00  0.00    -0.014 A 
ATOM     71  C   UNL     1      -8.210  -1.768   5.439  1.00  0.00     0.010 A 
ATOM     72  C   UNL     1      -6.103  -2.961   5.316  1.00  0.00     0.010 A 
ATOM     73  C   UNL     1      -8.591  -2.316   4.211  1.00  0.00     0.020 A 
ATOM     74  C   UNL     1      -6.469  -3.489   4.075  1.00  0.00     0.020 A 
ATOM     75  C   UNL     1      -7.713  -3.165   3.531  1.00  0.00     0.054 A 
BRANCH  75  76
ATOM     76  S   UNL     1      -8.190  -3.786   1.894  1.00  0.00     0.124 S 
ATOM     77  O   UNL     1      -9.239  -4.744   2.226  1.00  0.00    -0.237 OA
ATOM     78  O   UNL     1      -8.633  -2.571   1.215  1.00  0.00    -0.237 OA
ATOM     79  O   UNL     1      -6.953  -4.365   1.374  1.00  0.00    -0.744 OA
ENDBRANCH  75  76
ENDBRANCH  47  70
BRANCH  59  80
ATOM     80  C   UNL     1      -9.005  -2.635  12.666  1.00  0.00    -0.014 A 
ATOM     81  C   UNL     1      -8.966  -4.035  12.788  1.00  0.00     0.010 A 
ATOM     82  C   UNL     1     -10.086  -1.929  13.227  1.00  0.00     0.010 A 
ATOM     83  C   UNL     1     -10.008  -4.718  13.425  1.00  0.00     0.020 A 
ATOM     84  C   UNL     1     -11.112  -2.605  13.892  1.00  0.00     0.020 A 
ATOM     85  C   UNL     1     -11.075  -3.997  13.972  1.00  0.00     0.054 A 
BRANCH  85  86
ATOM     86  S   UNL     1     -12.397  -4.903  14.820  1.00  0.00     0.124 S 
ATOM     87  O   UNL     1     -13.098  -5.532  13.704  1.00  0.00    -0.237 OA
ATOM     88  O   UNL     1     -11.655  -5.813  15.690  1.00  0.00    -0.237 OA
ATOM     89  O   UNL     1     -13.144  -3.857  15.515  1.00  0.00    -0.744 OA
ENDBRANCH  85  86
ENDBRANCH  59  80
ENDBRANCH  33  34
ENDBRANCH  25  28
ENDBRANCH  23  24
ENDBRANCH   1  23
TORSDOF 16
