REMARK SMILES Cc1ccc(C(=O)N2C[C@H](C(=O)NCCCNC(=O)c3ccc(-c4c5nc(c(-c6ccc(S(=O)(=O)[O-])cc6)c6ccc([nH]6)c(-c6ccc(S(=O)(=O)[O-])cc6)c6nc(c(-c7ccc(S(=O)(=O)[O-])cc7)c7ccc4[nH]7)C=C6)C=C5)cc3)Oc3ccccc32)o1
REMARK SMILES IDX 15 1 14 2 13 3 11 4 12 5 10 7 8 8 9 9 86 10 81 11 85 12
REMARK SMILES IDX 80 13 82 14 84 15 83 16 6 17 7 18 5 19 1 20 2 21 3 22 87 23
REMARK SMILES IDX 4 24 16 25 17 26 18 27 19 29 20 30 21 31 79 32 22 33 78 34
REMARK SMILES IDX 23 35 24 36 25 37 72 38 26 39 77 40 71 41 73 42 27 43 76 44
REMARK SMILES IDX 70 45 69 46 28 48 58 49 39 50 57 51 40 52 43 53 56 54 74 55
REMARK SMILES IDX 41 56 42 57 55 59 75 60 44 61 29 62 30 63 38 64 31 65 37 66
REMARK SMILES IDX 32 67 33 68 34 69 35 70 36 71 59 72 60 73 68 74 61 75 67 76
REMARK SMILES IDX 62 77 63 78 64 79 65 80 66 81 45 82 46 83 54 84 47 85 53 86
REMARK SMILES IDX 48 87 49 88 50 89 51 90 52 91
REMARK H PARENT 13 6 17 28 73 47 43 58
REMARK Flexibility Score: inf
ROOT
ATOM      1  C   UNL     1      -5.990  -2.822   1.110  1.00  0.00     0.042 C 
ENDROOT
BRANCH   1   2
ATOM      2  C   UNL     1      -6.869  -1.591   1.310  1.00  0.00     0.118 C 
BRANCH   2   3
ATOM      3  N   UNL     1      -6.495  -0.824   2.489  1.00  0.00    -0.353 N 
ATOM      4  C   UNL     1      -5.928   0.414   2.603  1.00  0.00     0.262 C 
ATOM      5  O   UNL     1      -5.739   0.848   3.744  1.00  0.00    -0.271 OA
ATOM      6  H   UNL     1      -6.681  -1.270   3.346  1.00  0.00     0.163 HD
BRANCH   4   7
ATOM      7  C   UNL     1      -5.475   1.218   1.379  1.00  0.00     0.281 C 
ATOM      8  N   UNL     1      -3.716   1.374  -0.337  1.00  0.00    -0.298 N 
ATOM      9  C   UNL     1      -4.195   0.611   0.818  1.00  0.00     0.181 C 
ATOM     10  C   UNL     1      -4.747   1.865  -1.202  1.00  0.00     0.087 A 
ATOM     11  C   UNL     1      -6.096   1.762  -0.811  1.00  0.00     0.144 A 
ATOM     12  C   UNL     1      -4.470   2.359  -2.484  1.00  0.00     0.030 A 
ATOM     13  O   UNL     1      -6.516   1.294   0.409  1.00  0.00    -0.477 OA
ATOM     14  C   UNL     1      -7.127   2.117  -1.686  1.00  0.00     0.049 A 
ATOM     15  C   UNL     1      -5.504   2.723  -3.355  1.00  0.00     0.002 A 
ATOM     16  C   UNL     1      -6.831   2.597  -2.959  1.00  0.00     0.004 A 
BRANCH   8  17
ATOM     17  C   UNL     1      -2.352   1.637  -0.553  1.00  0.00     0.294 C 
ATOM     18  O   UNL     1      -1.980   2.696  -1.064  1.00  0.00    -0.265 OA
BRANCH  17  19
ATOM     19  C   UNL     1      -1.394   0.603  -0.176  1.00  0.00     0.192 A 
ATOM     20  C   UNL     1       2.107   0.039   0.360  1.00  0.00     0.087 C 
ATOM     21  C   UNL     1       0.648  -0.144   0.220  1.00  0.00     0.101 A 
ATOM     22  C   UNL     1      -0.174  -1.246   0.250  1.00  0.00     0.046 A 
ATOM     23  O   UNL     1      -0.082   0.978  -0.022  1.00  0.00    -0.456 OA
ATOM     24  C   UNL     1      -1.481  -0.771  -0.017  1.00  0.00     0.056 A 
ENDBRANCH  17  19
ENDBRANCH   8  17
ENDBRANCH   4   7
ENDBRANCH   2   3
ENDBRANCH   1   2
BRANCH   1  25
ATOM     25  C   UNL     1      -6.168  -3.909   2.167  1.00  0.00     0.118 C 
BRANCH  25  26
ATOM     26  N   UNL     1      -7.468  -4.555   2.091  1.00  0.00    -0.352 N 
ATOM     27  C   UNL     1      -7.785  -5.888   1.984  1.00  0.00     0.251 C 
ATOM     28  H   UNL     1      -8.240  -3.945   2.121  1.00  0.00     0.163 HD
ATOM     29  O   UNL     1      -8.949  -6.211   1.761  1.00  0.00    -0.269 OA
BRANCH  27  30
ATOM     30  C   UNL     1      -6.742  -6.932   2.113  1.00  0.00     0.039 A 
ATOM     31  C   UNL     1      -6.761  -8.010   1.221  1.00  0.00     0.014 A 
ATOM     32  C   UNL     1      -5.783  -6.886   3.129  1.00  0.00     0.014 A 
ATOM     33  C   UNL     1      -5.786  -9.008   1.309  1.00  0.00     0.010 A 
ATOM     34  C   UNL     1      -4.785  -7.859   3.191  1.00  0.00     0.010 A 
ATOM     35  C   UNL     1      -4.777  -8.927   2.281  1.00  0.00    -0.014 A 
BRANCH  35  36
ATOM     36  C   UNL     1      -3.708  -9.951   2.363  1.00  0.00     0.031 A 
ATOM     37  C   UNL     1      -3.654 -10.903   3.524  1.00  0.00     0.074 A 
ATOM     38  C   UNL     1      -2.740  -9.983   1.427  1.00  0.00     0.049 A 
ATOM     39  N   UNL     1      -2.738 -11.789   3.820  1.00  0.00    -0.248 NA
ATOM     40  C   UNL     1      -4.762 -10.831   4.488  1.00  0.00     0.031 C 
ATOM     41  C   UNL     1      -2.650  -9.094   0.268  1.00  0.00     0.029 A 
ATOM     42  N   UNL     1      -1.636 -10.791   1.316  1.00  0.00    -0.354 N 
ATOM     43  C   UNL     1      -3.135 -12.352   5.026  1.00  0.00     0.074 A 
ATOM     44  C   UNL     1      -4.376 -11.708   5.404  1.00  0.00     0.031 C 
ATOM     45  C   UNL     1      -1.556  -9.412  -0.443  1.00  0.00     0.029 A 
ATOM     46  C   UNL     1      -0.857 -10.509   0.222  1.00  0.00     0.049 A 
ATOM     47  H   UNL     1      -1.423 -11.504   1.960  1.00  0.00     0.167 HD
ATOM     48  C   UNL     1      -2.522 -13.314   5.757  1.00  0.00     0.031 A 
ATOM     49  C   UNL     1       0.294 -11.064  -0.200  1.00  0.00     0.031 A 
ATOM     50  C   UNL     1      -1.312 -13.988   5.374  1.00  0.00     0.049 A 
ATOM     51  C   UNL     1       0.915 -12.181   0.583  1.00  0.00     0.074 A 
ATOM     52  C   UNL     1      -0.646 -15.007   6.032  1.00  0.00     0.029 A 
ATOM     53  N   UNL     1      -0.592 -13.717   4.223  1.00  0.00    -0.354 N 
ATOM     54  N   UNL     1       0.514 -12.713   1.712  1.00  0.00    -0.248 NA
ATOM     55  C   UNL     1       2.142 -12.775   0.033  1.00  0.00     0.031 C 
ATOM     56  C   UNL     1       0.485 -15.350   5.278  1.00  0.00     0.029 A 
ATOM     57  C   UNL     1       0.513 -14.548   4.148  1.00  0.00     0.049 A 
ATOM     58  H   UNL     1      -0.829 -13.033   3.556  1.00  0.00     0.167 HD
ATOM     59  C   UNL     1       1.437 -13.707   2.008  1.00  0.00     0.074 A 
ATOM     60  C   UNL     1       2.412 -13.710   0.936  1.00  0.00     0.031 C 
ATOM     61  C   UNL     1       1.472 -14.541   3.076  1.00  0.00     0.031 A 
BRANCH  48  62
ATOM     62  C   UNL     1      -3.163 -13.668   7.066  1.00  0.00    -0.014 A 
ATOM     63  C   UNL     1      -4.267 -14.537   7.117  1.00  0.00     0.010 A 
ATOM     64  C   UNL     1      -2.675 -13.097   8.255  1.00  0.00     0.010 A 
ATOM     65  C   UNL     1      -4.908 -14.789   8.333  1.00  0.00     0.020 A 
ATOM     66  C   UNL     1      -3.306 -13.356   9.473  1.00  0.00     0.020 A 
ATOM     67  C   UNL     1      -4.435 -14.180   9.500  1.00  0.00     0.054 A 
BRANCH  67  68
ATOM     68  S   UNL     1      -5.286 -14.479  11.074  1.00  0.00     0.124 S 
ATOM     69  O   UNL     1      -6.266 -13.396  11.092  1.00  0.00    -0.237 OA
ATOM     70  O   UNL     1      -5.838 -15.821  10.907  1.00  0.00    -0.237 OA
ATOM     71  O   UNL     1      -4.215 -14.370  12.062  1.00  0.00    -0.744 OA
ENDBRANCH  67  68
ENDBRANCH  48  62
BRANCH  49  72
ATOM     72  C   UNL     1       0.923 -10.564  -1.446  1.00  0.00    -0.014 A 
ATOM     73  C   UNL     1       0.664 -11.204  -2.670  1.00  0.00     0.010 A 
ATOM     74  C   UNL     1       1.724  -9.410  -1.422  1.00  0.00     0.010 A 
ATOM     75  C   UNL     1       1.189 -10.689  -3.858  1.00  0.00     0.020 A 
ATOM     76  C   UNL     1       2.244  -8.889  -2.609  1.00  0.00     0.020 A 
ATOM     77  C   UNL     1       1.974  -9.533  -3.820  1.00  0.00     0.054 A 
BRANCH  77  78
ATOM     78  S   UNL     1       2.565  -8.805  -5.374  1.00  0.00     0.124 S 
ATOM     79  O   UNL     1       3.847  -9.476  -5.554  1.00  0.00    -0.237 OA
ATOM     80  O   UNL     1       1.519  -9.171  -6.326  1.00  0.00    -0.237 OA
ATOM     81  O   UNL     1       2.636  -7.379  -5.063  1.00  0.00    -0.744 OA
ENDBRANCH  77  78
ENDBRANCH  49  72
BRANCH  61  82
ATOM     82  C   UNL     1       2.597 -15.531   3.129  1.00  0.00    -0.014 A 
ATOM     83  C   UNL     1       3.850 -15.160   3.647  1.00  0.00     0.010 A 
ATOM     84  C   UNL     1       2.391 -16.850   2.690  1.00  0.00     0.010 A 
ATOM     85  C   UNL     1       4.890 -16.091   3.708  1.00  0.00     0.020 A 
ATOM     86  C   UNL     1       3.427 -17.785   2.757  1.00  0.00     0.020 A 
ATOM     87  C   UNL     1       4.674 -17.397   3.255  1.00  0.00     0.054 A 
BRANCH  87  88
ATOM     88  S   UNL     1       6.014 -18.614   3.373  1.00  0.00     0.124 S 
ATOM     89  O   UNL     1       6.718 -18.413   2.110  1.00  0.00    -0.237 OA
ATOM     90  O   UNL     1       6.740 -18.194   4.570  1.00  0.00    -0.237 OA
ATOM     91  O   UNL     1       5.305 -19.886   3.500  1.00  0.00    -0.744 OA
ENDBRANCH  87  88
ENDBRANCH  61  82
ENDBRANCH  35  36
ENDBRANCH  27  30
ENDBRANCH  25  26
ENDBRANCH   1  25
TORSDOF 15
