REMARK SMILES CC1(C)C[C@@](Cc2ccccc2)(C(=O)NCCCNC(=O)c2ccc(-c3c4nc(c(-c5ccc(S(=O)(=O)[O-])cc5)c5ccc([nH]5)c(-c5ccc(S(=O)(=O)[O-])cc5)c5nc(c(-c6ccc(S(=O)(=O)[O-])cc6)c6ccc3[nH]6)C=C5)C=C4)cc2)CCO1
REMARK SMILES IDX 17 1 16 2 15 3 13 4 14 5 5 7 1 8 2 9 3 10 4 11 84 12 83 13
REMARK SMILES IDX 82 14 6 15 7 16 8 17 12 18 9 19 11 20 10 21 18 22 19 23
REMARK SMILES IDX 20 24 21 26 22 27 23 28 81 29 24 30 80 31 25 32 26 33 27 34
REMARK SMILES IDX 74 35 28 36 79 37 73 38 75 39 29 40 78 41 72 42 71 43 30 45
REMARK SMILES IDX 60 46 41 47 59 48 42 49 45 50 58 51 76 52 43 53 44 54 57 56
REMARK SMILES IDX 77 57 46 58 31 59 32 60 40 61 33 62 39 63 34 64 35 65 36 66
REMARK SMILES IDX 37 67 38 68 61 69 62 70 70 71 63 72 69 73 64 74 65 75 66 76
REMARK SMILES IDX 67 77 68 78 47 79 48 80 56 81 49 82 55 83 50 84 51 85 52 86
REMARK SMILES IDX 53 87 54 88
REMARK H PARENT 15 6 19 25 75 44 45 55
REMARK Flexibility Score: inf
ROOT
ATOM      1  C   UNL     1       2.543  -2.067   4.376  1.00  0.00     0.042 C 
ENDROOT
BRANCH   1   2
ATOM      2  C   UNL     1       1.824  -2.016   3.041  1.00  0.00     0.117 C 
BRANCH   2   3
ATOM      3  N   UNL     1       2.665  -2.432   1.935  1.00  0.00    -0.356 N 
ATOM      4  C   UNL     1       2.420  -2.796   0.661  1.00  0.00     0.226 C 
ATOM      5  O   UNL     1       3.380  -2.582  -0.095  1.00  0.00    -0.274 OA
ATOM      6  H   UNL     1       3.622  -2.453   2.165  1.00  0.00     0.163 HD
BRANCH   4   7
ATOM      7  C   UNL     1       1.162  -3.508   0.127  1.00  0.00     0.058 C 
ATOM      8  C   UNL     1       1.030  -0.356  -0.592  1.00  0.00     0.042 C 
ATOM      9  C   UNL     1       0.120  -1.481  -1.112  1.00  0.00     0.064 C 
ATOM     10  C   UNL     1      -0.377  -1.057  -2.502  1.00  0.00     0.042 C 
ATOM     11  C   UNL     1       0.810  -2.858  -1.238  1.00  0.00     0.052 C 
ATOM     12  O   UNL     1      -1.056  -1.610  -0.301  1.00  0.00    -0.376 OA
ATOM     13  C   UNL     1      -0.834  -2.133   1.002  1.00  0.00     0.162 C 
ATOM     14  C   UNL     1      -0.133  -3.485   0.963  1.00  0.00     0.046 C 
BRANCH   7  15
ATOM     15  C   UNL     1       1.584  -5.021  -0.008  1.00  0.00     0.052 C 
BRANCH  15  16
ATOM     16  C   UNL     1       2.260  -5.453  -1.293  1.00  0.00    -0.047 A 
ATOM     17  C   UNL     1       1.500  -5.992  -2.343  1.00  0.00     0.004 A 
ATOM     18  C   UNL     1       3.642  -5.316  -1.467  1.00  0.00     0.004 A 
ATOM     19  C   UNL     1       2.107  -6.359  -3.546  1.00  0.00     0.000 A 
ATOM     20  C   UNL     1       4.248  -5.678  -2.672  1.00  0.00     0.000 A 
ATOM     21  C   UNL     1       3.480  -6.196  -3.713  1.00  0.00     0.000 A 
ENDBRANCH  15  16
ENDBRANCH   7  15
ENDBRANCH   4   7
ENDBRANCH   2   3
ENDBRANCH   1   2
BRANCH   1  22
ATOM     22  C   UNL     1       3.804  -1.218   4.440  1.00  0.00     0.118 C 
BRANCH  22  23
ATOM     23  N   UNL     1       3.548   0.214   4.358  1.00  0.00    -0.352 N 
ATOM     24  C   UNL     1       3.617   1.184   5.332  1.00  0.00     0.251 C 
ATOM     25  H   UNL     1       3.284   0.538   3.467  1.00  0.00     0.163 HD
ATOM     26  O   UNL     1       3.213   2.319   5.092  1.00  0.00    -0.269 OA
BRANCH  24  27
ATOM     27  C   UNL     1       4.141   0.850   6.674  1.00  0.00     0.039 A 
ATOM     28  C   UNL     1       3.487   1.334   7.809  1.00  0.00     0.014 A 
ATOM     29  C   UNL     1       5.265   0.037   6.814  1.00  0.00     0.014 A 
ATOM     30  C   UNL     1       3.913   0.929   9.077  1.00  0.00     0.010 A 
ATOM     31  C   UNL     1       5.596  -0.474   8.060  1.00  0.00     0.010 A 
ATOM     32  C   UNL     1       4.943  -0.016   9.213  1.00  0.00    -0.014 A 
BRANCH  32  33
ATOM     33  C   UNL     1       5.402  -0.504  10.540  1.00  0.00     0.031 A 
ATOM     34  C   UNL     1       6.850  -0.339  10.932  1.00  0.00     0.074 A 
ATOM     35  C   UNL     1       4.554  -1.166  11.352  1.00  0.00     0.049 A 
ATOM     36  N   UNL     1       7.484  -0.808  11.976  1.00  0.00    -0.248 NA
ATOM     37  C   UNL     1       7.712   0.408   9.998  1.00  0.00     0.031 C 
ATOM     38  C   UNL     1       3.145  -1.454  11.066  1.00  0.00     0.029 A 
ATOM     39  N   UNL     1       4.758  -1.723  12.590  1.00  0.00    -0.354 N 
ATOM     40  C   UNL     1       8.818  -0.457  11.796  1.00  0.00     0.074 A 
ATOM     41  C   UNL     1       8.913   0.206  10.516  1.00  0.00     0.031 C 
ATOM     42  C   UNL     1       2.604  -2.096  12.115  1.00  0.00     0.029 A 
ATOM     43  C   UNL     1       3.632  -2.299  13.130  1.00  0.00     0.049 A 
ATOM     44  H   UNL     1       5.629  -1.712  13.048  1.00  0.00     0.167 HD
ATOM     45  C   UNL     1       9.867  -0.635  12.633  1.00  0.00     0.031 A 
ATOM     46  C   UNL     1       3.448  -2.916  14.314  1.00  0.00     0.031 A 
ATOM     47  C   UNL     1       9.757  -1.233  13.935  1.00  0.00     0.049 A 
ATOM     48  C   UNL     1       4.606  -3.025  15.267  1.00  0.00     0.074 A 
ATOM     49  C   UNL     1      10.741  -1.406  14.892  1.00  0.00     0.029 A 
ATOM     50  N   UNL     1       8.580  -1.731  14.473  1.00  0.00    -0.354 N 
ATOM     51  N   UNL     1       5.852  -2.653  15.094  1.00  0.00    -0.248 NA
ATOM     52  C   UNL     1       4.328  -3.616  16.582  1.00  0.00     0.031 C 
ATOM     53  C   UNL     1      10.161  -2.025  16.005  1.00  0.00     0.029 A 
ATOM     54  C   UNL     1       8.809  -2.200  15.754  1.00  0.00     0.049 A 
ATOM     55  H   UNL     1       7.710  -1.748  14.012  1.00  0.00     0.167 HD
ATOM     56  C   UNL     1       6.500  -2.934  16.291  1.00  0.00     0.074 A 
ATOM     57  C   UNL     1       5.505  -3.497  17.182  1.00  0.00     0.031 C 
ATOM     58  C   UNL     1       7.800  -2.743  16.626  1.00  0.00     0.031 A 
BRANCH  45  59
ATOM     59  C   UNL     1      11.215  -0.155  12.164  1.00  0.00    -0.014 A 
ATOM     60  C   UNL     1      11.487   1.219  12.025  1.00  0.00     0.010 A 
ATOM     61  C   UNL     1      12.225  -1.085  11.857  1.00  0.00     0.010 A 
ATOM     62  C   UNL     1      12.720   1.652  11.531  1.00  0.00     0.020 A 
ATOM     63  C   UNL     1      13.472  -0.654  11.394  1.00  0.00     0.020 A 
ATOM     64  C   UNL     1      13.702   0.711  11.211  1.00  0.00     0.054 A 
BRANCH  64  65
ATOM     65  S   UNL     1      15.297   1.299  10.577  1.00  0.00     0.124 S 
ATOM     66  O   UNL     1      14.963   1.636   9.195  1.00  0.00    -0.237 OA
ATOM     67  O   UNL     1      15.591   2.436  11.446  1.00  0.00    -0.237 OA
ATOM     68  O   UNL     1      16.180   0.147  10.743  1.00  0.00    -0.744 OA
ENDBRANCH  64  65
ENDBRANCH  45  59
BRANCH  46  69
ATOM     69  C   UNL     1       2.100  -3.425  14.685  1.00  0.00    -0.014 A 
ATOM     70  C   UNL     1       1.327  -2.749  15.647  1.00  0.00     0.010 A 
ATOM     71  C   UNL     1       1.573  -4.575  14.070  1.00  0.00     0.010 A 
ATOM     72  C   UNL     1       0.062  -3.224  16.003  1.00  0.00     0.020 A 
ATOM     73  C   UNL     1       0.297  -5.039  14.405  1.00  0.00     0.020 A 
ATOM     74  C   UNL     1      -0.446  -4.367  15.379  1.00  0.00     0.054 A 
BRANCH  74  75
ATOM     75  S   UNL     1      -2.113  -4.936  15.815  1.00  0.00     0.124 S 
ATOM     76  O   UNL     1      -1.888  -5.572  17.109  1.00  0.00    -0.237 OA
ATOM     77  O   UNL     1      -2.876  -3.690  15.845  1.00  0.00    -0.237 OA
ATOM     78  O   UNL     1      -2.460  -5.842  14.722  1.00  0.00    -0.744 OA
ENDBRANCH  74  75
ENDBRANCH  46  69
BRANCH  58  79
ATOM     79  C   UNL     1       8.207  -3.094  18.030  1.00  0.00    -0.014 A 
ATOM     80  C   UNL     1       8.341  -4.431  18.439  1.00  0.00     0.010 A 
ATOM     81  C   UNL     1       8.498  -2.061  18.940  1.00  0.00     0.010 A 
ATOM     82  C   UNL     1       8.722  -4.731  19.749  1.00  0.00     0.020 A 
ATOM     83  C   UNL     1       8.903  -2.357  20.243  1.00  0.00     0.020 A 
ATOM     84  C   UNL     1       8.995  -3.691  20.644  1.00  0.00     0.054 A 
BRANCH  84  85
ATOM     85  S   UNL     1       9.513  -4.101  22.333  1.00  0.00     0.124 S 
ATOM     86  O   UNL     1       8.246  -4.472  22.957  1.00  0.00    -0.237 OA
ATOM     87  O   UNL     1      10.455  -5.199  22.124  1.00  0.00    -0.237 OA
ATOM     88  O   UNL     1      10.111  -2.861  22.821  1.00  0.00    -0.744 OA
ENDBRANCH  84  85
ENDBRANCH  58  79
ENDBRANCH  32  33
ENDBRANCH  24  27
ENDBRANCH  22  23
ENDBRANCH   1  22
TORSDOF 15
