REMARK SMILES CN(C)C(=O)Cc1nc(C[N@@H+](C)CC(=O)NCCCNC(=O)c2ccc(-c3c4nc(c(-c5ccc(S(=O)(=O)[O-])cc5)c5ccc([nH]5)c(-c5ccc(S(=O)(=O)[O-])cc5)c5nc(c(-c6ccc(S(=O)(=O)[O-])cc6)c6ccc3[nH]6)C=C5)C=C4)cc2)cs1
REMARK SMILES IDX 17 1 16 2 14 3 15 4 13 6 11 7 12 8 10 10 9 11 83 12 8 13
REMARK SMILES IDX 84 14 7 15 6 16 4 17 5 18 2 19 1 20 3 21 18 22 19 23 20 24
REMARK SMILES IDX 21 25 22 27 23 28 24 29 82 30 25 31 81 32 26 33 27 34 28 35
REMARK SMILES IDX 75 36 29 37 80 38 74 39 76 40 30 41 79 42 73 43 72 44 31 46
REMARK SMILES IDX 61 47 42 48 60 49 43 50 46 51 59 52 77 53 44 54 45 55 58 57
REMARK SMILES IDX 78 58 47 59 32 60 33 61 41 62 34 63 40 64 35 65 36 66 37 67
REMARK SMILES IDX 38 68 39 69 62 70 63 71 71 72 64 73 70 74 65 75 66 76 67 77
REMARK SMILES IDX 68 78 69 79 48 80 49 81 57 82 50 83 56 84 51 85 52 86 53 87
REMARK SMILES IDX 54 88 55 89
REMARK H PARENT 16 5 11 9 20 26 76 45 46 56
REMARK Flexibility Score: inf
ROOT
ATOM      1  C   UNL     1      -0.958  -0.657   1.835  1.00  0.00     0.118 C 
ENDROOT
BRANCH   1   2
ATOM      2  N   UNL     1      -1.544   0.546   1.269  1.00  0.00    -0.351 N 
ATOM      3  C   UNL     1      -1.598   1.007  -0.012  1.00  0.00     0.275 C 
ATOM      4  O   UNL     1      -2.261   2.027  -0.224  1.00  0.00    -0.269 OA
ATOM      5  H   UNL     1      -1.979   1.133   1.929  1.00  0.00     0.163 HD
BRANCH   3   6
ATOM      6  C   UNL     1      -0.900   0.274  -1.153  1.00  0.00     0.363 C 
BRANCH   6   7
ATOM      7  N   UNL     1       0.469   0.703  -1.414  1.00  0.00    -0.325 N 
ATOM      8  C   UNL     1       1.562  -0.114  -0.955  1.00  0.00     0.333 C 
ATOM      9  H   UNL     1       0.449   0.367  -2.377  1.00  0.00     0.348 HD
BRANCH   7  10
ATOM     10  C   UNL     1       0.739   2.097  -1.746  1.00  0.00     0.320 C 
BRANCH  10  11
ATOM     11  C   UNL     1       0.795   3.071  -0.597  1.00  0.00     0.106 A 
ATOM     12  C   UNL     1       1.098   2.846   0.731  1.00  0.00     0.096 A 
ATOM     13  N   UNL     1       0.572   4.415  -0.889  1.00  0.00    -0.240 NA
ATOM     14  S   UNL     1       0.999   4.290   1.642  1.00  0.00    -0.126 S 
ATOM     15  C   UNL     1       0.626   5.150   0.204  1.00  0.00     0.102 A 
BRANCH  15  16
ATOM     16  C   UNL     1       0.438   6.630   0.232  1.00  0.00     0.167 C 
BRANCH  16  17
ATOM     17  C   UNL     1      -0.965   6.969   0.696  1.00  0.00     0.228 C 
ATOM     18  O   UNL     1      -1.144   7.366   1.852  1.00  0.00    -0.274 OA
ATOM     19  N   UNL     1      -2.026   6.858  -0.199  1.00  0.00    -0.348 N 
ATOM     20  C   UNL     1      -1.946   6.241  -1.515  1.00  0.00     0.146 C 
ATOM     21  C   UNL     1      -3.357   7.125   0.316  1.00  0.00     0.146 C 
ENDBRANCH  16  17
ENDBRANCH  15  16
ENDBRANCH  10  11
ENDBRANCH   7  10
ENDBRANCH   6   7
ENDBRANCH   3   6
ENDBRANCH   1   2
BRANCH   1  22
ATOM     22  C   UNL     1       0.311  -0.405   2.647  1.00  0.00     0.042 C 
BRANCH  22  23
ATOM     23  C   UNL     1       0.220   0.707   3.692  1.00  0.00     0.118 C 
BRANCH  23  24
ATOM     24  N   UNL     1      -0.363   0.252   4.938  1.00  0.00    -0.352 N 
ATOM     25  C   UNL     1       0.184   0.223   6.200  1.00  0.00     0.251 C 
ATOM     26  H   UNL     1      -1.285  -0.086   4.872  1.00  0.00     0.163 HD
ATOM     27  O   UNL     1      -0.406  -0.387   7.089  1.00  0.00    -0.269 OA
BRANCH  25  28
ATOM     28  C   UNL     1       1.476   0.892   6.499  1.00  0.00     0.039 A 
ATOM     29  C   UNL     1       2.387   0.233   7.331  1.00  0.00     0.014 A 
ATOM     30  C   UNL     1       1.773   2.179   6.038  1.00  0.00     0.014 A 
ATOM     31  C   UNL     1       3.599   0.843   7.673  1.00  0.00     0.010 A 
ATOM     32  C   UNL     1       3.008   2.765   6.334  1.00  0.00     0.010 A 
ATOM     33  C   UNL     1       3.929   2.111   7.168  1.00  0.00    -0.014 A 
BRANCH  33  34
ATOM     34  C   UNL     1       5.215   2.765   7.537  1.00  0.00     0.031 A 
ATOM     35  C   UNL     1       5.226   3.998   8.402  1.00  0.00     0.074 A 
ATOM     36  C   UNL     1       6.383   2.258   7.093  1.00  0.00     0.049 A 
ATOM     37  N   UNL     1       6.247   4.693   8.838  1.00  0.00    -0.248 NA
ATOM     38  C   UNL     1       3.918   4.525   8.823  1.00  0.00     0.031 C 
ATOM     39  C   UNL     1       6.523   1.076   6.241  1.00  0.00     0.029 A 
ATOM     40  N   UNL     1       7.676   2.671   7.304  1.00  0.00    -0.354 N 
ATOM     41  C   UNL     1       5.707   5.740   9.577  1.00  0.00     0.074 A 
ATOM     42  C   UNL     1       4.268   5.615   9.490  1.00  0.00     0.031 C 
ATOM     43  C   UNL     1       7.828   0.837   6.034  1.00  0.00     0.029 A 
ATOM     44  C   UNL     1       8.617   1.866   6.707  1.00  0.00     0.049 A 
ATOM     45  H   UNL     1       7.907   3.467   7.835  1.00  0.00     0.167 HD
ATOM     46  C   UNL     1       6.345   6.709  10.281  1.00  0.00     0.031 A 
ATOM     47  C   UNL     1       9.963   1.940   6.702  1.00  0.00     0.031 A 
ATOM     48  C   UNL     1       7.775   6.844  10.369  1.00  0.00     0.049 A 
ATOM     49  C   UNL     1      10.650   3.045   7.456  1.00  0.00     0.074 A 
ATOM     50  C   UNL     1       8.511   7.776  11.081  1.00  0.00     0.029 A 
ATOM     51  N   UNL     1       8.688   6.027   9.721  1.00  0.00    -0.354 N 
ATOM     52  N   UNL     1      10.121   4.001   8.181  1.00  0.00    -0.248 NA
ATOM     53  C   UNL     1      12.118   3.074   7.397  1.00  0.00     0.031 C 
ATOM     54  C   UNL     1       9.869   7.548  10.830  1.00  0.00     0.029 A 
ATOM     55  C   UNL     1       9.980   6.444  10.000  1.00  0.00     0.049 A 
ATOM     56  H   UNL     1       8.454   5.263   9.147  1.00  0.00     0.167 HD
ATOM     57  C   UNL     1      11.193   4.728   8.688  1.00  0.00     0.074 A 
ATOM     58  C   UNL     1      12.399   4.098   8.191  1.00  0.00     0.031 C 
ATOM     59  C   UNL     1      11.176   5.816   9.498  1.00  0.00     0.031 A 
BRANCH  46  60
ATOM     60  C   UNL     1       5.480   7.711  11.001  1.00  0.00    -0.014 A 
ATOM     61  C   UNL     1       4.733   7.341  12.135  1.00  0.00     0.010 A 
ATOM     62  C   UNL     1       5.410   9.038  10.540  1.00  0.00     0.010 A 
ATOM     63  C   UNL     1       3.884   8.261  12.755  1.00  0.00     0.020 A 
ATOM     64  C   UNL     1       4.582   9.969  11.174  1.00  0.00     0.020 A 
ATOM     65  C   UNL     1       3.804   9.567  12.262  1.00  0.00     0.054 A 
BRANCH  65  66
ATOM     66  S   UNL     1       2.678  10.738  13.069  1.00  0.00     0.124 S 
ATOM     67  O   UNL     1       1.380  10.310  12.552  1.00  0.00    -0.237 OA
ATOM     68  O   UNL     1       2.903  10.478  14.489  1.00  0.00    -0.237 OA
ATOM     69  O   UNL     1       3.139  12.041  12.598  1.00  0.00    -0.744 OA
ENDBRANCH  65  66
ENDBRANCH  46  60
BRANCH  47  70
ATOM     70  C   UNL     1      10.754   0.907   5.982  1.00  0.00    -0.014 A 
ATOM     71  C   UNL     1      11.456  -0.075   6.703  1.00  0.00     0.010 A 
ATOM     72  C   UNL     1      10.786   0.880   4.576  1.00  0.00     0.010 A 
ATOM     73  C   UNL     1      12.178  -1.065   6.031  1.00  0.00     0.020 A 
ATOM     74  C   UNL     1      11.489  -0.122   3.901  1.00  0.00     0.020 A 
ATOM     75  C   UNL     1      12.186  -1.085   4.634  1.00  0.00     0.054 A 
BRANCH  75  76
ATOM     76  S   UNL     1      13.065  -2.426   3.782  1.00  0.00     0.124 S 
ATOM     77  O   UNL     1      14.459  -2.025   3.942  1.00  0.00    -0.237 OA
ATOM     78  O   UNL     1      12.653  -3.605   4.540  1.00  0.00    -0.237 OA
ATOM     79  O   UNL     1      12.545  -2.361   2.418  1.00  0.00    -0.744 OA
ENDBRANCH  75  76
ENDBRANCH  47  70
BRANCH  59  80
ATOM     80  C   UNL     1      12.504   6.380   9.927  1.00  0.00    -0.014 A 
ATOM     81  C   UNL     1      13.308   7.113   9.036  1.00  0.00     0.010 A 
ATOM     82  C   UNL     1      12.932   6.213  11.257  1.00  0.00     0.010 A 
ATOM     83  C   UNL     1      14.530   7.643   9.460  1.00  0.00     0.020 A 
ATOM     84  C   UNL     1      14.142   6.761  11.690  1.00  0.00     0.020 A 
ATOM     85  C   UNL     1      14.941   7.461  10.784  1.00  0.00     0.054 A 
BRANCH  85  86
ATOM     86  S   UNL     1      16.511   8.193  11.323  1.00  0.00     0.124 S 
ATOM     87  O   UNL     1      17.489   7.277  10.743  1.00  0.00    -0.237 OA
ATOM     88  O   UNL     1      16.468   9.526  10.726  1.00  0.00    -0.237 OA
ATOM     89  O   UNL     1      16.422   8.168  12.781  1.00  0.00    -0.744 OA
ENDBRANCH  85  86
ENDBRANCH  59  80
ENDBRANCH  33  34
ENDBRANCH  25  28
ENDBRANCH  23  24
ENDBRANCH  22  23
ENDBRANCH   1  22
TORSDOF 18
