REMARK SMILES C[C@@H](C(=O)NCCCNC(=O)c1ccc(-c2c3nc(c(-c4ccc(S(=O)(=O)[O-])cc4)c4ccc([nH]4)c(-c4ccc(S(=O)(=O)[O-])cc4)c4nc(c(-c5ccc(S(=O)(=O)[O-])cc5)c5ccc2[nH]5)C=C4)C=C3)cc1)c1ccc(C[C@H]2CCCC2=O)c(-c2ccccc2)c1
REMARK SMILES IDX 7 1 6 2 5 3 3 4 4 5 2 7 1 8 72 9 73 10 90 11 74 12 83 13
REMARK SMILES IDX 75 14 84 15 85 16 89 17 86 18 88 19 87 20 76 21 77 22 78 23
REMARK SMILES IDX 81 24 79 25 80 26 82 27 8 28 9 29 10 30 11 32 12 33 13 34
REMARK SMILES IDX 71 35 14 36 70 37 15 38 16 39 17 40 64 41 18 42 69 43 63 44
REMARK SMILES IDX 65 45 19 46 68 47 62 48 61 49 20 51 50 52 31 53 49 54 32 55
REMARK SMILES IDX 35 56 48 57 66 58 33 59 34 60 47 62 67 63 36 64 21 65 22 66
REMARK SMILES IDX 30 67 23 68 29 69 24 70 25 71 26 72 27 73 28 74 51 75 52 76
REMARK SMILES IDX 60 77 53 78 59 79 54 80 55 81 56 82 57 83 58 84 37 85 38 86
REMARK SMILES IDX 46 87 39 88 45 89 40 90 41 91 42 92 43 93 44 94
REMARK H PARENT 5 6 9 31 65 50 35 61
REMARK Flexibility Score: inf
ROOT
ATOM      1  C   UNL     1       4.287  -1.149   0.380  1.00  0.00     0.042 C 
ENDROOT
BRANCH   1   2
ATOM      2  C   UNL     1       3.323  -1.927  -0.518  1.00  0.00     0.117 C 
BRANCH   2   3
ATOM      3  N   UNL     1       2.264  -2.558   0.249  1.00  0.00    -0.356 N 
ATOM      4  C   UNL     1       0.963  -2.186   0.440  1.00  0.00     0.227 C 
ATOM      5  O   UNL     1       0.349  -2.779   1.330  1.00  0.00    -0.274 OA
ATOM      6  H   UNL     1       2.526  -3.390   0.707  1.00  0.00     0.163 HD
BRANCH   4   7
ATOM      7  C   UNL     1       0.341  -1.077  -0.433  1.00  0.00     0.105 C 
ATOM      8  C   UNL     1       0.812   0.272   0.131  1.00  0.00     0.023 C 
BRANCH   7   9
ATOM      9  C   UNL     1      -1.190  -1.143  -0.558  1.00  0.00    -0.035 A 
ATOM     10  C   UNL     1      -1.949   0.009  -0.790  1.00  0.00     0.005 A 
ATOM     11  C   UNL     1      -1.891  -2.360  -0.482  1.00  0.00     0.013 A 
ATOM     12  C   UNL     1      -3.342  -0.034  -0.789  1.00  0.00     0.004 A 
ATOM     13  C   UNL     1      -3.304  -2.433  -0.448  1.00  0.00    -0.015 A 
ATOM     14  C   UNL     1      -4.037  -1.230  -0.547  1.00  0.00    -0.039 A 
BRANCH  13  15
ATOM     15  C   UNL     1      -3.934  -3.758  -0.271  1.00  0.00    -0.018 A 
ATOM     16  C   UNL     1      -4.830  -4.277  -1.220  1.00  0.00     0.009 A 
ATOM     17  C   UNL     1      -3.639  -4.547   0.855  1.00  0.00     0.009 A 
ATOM     18  C   UNL     1      -5.452  -5.513  -1.025  1.00  0.00     0.001 A 
ATOM     19  C   UNL     1      -4.249  -5.790   1.045  1.00  0.00     0.001 A 
ATOM     20  C   UNL     1      -5.165  -6.267   0.110  1.00  0.00     0.000 A 
ENDBRANCH  13  15
BRANCH  14  21
ATOM     21  C   UNL     1      -5.537  -1.132  -0.342  1.00  0.00     0.047 C 
BRANCH  21  22
ATOM     22  C   UNL     1      -6.010  -0.586   1.015  1.00  0.00     0.060 C 
ATOM     23  C   UNL     1      -5.487  -1.292   2.269  1.00  0.00     0.012 C 
ATOM     24  C   UNL     1      -5.583   0.844   1.261  1.00  0.00     0.136 C 
ATOM     25  C   UNL     1      -4.311  -0.459   2.767  1.00  0.00     0.009 C 
ATOM     26  C   UNL     1      -4.686   0.984   2.463  1.00  0.00     0.076 C 
ATOM     27  O   UNL     1      -5.949   1.791   0.573  1.00  0.00    -0.299 OA
ENDBRANCH  21  22
ENDBRANCH  14  21
ENDBRANCH   7   9
ENDBRANCH   4   7
ENDBRANCH   2   3
ENDBRANCH   1   2
BRANCH   1  28
ATOM     28  C   UNL     1       5.037  -2.002   1.399  1.00  0.00     0.118 C 
BRANCH  28  29
ATOM     29  N   UNL     1       5.986  -2.907   0.776  1.00  0.00    -0.352 N 
ATOM     30  C   UNL     1       7.328  -3.068   1.011  1.00  0.00     0.251 C 
ATOM     31  H   UNL     1       5.610  -3.494   0.081  1.00  0.00     0.163 HD
ATOM     32  O   UNL     1       7.987  -3.760   0.234  1.00  0.00    -0.269 OA
BRANCH  30  33
ATOM     33  C   UNL     1       7.992  -2.417   2.164  1.00  0.00     0.039 A 
ATOM     34  C   UNL     1       9.289  -1.920   1.993  1.00  0.00     0.014 A 
ATOM     35  C   UNL     1       7.386  -2.345   3.422  1.00  0.00     0.014 A 
ATOM     36  C   UNL     1       9.961  -1.332   3.068  1.00  0.00     0.010 A 
ATOM     37  C   UNL     1       8.029  -1.692   4.475  1.00  0.00     0.010 A 
ATOM     38  C   UNL     1       9.332  -1.200   4.316  1.00  0.00    -0.014 A 
BRANCH  38  39
ATOM     39  C   UNL     1      10.046  -0.593   5.470  1.00  0.00     0.031 A 
ATOM     40  C   UNL     1      10.380  -1.429   6.678  1.00  0.00     0.074 A 
ATOM     41  C   UNL     1      10.371   0.714   5.447  1.00  0.00     0.049 A 
ATOM     42  N   UNL     1      10.984  -1.076   7.785  1.00  0.00    -0.248 NA
ATOM     43  C   UNL     1       9.960  -2.839   6.650  1.00  0.00     0.031 C 
ATOM     44  C   UNL     1      10.067   1.644   4.357  1.00  0.00     0.029 A 
ATOM     45  N   UNL     1      11.029   1.488   6.370  1.00  0.00    -0.354 N 
ATOM     46  C   UNL     1      11.002  -2.212   8.587  1.00  0.00     0.074 A 
ATOM     47  C   UNL     1      10.302  -3.250   7.862  1.00  0.00     0.031 C 
ATOM     48  C   UNL     1      10.559   2.856   4.664  1.00  0.00     0.029 A 
ATOM     49  C   UNL     1      11.187   2.797   5.981  1.00  0.00     0.049 A 
ATOM     50  H   UNL     1      11.357   1.139   7.231  1.00  0.00     0.167 HD
ATOM     51  C   UNL     1      11.568  -2.387   9.806  1.00  0.00     0.031 A 
ATOM     52  C   UNL     1      11.774   3.834   6.610  1.00  0.00     0.031 A 
ATOM     53  C   UNL     1      12.276  -1.360  10.522  1.00  0.00     0.049 A 
ATOM     54  C   UNL     1      12.417   3.613   7.950  1.00  0.00     0.074 A 
ATOM     55  C   UNL     1      12.920  -1.448  11.744  1.00  0.00     0.029 A 
ATOM     56  N   UNL     1      12.440  -0.056  10.077  1.00  0.00    -0.354 N 
ATOM     57  N   UNL     1      12.469   2.516   8.668  1.00  0.00    -0.248 NA
ATOM     58  C   UNL     1      13.102   4.764   8.555  1.00  0.00     0.031 C 
ATOM     59  C   UNL     1      13.443  -0.188  12.055  1.00  0.00     0.029 A 
ATOM     60  C   UNL     1      13.168   0.672  11.003  1.00  0.00     0.049 A 
ATOM     61  H   UNL     1      12.090   0.299   9.228  1.00  0.00     0.167 HD
ATOM     62  C   UNL     1      13.213   2.838   9.798  1.00  0.00     0.074 A 
ATOM     63  C   UNL     1      13.603   4.227   9.659  1.00  0.00     0.031 C 
ATOM     64  C   UNL     1      13.546   2.054  10.852  1.00  0.00     0.031 A 
BRANCH  51  65
ATOM     65  C   UNL     1      11.439  -3.749  10.438  1.00  0.00    -0.014 A 
ATOM     66  C   UNL     1      12.135  -4.856   9.918  1.00  0.00     0.010 A 
ATOM     67  C   UNL     1      10.628  -3.922  11.573  1.00  0.00     0.010 A 
ATOM     68  C   UNL     1      11.981  -6.122  10.490  1.00  0.00     0.020 A 
ATOM     69  C   UNL     1      10.494  -5.182  12.166  1.00  0.00     0.020 A 
ATOM     70  C   UNL     1      11.155  -6.278  11.607  1.00  0.00     0.054 A 
BRANCH  70  71
ATOM     71  S   UNL     1      10.975  -7.930  12.333  1.00  0.00     0.124 S 
ATOM     72  O   UNL     1      10.093  -8.586  11.371  1.00  0.00    -0.237 OA
ATOM     73  O   UNL     1      12.351  -8.422  12.360  1.00  0.00    -0.237 OA
ATOM     74  O   UNL     1      10.385  -7.670  13.644  1.00  0.00    -0.744 OA
ENDBRANCH  70  71
ENDBRANCH  51  65
BRANCH  52  75
ATOM     75  C   UNL     1      11.804   5.171   5.957  1.00  0.00    -0.014 A 
ATOM     76  C   UNL     1      12.999   5.677   5.419  1.00  0.00     0.010 A 
ATOM     77  C   UNL     1      10.627   5.934   5.848  1.00  0.00     0.010 A 
ATOM     78  C   UNL     1      13.022   6.928   4.795  1.00  0.00     0.020 A 
ATOM     79  C   UNL     1      10.640   7.174   5.203  1.00  0.00     0.020 A 
ATOM     80  C   UNL     1      11.840   7.668   4.689  1.00  0.00     0.054 A 
BRANCH  80  81
ATOM     81  S   UNL     1      11.877   9.260   3.819  1.00  0.00     0.124 S 
ATOM     82  O   UNL     1      12.511  10.130   4.805  1.00  0.00    -0.237 OA
ATOM     83  O   UNL     1      12.677   8.956   2.635  1.00  0.00    -0.237 OA
ATOM     84  O   UNL     1      10.467   9.535   3.554  1.00  0.00    -0.744 OA
ENDBRANCH  80  81
ENDBRANCH  52  75
BRANCH  64  85
ATOM     85  C   UNL     1      14.405   2.668  11.925  1.00  0.00    -0.014 A 
ATOM     86  C   UNL     1      13.885   3.616  12.823  1.00  0.00     0.010 A 
ATOM     87  C   UNL     1      15.745   2.260  12.056  1.00  0.00     0.010 A 
ATOM     88  C   UNL     1      14.702   4.174  13.811  1.00  0.00     0.020 A 
ATOM     89  C   UNL     1      16.557   2.796  13.058  1.00  0.00     0.020 A 
ATOM     90  C   UNL     1      16.035   3.764  13.919  1.00  0.00     0.054 A 
BRANCH  90  91
ATOM     91  S   UNL     1      17.069   4.482  15.225  1.00  0.00     0.124 S 
ATOM     92  O   UNL     1      17.367   5.804  14.682  1.00  0.00    -0.237 OA
ATOM     93  O   UNL     1      16.182   4.464  16.386  1.00  0.00    -0.237 OA
ATOM     94  O   UNL     1      18.207   3.569  15.305  1.00  0.00    -0.744 OA
ENDBRANCH  90  91
ENDBRANCH  64  85
ENDBRANCH  38  39
ENDBRANCH  30  33
ENDBRANCH  28  29
ENDBRANCH   1  28
TORSDOF 17
