REMARK SMILES C[C@]12CCC[C@](C)(C(=O)NCCCNC(=O)c3ccc(-c4c5nc(c(-c6ccc(S(=O)(=O)[O-])cc6)c6ccc([nH]6)c(-c6ccc(S(=O)(=O)[O-])cc6)c6nc(c(-c7ccc(S(=O)(=O)[O-])cc7)c7ccc4[nH]7)C=C6)C=C5)cc3)[C@@H]1CC[C@]13C=C(CO)[C@H](CC[C@H]12)C3
REMARK SMILES IDX 12 1 11 2 10 3 8 4 9 5 6 7 1 8 2 9 3 10 77 11 88 12 4 13
REMARK SMILES IDX 78 14 80 15 87 16 5 17 7 18 79 19 81 20 89 21 86 22 82 23
REMARK SMILES IDX 85 24 83 25 84 26 13 28 14 29 15 30 16 32 17 33 18 34 76 35
REMARK SMILES IDX 19 36 75 37 20 38 21 39 22 40 69 41 23 42 74 43 68 44 70 45
REMARK SMILES IDX 24 46 73 47 67 48 66 49 25 51 55 52 36 53 54 54 37 55 40 56
REMARK SMILES IDX 53 57 71 58 38 59 39 60 52 62 72 63 41 64 26 65 27 66 35 67
REMARK SMILES IDX 28 68 34 69 29 70 30 71 31 72 32 73 33 74 56 75 57 76 65 77
REMARK SMILES IDX 58 78 64 79 59 80 60 81 61 82 62 83 63 84 42 85 43 86 51 87
REMARK SMILES IDX 44 88 50 89 45 90 46 91 47 92 48 93 49 94
REMARK H PARENT 10 6 84 27 14 31 70 50 40 61
REMARK Flexibility Score: inf
ROOT
ATOM      1  C   UNL     1       2.969  -5.062  -1.952  1.00  0.00     0.042 C 
ENDROOT
BRANCH   1   2
ATOM      2  C   UNL     1       2.269  -4.300  -0.845  1.00  0.00     0.117 C 
BRANCH   2   3
ATOM      3  N   UNL     1       2.368  -2.883  -1.122  1.00  0.00    -0.356 N 
ATOM      4  C   UNL     1       1.498  -1.990  -1.637  1.00  0.00     0.226 C 
ATOM      5  O   UNL     1       1.976  -1.240  -2.498  1.00  0.00    -0.274 OA
ATOM      6  H   UNL     1       3.241  -2.494  -0.888  1.00  0.00     0.163 HD
BRANCH   4   7
ATOM      7  C   UNL     1       0.094  -1.722  -1.044  1.00  0.00     0.050 C 
ATOM      8  C   UNL     1       2.355  -0.992   0.939  1.00  0.00     0.012 C 
ATOM      9  C   UNL     1       0.861  -0.545   1.169  1.00  0.00    -0.025 C 
ATOM     10  C   UNL     1       0.141  -1.632   1.992  1.00  0.00     0.007 C 
ATOM     11  C   UNL     1       0.089  -0.367  -0.185  1.00  0.00     0.010 C 
ATOM     12  C   UNL     1       0.991   0.762   1.991  1.00  0.00     0.005 C 
ATOM     13  C   UNL     1       0.018  -2.964   1.261  1.00  0.00     0.002 C 
ATOM     14  C   UNL     1       0.481   0.933  -0.937  1.00  0.00     0.006 C 
ATOM     15  C   UNL     1       1.332   2.074   1.189  1.00  0.00    -0.008 C 
ATOM     16  C   UNL     1       0.303   1.114   3.304  1.00  0.00     0.006 C 
ATOM     17  C   UNL     1      -0.540  -2.824  -0.156  1.00  0.00     0.017 C 
ATOM     18  C   UNL     1      -0.786  -1.630  -2.315  1.00  0.00     0.022 C 
ATOM     19  C   UNL     1       0.468   2.200  -0.057  1.00  0.00     0.012 C 
ATOM     20  C   UNL     1       2.821   2.034   1.004  1.00  0.00    -0.018 C 
ATOM     21  C   UNL     1       1.342   3.318   2.119  1.00  0.00     0.019 C 
ATOM     22  C   UNL     1       1.433   1.873   4.113  1.00  0.00     0.008 C 
ATOM     23  C   UNL     1       3.381   2.235   2.217  1.00  0.00    -0.045 C 
ATOM     24  C   UNL     1       2.324   2.812   3.200  1.00  0.00     0.018 C 
BRANCH  23  25
ATOM     25  C   UNL     1       4.805   1.885   2.485  1.00  0.00     0.187 C 
BRANCH  25  26
ATOM     26  O   UNL     1       4.891   0.559   2.990  1.00  0.00    -0.392 OA
ATOM     27  H   UNL     1       4.389   0.494   3.817  1.00  0.00     0.211 HD
ENDBRANCH  25  26
ENDBRANCH  23  25
ENDBRANCH   4   7
ENDBRANCH   2   3
ENDBRANCH   1   2
BRANCH   1  28
ATOM     28  C   UNL     1       4.436  -4.676  -2.080  1.00  0.00     0.118 C 
BRANCH  28  29
ATOM     29  N   UNL     1       5.221  -5.111  -0.929  1.00  0.00    -0.352 N 
ATOM     30  C   UNL     1       6.099  -6.162  -0.863  1.00  0.00     0.251 C 
ATOM     31  H   UNL     1       5.105  -4.588  -0.103  1.00  0.00     0.163 HD
ATOM     32  O   UNL     1       6.480  -6.600   0.223  1.00  0.00    -0.269 OA
BRANCH  30  33
ATOM     33  C   UNL     1       6.562  -6.763  -2.126  1.00  0.00     0.039 A 
ATOM     34  C   UNL     1       6.549  -8.147  -2.287  1.00  0.00     0.014 A 
ATOM     35  C   UNL     1       6.941  -5.925  -3.178  1.00  0.00     0.014 A 
ATOM     36  C   UNL     1       6.875  -8.688  -3.530  1.00  0.00     0.010 A 
ATOM     37  C   UNL     1       7.124  -6.456  -4.443  1.00  0.00     0.010 A 
ATOM     38  C   UNL     1       7.137  -7.845  -4.624  1.00  0.00    -0.014 A 
BRANCH  38  39
ATOM     39  C   UNL     1       7.511  -8.381  -5.954  1.00  0.00     0.031 A 
ATOM     40  C   UNL     1       8.854  -8.019  -6.537  1.00  0.00     0.074 A 
ATOM     41  C   UNL     1       6.638  -9.132  -6.652  1.00  0.00     0.049 A 
ATOM     42  N   UNL     1       9.353  -8.319  -7.707  1.00  0.00    -0.248 NA
ATOM     43  C   UNL     1       9.739  -7.177  -5.710  1.00  0.00     0.031 C 
ATOM     44  C   UNL     1       5.293  -9.508  -6.210  1.00  0.00     0.029 A 
ATOM     45  N   UNL     1       6.755  -9.716  -7.888  1.00  0.00    -0.354 N 
ATOM     46  C   UNL     1      10.590  -7.685  -7.761  1.00  0.00     0.074 A 
ATOM     47  C   UNL     1      10.734  -6.923  -6.543  1.00  0.00     0.031 C 
ATOM     48  C   UNL     1       4.727 -10.293  -7.142  1.00  0.00     0.029 A 
ATOM     49  C   UNL     1       5.647 -10.438  -8.265  1.00  0.00     0.049 A 
ATOM     50  H   UNL     1       7.557  -9.626  -8.452  1.00  0.00     0.167 HD
ATOM     51  C   UNL     1      11.539  -7.758  -8.722  1.00  0.00     0.031 A 
ATOM     52  C   UNL     1       5.404 -11.136  -9.391  1.00  0.00     0.031 A 
ATOM     53  C   UNL     1      11.399  -8.541  -9.918  1.00  0.00     0.049 A 
ATOM     54  C   UNL     1       6.473 -11.198 -10.450  1.00  0.00     0.074 A 
ATOM     55  C   UNL     1      12.317  -8.730 -10.934  1.00  0.00     0.029 A 
ATOM     56  N   UNL     1      10.267  -9.268 -10.255  1.00  0.00    -0.354 N 
ATOM     57  N   UNL     1       7.662 -10.643 -10.455  1.00  0.00    -0.248 NA
ATOM     58  C   UNL     1       6.174 -11.995 -11.646  1.00  0.00     0.031 C 
ATOM     59  C   UNL     1      11.720  -9.529 -11.913  1.00  0.00     0.029 A 
ATOM     60  C   UNL     1      10.456  -9.894 -11.473  1.00  0.00     0.049 A 
ATOM     61  H   UNL     1       9.451  -9.330  -9.708  1.00  0.00     0.167 HD
ATOM     62  C   UNL     1       8.267 -11.055 -11.638  1.00  0.00     0.074 A 
ATOM     63  C   UNL     1       7.317 -11.915 -12.314  1.00  0.00     0.031 C 
ATOM     64  C   UNL     1       9.498 -10.754 -12.121  1.00  0.00     0.031 A 
BRANCH  51  65
ATOM     65  C   UNL     1      12.810  -6.977  -8.508  1.00  0.00    -0.014 A 
ATOM     66  C   UNL     1      13.715  -7.323  -7.487  1.00  0.00     0.010 A 
ATOM     67  C   UNL     1      13.119  -5.899  -9.357  1.00  0.00     0.010 A 
ATOM     68  C   UNL     1      14.883  -6.582  -7.293  1.00  0.00     0.020 A 
ATOM     69  C   UNL     1      14.304  -5.176  -9.189  1.00  0.00     0.020 A 
ATOM     70  C   UNL     1      15.171  -5.513  -8.147  1.00  0.00     0.054 A 
BRANCH  70  71
ATOM     71  S   UNL     1      16.712  -4.593  -7.893  1.00  0.00     0.124 S 
ATOM     72  O   UNL     1      16.430  -3.867  -6.657  1.00  0.00    -0.237 OA
ATOM     73  O   UNL     1      17.705  -5.658  -7.783  1.00  0.00    -0.237 OA
ATOM     74  O   UNL     1      16.823  -3.763  -9.090  1.00  0.00    -0.744 OA
ENDBRANCH  70  71
ENDBRANCH  51  65
BRANCH  52  75
ATOM     75  C   UNL     1       4.110 -11.852  -9.564  1.00  0.00    -0.014 A 
ATOM     76  C   UNL     1       4.065 -13.258  -9.568  1.00  0.00     0.010 A 
ATOM     77  C   UNL     1       2.911 -11.133  -9.724  1.00  0.00     0.010 A 
ATOM     78  C   UNL     1       2.854 -13.930  -9.758  1.00  0.00     0.020 A 
ATOM     79  C   UNL     1       1.693 -11.801  -9.883  1.00  0.00     0.020 A 
ATOM     80  C   UNL     1       1.675 -13.196  -9.914  1.00  0.00     0.054 A 
BRANCH  80  81
ATOM     81  S   UNL     1       0.110 -14.091 -10.125  1.00  0.00     0.124 S 
ATOM     82  O   UNL     1       0.246 -14.627 -11.475  1.00  0.00    -0.237 OA
ATOM     83  O   UNL     1       0.161 -15.073  -9.044  1.00  0.00    -0.237 OA
ATOM     84  O   UNL     1      -0.903 -13.050  -9.963  1.00  0.00    -0.744 OA
ENDBRANCH  80  81
ENDBRANCH  52  75
BRANCH  64  85
ATOM     85  C   UNL     1       9.913 -11.401 -13.416  1.00  0.00    -0.014 A 
ATOM     86  C   UNL     1       9.337 -11.027 -14.642  1.00  0.00     0.010 A 
ATOM     87  C   UNL     1      10.945 -12.358 -13.405  1.00  0.00     0.010 A 
ATOM     88  C   UNL     1       9.761 -11.626 -15.831  1.00  0.00     0.020 A 
ATOM     89  C   UNL     1      11.395 -12.933 -14.594  1.00  0.00     0.020 A 
ATOM     90  C   UNL     1      10.789 -12.575 -15.799  1.00  0.00     0.054 A 
BRANCH  90  91
ATOM     91  S   UNL     1      11.350 -13.305 -17.360  1.00  0.00     0.124 S 
ATOM     92  O   UNL     1      10.233 -14.181 -17.704  1.00  0.00    -0.237 OA
ATOM     93  O   UNL     1      11.519 -12.135 -18.218  1.00  0.00    -0.237 OA
ATOM     94  O   UNL     1      12.589 -13.989 -16.998  1.00  0.00    -0.744 OA
ENDBRANCH  90  91
ENDBRANCH  64  85
ENDBRANCH  38  39
ENDBRANCH  30  33
ENDBRANCH  28  29
ENDBRANCH   1  28
TORSDOF 15
