REMARK SMILES O=C(NCCCNC(=O)c1ccc(N[C@@H]2CCCS(=O)(=O)C2)c(F)c1F)c1ccc(-c2c3nc(c(-c4ccc(S(=O)(=O)[O-])cc4)c4ccc([nH]4)c(-c4ccc(S(=O)(=O)[O-])cc4)c4nc(c(-c5ccc(S(=O)(=O)[O-])cc5)c5ccc2[nH]5)C=C4)C=C3)cc1
REMARK SMILES IDX 4 1 3 2 1 3 2 4 27 6 28 7 86 8 29 9 85 10 30 11 31 12 32 13
REMARK SMILES IDX 79 14 33 15 84 16 78 17 80 18 34 19 83 20 77 21 76 22 35 24
REMARK SMILES IDX 65 25 46 26 64 27 47 28 50 29 63 30 81 31 48 32 49 33 62 35
REMARK SMILES IDX 82 36 51 37 36 38 37 39 45 40 38 41 44 42 39 43 40 44 41 45
REMARK SMILES IDX 42 46 43 47 66 48 67 49 75 50 68 51 74 52 69 53 70 54 71 55
REMARK SMILES IDX 72 56 73 57 52 58 53 59 61 60 54 61 60 62 55 63 56 64 57 65
REMARK SMILES IDX 58 66 59 67 5 68 6 69 7 70 8 71 9 73 10 74 11 75 25 76 12 77
REMARK SMILES IDX 23 78 26 79 13 80 24 81 14 82 15 84 16 85 22 86 17 87 19 88
REMARK SMILES IDX 18 89 20 90 21 91
REMARK H PARENT 3 5 80 23 50 34 7 72 14 83
REMARK Flexibility Score: inf
ROOT
ATOM      1  C   UNL     1       4.627  -0.487  -1.237  1.00  0.00     0.118 C 
ENDROOT
BRANCH   1   2
ATOM      2  N   UNL     1       3.187  -0.312  -1.084  1.00  0.00    -0.352 N 
ATOM      3  O   UNL     1       1.223  -0.026  -0.023  1.00  0.00    -0.269 OA
ATOM      4  C   UNL     1       2.447   0.046   0.020  1.00  0.00     0.251 C 
ATOM      5  H   UNL     1       2.661  -0.477  -1.899  1.00  0.00     0.163 HD
BRANCH   4   6
ATOM      6  C   UNL     1       3.127   0.482   1.259  1.00  0.00     0.039 A 
ATOM      7  C   UNL     1       4.247   1.310   1.198  1.00  0.00     0.014 A 
ATOM      8  C   UNL     1       2.646   0.053   2.499  1.00  0.00     0.014 A 
ATOM      9  C   UNL     1       5.005   1.529   2.339  1.00  0.00     0.010 A 
ATOM     10  C   UNL     1       3.340   0.389   3.667  1.00  0.00     0.010 A 
ATOM     11  C   UNL     1       4.552   1.092   3.593  1.00  0.00    -0.014 A 
BRANCH  11  12
ATOM     12  C   UNL     1       5.341   1.443   4.803  1.00  0.00     0.031 A 
ATOM     13  C   UNL     1       5.941   0.381   5.685  1.00  0.00     0.074 A 
ATOM     14  C   UNL     1       5.556   2.747   5.071  1.00  0.00     0.049 A 
ATOM     15  N   UNL     1       6.702   0.526   6.740  1.00  0.00    -0.248 NA
ATOM     16  C   UNL     1       5.647  -1.021   5.349  1.00  0.00     0.031 C 
ATOM     17  C   UNL     1       5.026   3.868   4.287  1.00  0.00     0.029 A 
ATOM     18  N   UNL     1       6.300   3.354   6.049  1.00  0.00    -0.354 N 
ATOM     19  C   UNL     1       6.956  -0.757   7.211  1.00  0.00     0.074 A 
ATOM     20  C   UNL     1       6.247  -1.669   6.339  1.00  0.00     0.031 C 
ATOM     21  C   UNL     1       5.522   5.016   4.767  1.00  0.00     0.029 A 
ATOM     22  C   UNL     1       6.333   4.724   5.941  1.00  0.00     0.049 A 
ATOM     23  H   UNL     1       6.765   2.857   6.761  1.00  0.00     0.167 HD
ATOM     24  C   UNL     1       7.712  -1.140   8.269  1.00  0.00     0.031 A 
ATOM     25  C   UNL     1       6.937   5.651   6.707  1.00  0.00     0.031 A 
ATOM     26  C   UNL     1       8.413  -0.224   9.133  1.00  0.00     0.049 A 
ATOM     27  C   UNL     1       7.734   5.201   7.895  1.00  0.00     0.074 A 
ATOM     28  C   UNL     1       9.232  -0.513  10.212  1.00  0.00     0.029 A 
ATOM     29  N   UNL     1       8.373   1.159   9.025  1.00  0.00    -0.354 N 
ATOM     30  N   UNL     1       7.988   3.980   8.302  1.00  0.00    -0.248 NA
ATOM     31  C   UNL     1       8.326   6.255   8.728  1.00  0.00     0.031 C 
ATOM     32  C   UNL     1       9.634   0.694  10.793  1.00  0.00     0.029 A 
ATOM     33  C   UNL     1       9.126   1.737  10.036  1.00  0.00     0.049 A 
ATOM     34  H   UNL     1       7.883   1.657   8.332  1.00  0.00     0.167 HD
ATOM     35  C   UNL     1       8.791   4.118   9.427  1.00  0.00     0.074 A 
ATOM     36  C   UNL     1       8.995   5.540   9.622  1.00  0.00     0.031 C 
ATOM     37  C   UNL     1       9.313   3.154  10.224  1.00  0.00     0.031 A 
BRANCH  24  38
ATOM     38  C   UNL     1       7.788  -2.615   8.580  1.00  0.00    -0.014 A 
ATOM     39  C   UNL     1       8.474  -3.510   7.739  1.00  0.00     0.010 A 
ATOM     40  C   UNL     1       7.191  -3.107   9.756  1.00  0.00     0.010 A 
ATOM     41  C   UNL     1       8.519  -4.875   8.044  1.00  0.00     0.020 A 
ATOM     42  C   UNL     1       7.260  -4.465  10.080  1.00  0.00     0.020 A 
ATOM     43  C   UNL     1       7.907  -5.345   9.210  1.00  0.00     0.054 A 
BRANCH  43  44
ATOM     44  S   UNL     1       7.984  -7.119   9.581  1.00  0.00     0.124 S 
ATOM     45  O   UNL     1       7.068  -7.673   8.588  1.00  0.00    -0.237 OA
ATOM     46  O   UNL     1       9.397  -7.428   9.374  1.00  0.00    -0.237 OA
ATOM     47  O   UNL     1       7.528  -7.205  10.966  1.00  0.00    -0.744 OA
ENDBRANCH  43  44
ENDBRANCH  24  38
BRANCH  25  48
ATOM     48  C   UNL     1       6.799   7.094   6.369  1.00  0.00    -0.014 A 
ATOM     49  C   UNL     1       7.906   7.832   5.917  1.00  0.00     0.010 A 
ATOM     50  C   UNL     1       5.548   7.730   6.473  1.00  0.00     0.010 A 
ATOM     51  C   UNL     1       7.768   9.183   5.590  1.00  0.00     0.020 A 
ATOM     52  C   UNL     1       5.399   9.072   6.114  1.00  0.00     0.020 A 
ATOM     53  C   UNL     1       6.514   9.794   5.687  1.00  0.00     0.054 A 
BRANCH  53  54
ATOM     54  S   UNL     1       6.349  11.535   5.209  1.00  0.00     0.124 S 
ATOM     55  O   UNL     1       7.014  12.217   6.315  1.00  0.00    -0.237 OA
ATOM     56  O   UNL     1       7.048  11.577   3.927  1.00  0.00    -0.237 OA
ATOM     57  O   UNL     1       4.904  11.733   5.129  1.00  0.00    -0.744 OA
ENDBRANCH  53  54
ENDBRANCH  25  48
BRANCH  37  58
ATOM     58  C   UNL     1      10.190   3.608  11.362  1.00  0.00    -0.014 A 
ATOM     59  C   UNL     1       9.654   4.270  12.481  1.00  0.00     0.010 A 
ATOM     60  C   UNL     1      11.570   3.341  11.319  1.00  0.00     0.010 A 
ATOM     61  C   UNL     1      10.491   4.695  13.517  1.00  0.00     0.020 A 
ATOM     62  C   UNL     1      12.405   3.736  12.367  1.00  0.00     0.020 A 
ATOM     63  C   UNL     1      11.862   4.427  13.452  1.00  0.00     0.054 A 
BRANCH  63  64
ATOM     64  S   UNL     1      12.922   4.963  14.821  1.00  0.00     0.124 S 
ATOM     65  O   UNL     1      12.980   6.407  14.613  1.00  0.00    -0.237 OA
ATOM     66  O   UNL     1      12.173   4.527  15.997  1.00  0.00    -0.237 OA
ATOM     67  O   UNL     1      14.176   4.249  14.589  1.00  0.00    -0.744 OA
ENDBRANCH  63  64
ENDBRANCH  37  58
ENDBRANCH  11  12
ENDBRANCH   4   6
ENDBRANCH   1   2
BRANCH   1  68
ATOM     68  C   UNL     1       5.025  -1.929  -1.491  1.00  0.00     0.042 C 
BRANCH  68  69
ATOM     69  C   UNL     1       4.523  -2.469  -2.816  1.00  0.00     0.118 C 
BRANCH  69  70
ATOM     70  N   UNL     1       5.084  -1.762  -3.965  1.00  0.00    -0.352 N 
ATOM     71  C   UNL     1       5.930  -2.210  -4.952  1.00  0.00     0.254 C 
ATOM     72  H   UNL     1       4.814  -0.818  -4.044  1.00  0.00     0.163 HD
ATOM     73  O   UNL     1       6.374  -1.437  -5.792  1.00  0.00    -0.269 OA
BRANCH  71  74
ATOM     74  C   UNL     1       6.252  -3.641  -5.018  1.00  0.00     0.078 A 
ATOM     75  C   UNL     1       5.213  -4.569  -4.979  1.00  0.00     0.019 A 
ATOM     76  C   UNL     1       7.567  -4.078  -5.089  1.00  0.00     0.173 A 
ATOM     77  C   UNL     1       5.500  -5.925  -4.854  1.00  0.00     0.030 A 
ATOM     78  C   UNL     1       7.837  -5.445  -5.031  1.00  0.00     0.182 A 
ATOM     79  F   UNL     1       8.584  -3.208  -5.163  1.00  0.00    -0.203 F 
ATOM     80  C   UNL     1       6.814  -6.402  -4.871  1.00  0.00     0.074 A 
ATOM     81  F   UNL     1       9.114  -5.863  -5.082  1.00  0.00    -0.201 F 
BRANCH  80  82
ATOM     82  N   UNL     1       7.140  -7.744  -4.734  1.00  0.00    -0.379 N 
ATOM     83  H   UNL     1       8.075  -7.984  -4.927  1.00  0.00     0.160 HD
BRANCH  82  84
ATOM     84  C   UNL     1       6.258  -8.851  -4.336  1.00  0.00     0.094 C 
ATOM     85  C   UNL     1       5.237  -9.140  -5.460  1.00  0.00     0.027 C 
ATOM     86  C   UNL     1       5.729  -8.621  -2.921  1.00  0.00     0.161 C 
ATOM     87  C   UNL     1       4.123 -10.121  -5.111  1.00  0.00     0.018 C 
ATOM     88  S   UNL     1       4.522  -9.822  -2.451  1.00  0.00     0.152 S 
ATOM     89  C   UNL     1       3.404  -9.752  -3.828  1.00  0.00     0.137 C 
ATOM     90  O   UNL     1       3.815  -9.320  -1.292  1.00  0.00    -0.229 OA
ATOM     91  O   UNL     1       5.151 -11.129  -2.443  1.00  0.00    -0.229 OA
ENDBRANCH  82  84
ENDBRANCH  80  82
ENDBRANCH  71  74
ENDBRANCH  69  70
ENDBRANCH  68  69
ENDBRANCH   1  68
TORSDOF 15
