REMARK SMILES Cc1c(CC(=O)NCCCNC(=O)c2ccc(-c3c4nc(c(-c5ccc(S(=O)(=O)[O-])cc5)c5ccc([nH]5)c(-c5ccc(S(=O)(=O)[O-])cc5)c5nc(c(-c6ccc(S(=O)(=O)[O-])cc6)c6ccc3[nH]6)C=C5)C=C4)cc2)cc(-c2ccccc2)cc1-c1ccccc1
REMARK SMILES IDX 9 1 8 2 7 3 5 4 6 5 4 7 3 8 1 9 2 10 83 11 74 12 82 13 75 14
REMARK SMILES IDX 84 15 85 16 89 17 86 18 88 19 87 20 76 21 77 22 81 23 78 24
REMARK SMILES IDX 80 25 79 26 10 27 11 28 12 29 13 31 14 32 15 33 73 34 16 35
REMARK SMILES IDX 72 36 17 37 18 38 19 39 66 40 20 41 71 42 65 43 67 44 21 45
REMARK SMILES IDX 70 46 64 47 63 48 22 50 52 51 33 52 51 53 34 54 37 55 50 56
REMARK SMILES IDX 68 57 35 58 36 59 49 61 69 62 38 63 23 64 24 65 32 66 25 67
REMARK SMILES IDX 31 68 26 69 27 70 28 71 29 72 30 73 53 74 54 75 62 76 55 77
REMARK SMILES IDX 61 78 56 79 57 80 58 81 59 82 60 83 39 84 40 85 48 86 41 87
REMARK SMILES IDX 47 88 42 89 43 90 44 91 45 92 46 93
REMARK H PARENT 7 6 11 30 67 49 37 60
REMARK Flexibility Score: inf
ROOT
ATOM      1  C   UNL     1       1.392  -0.502   3.043  1.00  0.00     0.042 C 
ENDROOT
BRANCH   1   2
ATOM      2  C   UNL     1       2.077  -1.847   2.820  1.00  0.00     0.117 C 
BRANCH   2   3
ATOM      3  N   UNL     1       1.146  -2.908   2.458  1.00  0.00    -0.356 N 
ATOM      4  C   UNL     1       0.679  -3.274   1.227  1.00  0.00     0.224 C 
ATOM      5  O   UNL     1      -0.088  -4.237   1.144  1.00  0.00    -0.275 OA
ATOM      6  H   UNL     1       0.801  -3.439   3.212  1.00  0.00     0.163 HD
BRANCH   4   7
ATOM      7  C   UNL     1       1.105  -2.515  -0.027  1.00  0.00     0.135 C 
BRANCH   7   8
ATOM      8  C   UNL     1       0.403  -1.178  -0.197  1.00  0.00    -0.035 A 
ATOM      9  C   UNL     1       2.594   0.107  -0.421  1.00  0.00     0.045 C 
ATOM     10  C   UNL     1       1.087   0.059  -0.306  1.00  0.00    -0.040 A 
ATOM     11  C   UNL     1       0.335   1.265  -0.326  1.00  0.00    -0.015 A 
ATOM     12  C   UNL     1      -1.010  -1.190  -0.191  1.00  0.00     0.013 A 
ATOM     13  C   UNL     1      -1.073   1.201  -0.289  1.00  0.00     0.017 A 
ATOM     14  C   UNL     1      -1.767  -0.014  -0.238  1.00  0.00    -0.017 A 
BRANCH  11  15
ATOM     15  C   UNL     1       0.964   2.599  -0.307  1.00  0.00    -0.018 A 
ATOM     16  C   UNL     1       0.861   3.412   0.836  1.00  0.00     0.009 A 
ATOM     17  C   UNL     1       1.691   3.085  -1.405  1.00  0.00     0.009 A 
ATOM     18  C   UNL     1       1.475   4.664   0.885  1.00  0.00     0.001 A 
ATOM     19  C   UNL     1       2.316   4.334  -1.352  1.00  0.00     0.001 A 
ATOM     20  C   UNL     1       2.207   5.122  -0.208  1.00  0.00     0.000 A 
ENDBRANCH  11  15
BRANCH  14  21
ATOM     21  C   UNL     1      -3.239  -0.049  -0.215  1.00  0.00    -0.018 A 
ATOM     22  C   UNL     1      -3.936  -0.727   0.799  1.00  0.00     0.009 A 
ATOM     23  C   UNL     1      -3.990   0.596  -1.212  1.00  0.00     0.009 A 
ATOM     24  C   UNL     1      -5.333  -0.762   0.813  1.00  0.00     0.001 A 
ATOM     25  C   UNL     1      -5.387   0.559  -1.202  1.00  0.00     0.001 A 
ATOM     26  C   UNL     1      -6.058  -0.121  -0.189  1.00  0.00     0.000 A 
ENDBRANCH  14  21
ENDBRANCH   7   8
ENDBRANCH   4   7
ENDBRANCH   2   3
ENDBRANCH   1   2
BRANCH   1  27
ATOM     27  C   UNL     1       0.789  -0.363   4.432  1.00  0.00     0.118 C 
BRANCH  27  28
ATOM     28  N   UNL     1       1.421   0.682   5.226  1.00  0.00    -0.352 N 
ATOM     29  C   UNL     1       0.917   1.251   6.383  1.00  0.00     0.251 C 
ATOM     30  H   UNL     1       2.291   1.015   4.909  1.00  0.00     0.163 HD
ATOM     31  O   UNL     1       1.261   2.343   6.799  1.00  0.00    -0.269 OA
BRANCH  29  32
ATOM     32  C   UNL     1       0.054   0.372   7.197  1.00  0.00     0.039 A 
ATOM     33  C   UNL     1       0.643  -0.224   8.319  1.00  0.00     0.014 A 
ATOM     34  C   UNL     1      -1.154  -0.086   6.681  1.00  0.00     0.014 A 
ATOM     35  C   UNL     1       0.096  -1.394   8.835  1.00  0.00     0.010 A 
ATOM     36  C   UNL     1      -1.636  -1.299   7.133  1.00  0.00     0.010 A 
ATOM     37  C   UNL     1      -0.990  -1.974   8.181  1.00  0.00    -0.014 A 
BRANCH  37  38
ATOM     38  C   UNL     1      -1.488  -3.313   8.472  1.00  0.00     0.031 A 
ATOM     39  C   UNL     1      -2.773  -3.479   9.192  1.00  0.00     0.074 A 
ATOM     40  C   UNL     1      -0.836  -4.403   8.010  1.00  0.00     0.049 A 
ATOM     41  N   UNL     1      -3.129  -4.547   9.825  1.00  0.00    -0.248 NA
ATOM     42  C   UNL     1      -3.751  -2.400   9.297  1.00  0.00     0.031 C 
ATOM     43  C   UNL     1      -1.367  -5.761   7.921  1.00  0.00     0.029 A 
ATOM     44  N   UNL     1       0.523  -4.555   7.727  1.00  0.00    -0.354 N 
ATOM     45  C   UNL     1      -4.464  -4.415  10.140  1.00  0.00     0.074 A 
ATOM     46  C   UNL     1      -4.778  -3.031   9.870  1.00  0.00     0.031 C 
ATOM     47  C   UNL     1      -0.339  -6.623   7.918  1.00  0.00     0.029 A 
ATOM     48  C   UNL     1       0.869  -5.850   8.150  1.00  0.00     0.049 A 
ATOM     49  H   UNL     1       1.119  -3.889   7.314  1.00  0.00     0.167 HD
ATOM     50  C   UNL     1      -5.202  -5.518  10.452  1.00  0.00     0.031 A 
ATOM     51  C   UNL     1       1.812  -6.128   9.097  1.00  0.00     0.031 A 
ATOM     52  C   UNL     1      -4.377  -6.721  10.524  1.00  0.00     0.049 A 
ATOM     53  C   UNL     1       1.268  -6.937  10.256  1.00  0.00     0.074 A 
ATOM     54  C   UNL     1      -4.150  -7.765   9.641  1.00  0.00     0.029 A 
ATOM     55  N   UNL     1      -3.413  -6.828  11.518  1.00  0.00    -0.354 N 
ATOM     56  N   UNL     1      -0.004  -7.101  10.491  1.00  0.00    -0.248 NA
ATOM     57  C   UNL     1       2.103  -7.583  11.266  1.00  0.00     0.031 C 
ATOM     58  C   UNL     1      -2.987  -8.456  10.071  1.00  0.00     0.029 A 
ATOM     59  C   UNL     1      -2.530  -7.849  11.227  1.00  0.00     0.049 A 
ATOM     60  H   UNL     1      -3.367  -6.256  12.318  1.00  0.00     0.167 HD
ATOM     61  C   UNL     1      -0.175  -7.835  11.635  1.00  0.00     0.074 A 
ATOM     62  C   UNL     1       1.177  -8.125  12.078  1.00  0.00     0.031 C 
ATOM     63  C   UNL     1      -1.415  -8.131  12.123  1.00  0.00     0.031 A 
BRANCH  50  64
ATOM     64  C   UNL     1      -6.716  -5.545  10.393  1.00  0.00    -0.014 A 
ATOM     65  C   UNL     1      -7.379  -6.748  10.073  1.00  0.00     0.010 A 
ATOM     66  C   UNL     1      -7.538  -4.417  10.574  1.00  0.00     0.010 A 
ATOM     67  C   UNL     1      -8.761  -6.797   9.832  1.00  0.00     0.020 A 
ATOM     68  C   UNL     1      -8.914  -4.440  10.298  1.00  0.00     0.020 A 
ATOM     69  C   UNL     1      -9.517  -5.631   9.912  1.00  0.00     0.054 A 
BRANCH  69  70
ATOM     70  S   UNL     1     -11.280  -5.687   9.499  1.00  0.00     0.124 S 
ATOM     71  O   UNL     1     -11.271  -6.245   8.149  1.00  0.00    -0.237 OA
ATOM     72  O   UNL     1     -11.819  -6.558  10.539  1.00  0.00    -0.237 OA
ATOM     73  O   UNL     1     -11.700  -4.289   9.582  1.00  0.00    -0.744 OA
ENDBRANCH  69  70
ENDBRANCH  50  64
BRANCH  51  74
ATOM     74  C   UNL     1       2.905  -5.121   9.187  1.00  0.00    -0.014 A 
ATOM     75  C   UNL     1       3.816  -5.066   8.110  1.00  0.00     0.010 A 
ATOM     76  C   UNL     1       2.764  -3.996  10.018  1.00  0.00     0.010 A 
ATOM     77  C   UNL     1       4.419  -3.858   7.752  1.00  0.00     0.020 A 
ATOM     78  C   UNL     1       3.374  -2.784   9.663  1.00  0.00     0.020 A 
ATOM     79  C   UNL     1       4.131  -2.709   8.489  1.00  0.00     0.054 A 
BRANCH  79  80
ATOM     80  S   UNL     1       4.599  -1.100   7.780  1.00  0.00     0.124 S 
ATOM     81  O   UNL     1       6.034  -1.257   7.561  1.00  0.00    -0.237 OA
ATOM     82  O   UNL     1       3.782  -1.049   6.566  1.00  0.00    -0.237 OA
ATOM     83  O   UNL     1       4.220  -0.152   8.822  1.00  0.00    -0.744 OA
ENDBRANCH  79  80
ENDBRANCH  51  74
BRANCH  63  84
ATOM     84  C   UNL     1      -1.720  -8.775  13.454  1.00  0.00    -0.014 A 
ATOM     85  C   UNL     1      -0.874  -8.717  14.571  1.00  0.00     0.010 A 
ATOM     86  C   UNL     1      -2.995  -9.365  13.645  1.00  0.00     0.010 A 
ATOM     87  C   UNL     1      -1.258  -9.268  15.804  1.00  0.00     0.020 A 
ATOM     88  C   UNL     1      -3.403  -9.878  14.879  1.00  0.00     0.020 A 
ATOM     89  C   UNL     1      -2.519  -9.847  15.950  1.00  0.00     0.054 A 
BRANCH  89  90
ATOM     90  S   UNL     1      -3.039 -10.486  17.562  1.00  0.00     0.124 S 
ATOM     91  O   UNL     1      -2.591 -11.874  17.495  1.00  0.00    -0.237 OA
ATOM     92  O   UNL     1      -2.311  -9.639  18.505  1.00  0.00    -0.237 OA
ATOM     93  O   UNL     1      -4.487 -10.292  17.555  1.00  0.00    -0.744 OA
ENDBRANCH  89  90
ENDBRANCH  63  84
ENDBRANCH  37  38
ENDBRANCH  29  32
ENDBRANCH  27  28
ENDBRANCH   1  27
TORSDOF 16
