REMARK SMILES CC(C)(C)c1nnsc1C(=O)N[C@](C)(C(=O)NCCCNC(=O)c1ccc(-c2c3nc(c(-c4ccc(S(=O)(=O)[O-])cc4)c4ccc([nH]4)c(-c4ccc(S(=O)(=O)[O-])cc4)c4nc(c(-c5ccc(S(=O)(=O)[O-])cc5)c5ccc2[nH]5)C=C4)C=C3)cc1)C(F)(F)F
REMARK SMILES IDX 19 1 18 2 17 3 15 4 16 5 13 7 14 8 12 9 10 10 11 11 9 13
REMARK SMILES IDX 5 14 6 15 7 16 8 17 2 18 1 19 3 20 4 21 84 22 85 23 86 24
REMARK SMILES IDX 87 25 20 26 21 27 22 28 23 30 24 31 25 32 83 33 26 34 82 35
REMARK SMILES IDX 27 36 28 37 29 38 76 39 30 40 81 41 75 42 77 43 31 44 80 45
REMARK SMILES IDX 74 46 73 47 32 49 62 50 43 51 61 52 44 53 47 54 60 55 78 56
REMARK SMILES IDX 45 57 46 58 59 60 79 61 48 62 33 63 34 64 42 65 35 66 41 67
REMARK SMILES IDX 36 68 37 69 38 70 39 71 40 72 63 73 64 74 72 75 65 76 71 77
REMARK SMILES IDX 66 78 67 79 68 80 69 81 70 82 49 83 50 84 58 85 51 86 57 87
REMARK SMILES IDX 52 88 53 89 54 90 55 91 56 92
REMARK H PARENT 17 6 12 12 21 29 77 48 47 59
REMARK Flexibility Score: inf
ROOT
ATOM      1  C   UNL     1       0.159   4.592   0.785  1.00  0.00     0.042 C 
ENDROOT
BRANCH   1   2
ATOM      2  C   UNL     1       0.548   3.568   1.859  1.00  0.00     0.117 C 
BRANCH   2   3
ATOM      3  N   UNL     1      -0.471   2.568   2.115  1.00  0.00    -0.354 N 
ATOM      4  C   UNL     1      -0.770   1.361   1.570  1.00  0.00     0.254 C 
ATOM      5  O   UNL     1      -1.948   1.029   1.755  1.00  0.00    -0.272 OA
ATOM      6  H   UNL     1      -1.081   2.820   2.845  1.00  0.00     0.163 HD
BRANCH   4   7
ATOM      7  C   UNL     1       0.151   0.594   0.573  1.00  0.00     0.212 C 
ATOM      8  C   UNL     1       0.038   1.478  -0.692  1.00  0.00     0.056 C 
BRANCH   7   9
ATOM      9  N   UNL     1       1.589   0.543   0.990  1.00  0.00    -0.330 N 
ATOM     10  C   UNL     1       2.799  -0.029   0.662  1.00  0.00     0.266 C 
ATOM     11  O   UNL     1       3.579   0.283   1.584  1.00  0.00    -0.268 OA
ATOM     12  H   UNL     1       1.714   1.124   1.776  1.00  0.00     0.165 HD
BRANCH  10  13
ATOM     13  C   UNL     1       3.292  -0.884  -0.448  1.00  0.00     0.137 A 
ATOM     14  C   UNL     1       3.094  -1.382  -1.766  1.00  0.00     0.094 A 
ATOM     15  N   UNL     1       4.163  -2.153  -2.268  1.00  0.00    -0.142 NA
ATOM     16  N   UNL     1       5.140  -2.330  -1.421  1.00  0.00    -0.090 NA
ATOM     17  S   UNL     1       4.869  -1.593   0.019  1.00  0.00    -0.006 S 
BRANCH  14  18
ATOM     18  C   UNL     1       2.027  -1.214  -2.860  1.00  0.00     0.008 C 
ATOM     19  C   UNL     1       0.634  -1.262  -2.295  1.00  0.00     0.018 C 
ATOM     20  C   UNL     1       2.008  -2.393  -3.872  1.00  0.00     0.018 C 
ATOM     21  C   UNL     1       2.291   0.089  -3.639  1.00  0.00     0.018 C 
ENDBRANCH  14  18
ENDBRANCH  10  13
ENDBRANCH   7   9
BRANCH   7  22
ATOM     22  C   UNL     1      -0.484  -0.834   0.617  1.00  0.00     0.420 C 
ATOM     23  F   UNL     1      -1.516  -0.969  -0.242  1.00  0.00    -0.168 F 
ATOM     24  F   UNL     1       0.432  -1.791   0.299  1.00  0.00    -0.168 F 
ATOM     25  F   UNL     1      -0.896  -1.205   1.853  1.00  0.00    -0.168 F 
ENDBRANCH   7  22
ENDBRANCH   4   7
ENDBRANCH   2   3
ENDBRANCH   1   2
BRANCH   1  26
ATOM     26  C   UNL     1      -1.282   5.096   0.837  1.00  0.00     0.118 C 
BRANCH  26  27
ATOM     27  N   UNL     1      -1.586   5.752   2.097  1.00  0.00    -0.352 N 
ATOM     28  C   UNL     1      -1.649   7.089   2.385  1.00  0.00     0.251 C 
ATOM     29  H   UNL     1      -1.774   5.149   2.852  1.00  0.00     0.163 HD
ATOM     30  O   UNL     1      -1.606   7.455   3.564  1.00  0.00    -0.269 OA
BRANCH  28  31
ATOM     31  C   UNL     1      -1.760   8.088   1.304  1.00  0.00     0.039 A 
ATOM     32  C   UNL     1      -0.989   9.251   1.368  1.00  0.00     0.014 A 
ATOM     33  C   UNL     1      -2.660   7.900   0.250  1.00  0.00     0.014 A 
ATOM     34  C   UNL     1      -1.081  10.200   0.348  1.00  0.00     0.010 A 
ATOM     35  C   UNL     1      -2.701   8.814  -0.800  1.00  0.00     0.010 A 
ATOM     36  C   UNL     1      -1.916   9.976  -0.759  1.00  0.00    -0.014 A 
BRANCH  36  37
ATOM     37  C   UNL     1      -1.978  10.940  -1.887  1.00  0.00     0.031 A 
ATOM     38  C   UNL     1      -3.259  11.670  -2.191  1.00  0.00     0.074 A 
ATOM     39  C   UNL     1      -0.899  11.107  -2.677  1.00  0.00     0.049 A 
ATOM     40  N   UNL     1      -3.525  12.493  -3.173  1.00  0.00    -0.248 NA
ATOM     41  C   UNL     1      -4.395  11.427  -1.287  1.00  0.00     0.031 C 
ATOM     42  C   UNL     1       0.389  10.431  -2.503  1.00  0.00     0.029 A 
ATOM     43  N   UNL     1      -0.715  11.888  -3.790  1.00  0.00    -0.354 N 
ATOM     44  C   UNL     1      -4.859  12.853  -3.015  1.00  0.00     0.074 A 
ATOM     45  C   UNL     1      -5.360  12.123  -1.871  1.00  0.00     0.031 C 
ATOM     46  C   UNL     1       1.235  10.844  -3.461  1.00  0.00     0.029 A 
ATOM     47  C   UNL     1       0.539  11.775  -4.343  1.00  0.00     0.049 A 
ATOM     48  H   UNL     1      -1.415  12.474  -4.159  1.00  0.00     0.167 HD
ATOM     49  C   UNL     1      -5.594  13.725  -3.746  1.00  0.00     0.031 A 
ATOM     50  C   UNL     1       1.067  12.344  -5.444  1.00  0.00     0.031 A 
ATOM     51  C   UNL     1      -5.088  14.450  -4.881  1.00  0.00     0.049 A 
ATOM     52  C   UNL     1       0.221  13.285  -6.257  1.00  0.00     0.074 A 
ATOM     53  C   UNL     1      -5.735  15.398  -5.655  1.00  0.00     0.029 A 
ATOM     54  N   UNL     1      -3.814  14.305  -5.410  1.00  0.00    -0.354 N 
ATOM     55  N   UNL     1      -1.018  13.665  -6.050  1.00  0.00    -0.248 NA
ATOM     56  C   UNL     1       0.845  13.878  -7.448  1.00  0.00     0.031 C 
ATOM     57  C   UNL     1      -4.873  15.780  -6.688  1.00  0.00     0.029 A 
ATOM     58  C   UNL     1      -3.667  15.119  -6.521  1.00  0.00     0.049 A 
ATOM     59  H   UNL     1      -3.117  13.710  -5.049  1.00  0.00     0.167 HD
ATOM     60  C   UNL     1      -1.315  14.557  -7.074  1.00  0.00     0.074 A 
ATOM     61  C   UNL     1      -0.120  14.676  -7.886  1.00  0.00     0.031 C 
ATOM     62  C   UNL     1      -2.473  15.218  -7.322  1.00  0.00     0.031 A 
BRANCH  49  63
ATOM     63  C   UNL     1      -7.033  13.934  -3.345  1.00  0.00    -0.014 A 
ATOM     64  C   UNL     1      -7.367  14.594  -2.149  1.00  0.00     0.010 A 
ATOM     65  C   UNL     1      -8.066  13.501  -4.197  1.00  0.00     0.010 A 
ATOM     66  C   UNL     1      -8.705  14.778  -1.790  1.00  0.00     0.020 A 
ATOM     67  C   UNL     1      -9.406  13.710  -3.857  1.00  0.00     0.020 A 
ATOM     68  C   UNL     1      -9.717  14.332  -2.646  1.00  0.00     0.054 A 
BRANCH  68  69
ATOM     69  S   UNL     1     -11.444  14.602  -2.163  1.00  0.00     0.124 S 
ATOM     70  O   UNL     1     -11.604  13.646  -1.071  1.00  0.00    -0.237 OA
ATOM     71  O   UNL     1     -11.450  16.009  -1.772  1.00  0.00    -0.237 OA
ATOM     72  O   UNL     1     -12.197  14.293  -3.376  1.00  0.00    -0.744 OA
ENDBRANCH  68  69
ENDBRANCH  49  63
BRANCH  50  73
ATOM     73  C   UNL     1       2.469  12.038  -5.839  1.00  0.00    -0.014 A 
ATOM     74  C   UNL     1       3.471  13.019  -5.736  1.00  0.00     0.010 A 
ATOM     75  C   UNL     1       2.814  10.756  -6.306  1.00  0.00     0.010 A 
ATOM     76  C   UNL     1       4.788  12.728  -6.106  1.00  0.00     0.020 A 
ATOM     77  C   UNL     1       4.134  10.453  -6.649  1.00  0.00     0.020 A 
ATOM     78  C   UNL     1       5.111  11.445  -6.557  1.00  0.00     0.054 A 
BRANCH  78  79
ATOM     79  S   UNL     1       6.837  11.076  -6.980  1.00  0.00     0.124 S 
ATOM     80  O   UNL     1       7.003  11.801  -8.235  1.00  0.00    -0.237 OA
ATOM     81  O   UNL     1       7.563  11.616  -5.833  1.00  0.00    -0.237 OA
ATOM     82  O   UNL     1       6.856   9.619  -7.089  1.00  0.00    -0.744 OA
ENDBRANCH  78  79
ENDBRANCH  50  73
BRANCH  62  83
ATOM     83  C   UNL     1      -2.502  16.143  -8.510  1.00  0.00    -0.014 A 
ATOM     84  C   UNL     1      -2.516  15.639  -9.823  1.00  0.00     0.010 A 
ATOM     85  C   UNL     1      -2.579  17.533  -8.308  1.00  0.00     0.010 A 
ATOM     86  C   UNL     1      -2.580  16.510 -10.913  1.00  0.00     0.020 A 
ATOM     87  C   UNL     1      -2.674  18.406  -9.395  1.00  0.00     0.020 A 
ATOM     88  C   UNL     1      -2.662  17.889 -10.692  1.00  0.00     0.054 A 
BRANCH  88  89
ATOM     89  S   UNL     1      -2.801  18.993 -12.123  1.00  0.00     0.124 S 
ATOM     90  O   UNL     1      -1.455  18.931 -12.687  1.00  0.00    -0.237 OA
ATOM     91  O   UNL     1      -3.846  18.355 -12.919  1.00  0.00    -0.237 OA
ATOM     92  O   UNL     1      -3.171  20.279 -11.535  1.00  0.00    -0.744 OA
ENDBRANCH  88  89
ENDBRANCH  62  83
ENDBRANCH  36  37
ENDBRANCH  28  31
ENDBRANCH  26  27
ENDBRANCH   1  26
TORSDOF 17
