REMARK SMILES C[C@H](c1ccc(C(=O)NCCCNC(=O)c2ccc(-c3c4nc(c(-c5ccc(S(=O)(=O)[O-])cc5)c5ccc([nH]5)c(-c5ccc(S(=O)(=O)[O-])cc5)c5nc(c(-c6ccc(S(=O)(=O)[O-])cc6)c6ccc3[nH]6)C=C5)C=C4)cc2)o1)[NH+]1Cc2ccccc2C1
REMARK SMILES IDX 11 1 10 2 9 3 7 4 8 5 6 7 3 8 4 9 76 10 5 11 2 12 1 13 77 14
REMARK SMILES IDX 78 15 85 16 79 18 84 19 80 20 83 21 81 22 82 23 12 24 13 25
REMARK SMILES IDX 14 26 15 28 16 29 17 30 75 31 18 32 74 33 19 34 20 35 21 36
REMARK SMILES IDX 68 37 22 38 73 39 67 40 69 41 23 42 72 43 66 44 65 45 24 47
REMARK SMILES IDX 54 48 35 49 53 50 36 51 39 52 52 53 70 54 37 55 38 56 51 58
REMARK SMILES IDX 71 59 40 60 25 61 26 62 34 63 27 64 33 65 28 66 29 67 30 68
REMARK SMILES IDX 31 69 32 70 55 71 56 72 64 73 57 74 63 75 58 76 59 77 60 78
REMARK SMILES IDX 61 79 62 80 41 81 42 82 50 83 43 84 49 85 44 86 45 87 46 88
REMARK SMILES IDX 47 89 48 90
REMARK H PARENT 9 6 77 17 13 27 69 46 39 57
REMARK Flexibility Score: inf
ROOT
ATOM      1  C   UNL     1       3.040   3.372  -4.040  1.00  0.00     0.042 C 
ENDROOT
BRANCH   1   2
ATOM      2  C   UNL     1       2.028   2.237  -4.176  1.00  0.00     0.118 C 
BRANCH   2   3
ATOM      3  N   UNL     1       2.616   0.909  -4.124  1.00  0.00    -0.349 N 
ATOM      4  C   UNL     1       2.478  -0.051  -3.140  1.00  0.00     0.287 C 
ATOM      5  O   UNL     1       2.719  -1.216  -3.458  1.00  0.00    -0.266 OA
ATOM      6  H   UNL     1       3.185   0.662  -4.888  1.00  0.00     0.163 HD
BRANCH   4   7
ATOM      7  C   UNL     1       2.105   0.347  -1.798  1.00  0.00     0.191 A 
ATOM      8  C   UNL     1       1.108   0.109   0.162  1.00  0.00     0.162 A 
ATOM      9  C   UNL     1       1.921   1.224   0.256  1.00  0.00     0.053 A 
ATOM     10  O   UNL     1       1.253  -0.457  -1.074  1.00  0.00    -0.450 OA
ATOM     11  C   UNL     1       2.506   1.409  -1.011  1.00  0.00     0.057 A 
BRANCH   8  12
ATOM     12  C   UNL     1       0.150  -0.539   1.149  1.00  0.00     0.248 C 
ATOM     13  C   UNL     1       0.910  -0.760   2.476  1.00  0.00     0.084 C 
BRANCH  12  14
ATOM     14  N   UNL     1      -1.182   0.150   1.191  1.00  0.00    -0.319 N 
ATOM     15  C   UNL     1      -1.077   1.626   1.255  1.00  0.00     0.300 C 
ATOM     16  C   UNL     1      -2.009  -0.167   2.407  1.00  0.00     0.300 C 
ATOM     17  H   UNL     1      -1.610  -0.191   0.331  1.00  0.00     0.349 HD
ATOM     18  C   UNL     1      -1.008   1.935   2.708  1.00  0.00     0.015 A 
ATOM     19  C   UNL     1      -1.739   0.954   3.377  1.00  0.00     0.015 A 
ATOM     20  C   UNL     1      -0.366   2.955   3.380  1.00  0.00     0.010 A 
ATOM     21  C   UNL     1      -2.054   1.108   4.712  1.00  0.00     0.010 A 
ATOM     22  C   UNL     1      -0.583   3.056   4.752  1.00  0.00     0.001 A 
ATOM     23  C   UNL     1      -1.474   2.181   5.399  1.00  0.00     0.001 A 
ENDBRANCH  12  14
ENDBRANCH   8  12
ENDBRANCH   4   7
ENDBRANCH   2   3
ENDBRANCH   1   2
BRANCH   1  24
ATOM     24  C   UNL     1       3.994   3.539  -5.221  1.00  0.00     0.118 C 
BRANCH  24  25
ATOM     25  N   UNL     1       3.321   3.964  -6.438  1.00  0.00    -0.352 N 
ATOM     26  C   UNL     1       3.502   5.078  -7.223  1.00  0.00     0.251 C 
ATOM     27  H   UNL     1       2.618   3.352  -6.753  1.00  0.00     0.163 HD
ATOM     28  O   UNL     1       2.689   5.309  -8.115  1.00  0.00    -0.269 OA
BRANCH  26  29
ATOM     29  C   UNL     1       4.639   6.007  -7.011  1.00  0.00     0.039 A 
ATOM     30  C   UNL     1       4.424   7.379  -7.189  1.00  0.00     0.014 A 
ATOM     31  C   UNL     1       5.923   5.548  -6.703  1.00  0.00     0.014 A 
ATOM     32  C   UNL     1       5.473   8.286  -7.004  1.00  0.00     0.010 A 
ATOM     33  C   UNL     1       6.951   6.457  -6.450  1.00  0.00     0.010 A 
ATOM     34  C   UNL     1       6.740   7.835  -6.604  1.00  0.00    -0.014 A 
BRANCH  34  35
ATOM     35  C   UNL     1       7.851   8.789  -6.344  1.00  0.00     0.031 A 
ATOM     36  C   UNL     1       9.090   8.770  -7.200  1.00  0.00     0.074 A 
ATOM     37  C   UNL     1       7.773   9.635  -5.298  1.00  0.00     0.049 A 
ATOM     38  N   UNL     1      10.181   9.485  -7.090  1.00  0.00    -0.248 NA
ATOM     39  C   UNL     1       9.114   7.806  -8.312  1.00  0.00     0.031 C 
ATOM     40  C   UNL     1       6.644   9.733  -4.371  1.00  0.00     0.029 A 
ATOM     41  N   UNL     1       8.664  10.572  -4.835  1.00  0.00    -0.354 N 
ATOM     42  C   UNL     1      11.027   9.045  -8.102  1.00  0.00     0.074 A 
ATOM     43  C   UNL     1      10.340   7.971  -8.787  1.00  0.00     0.031 C 
ATOM     44  C   UNL     1       6.897  10.694  -3.469  1.00  0.00     0.029 A 
ATOM     45  C   UNL     1       8.220  11.254  -3.726  1.00  0.00     0.049 A 
ATOM     46  H   UNL     1       9.537  10.740  -5.257  1.00  0.00     0.167 HD
ATOM     47  C   UNL     1      12.258   9.502  -8.443  1.00  0.00     0.031 A 
ATOM     48  C   UNL     1       8.811  12.219  -2.994  1.00  0.00     0.031 A 
ATOM     49  C   UNL     1      12.937  10.575  -7.766  1.00  0.00     0.049 A 
ATOM     50  C   UNL     1      10.178  12.707  -3.385  1.00  0.00     0.074 A 
ATOM     51  C   UNL     1      14.163  11.144  -8.067  1.00  0.00     0.029 A 
ATOM     52  N   UNL     1      12.451  11.241  -6.651  1.00  0.00    -0.354 N 
ATOM     53  N   UNL     1      10.939  12.313  -4.378  1.00  0.00    -0.248 NA
ATOM     54  C   UNL     1      10.760  13.776  -2.563  1.00  0.00     0.031 C 
ATOM     55  C   UNL     1      14.438  12.124  -7.106  1.00  0.00     0.029 A 
ATOM     56  C   UNL     1      13.360  12.201  -6.238  1.00  0.00     0.049 A 
ATOM     57  H   UNL     1      11.587  11.059  -6.217  1.00  0.00     0.167 HD
ATOM     58  C   UNL     1      12.081  13.103  -4.314  1.00  0.00     0.074 A 
ATOM     59  C   UNL     1      11.904  14.005  -3.194  1.00  0.00     0.031 C 
ATOM     60  C   UNL     1      13.175  13.086  -5.115  1.00  0.00     0.031 A 
BRANCH  47  61
ATOM     61  C   UNL     1      12.950   8.824  -9.597  1.00  0.00    -0.014 A 
ATOM     62  C   UNL     1      12.486   8.979 -10.917  1.00  0.00     0.010 A 
ATOM     63  C   UNL     1      14.088   8.031  -9.363  1.00  0.00     0.010 A 
ATOM     64  C   UNL     1      13.111   8.308 -11.971  1.00  0.00     0.020 A 
ATOM     65  C   UNL     1      14.734   7.380 -10.420  1.00  0.00     0.020 A 
ATOM     66  C   UNL     1      14.225   7.504 -11.714  1.00  0.00     0.054 A 
BRANCH  66  67
ATOM     67  S   UNL     1      15.012   6.636 -13.099  1.00  0.00     0.124 S 
ATOM     68  O   UNL     1      14.065   5.553 -13.351  1.00  0.00    -0.237 OA
ATOM     69  O   UNL     1      15.075   7.667 -14.132  1.00  0.00    -0.237 OA
ATOM     70  O   UNL     1      16.304   6.221 -12.559  1.00  0.00    -0.744 OA
ENDBRANCH  66  67
ENDBRANCH  47  61
BRANCH  48  71
ATOM     71  C   UNL     1       8.091  12.805  -1.832  1.00  0.00    -0.014 A 
ATOM     72  C   UNL     1       7.554  14.102  -1.911  1.00  0.00     0.010 A 
ATOM     73  C   UNL     1       7.904  12.056  -0.656  1.00  0.00     0.010 A 
ATOM     74  C   UNL     1       6.846  14.642  -0.833  1.00  0.00     0.020 A 
ATOM     75  C   UNL     1       7.175  12.584   0.414  1.00  0.00     0.020 A 
ATOM     76  C   UNL     1       6.656  13.877   0.321  1.00  0.00     0.054 A 
BRANCH  76  77
ATOM     77  S   UNL     1       5.667  14.568   1.676  1.00  0.00     0.124 S 
ATOM     78  O   UNL     1       6.587  15.538   2.260  1.00  0.00    -0.237 OA
ATOM     79  O   UNL     1       4.516  15.130   0.973  1.00  0.00    -0.237 OA
ATOM     80  O   UNL     1       5.370  13.405   2.509  1.00  0.00    -0.744 OA
ENDBRANCH  76  77
ENDBRANCH  48  71
BRANCH  60  81
ATOM     81  C   UNL     1      14.259  14.089  -4.825  1.00  0.00    -0.014 A 
ATOM     82  C   UNL     1      15.106  13.945  -3.712  1.00  0.00     0.010 A 
ATOM     83  C   UNL     1      14.460  15.168  -5.705  1.00  0.00     0.010 A 
ATOM     84  C   UNL     1      16.115  14.881  -3.467  1.00  0.00     0.020 A 
ATOM     85  C   UNL     1      15.484  16.091  -5.478  1.00  0.00     0.020 A 
ATOM     86  C   UNL     1      16.297  15.949  -4.351  1.00  0.00     0.054 A 
BRANCH  86  87
ATOM     87  S   UNL     1      17.638  17.128  -4.035  1.00  0.00     0.124 S 
ATOM     88  O   UNL     1      17.095  17.917  -2.933  1.00  0.00    -0.237 OA
ATOM     89  O   UNL     1      18.759  16.257  -3.691  1.00  0.00    -0.237 OA
ATOM     90  O   UNL     1      17.778  17.841  -5.302  1.00  0.00    -0.744 OA
ENDBRANCH  86  87
ENDBRANCH  60  81
ENDBRANCH  34  35
ENDBRANCH  26  29
ENDBRANCH  24  25
ENDBRANCH   1  24
TORSDOF 15
