REMARK SMILES O=C(NCCCNC(=O)[C@@]1(Cc2cn3ccccc3n2)CCC[NH2+]C1)c1ccc(-c2c3nc(c(-c4ccc(S(=O)(=O)[O-])cc4)c4ccc([nH]4)c(-c4ccc(S(=O)(=O)[O-])cc4)c4nc(c(-c5ccc(S(=O)(=O)[O-])cc5)c5ccc2[nH]5)C=C4)C=C3)cc1
REMARK SMILES IDX 4 1 3 2 1 3 2 4 26 6 27 7 85 8 28 9 84 10 29 11 30 12 31 13
REMARK SMILES IDX 78 14 32 15 83 16 77 17 79 18 33 19 82 20 76 21 75 22 34 24
REMARK SMILES IDX 64 25 45 26 63 27 46 28 49 29 62 30 80 31 47 32 48 33 61 35
REMARK SMILES IDX 81 36 50 37 35 38 36 39 44 40 37 41 43 42 38 43 39 44 40 45
REMARK SMILES IDX 41 46 42 47 65 48 66 49 74 50 67 51 73 52 68 53 69 54 70 55
REMARK SMILES IDX 71 56 72 57 51 58 52 59 60 60 53 61 59 62 54 63 55 64 56 65
REMARK SMILES IDX 57 66 58 67 5 68 6 69 7 70 8 71 9 73 10 74 21 75 25 76 22 77
REMARK SMILES IDX 24 78 23 79 11 82 12 83 13 84 20 85 14 86 19 87 15 88 18 89
REMARK SMILES IDX 16 90 17 91
REMARK H PARENT 3 5 79 23 49 34 7 72 24 80 24 81
REMARK Flexibility Score: inf
ROOT
ATOM      1  C   UNL     1       5.291  -3.559   1.942  1.00  0.00     0.118 C 
ENDROOT
BRANCH   1   2
ATOM      2  N   UNL     1       5.241  -2.133   2.245  1.00  0.00    -0.352 N 
ATOM      3  O   UNL     1       4.449  -0.204   3.086  1.00  0.00    -0.269 OA
ATOM      4  C   UNL     1       4.473  -1.432   3.144  1.00  0.00     0.251 C 
ATOM      5  H   UNL     1       5.861  -1.580   1.717  1.00  0.00     0.163 HD
BRANCH   4   6
ATOM      6  C   UNL     1       3.659  -2.140   4.157  1.00  0.00     0.039 A 
ATOM      7  C   UNL     1       4.149  -3.272   4.804  1.00  0.00     0.014 A 
ATOM      8  C   UNL     1       2.389  -1.653   4.485  1.00  0.00     0.014 A 
ATOM      9  C   UNL     1       3.308  -4.030   5.607  1.00  0.00     0.010 A 
ATOM     10  C   UNL     1       1.586  -2.351   5.395  1.00  0.00     0.010 A 
ATOM     11  C   UNL     1       2.019  -3.575   5.927  1.00  0.00    -0.014 A 
BRANCH  11  12
ATOM     12  C   UNL     1       1.176  -4.388   6.845  1.00  0.00     0.031 A 
ATOM     13  C   UNL     1      -0.140  -4.965   6.393  1.00  0.00     0.074 A 
ATOM     14  C   UNL     1       1.640  -4.657   8.083  1.00  0.00     0.049 A 
ATOM     15  N   UNL     1      -0.957  -5.754   7.046  1.00  0.00    -0.248 NA
ATOM     16  C   UNL     1      -0.607  -4.609   5.044  1.00  0.00     0.031 C 
ATOM     17  C   UNL     1       2.898  -4.148   8.641  1.00  0.00     0.029 A 
ATOM     18  N   UNL     1       1.136  -5.451   9.080  1.00  0.00    -0.354 N 
ATOM     19  C   UNL     1      -2.045  -5.961   6.205  1.00  0.00     0.074 A 
ATOM     20  C   UNL     1      -1.794  -5.199   5.001  1.00  0.00     0.031 C 
ATOM     21  C   UNL     1       3.103  -4.704   9.844  1.00  0.00     0.029 A 
ATOM     22  C   UNL     1       1.962  -5.548  10.175  1.00  0.00     0.049 A 
ATOM     23  H   UNL     1       0.267  -5.909   9.018  1.00  0.00     0.167 HD
ATOM     24  C   UNL     1      -3.150  -6.718   6.415  1.00  0.00     0.031 A 
ATOM     25  C   UNL     1       1.822  -6.233  11.325  1.00  0.00     0.031 A 
ATOM     26  C   UNL     1      -3.389  -7.487   7.608  1.00  0.00     0.049 A 
ATOM     27  C   UNL     1       0.590  -7.065  11.530  1.00  0.00     0.074 A 
ATOM     28  C   UNL     1      -4.462  -8.313   7.900  1.00  0.00     0.029 A 
ATOM     29  N   UNL     1      -2.544  -7.529   8.708  1.00  0.00    -0.354 N 
ATOM     30  N   UNL     1      -0.413  -7.265  10.709  1.00  0.00    -0.248 NA
ATOM     31  C   UNL     1       0.472  -7.764  12.815  1.00  0.00     0.031 C 
ATOM     32  C   UNL     1      -4.288  -8.816   9.194  1.00  0.00     0.029 A 
ATOM     33  C   UNL     1      -3.080  -8.349   9.687  1.00  0.00     0.049 A 
ATOM     34  H   UNL     1      -1.690  -7.045   8.782  1.00  0.00     0.167 HD
ATOM     35  C   UNL     1      -1.273  -8.132  11.372  1.00  0.00     0.074 A 
ATOM     36  C   UNL     1      -0.662  -8.431  12.651  1.00  0.00     0.031 C 
ATOM     37  C   UNL     1      -2.462  -8.635  10.957  1.00  0.00     0.031 A 
BRANCH  24  38
ATOM     38  C   UNL     1      -4.205  -6.727   5.338  1.00  0.00    -0.014 A 
ATOM     39  C   UNL     1      -4.001  -7.391   4.115  1.00  0.00     0.010 A 
ATOM     40  C   UNL     1      -5.440  -6.094   5.573  1.00  0.00     0.010 A 
ATOM     41  C   UNL     1      -4.995  -7.384   3.131  1.00  0.00     0.020 A 
ATOM     42  C   UNL     1      -6.446  -6.106   4.602  1.00  0.00     0.020 A 
ATOM     43  C   UNL     1      -6.209  -6.736   3.379  1.00  0.00     0.054 A 
BRANCH  43  44
ATOM     44  S   UNL     1      -7.484  -6.750   2.088  1.00  0.00     0.124 S 
ATOM     45  O   UNL     1      -6.945  -5.794   1.124  1.00  0.00    -0.237 OA
ATOM     46  O   UNL     1      -7.487  -8.144   1.654  1.00  0.00    -0.237 OA
ATOM     47  O   UNL     1      -8.691  -6.316   2.788  1.00  0.00    -0.744 OA
ENDBRANCH  43  44
ENDBRANCH  24  38
BRANCH  25  48
ATOM     48  C   UNL     1       2.883  -6.157  12.365  1.00  0.00    -0.014 A 
ATOM     49  C   UNL     1       3.694  -7.271  12.643  1.00  0.00     0.010 A 
ATOM     50  C   UNL     1       3.105  -4.956  13.064  1.00  0.00     0.010 A 
ATOM     51  C   UNL     1       4.699  -7.189  13.611  1.00  0.00     0.020 A 
ATOM     52  C   UNL     1       4.128  -4.862  14.010  1.00  0.00     0.020 A 
ATOM     53  C   UNL     1       4.911  -5.984  14.287  1.00  0.00     0.054 A 
BRANCH  53  54
ATOM     54  S   UNL     1       6.257  -5.882  15.499  1.00  0.00     0.124 S 
ATOM     55  O   UNL     1       5.694  -6.602  16.636  1.00  0.00    -0.237 OA
ATOM     56  O   UNL     1       7.357  -6.549  14.807  1.00  0.00    -0.237 OA
ATOM     57  O   UNL     1       6.433  -4.444  15.691  1.00  0.00    -0.744 OA
ENDBRANCH  53  54
ENDBRANCH  25  48
BRANCH  37  58
ATOM     58  C   UNL     1      -3.158  -9.594  11.883  1.00  0.00    -0.014 A 
ATOM     59  C   UNL     1      -3.771  -9.152  13.068  1.00  0.00     0.010 A 
ATOM     60  C   UNL     1      -3.217 -10.959  11.546  1.00  0.00     0.010 A 
ATOM     61  C   UNL     1      -4.393 -10.065  13.923  1.00  0.00     0.020 A 
ATOM     62  C   UNL     1      -3.862 -11.870  12.384  1.00  0.00     0.020 A 
ATOM     63  C   UNL     1      -4.430 -11.420  13.578  1.00  0.00     0.054 A 
BRANCH  63  64
ATOM     64  S   UNL     1      -5.261 -12.586  14.691  1.00  0.00     0.124 S 
ATOM     65  O   UNL     1      -4.280 -12.732  15.763  1.00  0.00    -0.237 OA
ATOM     66  O   UNL     1      -6.484 -11.872  15.050  1.00  0.00    -0.237 OA
ATOM     67  O   UNL     1      -5.460 -13.772  13.862  1.00  0.00    -0.744 OA
ENDBRANCH  63  64
ENDBRANCH  37  58
ENDBRANCH  11  12
ENDBRANCH   4   6
ENDBRANCH   1   2
BRANCH   1  68
ATOM     68  C   UNL     1       4.589  -3.904   0.637  1.00  0.00     0.042 C 
BRANCH  68  69
ATOM     69  C   UNL     1       5.316  -3.377  -0.589  1.00  0.00     0.117 C 
BRANCH  69  70
ATOM     70  N   UNL     1       6.601  -4.035  -0.794  1.00  0.00    -0.355 N 
ATOM     71  C   UNL     1       7.058  -4.899  -1.744  1.00  0.00     0.232 C 
ATOM     72  H   UNL     1       7.272  -3.810  -0.109  1.00  0.00     0.163 HD
ATOM     73  O   UNL     1       8.239  -5.243  -1.629  1.00  0.00    -0.274 OA
BRANCH  71  74
ATOM     74  C   UNL     1       6.168  -5.402  -2.902  1.00  0.00     0.104 C 
ATOM     75  C   UNL     1       7.001  -6.413  -3.753  1.00  0.00     0.029 C 
ATOM     76  C   UNL     1       4.996  -6.198  -2.270  1.00  0.00     0.277 C 
ATOM     77  C   UNL     1       6.148  -7.268  -4.688  1.00  0.00     0.063 C 
ATOM     78  N   UNL     1       4.208  -7.034  -3.182  1.00  0.00    -0.345 N 
ATOM     79  C   UNL     1       5.037  -7.976  -3.925  1.00  0.00     0.260 C 
ATOM     80  H   UNL     1       3.523  -7.558  -2.638  1.00  0.00     0.346 HD
ATOM     81  H   UNL     1       3.756  -6.418  -3.857  1.00  0.00     0.346 HD
BRANCH  74  82
ATOM     82  C   UNL     1       5.847  -4.145  -3.760  1.00  0.00     0.080 C 
BRANCH  82  83
ATOM     83  C   UNL     1       4.756  -4.223  -4.763  1.00  0.00     0.061 A 
ATOM     84  C   UNL     1       3.400  -4.398  -4.579  1.00  0.00     0.116 A 
ATOM     85  N   UNL     1       5.041  -4.029  -6.097  1.00  0.00    -0.234 NA
ATOM     86  N   UNL     1       2.862  -4.457  -5.836  1.00  0.00    -0.307 N 
ATOM     87  C   UNL     1       3.894  -4.179  -6.724  1.00  0.00     0.136 A 
ATOM     88  C   UNL     1       1.559  -4.741  -6.233  1.00  0.00     0.093 A 
ATOM     89  C   UNL     1       3.564  -4.127  -8.107  1.00  0.00     0.048 A 
ATOM     90  C   UNL     1       1.259  -4.731  -7.543  1.00  0.00     0.018 A 
ATOM     91  C   UNL     1       2.304  -4.395  -8.502  1.00  0.00     0.005 A 
ENDBRANCH  82  83
ENDBRANCH  74  82
ENDBRANCH  71  74
ENDBRANCH  69  70
ENDBRANCH  68  69
ENDBRANCH   1  68
TORSDOF 15
