REMARK SMILES COc1cnc(F)c(C(=O)NCCCNC(=O)c2ccc(-c3c4nc(c(-c5ccc(S(=O)(=O)[O-])cc5)c5ccc([nH]5)c(-c5ccc(S(=O)(=O)[O-])cc5)c5nc(c(-c6ccc(S(=O)(=O)[O-])cc6)c6ccc3[nH]6)C=C5)C=C4)cc2)c1
REMARK SMILES IDX 14 1 13 2 12 3 11 4 9 5 10 6 8 8 3 9 4 10 78 11 5 12 6 13
REMARK SMILES IDX 7 14 2 15 1 16 15 17 16 18 17 20 18 21 19 22 77 23 20 24
REMARK SMILES IDX 76 25 21 26 22 27 23 28 70 29 24 30 75 31 69 32 71 33 25 34
REMARK SMILES IDX 74 35 68 36 67 37 26 39 56 40 37 41 55 42 38 43 41 44 54 45
REMARK SMILES IDX 72 46 39 47 40 48 53 50 73 51 42 52 27 53 28 54 36 55 29 56
REMARK SMILES IDX 35 57 30 58 31 59 32 60 33 61 34 62 57 63 58 64 66 65 59 66
REMARK SMILES IDX 65 67 60 68 61 69 62 70 63 71 64 72 43 73 44 74 52 75 45 76
REMARK SMILES IDX 51 77 46 78 47 79 48 80 49 81 50 82
REMARK H PARENT 11 7 15 19 71 38 41 49
REMARK Flexibility Score: inf
ROOT
ATOM      1  C   UNL     1       4.514  -7.008  -5.006  1.00  0.00     0.118 C 
ENDROOT
BRANCH   1   2
ATOM      2  C   UNL     1       3.289  -6.741  -4.135  1.00  0.00     0.042 C 
BRANCH   2   3
ATOM      3  C   UNL     1       3.624  -6.353  -2.695  1.00  0.00     0.118 C 
BRANCH   3   4
ATOM      4  N   UNL     1       4.165  -5.005  -2.623  1.00  0.00    -0.352 N 
ATOM      5  C   UNL     1       3.632  -3.809  -2.228  1.00  0.00     0.256 C 
ATOM      6  O   UNL     1       4.380  -2.827  -2.248  1.00  0.00    -0.269 OA
ATOM      7  H   UNL     1       5.102  -4.941  -2.918  1.00  0.00     0.163 HD
BRANCH   5   8
ATOM      8  C   UNL     1       2.262  -3.618  -1.709  1.00  0.00     0.098 A 
ATOM      9  C   UNL     1       0.804  -2.305  -0.288  1.00  0.00     0.138 A 
ATOM     10  C   UNL     1      -0.245  -3.106  -0.707  1.00  0.00     0.160 A 
ATOM     11  C   UNL     1       2.078  -2.591  -0.770  1.00  0.00     0.066 A 
ATOM     12  N   UNL     1      -0.115  -4.088  -1.624  1.00  0.00    -0.224 NA
ATOM     13  C   UNL     1       1.128  -4.294  -2.129  1.00  0.00     0.225 A 
ATOM     14  F   UNL     1       1.189  -5.178  -3.131  1.00  0.00    -0.184 F 
BRANCH   9  15
ATOM     15  O   UNL     1       0.542  -1.302   0.598  1.00  0.00    -0.495 OA
ATOM     16  C   UNL     1       1.037  -0.041   0.141  1.00  0.00     0.278 C 
ENDBRANCH   9  15
ENDBRANCH   5   8
ENDBRANCH   3   4
ENDBRANCH   2   3
ENDBRANCH   1   2
BRANCH   1  17
ATOM     17  N   UNL     1       5.178  -8.255  -4.656  1.00  0.00    -0.352 N 
ATOM     18  C   UNL     1       5.435  -9.359  -5.428  1.00  0.00     0.251 C 
ATOM     19  H   UNL     1       5.489  -8.316  -3.724  1.00  0.00     0.163 HD
ATOM     20  O   UNL     1       5.819 -10.397  -4.881  1.00  0.00    -0.269 OA
BRANCH  18  21
ATOM     21  C   UNL     1       5.250  -9.328  -6.896  1.00  0.00     0.039 A 
ATOM     22  C   UNL     1       4.686 -10.440  -7.529  1.00  0.00     0.014 A 
ATOM     23  C   UNL     1       5.675  -8.236  -7.660  1.00  0.00     0.014 A 
ATOM     24  C   UNL     1       4.501 -10.438  -8.914  1.00  0.00     0.010 A 
ATOM     25  C   UNL     1       5.434  -8.210  -9.034  1.00  0.00     0.010 A 
ATOM     26  C   UNL     1       4.849  -9.312  -9.676  1.00  0.00    -0.014 A 
BRANCH  26  27
ATOM     27  C   UNL     1       4.611  -9.268 -11.143  1.00  0.00     0.031 A 
ATOM     28  C   UNL     1       5.770  -9.197 -12.100  1.00  0.00     0.074 A 
ATOM     29  C   UNL     1       3.348  -9.229 -11.612  1.00  0.00     0.049 A 
ATOM     30  N   UNL     1       5.758  -9.080 -13.404  1.00  0.00    -0.248 NA
ATOM     31  C   UNL     1       7.120  -9.242 -11.514  1.00  0.00     0.031 C 
ATOM     32  C   UNL     1       2.137  -9.258 -10.788  1.00  0.00     0.029 A 
ATOM     33  N   UNL     1       2.872  -9.146 -12.897  1.00  0.00    -0.354 N 
ATOM     34  C   UNL     1       7.092  -9.016 -13.792  1.00  0.00     0.074 A 
ATOM     35  C   UNL     1       7.885  -9.070 -12.583  1.00  0.00     0.031 C 
ATOM     36  C   UNL     1       1.059  -9.213 -11.588  1.00  0.00     0.029 A 
ATOM     37  C   UNL     1       1.499  -9.112 -12.976  1.00  0.00     0.049 A 
ATOM     38  H   UNL     1       3.458  -9.114 -13.687  1.00  0.00     0.167 HD
ATOM     39  C   UNL     1       7.610  -8.935 -15.041  1.00  0.00     0.031 A 
ATOM     40  C   UNL     1       0.684  -9.002 -14.043  1.00  0.00     0.031 A 
ATOM     41  C   UNL     1       6.820  -8.896 -16.244  1.00  0.00     0.049 A 
ATOM     42  C   UNL     1       1.282  -8.911 -15.419  1.00  0.00     0.074 A 
ATOM     43  C   UNL     1       7.254  -8.867 -17.558  1.00  0.00     0.029 A 
ATOM     44  N   UNL     1       5.434  -8.879 -16.280  1.00  0.00    -0.354 N 
ATOM     45  N   UNL     1       2.547  -8.907 -15.768  1.00  0.00    -0.248 NA
ATOM     46  C   UNL     1       0.344  -8.819 -16.546  1.00  0.00     0.031 C 
ATOM     47  C   UNL     1       6.130  -8.790 -18.388  1.00  0.00     0.029 A 
ATOM     48  C   UNL     1       4.996  -8.822 -17.592  1.00  0.00     0.049 A 
ATOM     49  H   UNL     1       4.848  -8.905 -15.489  1.00  0.00     0.167 HD
ATOM     50  C   UNL     1       2.555  -8.837 -17.157  1.00  0.00     0.074 A 
ATOM     51  C   UNL     1       1.171  -8.813 -17.584  1.00  0.00     0.031 C 
ATOM     52  C   UNL     1       3.614  -8.798 -18.002  1.00  0.00     0.031 A 
BRANCH  39  53
ATOM     53  C   UNL     1       9.110  -8.876 -15.169  1.00  0.00    -0.014 A 
ATOM     54  C   UNL     1       9.907 -10.003 -14.900  1.00  0.00     0.010 A 
ATOM     55  C   UNL     1       9.729  -7.687 -15.598  1.00  0.00     0.010 A 
ATOM     56  C   UNL     1      11.298  -9.931 -15.013  1.00  0.00     0.020 A 
ATOM     57  C   UNL     1      11.119  -7.618 -15.738  1.00  0.00     0.020 A 
ATOM     58  C   UNL     1      11.896  -8.736 -15.426  1.00  0.00     0.054 A 
BRANCH  58  59
ATOM     59  S   UNL     1      13.702  -8.673 -15.578  1.00  0.00     0.124 S 
ATOM     60  O   UNL     1      14.119  -8.612 -14.178  1.00  0.00    -0.237 OA
ATOM     61  O   UNL     1      14.011  -9.921 -16.270  1.00  0.00    -0.237 OA
ATOM     62  O   UNL     1      13.943  -7.458 -16.352  1.00  0.00    -0.744 OA
ENDBRANCH  58  59
ENDBRANCH  39  53
BRANCH  40  63
ATOM     63  C   UNL     1      -0.791  -8.987 -13.849  1.00  0.00    -0.014 A 
ATOM     64  C   UNL     1      -1.569 -10.098 -14.219  1.00  0.00     0.010 A 
ATOM     65  C   UNL     1      -1.423  -7.868 -13.275  1.00  0.00     0.010 A 
ATOM     66  C   UNL     1      -2.954 -10.086 -14.032  1.00  0.00     0.020 A 
ATOM     67  C   UNL     1      -2.805  -7.863 -13.064  1.00  0.00     0.020 A 
ATOM     68  C   UNL     1      -3.563  -8.968 -13.454  1.00  0.00     0.054 A 
BRANCH  68  69
ATOM     69  S   UNL     1      -5.355  -8.997 -13.169  1.00  0.00     0.124 S 
ATOM     70  O   UNL     1      -5.880  -8.785 -14.514  1.00  0.00    -0.237 OA
ATOM     71  O   UNL     1      -5.566 -10.330 -12.610  1.00  0.00    -0.237 OA
ATOM     72  O   UNL     1      -5.569  -7.897 -12.231  1.00  0.00    -0.744 OA
ENDBRANCH  68  69
ENDBRANCH  40  63
BRANCH  52  73
ATOM     73  C   UNL     1       3.321  -8.756 -19.477  1.00  0.00    -0.014 A 
ATOM     74  C   UNL     1       2.844  -7.586 -20.091  1.00  0.00     0.010 A 
ATOM     75  C   UNL     1       3.582  -9.890 -20.268  1.00  0.00     0.010 A 
ATOM     76  C   UNL     1       2.605  -7.558 -21.468  1.00  0.00     0.020 A 
ATOM     77  C   UNL     1       3.368  -9.859 -21.648  1.00  0.00     0.020 A 
ATOM     78  C   UNL     1       2.868  -8.696 -22.238  1.00  0.00     0.054 A 
BRANCH  78  79
ATOM     79  S   UNL     1       2.596  -8.622 -24.030  1.00  0.00     0.124 S 
ATOM     80  O   UNL     1       1.141  -8.703 -24.120  1.00  0.00    -0.237 OA
ATOM     81  O   UNL     1       3.178  -7.331 -24.391  1.00  0.00    -0.237 OA
ATOM     82  O   UNL     1       3.318  -9.786 -24.538  1.00  0.00    -0.744 OA
ENDBRANCH  78  79
ENDBRANCH  52  73
ENDBRANCH  26  27
ENDBRANCH  18  21
ENDBRANCH   1  17
TORSDOF 14
