REMARK SMILES CCc1ccc(C[N@H+]2CC[C@@H](C(=O)NCCCNC(=O)c3ccc(-c4c5nc(c(-c6ccc(S(=O)(=O)[O-])cc6)c6ccc([nH]6)c(-c6ccc(S(=O)(=O)[O-])cc6)c6nc(c(-c7ccc(S(=O)(=O)[O-])cc7)c7ccc4[nH]7)C=C6)C=C5)cc3)[C@@H]2C)cc1
REMARK SMILES IDX 16 1 15 2 14 3 12 4 13 5 11 7 8 8 9 9 81 10 10 12 82 13 7 14
REMARK SMILES IDX 6 15 3 16 4 17 84 18 5 19 83 20 2 21 1 22 17 23 18 24 19 25
REMARK SMILES IDX 20 27 21 28 22 29 80 30 23 31 79 32 24 33 25 34 26 35 73 36
REMARK SMILES IDX 27 37 78 38 72 39 74 40 28 41 77 42 71 43 70 44 29 46 59 47
REMARK SMILES IDX 40 48 58 49 41 50 44 51 57 52 75 53 42 54 43 55 56 57 76 58
REMARK SMILES IDX 45 59 30 60 31 61 39 62 32 63 38 64 33 65 34 66 35 67 36 68
REMARK SMILES IDX 37 69 60 70 61 71 69 72 62 73 68 74 63 75 64 76 65 77 66 78
REMARK SMILES IDX 67 79 46 80 47 81 55 82 48 83 54 84 49 85 50 86 51 87 52 88
REMARK SMILES IDX 53 89
REMARK H PARENT 14 6 8 11 18 26 74 45 44 56
REMARK Flexibility Score: inf
ROOT
ATOM      1  C   UNL     1       0.665  -2.638  -3.072  1.00  0.00     0.042 C 
ENDROOT
BRANCH   1   2
ATOM      2  C   UNL     1       1.462  -3.253  -1.128  1.00  0.00     0.117 C 
BRANCH   2   3
ATOM      3  N   UNL     1       0.791  -3.918   0.163  1.00  0.00    -0.356 N 
ATOM      4  C   UNL     1       0.936  -5.101   0.811  1.00  0.00     0.229 C 
ATOM      5  O   UNL     1       0.288  -5.231   1.859  1.00  0.00    -0.275 OA
ATOM      6  H   UNL     1       0.119  -3.335   0.585  1.00  0.00     0.163 HD
BRANCH   4   7
ATOM      7  C   UNL     1       1.808  -6.260   0.335  1.00  0.00     0.142 C 
ATOM      8  N   UNL     1       2.337  -6.780  -1.964  1.00  0.00    -0.328 N 
ATOM      9  C   UNL     1       3.578  -6.338  -1.329  1.00  0.00     0.263 C 
ATOM     10  C   UNL     1       1.308  -6.956  -0.930  1.00  0.00     0.193 C 
ATOM     11  H   UNL     1       2.519  -7.683  -2.402  1.00  0.00     0.348 HD
ATOM     12  C   UNL     1       3.271  -5.928   0.106  1.00  0.00     0.081 C 
ATOM     13  C   UNL     1       1.097  -8.457  -0.717  1.00  0.00     0.076 C 
BRANCH   8  14
ATOM     14  C   UNL     1       1.905  -5.981  -3.117  1.00  0.00     0.299 C 
BRANCH  14  15
ATOM     15  C   UNL     1       1.487  -4.575  -2.772  1.00  0.00     0.006 A 
ATOM     16  C   UNL     1       0.685  -1.330  -1.411  1.00  0.00    -0.048 A 
ATOM     17  C   UNL     1      -0.541  -2.653  -1.361  1.00  0.00     0.004 A 
ATOM     18  C   UNL     1       2.295  -1.613  -2.191  1.00  0.00     0.004 A 
ATOM     19  C   UNL     1      -0.145  -4.274  -2.041  1.00  0.00     0.010 A 
ATOM     20  C   UNL     1       2.704  -3.238  -2.858  1.00  0.00     0.010 A 
BRANCH  16  21
ATOM     21  C   UNL     1       0.366  -0.005  -0.768  1.00  0.00     0.032 C 
ATOM     22  C   UNL     1       0.986   0.113   0.608  1.00  0.00     0.009 C 
ENDBRANCH  16  21
ENDBRANCH  14  15
ENDBRANCH   8  14
ENDBRANCH   4   7
ENDBRANCH   2   3
ENDBRANCH   1   2
BRANCH   1  23
ATOM     23  C   UNL     1      -0.467  -1.516  -3.625  1.00  0.00     0.118 C 
BRANCH  23  24
ATOM     24  N   UNL     1       0.031  -0.156  -3.823  1.00  0.00    -0.352 N 
ATOM     25  C   UNL     1      -0.552   0.878  -4.496  1.00  0.00     0.251 C 
ATOM     26  H   UNL     1       0.906   0.040  -3.416  1.00  0.00     0.163 HD
ATOM     27  O   UNL     1      -0.073   2.005  -4.467  1.00  0.00    -0.269 OA
BRANCH  25  28
ATOM     28  C   UNL     1      -1.675   0.553  -5.381  1.00  0.00     0.039 A 
ATOM     29  C   UNL     1      -1.471   0.775  -6.742  1.00  0.00     0.014 A 
ATOM     30  C   UNL     1      -2.814  -0.102  -4.906  1.00  0.00     0.014 A 
ATOM     31  C   UNL     1      -2.410   0.310  -7.646  1.00  0.00     0.010 A 
ATOM     32  C   UNL     1      -3.702  -0.650  -5.817  1.00  0.00     0.010 A 
ATOM     33  C   UNL     1      -3.516  -0.421  -7.189  1.00  0.00    -0.014 A 
BRANCH  33  34
ATOM     34  C   UNL     1      -4.540  -0.857  -8.154  1.00  0.00     0.031 A 
ATOM     35  C   UNL     1      -5.886  -0.198  -8.109  1.00  0.00     0.074 A 
ATOM     36  C   UNL     1      -4.229  -1.791  -9.070  1.00  0.00     0.049 A 
ATOM     37  N   UNL     1      -6.913  -0.373  -8.895  1.00  0.00    -0.248 NA
ATOM     38  C   UNL     1      -6.116   0.775  -7.026  1.00  0.00     0.031 C 
ATOM     39  C   UNL     1      -2.938  -2.479  -9.171  1.00  0.00     0.029 A 
ATOM     40  N   UNL     1      -4.958  -2.299 -10.110  1.00  0.00    -0.354 N 
ATOM     41  C   UNL     1      -7.906   0.462  -8.396  1.00  0.00     0.074 A 
ATOM     42  C   UNL     1      -7.390   1.083  -7.201  1.00  0.00     0.031 C 
ATOM     43  C   UNL     1      -2.950  -3.277 -10.252  1.00  0.00     0.029 A 
ATOM     44  C   UNL     1      -4.258  -3.188 -10.890  1.00  0.00     0.049 A 
ATOM     45  H   UNL     1      -5.896  -2.051 -10.283  1.00  0.00     0.167 HD
ATOM     46  C   UNL     1      -9.130   0.712  -8.915  1.00  0.00     0.031 A 
ATOM     47  C   UNL     1      -4.638  -3.845 -12.002  1.00  0.00     0.031 A 
ATOM     48  C   UNL     1      -9.614   0.076 -10.108  1.00  0.00     0.049 A 
ATOM     49  C   UNL     1      -6.022  -3.588 -12.532  1.00  0.00     0.074 A 
ATOM     50  C   UNL     1     -10.828   0.244 -10.744  1.00  0.00     0.029 A 
ATOM     51  N   UNL     1      -8.896  -0.858 -10.845  1.00  0.00    -0.354 N 
ATOM     52  N   UNL     1      -6.940  -2.768 -12.073  1.00  0.00    -0.248 NA
ATOM     53  C   UNL     1      -6.419  -4.333 -13.731  1.00  0.00     0.031 C 
ATOM     54  C   UNL     1     -10.867  -0.634 -11.832  1.00  0.00     0.029 A 
ATOM     55  C   UNL     1      -9.650  -1.295 -11.916  1.00  0.00     0.049 A 
ATOM     56  H   UNL     1      -7.983  -1.162 -10.634  1.00  0.00     0.167 HD
ATOM     57  C   UNL     1      -8.017  -2.878 -12.943  1.00  0.00     0.074 A 
ATOM     58  C   UNL     1      -7.625  -3.831 -13.965  1.00  0.00     0.031 C 
ATOM     59  C   UNL     1      -9.220  -2.251 -12.908  1.00  0.00     0.031 A 
BRANCH  46  60
ATOM     60  C   UNL     1     -10.008   1.684  -8.172  1.00  0.00    -0.014 A 
ATOM     61  C   UNL     1      -9.668   3.047  -8.071  1.00  0.00     0.010 A 
ATOM     62  C   UNL     1     -11.180   1.227  -7.544  1.00  0.00     0.010 A 
ATOM     63  C   UNL     1     -10.451   3.920  -7.310  1.00  0.00     0.020 A 
ATOM     64  C   UNL     1     -11.986   2.104  -6.812  1.00  0.00     0.020 A 
ATOM     65  C   UNL     1     -11.604   3.441  -6.682  1.00  0.00     0.054 A 
BRANCH  65  66
ATOM     66  S   UNL     1     -12.604   4.596  -5.705  1.00  0.00     0.124 S 
ATOM     67  O   UNL     1     -11.748   4.828  -4.544  1.00  0.00    -0.237 OA
ATOM     68  O   UNL     1     -12.754   5.732  -6.610  1.00  0.00    -0.237 OA
ATOM     69  O   UNL     1     -13.831   3.851  -5.434  1.00  0.00    -0.744 OA
ENDBRANCH  65  66
ENDBRANCH  46  60
BRANCH  47  70
ATOM     70  C   UNL     1      -3.692  -4.770 -12.685  1.00  0.00    -0.014 A 
ATOM     71  C   UNL     1      -3.174  -4.461 -13.955  1.00  0.00     0.010 A 
ATOM     72  C   UNL     1      -3.276  -5.957 -12.053  1.00  0.00     0.010 A 
ATOM     73  C   UNL     1      -2.272  -5.326 -14.585  1.00  0.00     0.020 A 
ATOM     74  C   UNL     1      -2.352  -6.809 -12.665  1.00  0.00     0.020 A 
ATOM     75  C   UNL     1      -1.863  -6.493 -13.933  1.00  0.00     0.054 A 
BRANCH  75  76
ATOM     76  S   UNL     1      -0.653  -7.572 -14.748  1.00  0.00     0.124 S 
ATOM     77  O   UNL     1      -1.434  -8.131 -15.846  1.00  0.00    -0.237 OA
ATOM     78  O   UNL     1       0.397  -6.631 -15.132  1.00  0.00    -0.237 OA
ATOM     79  O   UNL     1      -0.278  -8.519 -13.700  1.00  0.00    -0.744 OA
ENDBRANCH  75  76
ENDBRANCH  47  70
BRANCH  59  80
ATOM     80  C   UNL     1     -10.181  -2.556 -14.023  1.00  0.00    -0.014 A 
ATOM     81  C   UNL     1     -10.827  -3.801 -14.109  1.00  0.00     0.010 A 
ATOM     82  C   UNL     1     -10.492  -1.550 -14.957  1.00  0.00     0.010 A 
ATOM     83  C   UNL     1     -11.748  -4.045 -15.129  1.00  0.00     0.020 A 
ATOM     84  C   UNL     1     -11.438  -1.778 -15.956  1.00  0.00     0.020 A 
ATOM     85  C   UNL     1     -12.050  -3.030 -16.043  1.00  0.00     0.054 A 
BRANCH  85  86
ATOM     86  S   UNL     1     -13.291  -3.356 -17.323  1.00  0.00     0.124 S 
ATOM     87  O   UNL     1     -12.582  -4.280 -18.204  1.00  0.00    -0.237 OA
ATOM     88  O   UNL     1     -14.392  -3.936 -16.558  1.00  0.00    -0.237 OA
ATOM     89  O   UNL     1     -13.560  -2.037 -17.890  1.00  0.00    -0.744 OA
ENDBRANCH  85  86
ENDBRANCH  59  80
ENDBRANCH  33  34
ENDBRANCH  25  28
ENDBRANCH  23  24
ENDBRANCH   1  23
TORSDOF 16
