REMARK SMILES CC[C@@H](C)[C@H](NC(=O)[C@H](C)N1C(=O)N2CCC3=c4cc(OC)ccc4=N[C@H]3[C@@]2(C)C1=O)C(=O)NCCCNC(=O)c1ccc(-c2c3nc(c(-c4ccc(S(=O)(=O)[O-])cc4)c4ccc([nH]4)c(-c4ccc(S(=O)(=O)[O-])cc4)c4nc(c(-c5ccc(S(=O)(=O)[O-])cc5)c5ccc2[nH]5)C=C4)C=C3)cc1
REMARK SMILES IDX 35 1 34 2 32 3 33 4 5 6 3 7 4 8 2 9 1 10 6 11 7 12 8 14 9 15
REMARK SMILES IDX 10 16 11 17 12 18 30 19 14 20 13 21 28 22 31 23 15 24 27 25
REMARK SMILES IDX 29 26 16 27 17 28 26 29 18 30 25 31 19 32 24 33 20 34 23 35
REMARK SMILES IDX 21 36 22 37 36 38 37 39 38 40 39 41 40 43 41 44 42 45 100 46
REMARK SMILES IDX 43 47 99 48 44 49 45 50 46 51 93 52 47 53 98 54 92 55 94 56
REMARK SMILES IDX 48 57 97 58 91 59 90 60 49 62 79 63 60 64 78 65 61 66 64 67
REMARK SMILES IDX 77 68 95 69 62 70 63 71 76 73 96 74 65 75 50 76 51 77 59 78
REMARK SMILES IDX 52 79 58 80 53 81 54 82 55 83 56 84 57 85 80 86 81 87 89 88
REMARK SMILES IDX 82 89 88 90 83 91 84 92 85 93 86 94 87 95 66 96 67 97 75 98
REMARK SMILES IDX 68 99 74 100 69 101 70 102 71 103 72 104 73 105
REMARK H PARENT 34 5 6 13 38 42 94 61 64 72
REMARK Flexibility Score: inf
ROOT
ATOM      1  C   UNL     1       3.024   1.841   2.869  1.00  0.00     0.117 C 
ENDROOT
BRANCH   1   2
ATOM      2  N   UNL     1       2.769   3.055   3.638  1.00  0.00    -0.354 N 
ATOM      3  C   UNL     1       3.869   3.619   4.302  1.00  0.00     0.242 C 
ATOM      4  O   UNL     1       4.960   3.710   3.737  1.00  0.00    -0.273 OA
ATOM      5  H   UNL     1       1.872   3.456   3.689  1.00  0.00     0.163 HD
BRANCH   3   6
ATOM      6  C   UNL     1       3.629   4.207   5.723  1.00  0.00     0.174 C 
BRANCH   6   7
ATOM      7  C   UNL     1       4.914   4.548   6.605  1.00  0.00     0.018 C 
ATOM      8  C   UNL     1       5.235   6.051   6.595  1.00  0.00     0.010 C 
BRANCH   7   9
ATOM      9  C   UNL     1       6.260   3.827   6.312  1.00  0.00     0.002 C 
ATOM     10  C   UNL     1       7.064   3.573   7.599  1.00  0.00     0.004 C 
ENDBRANCH   7   9
ENDBRANCH   6   7
BRANCH   6  11
ATOM     11  N   UNL     1       2.549   3.589   6.570  1.00  0.00    -0.342 N 
ATOM     12  C   UNL     1       2.382   2.317   7.091  1.00  0.00     0.243 C 
ATOM     13  H   UNL     1       1.819   4.210   6.798  1.00  0.00     0.164 HD
ATOM     14  O   UNL     1       2.022   2.235   8.269  1.00  0.00    -0.273 OA
BRANCH  12  15
ATOM     15  C   UNL     1       2.490   1.049   6.177  1.00  0.00     0.181 C 
ATOM     16  C   UNL     1       1.060   0.519   6.041  1.00  0.00     0.042 C 
BRANCH  15  17
ATOM     17  N   UNL     1       3.642   0.124   6.360  1.00  0.00    -0.250 N 
ATOM     18  C   UNL     1       3.980  -1.159   5.956  1.00  0.00     0.328 C 
ATOM     19  C   UNL     1       4.811   0.766   6.510  1.00  0.00     0.259 C 
ATOM     20  N   UNL     1       5.446  -1.249   5.909  1.00  0.00    -0.307 N 
ATOM     21  O   UNL     1       3.208  -2.033   5.581  1.00  0.00    -0.248 OA
ATOM     22  C   UNL     1       5.915   0.111   5.729  1.00  0.00     0.147 C 
ATOM     23  O   UNL     1       4.927   1.734   7.243  1.00  0.00    -0.271 OA
ATOM     24  C   UNL     1       6.344  -2.249   5.168  1.00  0.00     0.127 C 
ATOM     25  C   UNL     1       5.975   0.304   4.119  1.00  0.00     0.168 C 
ATOM     26  C   UNL     1       7.236   0.317   6.483  1.00  0.00     0.048 C 
ATOM     27  C   UNL     1       7.515  -1.548   4.072  1.00  0.00     0.055 C 
ATOM     28  C   UNL     1       7.273  -0.047   3.477  1.00  0.00    -0.032 C 
ATOM     29  N   UNL     1       5.034   0.070   2.954  1.00  0.00    -0.274 NA
ATOM     30  C   UNL     1       7.193   0.328   2.154  1.00  0.00     0.005 A 
ATOM     31  C   UNL     1       5.851  -0.274   1.989  1.00  0.00     0.066 A 
ATOM     32  C   UNL     1       6.874   1.681   1.469  1.00  0.00     0.056 A 
ATOM     33  C   UNL     1       5.560  -0.662   0.600  1.00  0.00     0.032 A 
ATOM     34  C   UNL     1       6.013   1.680   0.389  1.00  0.00     0.119 A 
ATOM     35  C   UNL     1       5.654   0.397  -0.211  1.00  0.00     0.048 A 
BRANCH  34  36
ATOM     36  O   UNL     1       5.294   2.784  -0.050  1.00  0.00    -0.497 OA
ATOM     37  C   UNL     1       3.914   2.558  -0.439  1.00  0.00     0.278 C 
ENDBRANCH  34  36
ENDBRANCH  15  17
ENDBRANCH  12  15
ENDBRANCH   6  11
ENDBRANCH   3   6
ENDBRANCH   1   2
BRANCH   1  38
ATOM     38  C   UNL     1       1.943   0.742   2.732  1.00  0.00     0.042 C 
BRANCH  38  39
ATOM     39  C   UNL     1       2.269  -0.602   2.000  1.00  0.00     0.118 C 
BRANCH  39  40
ATOM     40  N   UNL     1       3.208  -1.537   2.653  1.00  0.00    -0.352 N 
ATOM     41  C   UNL     1       3.703  -2.773   2.267  1.00  0.00     0.251 C 
ATOM     42  H   UNL     1       3.545  -1.225   3.524  1.00  0.00     0.163 HD
ATOM     43  O   UNL     1       4.777  -3.242   2.621  1.00  0.00    -0.269 OA
BRANCH  41  44
ATOM     44  C   UNL     1       2.892  -3.547   1.350  1.00  0.00     0.039 A 
ATOM     45  C   UNL     1       2.612  -2.933   0.142  1.00  0.00     0.014 A 
ATOM     46  C   UNL     1       2.119  -4.568   1.903  1.00  0.00     0.014 A 
ATOM     47  C   UNL     1       1.328  -3.049  -0.303  1.00  0.00     0.010 A 
ATOM     48  C   UNL     1       0.890  -4.819   1.330  1.00  0.00     0.010 A 
ATOM     49  C   UNL     1       0.457  -3.968   0.305  1.00  0.00    -0.014 A 
BRANCH  49  50
ATOM     50  C   UNL     1      -0.947  -3.953  -0.106  1.00  0.00     0.031 A 
ATOM     51  C   UNL     1      -2.009  -3.618   0.897  1.00  0.00     0.074 A 
ATOM     52  C   UNL     1      -1.193  -4.162  -1.409  1.00  0.00     0.049 A 
ATOM     53  N   UNL     1      -3.300  -3.732   0.767  1.00  0.00    -0.248 NA
ATOM     54  C   UNL     1      -1.585  -3.105   2.217  1.00  0.00     0.031 C 
ATOM     55  C   UNL     1      -0.162  -4.410  -2.428  1.00  0.00     0.029 A 
ATOM     56  N   UNL     1      -2.361  -4.178  -2.108  1.00  0.00    -0.354 N 
ATOM     57  C   UNL     1      -3.838  -3.368   1.995  1.00  0.00     0.074 A 
ATOM     58  C   UNL     1      -2.743  -3.008   2.862  1.00  0.00     0.031 C 
ATOM     59  C   UNL     1      -0.740  -4.493  -3.628  1.00  0.00     0.029 A 
ATOM     60  C   UNL     1      -2.180  -4.477  -3.434  1.00  0.00     0.049 A 
ATOM     61  H   UNL     1      -3.241  -3.995  -1.705  1.00  0.00     0.167 HD
ATOM     62  C   UNL     1      -5.145  -3.363   2.338  1.00  0.00     0.031 A 
ATOM     63  C   UNL     1      -3.077  -4.814  -4.374  1.00  0.00     0.031 A 
ATOM     64  C   UNL     1      -6.181  -3.710   1.401  1.00  0.00     0.049 A 
ATOM     65  C   UNL     1      -4.506  -4.863  -3.951  1.00  0.00     0.074 A 
ATOM     66  C   UNL     1      -7.546  -3.758   1.607  1.00  0.00     0.029 A 
ATOM     67  N   UNL     1      -5.958  -4.053   0.072  1.00  0.00    -0.354 N 
ATOM     68  N   UNL     1      -5.009  -4.597  -2.767  1.00  0.00    -0.248 NA
ATOM     69  C   UNL     1      -5.484  -5.273  -4.957  1.00  0.00     0.031 C 
ATOM     70  C   UNL     1      -8.142  -4.178   0.417  1.00  0.00     0.029 A 
ATOM     71  C   UNL     1      -7.157  -4.331  -0.551  1.00  0.00     0.049 A 
ATOM     72  H   UNL     1      -5.074  -4.093  -0.361  1.00  0.00     0.167 HD
ATOM     73  C   UNL     1      -6.369  -4.819  -2.878  1.00  0.00     0.074 A 
ATOM     74  C   UNL     1      -6.611  -5.213  -4.256  1.00  0.00     0.031 C 
ATOM     75  C   UNL     1      -7.330  -4.718  -1.930  1.00  0.00     0.031 A 
BRANCH  62  76
ATOM     76  C   UNL     1      -5.550  -3.004   3.743  1.00  0.00    -0.014 A 
ATOM     77  C   UNL     1      -6.106  -3.996   4.574  1.00  0.00     0.010 A 
ATOM     78  C   UNL     1      -5.548  -1.670   4.185  1.00  0.00     0.010 A 
ATOM     79  C   UNL     1      -6.710  -3.655   5.788  1.00  0.00     0.020 A 
ATOM     80  C   UNL     1      -6.133  -1.327   5.410  1.00  0.00     0.020 A 
ATOM     81  C   UNL     1      -6.741  -2.317   6.187  1.00  0.00     0.054 A 
BRANCH  81  82
ATOM     82  S   UNL     1      -7.621  -1.880   7.714  1.00  0.00     0.124 S 
ATOM     83  O   UNL     1      -9.018  -2.025   7.316  1.00  0.00    -0.237 OA
ATOM     84  O   UNL     1      -7.130  -2.876   8.663  1.00  0.00    -0.237 OA
ATOM     85  O   UNL     1      -7.186  -0.510   7.979  1.00  0.00    -0.744 OA
ENDBRANCH  81  82
ENDBRANCH  62  76
BRANCH  63  86
ATOM     86  C   UNL     1      -2.575  -5.211  -5.713  1.00  0.00    -0.014 A 
ATOM     87  C   UNL     1      -1.790  -6.378  -5.844  1.00  0.00     0.010 A 
ATOM     88  C   UNL     1      -2.685  -4.335  -6.802  1.00  0.00     0.010 A 
ATOM     89  C   UNL     1      -1.058  -6.615  -7.007  1.00  0.00     0.020 A 
ATOM     90  C   UNL     1      -1.980  -4.590  -7.983  1.00  0.00     0.020 A 
ATOM     91  C   UNL     1      -1.141  -5.707  -8.062  1.00  0.00     0.054 A 
BRANCH  91  92
ATOM     92  S   UNL     1      -0.119  -5.981  -9.536  1.00  0.00     0.124 S 
ATOM     93  O   UNL     1       1.170  -5.444  -9.107  1.00  0.00    -0.237 OA
ATOM     94  O   UNL     1      -0.173  -7.430  -9.703  1.00  0.00    -0.237 OA
ATOM     95  O   UNL     1      -0.806  -5.211 -10.570  1.00  0.00    -0.744 OA
ENDBRANCH  91  92
ENDBRANCH  63  86
BRANCH  75  96
ATOM     96  C   UNL     1      -8.730  -5.039  -2.349  1.00  0.00    -0.014 A 
ATOM     97  C   UNL     1      -9.664  -3.997  -2.481  1.00  0.00     0.010 A 
ATOM     98  C   UNL     1      -9.147  -6.376  -2.447  1.00  0.00     0.010 A 
ATOM     99  C   UNL     1     -11.014  -4.291  -2.656  1.00  0.00     0.020 A 
ATOM    100  C   UNL     1     -10.494  -6.671  -2.649  1.00  0.00     0.020 A 
ATOM    101  C   UNL     1     -11.421  -5.627  -2.722  1.00  0.00     0.054 A 
BRANCH 101 102
ATOM    102  S   UNL     1     -13.187  -5.989  -2.885  1.00  0.00     0.124 S 
ATOM    103  O   UNL     1     -13.673  -5.752  -1.528  1.00  0.00    -0.237 OA
ATOM    104  O   UNL     1     -13.621  -5.019  -3.888  1.00  0.00    -0.237 OA
ATOM    105  O   UNL     1     -13.211  -7.382  -3.325  1.00  0.00    -0.744 OA
ENDBRANCH 101 102
ENDBRANCH  75  96
ENDBRANCH  49  50
ENDBRANCH  41  44
ENDBRANCH  39  40
ENDBRANCH  38  39
ENDBRANCH   1  38
TORSDOF 19
