REMARK SMILES O=C(CCOc1cc(-c2ccncc2)nc(-c2ccc(C(F)(F)F)cc2)n1)NCCCNC(=O)c1ccc(-c2c3nc(c(-c4ccc(S(=O)(=O)[O-])cc4)c4ccc([nH]4)c(-c4ccc(S(=O)(=O)[O-])cc4)c4nc(c(-c5ccc(S(=O)(=O)[O-])cc5)c5ccc2[nH]5)C=C4)C=C3)cc1
REMARK SMILES IDX 29 1 28 2 1 3 2 4 3 6 4 7 5 8 6 9 7 10 27 11 8 12 16 13
REMARK SMILES IDX 15 14 9 15 10 16 14 17 11 18 13 19 12 20 17 21 18 22 26 23
REMARK SMILES IDX 19 24 25 25 20 26 21 27 22 28 23 29 24 30 30 31 31 32 32 33
REMARK SMILES IDX 33 34 34 36 35 37 36 38 94 39 37 40 93 41 38 42 39 43 40 44
REMARK SMILES IDX 87 45 41 46 92 47 86 48 88 49 42 50 91 51 85 52 84 53 43 55
REMARK SMILES IDX 73 56 54 57 72 58 55 59 58 60 71 61 89 62 56 63 57 64 70 66
REMARK SMILES IDX 90 67 59 68 44 69 45 70 53 71 46 72 52 73 47 74 48 75 49 76
REMARK SMILES IDX 50 77 51 78 74 79 75 80 83 81 76 82 82 83 77 84 78 85 79 86
REMARK SMILES IDX 80 87 81 88 60 89 61 90 69 91 62 92 68 93 63 94 64 95 65 96
REMARK SMILES IDX 66 97 67 98
REMARK H PARENT 28 5 32 35 88 54 58 65
REMARK Flexibility Score: inf
ROOT
ATOM      1  C   UNL     1       2.562   2.526  -0.308  1.00  0.00     0.117 C 
ENDROOT
BRANCH   1   2
ATOM      2  N   UNL     1       3.124   1.524   0.582  1.00  0.00    -0.356 N 
ATOM      3  O   UNL     1       1.241   0.225   0.776  1.00  0.00    -0.275 OA
ATOM      4  C   UNL     1       2.443   0.377   0.925  1.00  0.00     0.223 C 
ATOM      5  H   UNL     1       4.024   1.670   0.953  1.00  0.00     0.163 HD
BRANCH   4   6
ATOM      6  C   UNL     1       3.345  -0.759   1.354  1.00  0.00     0.141 C 
BRANCH   6   7
ATOM      7  C   UNL     1       3.396  -1.817   0.244  1.00  0.00     0.241 C 
BRANCH   7   8
ATOM      8  O   UNL     1       4.255  -1.413  -0.831  1.00  0.00    -0.477 OA
BRANCH   8   9
ATOM      9  C   UNL     1       3.675  -1.261  -2.066  1.00  0.00     0.217 A 
ATOM     10  C   UNL     1       2.479  -0.615  -2.251  1.00  0.00     0.097 A 
ATOM     11  N   UNL     1       4.459  -1.626  -3.093  1.00  0.00    -0.193 NA
ATOM     12  C   UNL     1       2.142  -0.267  -3.542  1.00  0.00     0.078 A 
ATOM     13  C   UNL     1       4.015  -1.315  -4.327  1.00  0.00     0.163 A 
ATOM     14  N   UNL     1       2.892  -0.622  -4.595  1.00  0.00    -0.228 NA
BRANCH  12  15
ATOM     15  C   UNL     1       1.008   0.630  -3.778  1.00  0.00     0.003 A 
ATOM     16  C   UNL     1       1.214   2.002  -3.970  1.00  0.00     0.030 A 
ATOM     17  C   UNL     1      -0.309   0.176  -3.676  1.00  0.00     0.030 A 
ATOM     18  C   UNL     1       0.122   2.853  -3.995  1.00  0.00     0.111 A 
ATOM     19  C   UNL     1      -1.339   1.102  -3.729  1.00  0.00     0.111 A 
ATOM     20  N   UNL     1      -1.152   2.430  -3.869  1.00  0.00    -0.265 NA
ENDBRANCH  12  15
BRANCH  13  21
ATOM     21  C   UNL     1       4.782  -1.798  -5.477  1.00  0.00     0.019 A 
ATOM     22  C   UNL     1       4.768  -3.156  -5.830  1.00  0.00     0.012 A 
ATOM     23  C   UNL     1       5.501  -0.916  -6.297  1.00  0.00     0.012 A 
ATOM     24  C   UNL     1       5.406  -3.604  -6.993  1.00  0.00     0.014 A 
ATOM     25  C   UNL     1       6.147  -1.359  -7.455  1.00  0.00     0.014 A 
ATOM     26  C   UNL     1       6.086  -2.705  -7.829  1.00  0.00     0.056 A 
BRANCH  26  27
ATOM     27  C   UNL     1       6.714  -3.187  -9.112  1.00  0.00     0.416 C 
ATOM     28  F   UNL     1       7.721  -4.080  -8.899  1.00  0.00    -0.166 F 
ATOM     29  F   UNL     1       5.820  -3.827  -9.919  1.00  0.00    -0.166 F 
ATOM     30  F   UNL     1       7.252  -2.193  -9.872  1.00  0.00    -0.166 F 
ENDBRANCH  26  27
ENDBRANCH  13  21
ENDBRANCH   8   9
ENDBRANCH   7   8
ENDBRANCH   6   7
ENDBRANCH   4   6
ENDBRANCH   1   2
BRANCH   1  31
ATOM     31  C   UNL     1       3.643   3.333  -1.043  1.00  0.00     0.042 C 
BRANCH  31  32
ATOM     32  C   UNL     1       4.813   2.506  -1.593  1.00  0.00     0.118 C 
BRANCH  32  33
ATOM     33  N   UNL     1       4.715   2.143  -2.992  1.00  0.00    -0.352 N 
ATOM     34  C   UNL     1       4.951   2.778  -4.179  1.00  0.00     0.251 C 
ATOM     35  H   UNL     1       4.403   1.218  -3.118  1.00  0.00     0.163 HD
ATOM     36  O   UNL     1       4.755   2.123  -5.203  1.00  0.00    -0.269 OA
BRANCH  34  37
ATOM     37  C   UNL     1       5.363   4.193  -4.334  1.00  0.00     0.039 A 
ATOM     38  C   UNL     1       5.158   4.770  -5.602  1.00  0.00     0.014 A 
ATOM     39  C   UNL     1       5.955   4.964  -3.339  1.00  0.00     0.014 A 
ATOM     40  C   UNL     1       5.492   6.101  -5.850  1.00  0.00     0.010 A 
ATOM     41  C   UNL     1       6.230   6.311  -3.564  1.00  0.00     0.010 A 
ATOM     42  C   UNL     1       5.990   6.894  -4.814  1.00  0.00    -0.014 A 
BRANCH  42  43
ATOM     43  C   UNL     1       6.221   8.347  -4.976  1.00  0.00     0.031 A 
ATOM     44  C   UNL     1       7.597   8.915  -4.787  1.00  0.00     0.074 A 
ATOM     45  C   UNL     1       5.158   9.156  -5.154  1.00  0.00     0.049 A 
ATOM     46  N   UNL     1       7.963  10.162  -4.655  1.00  0.00    -0.248 NA
ATOM     47  C   UNL     1       8.704   7.948  -4.695  1.00  0.00     0.031 C 
ATOM     48  C   UNL     1       3.771   8.712  -5.320  1.00  0.00     0.029 A 
ATOM     49  N   UNL     1       5.076  10.523  -5.194  1.00  0.00    -0.354 N 
ATOM     50  C   UNL     1       9.332  10.132  -4.423  1.00  0.00     0.074 A 
ATOM     51  C   UNL     1       9.728   8.739  -4.408  1.00  0.00     0.031 C 
ATOM     52  C   UNL     1       2.978   9.786  -5.455  1.00  0.00     0.029 A 
ATOM     53  C   UNL     1       3.790  10.990  -5.326  1.00  0.00     0.049 A 
ATOM     54  H   UNL     1       5.861  11.114  -5.135  1.00  0.00     0.167 HD
ATOM     55  C   UNL     1      10.180  11.173  -4.241  1.00  0.00     0.031 A 
ATOM     56  C   UNL     1       3.312  12.248  -5.316  1.00  0.00     0.031 A 
ATOM     57  C   UNL     1       9.772  12.552  -4.284  1.00  0.00     0.049 A 
ATOM     58  C   UNL     1       4.274  13.385  -5.130  1.00  0.00     0.074 A 
ATOM     59  C   UNL     1      10.555  13.687  -4.167  1.00  0.00     0.029 A 
ATOM     60  N   UNL     1       8.466  12.984  -4.467  1.00  0.00    -0.354 N 
ATOM     61  N   UNL     1       5.571  13.341  -4.936  1.00  0.00    -0.248 NA
ATOM     62  C   UNL     1       3.710  14.740  -5.165  1.00  0.00     0.031 C 
ATOM     63  C   UNL     1       9.717  14.805  -4.246  1.00  0.00     0.029 A 
ATOM     64  C   UNL     1       8.419  14.367  -4.456  1.00  0.00     0.049 A 
ATOM     65  H   UNL     1       7.687  12.394  -4.588  1.00  0.00     0.167 HD
ATOM     66  C   UNL     1       5.982  14.664  -4.843  1.00  0.00     0.074 A 
ATOM     67  C   UNL     1       4.799  15.483  -5.018  1.00  0.00     0.031 C 
ATOM     68  C   UNL     1       7.227  15.158  -4.631  1.00  0.00     0.031 A 
BRANCH  55  69
ATOM     69  C   UNL     1      11.625  10.854  -3.964  1.00  0.00    -0.014 A 
ATOM     70  C   UNL     1      12.461  10.330  -4.966  1.00  0.00     0.010 A 
ATOM     71  C   UNL     1      12.163  11.105  -2.688  1.00  0.00     0.010 A 
ATOM     72  C   UNL     1      13.793  10.015  -4.685  1.00  0.00     0.020 A 
ATOM     73  C   UNL     1      13.502  10.817  -2.410  1.00  0.00     0.020 A 
ATOM     74  C   UNL     1      14.304  10.254  -3.405  1.00  0.00     0.054 A 
BRANCH  74  75
ATOM     75  S   UNL     1      16.038   9.842  -3.067  1.00  0.00     0.124 S 
ATOM     76  O   UNL     1      15.983   8.386  -2.954  1.00  0.00    -0.237 OA
ATOM     77  O   UNL     1      16.728  10.354  -4.248  1.00  0.00    -0.237 OA
ATOM     78  O   UNL     1      16.326  10.552  -1.824  1.00  0.00    -0.744 OA
ENDBRANCH  74  75
ENDBRANCH  55  69
BRANCH  56  79
ATOM     79  C   UNL     1       1.856  12.486  -5.491  1.00  0.00    -0.014 A 
ATOM     80  C   UNL     1       1.367  13.005  -6.702  1.00  0.00     0.010 A 
ATOM     81  C   UNL     1       0.947  12.161  -4.468  1.00  0.00     0.010 A 
ATOM     82  C   UNL     1      -0.003  13.209  -6.883  1.00  0.00     0.020 A 
ATOM     83  C   UNL     1      -0.427  12.340  -4.654  1.00  0.00     0.020 A 
ATOM     84  C   UNL     1      -0.892  12.873  -5.857  1.00  0.00     0.054 A 
BRANCH  84  85
ATOM     85  S   UNL     1      -2.672  13.093  -6.136  1.00  0.00     0.124 S 
ATOM     86  O   UNL     1      -2.822  14.538  -5.999  1.00  0.00    -0.237 OA
ATOM     87  O   UNL     1      -2.850  12.563  -7.485  1.00  0.00    -0.237 OA
ATOM     88  O   UNL     1      -3.283  12.295  -5.076  1.00  0.00    -0.744 OA
ENDBRANCH  84  85
ENDBRANCH  56  79
BRANCH  68  89
ATOM     89  C   UNL     1       7.372  16.653  -4.604  1.00  0.00    -0.014 A 
ATOM     90  C   UNL     1       6.949  17.402  -3.493  1.00  0.00     0.010 A 
ATOM     91  C   UNL     1       7.989  17.309  -5.685  1.00  0.00     0.010 A 
ATOM     92  C   UNL     1       7.118  18.788  -3.474  1.00  0.00     0.020 A 
ATOM     93  C   UNL     1       8.180  18.692  -5.659  1.00  0.00     0.020 A 
ATOM     94  C   UNL     1       7.732  19.424  -4.558  1.00  0.00     0.054 A 
BRANCH  94  95
ATOM     95  S   UNL     1       7.987  21.219  -4.488  1.00  0.00     0.124 S 
ATOM     96  O   UNL     1       6.646  21.727  -4.763  1.00  0.00    -0.237 OA
ATOM     97  O   UNL     1       8.469  21.422  -3.123  1.00  0.00    -0.237 OA
ATOM     98  O   UNL     1       8.976  21.468  -5.534  1.00  0.00    -0.744 OA
ENDBRANCH  94  95
ENDBRANCH  68  89
ENDBRANCH  42  43
ENDBRANCH  34  37
ENDBRANCH  32  33
ENDBRANCH  31  32
ENDBRANCH   1  31
TORSDOF 19
