REMARK SMILES NC(=O)[C@@H]1CCC[N@@H+]1[C@@H](C(=O)NCCCNC(=O)c1ccc(-c2c3nc(c(-c4ccc(S(=O)(=O)[O-])cc4)c4ccc([nH]4)c(-c4ccc(S(=O)(=O)[O-])cc4)c4nc(c(-c5ccc(S(=O)(=O)[O-])cc5)c5ccc2[nH]5)C=C4)C=C3)cc1)c1c[nH]c2cc(OCc3ccccc3)ccc12
REMARK SMILES IDX 13 1 12 2 10 3 11 4 9 6 8 7 4 8 5 9 6 10 7 11 2 13 1 14 3 17
REMARK SMILES IDX 79 18 80 19 95 20 81 21 82 22 94 23 83 25 93 26 84 27 85 28
REMARK SMILES IDX 86 29 87 30 88 31 92 32 89 33 91 34 90 35 14 36 15 37 16 38
REMARK SMILES IDX 17 39 18 41 19 42 20 43 78 44 21 45 77 46 22 47 23 48 24 49
REMARK SMILES IDX 71 50 25 51 76 52 70 53 72 54 26 55 75 56 69 57 68 58 27 60
REMARK SMILES IDX 57 61 38 62 56 63 39 64 42 65 55 66 73 67 40 68 41 69 54 71
REMARK SMILES IDX 74 72 43 73 28 74 29 75 37 76 30 77 36 78 31 79 32 80 33 81
REMARK SMILES IDX 34 82 35 83 58 84 59 85 67 86 60 87 66 88 61 89 62 90 63 91
REMARK SMILES IDX 64 92 65 93 44 94 45 95 53 96 46 97 52 98 47 99 48 100
REMARK SMILES IDX 49 101 50 102 51 103
REMARK H PARENT 12 5 8 12 1 15 1 16 81 24 16 40 72 59 42 70
REMARK Flexibility Score: inf
ROOT
ATOM      1  C   UNL     1      -1.855   0.375   2.232  1.00  0.00     0.118 C 
ENDROOT
BRANCH   1   2
ATOM      2  N   UNL     1      -1.788   1.223   3.409  1.00  0.00    -0.351 N 
ATOM      3  C   UNL     1      -1.328   2.469   3.715  1.00  0.00     0.283 C 
ATOM      4  O   UNL     1      -1.341   2.658   4.937  1.00  0.00    -0.268 OA
ATOM      5  H   UNL     1      -2.179   0.779   4.196  1.00  0.00     0.163 HD
BRANCH   3   6
ATOM      6  C   UNL     1      -0.820   3.519   2.679  1.00  0.00     0.308 C 
BRANCH   6   7
ATOM      7  N   UNL     1       0.674   3.518   2.475  1.00  0.00    -0.311 N 
ATOM      8  C   UNL     1       1.372   2.374   1.880  1.00  0.00     0.275 C 
ATOM      9  C   UNL     1       1.706   1.478   3.066  1.00  0.00     0.081 C 
ATOM     10  C   UNL     1       1.896   2.437   4.229  1.00  0.00     0.068 C 
ATOM     11  C   UNL     1       1.475   3.786   3.684  1.00  0.00     0.264 C 
ATOM     12  H   UNL     1       0.637   4.268   1.785  1.00  0.00     0.349 HD
BRANCH   8  13
ATOM     13  C   UNL     1       0.768   1.765   0.614  1.00  0.00     0.275 C 
ATOM     14  N   UNL     1       1.427   0.666   0.133  1.00  0.00    -0.365 N 
ATOM     15  H   UNL     1       1.103   0.213  -0.679  1.00  0.00     0.159 HD
ATOM     16  H   UNL     1       2.226   0.328   0.600  1.00  0.00     0.159 HD
ATOM     17  O   UNL     1      -0.178   2.217  -0.023  1.00  0.00    -0.268 OA
ENDBRANCH   8  13
ENDBRANCH   6   7
BRANCH   6  18
ATOM     18  C   UNL     1      -1.104   5.027   3.037  1.00  0.00     0.044 A 
ATOM     19  C   UNL     1      -0.790   6.067   2.159  1.00  0.00     0.094 A 
ATOM     20  C   UNL     1      -1.179   5.665   4.337  1.00  0.00     0.009 A 
ATOM     21  N   UNL     1      -0.168   7.036   2.916  1.00  0.00    -0.361 N 
ATOM     22  C   UNL     1      -0.259   6.713   4.248  1.00  0.00     0.050 A 
ATOM     23  C   UNL     1      -1.611   5.294   5.627  1.00  0.00     0.015 A 
ATOM     24  H   UNL     1       0.275   7.839   2.556  1.00  0.00     0.166 HD
ATOM     25  C   UNL     1       0.476   7.156   5.357  1.00  0.00     0.073 A 
ATOM     26  C   UNL     1      -0.911   5.745   6.755  1.00  0.00     0.047 A 
ATOM     27  C   UNL     1       0.184   6.585   6.601  1.00  0.00     0.121 A 
BRANCH  27  28
ATOM     28  O   UNL     1       1.141   6.767   7.560  1.00  0.00    -0.489 OA
BRANCH  28  29
ATOM     29  C   UNL     1       0.708   7.000   8.897  1.00  0.00     0.265 C 
BRANCH  29  30
ATOM     30  C   UNL     1       1.014   8.447   9.177  1.00  0.00    -0.011 A 
ATOM     31  C   UNL     1       2.338   8.861   9.384  1.00  0.00     0.007 A 
ATOM     32  C   UNL     1      -0.002   9.406   9.099  1.00  0.00     0.007 A 
ATOM     33  C   UNL     1       2.639  10.216   9.506  1.00  0.00     0.000 A 
ATOM     34  C   UNL     1       0.301  10.761   9.224  1.00  0.00     0.000 A 
ATOM     35  C   UNL     1       1.621  11.165   9.423  1.00  0.00     0.000 A 
ENDBRANCH  29  30
ENDBRANCH  28  29
ENDBRANCH  27  28
ENDBRANCH   6  18
ENDBRANCH   3   6
ENDBRANCH   1   2
BRANCH   1  36
ATOM     36  C   UNL     1      -0.875  -0.818   2.259  1.00  0.00     0.042 C 
BRANCH  36  37
ATOM     37  C   UNL     1      -0.729  -1.567   3.595  1.00  0.00     0.118 C 
BRANCH  37  38
ATOM     38  N   UNL     1      -1.273  -2.908   3.507  1.00  0.00    -0.352 N 
ATOM     39  C   UNL     1      -0.732  -4.108   3.898  1.00  0.00     0.251 C 
ATOM     40  H   UNL     1      -2.169  -2.968   3.103  1.00  0.00     0.163 HD
ATOM     41  O   UNL     1      -1.244  -5.144   3.476  1.00  0.00    -0.269 OA
BRANCH  39  42
ATOM     42  C   UNL     1       0.435  -4.193   4.816  1.00  0.00     0.039 A 
ATOM     43  C   UNL     1       1.351  -5.236   4.622  1.00  0.00     0.014 A 
ATOM     44  C   UNL     1       0.569  -3.366   5.935  1.00  0.00     0.014 A 
ATOM     45  C   UNL     1       2.385  -5.454   5.540  1.00  0.00     0.010 A 
ATOM     46  C   UNL     1       1.627  -3.563   6.835  1.00  0.00     0.010 A 
ATOM     47  C   UNL     1       2.531  -4.624   6.662  1.00  0.00    -0.014 A 
BRANCH  47  48
ATOM     48  C   UNL     1       3.593  -4.892   7.672  1.00  0.00     0.031 A 
ATOM     49  C   UNL     1       3.231  -5.381   9.052  1.00  0.00     0.074 A 
ATOM     50  C   UNL     1       4.888  -4.683   7.362  1.00  0.00     0.049 A 
ATOM     51  N   UNL     1       4.016  -5.658  10.064  1.00  0.00    -0.248 NA
ATOM     52  C   UNL     1       1.800  -5.571   9.336  1.00  0.00     0.031 C 
ATOM     53  C   UNL     1       5.379  -4.194   6.073  1.00  0.00     0.029 A 
ATOM     54  N   UNL     1       6.027  -4.851   8.111  1.00  0.00    -0.354 N 
ATOM     55  C   UNL     1       3.176  -6.036  11.107  1.00  0.00     0.074 A 
ATOM     56  C   UNL     1       1.820  -5.919  10.615  1.00  0.00     0.031 C 
ATOM     57  C   UNL     1       6.719  -4.115   6.117  1.00  0.00     0.029 A 
ATOM     58  C   UNL     1       7.182  -4.520   7.442  1.00  0.00     0.049 A 
ATOM     59  H   UNL     1       6.018  -5.179   9.039  1.00  0.00     0.167 HD
ATOM     60  C   UNL     1       3.500  -6.453  12.356  1.00  0.00     0.031 A 
ATOM     61  C   UNL     1       8.468  -4.534   7.845  1.00  0.00     0.031 A 
ATOM     62  C   UNL     1       4.848  -6.581  12.848  1.00  0.00     0.049 A 
ATOM     63  C   UNL     1       8.806  -5.001   9.234  1.00  0.00     0.074 A 
ATOM     64  C   UNL     1       5.275  -7.045  14.080  1.00  0.00     0.029 A 
ATOM     65  N   UNL     1       5.987  -6.240  12.134  1.00  0.00    -0.354 N 
ATOM     66  N   UNL     1       7.999  -5.407  10.185  1.00  0.00    -0.248 NA
ATOM     67  C   UNL     1      10.229  -5.025   9.598  1.00  0.00     0.031 C 
ATOM     68  C   UNL     1       6.671  -6.944  14.128  1.00  0.00     0.029 A 
ATOM     69  C   UNL     1       7.115  -6.464  12.907  1.00  0.00     0.049 A 
ATOM     70  H   UNL     1       5.993  -5.891  11.214  1.00  0.00     0.167 HD
ATOM     71  C   UNL     1       8.818  -5.755  11.253  1.00  0.00     0.074 A 
ATOM     72  C   UNL     1      10.184  -5.526  10.826  1.00  0.00     0.031 C 
ATOM     73  C   UNL     1       8.469  -6.225  12.476  1.00  0.00     0.031 A 
BRANCH  60  74
ATOM     74  C   UNL     1       2.367  -6.791  13.291  1.00  0.00    -0.014 A 
ATOM     75  C   UNL     1       1.585  -7.945  13.101  1.00  0.00     0.010 A 
ATOM     76  C   UNL     1       2.097  -5.958  14.393  1.00  0.00     0.010 A 
ATOM     77  C   UNL     1       0.524  -8.233  13.964  1.00  0.00     0.020 A 
ATOM     78  C   UNL     1       1.052  -6.256  15.273  1.00  0.00     0.020 A 
ATOM     79  C   UNL     1       0.259  -7.381  15.040  1.00  0.00     0.054 A 
BRANCH  79  80
ATOM     80  S   UNL     1      -1.125  -7.777  16.145  1.00  0.00     0.124 S 
ATOM     81  O   UNL     1      -2.276  -7.389  15.336  1.00  0.00    -0.237 OA
ATOM     82  O   UNL     1      -0.964  -9.211  16.363  1.00  0.00    -0.237 OA
ATOM     83  O   UNL     1      -0.879  -6.941  17.320  1.00  0.00    -0.744 OA
ENDBRANCH  79  80
ENDBRANCH  60  74
BRANCH  61  84
ATOM     84  C   UNL     1       9.537  -4.105   6.904  1.00  0.00    -0.014 A 
ATOM     85  C   UNL     1      10.394  -5.052   6.316  1.00  0.00     0.010 A 
ATOM     86  C   UNL     1       9.682  -2.747   6.567  1.00  0.00     0.010 A 
ATOM     87  C   UNL     1      11.379  -4.649   5.410  1.00  0.00     0.020 A 
ATOM     88  C   UNL     1      10.651  -2.343   5.644  1.00  0.00     0.020 A 
ATOM     89  C   UNL     1      11.498  -3.297   5.076  1.00  0.00     0.054 A 
BRANCH  89  90
ATOM     90  S   UNL     1      12.729  -2.805   3.836  1.00  0.00     0.124 S 
ATOM     91  O   UNL     1      13.971  -2.868   4.600  1.00  0.00    -0.237 OA
ATOM     92  O   UNL     1      12.566  -3.827   2.805  1.00  0.00    -0.237 OA
ATOM     93  O   UNL     1      12.299  -1.464   3.445  1.00  0.00    -0.744 OA
ENDBRANCH  89  90
ENDBRANCH  61  84
BRANCH  73  94
ATOM     94  C   UNL     1       9.583  -6.547  13.437  1.00  0.00    -0.014 A 
ATOM     95  C   UNL     1      10.309  -5.527  14.076  1.00  0.00     0.010 A 
ATOM     96  C   UNL     1       9.876  -7.889  13.738  1.00  0.00     0.010 A 
ATOM     97  C   UNL     1      11.332  -5.844  14.975  1.00  0.00     0.020 A 
ATOM     98  C   UNL     1      10.881  -8.211  14.654  1.00  0.00     0.020 A 
ATOM     99  C   UNL     1      11.614  -7.185  15.256  1.00  0.00     0.054 A 
BRANCH  99 100
ATOM    100  S   UNL     1      12.921  -7.574  16.453  1.00  0.00     0.124 S 
ATOM    101  O   UNL     1      14.130  -7.333  15.670  1.00  0.00    -0.237 OA
ATOM    102  O   UNL     1      12.668  -6.619  17.529  1.00  0.00    -0.237 OA
ATOM    103  O   UNL     1      12.669  -8.972  16.797  1.00  0.00    -0.744 OA
ENDBRANCH  99 100
ENDBRANCH  73  94
ENDBRANCH  47  48
ENDBRANCH  39  42
ENDBRANCH  37  38
ENDBRANCH  36  37
ENDBRANCH   1  36
TORSDOF 19
