REMARK SMILES O=C(COc1ccc2c(=O)c(-c3ccc4c(c3)OCCO4)coc2c1)NCCCNC(=O)c1ccc(-c2c3nc(c(-c4ccc(S(=O)(=O)[O-])cc4)c4ccc([nH]4)c(-c4ccc(S(=O)(=O)[O-])cc4)c4nc(c(-c5ccc(S(=O)(=O)[O-])cc5)c5ccc2[nH]5)C=C4)C=C3)cc1
REMARK SMILES IDX 28 1 27 2 26 3 1 4 2 5 3 7 4 8 5 9 6 10 25 11 7 12 24 13
REMARK SMILES IDX 8 14 23 15 9 16 22 17 10 18 11 19 12 20 13 21 17 22 14 23
REMARK SMILES IDX 16 24 15 25 18 26 21 27 19 28 20 29 29 30 30 31 31 32 32 34
REMARK SMILES IDX 33 35 34 36 92 37 35 38 91 39 36 40 37 41 38 42 85 43 39 44
REMARK SMILES IDX 90 45 84 46 86 47 40 48 89 49 83 50 82 51 41 53 71 54 52 55
REMARK SMILES IDX 70 56 53 57 56 58 69 59 87 60 54 61 55 62 68 64 88 65 57 66
REMARK SMILES IDX 42 67 43 68 51 69 44 70 50 71 45 72 46 73 47 74 48 75 49 76
REMARK SMILES IDX 72 77 73 78 81 79 74 80 80 81 75 82 76 83 77 84 78 85 79 86
REMARK SMILES IDX 58 87 59 88 67 89 60 90 66 91 61 92 62 93 63 94 64 95 65 96
REMARK H PARENT 26 6 30 33 86 52 56 63
REMARK Flexibility Score: inf
ROOT
ATOM      1  C   UNL     1       2.541  -0.082   3.518  1.00  0.00     0.042 C 
ENDROOT
BRANCH   1   2
ATOM      2  C   UNL     1       2.228   0.730   2.275  1.00  0.00     0.117 C 
BRANCH   2   3
ATOM      3  N   UNL     1       2.925   0.274   1.089  1.00  0.00    -0.353 N 
ATOM      4  O   UNL     1       1.165  -0.913   0.201  1.00  0.00    -0.271 OA
ATOM      5  C   UNL     1       2.275  -0.403   0.076  1.00  0.00     0.257 C 
ATOM      6  H   UNL     1       3.890   0.451   1.004  1.00  0.00     0.163 HD
BRANCH   5   7
ATOM      7  C   UNL     1       3.034  -0.410  -1.255  1.00  0.00     0.329 C 
BRANCH   7   8
ATOM      8  O   UNL     1       3.846   0.730  -1.540  1.00  0.00    -0.484 OA
BRANCH   8   9
ATOM      9  C   UNL     1       3.170   1.856  -1.934  1.00  0.00     0.123 A 
ATOM     10  C   UNL     1       2.125   2.421  -1.199  1.00  0.00     0.047 A 
ATOM     11  C   UNL     1       3.656   2.524  -3.062  1.00  0.00     0.094 A 
ATOM     12  C   UNL     1       1.568   3.639  -1.576  1.00  0.00     0.020 A 
ATOM     13  C   UNL     1       3.084   3.739  -3.456  1.00  0.00     0.141 A 
ATOM     14  C   UNL     1       2.052   4.293  -2.703  1.00  0.00     0.066 A 
ATOM     15  O   UNL     1       3.579   4.350  -4.581  1.00  0.00    -0.463 OA
ATOM     16  C   UNL     1       1.479   5.585  -3.095  1.00  0.00     0.200 A 
ATOM     17  C   UNL     1       3.004   5.542  -4.968  1.00  0.00     0.208 A 
ATOM     18  O   UNL     1       0.596   6.110  -2.426  1.00  0.00    -0.288 OA
ATOM     19  C   UNL     1       2.017   6.197  -4.336  1.00  0.00     0.065 A 
BRANCH  19  20
ATOM     20  C   UNL     1       1.472   7.466  -4.839  1.00  0.00    -0.007 A 
ATOM     21  C   UNL     1       0.820   7.521  -6.079  1.00  0.00     0.013 A 
ATOM     22  C   UNL     1       1.526   8.619  -4.042  1.00  0.00     0.059 A 
ATOM     23  C   UNL     1       0.231   8.710  -6.515  1.00  0.00     0.051 A 
ATOM     24  C   UNL     1       0.927   9.800  -4.474  1.00  0.00     0.161 A 
ATOM     25  C   UNL     1       0.293   9.851  -5.718  1.00  0.00     0.161 A 
ATOM     26  O   UNL     1       0.996  10.873  -3.622  1.00  0.00    -0.486 OA
ATOM     27  O   UNL     1      -0.307  10.981  -6.212  1.00  0.00    -0.486 OA
ATOM     28  C   UNL     1       0.039  11.877  -3.976  1.00  0.00     0.271 C 
ATOM     29  C   UNL     1       0.080  12.144  -5.471  1.00  0.00     0.271 C 
ENDBRANCH  19  20
ENDBRANCH   8   9
ENDBRANCH   7   8
ENDBRANCH   5   7
ENDBRANCH   2   3
ENDBRANCH   1   2
BRANCH   1  30
ATOM     30  C   UNL     1       4.010  -0.070   3.921  1.00  0.00     0.118 C 
BRANCH  30  31
ATOM     31  N   UNL     1       4.509   1.257   4.257  1.00  0.00    -0.352 N 
ATOM     32  C   UNL     1       5.230   1.683   5.346  1.00  0.00     0.251 C 
ATOM     33  H   UNL     1       4.296   1.959   3.600  1.00  0.00     0.163 HD
ATOM     34  O   UNL     1       5.446   2.886   5.483  1.00  0.00    -0.269 OA
BRANCH  32  35
ATOM     35  C   UNL     1       5.718   0.724   6.363  1.00  0.00     0.039 A 
ATOM     36  C   UNL     1       5.670   1.098   7.709  1.00  0.00     0.014 A 
ATOM     37  C   UNL     1       6.238  -0.526   6.013  1.00  0.00     0.014 A 
ATOM     38  C   UNL     1       6.082   0.201   8.697  1.00  0.00     0.010 A 
ATOM     39  C   UNL     1       6.562  -1.452   7.003  1.00  0.00     0.010 A 
ATOM     40  C   UNL     1       6.495  -1.099   8.357  1.00  0.00    -0.014 A 
BRANCH  40  41
ATOM     41  C   UNL     1       6.837  -2.084   9.418  1.00  0.00     0.031 A 
ATOM     42  C   UNL     1       8.226  -2.657   9.525  1.00  0.00     0.074 A 
ATOM     43  C   UNL     1       5.879  -2.484  10.280  1.00  0.00     0.049 A 
ATOM     44  N   UNL     1       8.708  -3.484  10.420  1.00  0.00    -0.248 NA
ATOM     45  C   UNL     1       9.194  -2.274   8.485  1.00  0.00     0.031 C 
ATOM     46  C   UNL     1       4.478  -2.054  10.246  1.00  0.00     0.029 A 
ATOM     47  N   UNL     1       5.938  -3.329  11.359  1.00  0.00    -0.354 N 
ATOM     48  C   UNL     1      10.027  -3.722  10.048  1.00  0.00     0.074 A 
ATOM     49  C   UNL     1      10.252  -3.001   8.814  1.00  0.00     0.031 C 
ATOM     50  C   UNL     1       3.825  -2.596  11.286  1.00  0.00     0.029 A 
ATOM     51  C   UNL     1       4.746  -3.442  12.038  1.00  0.00     0.049 A 
ATOM     52  H   UNL     1       6.755  -3.810  11.623  1.00  0.00     0.167 HD
ATOM     53  C   UNL     1      10.973  -4.453  10.686  1.00  0.00     0.031 A 
ATOM     54  C   UNL     1       4.429  -4.138  13.146  1.00  0.00     0.031 A 
ATOM     55  C   UNL     1      10.748  -5.170  11.915  1.00  0.00     0.049 A 
ATOM     56  C   UNL     1       5.499  -4.934  13.841  1.00  0.00     0.074 A 
ATOM     57  C   UNL     1      11.656  -5.896  12.667  1.00  0.00     0.029 A 
ATOM     58  N   UNL     1       9.528  -5.259  12.570  1.00  0.00    -0.354 N 
ATOM     59  N   UNL     1       6.761  -5.081  13.516  1.00  0.00    -0.248 NA
ATOM     60  C   UNL     1       5.104  -5.639  15.068  1.00  0.00     0.031 C 
ATOM     61  C   UNL     1      10.972  -6.471  13.745  1.00  0.00     0.029 A 
ATOM     62  C   UNL     1       9.654  -6.046  13.704  1.00  0.00     0.049 A 
ATOM     63  H   UNL     1       8.695  -4.826  12.273  1.00  0.00     0.167 HD
ATOM     64  C   UNL     1       7.318  -5.874  14.514  1.00  0.00     0.074 A 
ATOM     65  C   UNL     1       6.260  -6.150  15.465  1.00  0.00     0.031 C 
ATOM     66  C   UNL     1       8.590  -6.330  14.634  1.00  0.00     0.031 A 
BRANCH  53  67
ATOM     67  C   UNL     1      12.345  -4.517  10.061  1.00  0.00    -0.014 A 
ATOM     68  C   UNL     1      13.177  -3.382  10.009  1.00  0.00     0.010 A 
ATOM     69  C   UNL     1      12.830  -5.739   9.559  1.00  0.00     0.010 A 
ATOM     70  C   UNL     1      14.446  -3.458   9.430  1.00  0.00     0.020 A 
ATOM     71  C   UNL     1      14.112  -5.826   9.007  1.00  0.00     0.020 A 
ATOM     72  C   UNL     1      14.905  -4.680   8.931  1.00  0.00     0.054 A 
BRANCH  72  73
ATOM     73  S   UNL     1      16.567  -4.753   8.206  1.00  0.00     0.124 S 
ATOM     74  O   UNL     1      16.383  -4.020   6.956  1.00  0.00    -0.237 OA
ATOM     75  O   UNL     1      17.384  -4.080   9.213  1.00  0.00    -0.237 OA
ATOM     76  O   UNL     1      16.819  -6.184   8.057  1.00  0.00    -0.744 OA
ENDBRANCH  72  73
ENDBRANCH  53  67
BRANCH  54  77
ATOM     77  C   UNL     1       3.041  -4.086  13.685  1.00  0.00    -0.014 A 
ATOM     78  C   UNL     1       2.767  -3.434  14.901  1.00  0.00     0.010 A 
ATOM     79  C   UNL     1       1.982  -4.683  12.977  1.00  0.00     0.010 A 
ATOM     80  C   UNL     1       1.465  -3.401  15.410  1.00  0.00     0.020 A 
ATOM     81  C   UNL     1       0.674  -4.623  13.466  1.00  0.00     0.020 A 
ATOM     82  C   UNL     1       0.426  -3.993  14.687  1.00  0.00     0.054 A 
BRANCH  82  83
ATOM     83  S   UNL     1      -1.263  -3.896  15.343  1.00  0.00     0.124 S 
ATOM     84  O   UNL     1      -1.208  -4.828  16.464  1.00  0.00    -0.237 OA
ATOM     85  O   UNL     1      -1.382  -2.484  15.698  1.00  0.00    -0.237 OA
ATOM     86  O   UNL     1      -2.092  -4.318  14.216  1.00  0.00    -0.744 OA
ENDBRANCH  82  83
ENDBRANCH  54  77
BRANCH  66  87
ATOM     87  C   UNL     1       8.912  -7.149  15.859  1.00  0.00    -0.014 A 
ATOM     88  C   UNL     1       8.370  -8.433  16.049  1.00  0.00     0.010 A 
ATOM     89  C   UNL     1       9.773  -6.619  16.838  1.00  0.00     0.010 A 
ATOM     90  C   UNL     1       8.628  -9.143  17.225  1.00  0.00     0.020 A 
ATOM     91  C   UNL     1      10.063  -7.341  17.998  1.00  0.00     0.020 A 
ATOM     92  C   UNL     1       9.467  -8.587  18.197  1.00  0.00     0.054 A 
BRANCH  92  93
ATOM     93  S   UNL     1       9.777  -9.521  19.720  1.00  0.00     0.124 S 
ATOM     94  O   UNL     1       8.511  -9.369  20.432  1.00  0.00    -0.237 OA
ATOM     95  O   UNL     1      10.062 -10.864  19.222  1.00  0.00    -0.237 OA
ATOM     96  O   UNL     1      10.916  -8.832  20.323  1.00  0.00    -0.744 OA
ENDBRANCH  92  93
ENDBRANCH  66  87
ENDBRANCH  40  41
ENDBRANCH  32  35
ENDBRANCH  30  31
ENDBRANCH   1  30
TORSDOF 16
