REMARK SMILES C[C@@H](C(=O)NCCCNC(=O)c1ccc(-c2c3nc(c(-c4ccc(S(=O)(=O)[O-])cc4)c4ccc([nH]4)c(-c4ccc(S(=O)(=O)[O-])cc4)c4nc(c(-c5ccc(S(=O)(=O)[O-])cc5)c5ccc2[nH]5)C=C4)C=C3)cc1)[N@@H+](C)Cc1ccc(-c2ccccc2)cc1
REMARK SMILES IDX 6 1 5 2 3 3 4 4 2 6 1 7 72 8 73 9 74 11 75 12 76 13 86 14
REMARK SMILES IDX 77 15 85 16 78 17 79 18 80 19 84 20 81 21 83 22 82 23 7 24
REMARK SMILES IDX 8 25 9 26 10 27 11 29 12 30 13 31 71 32 14 33 70 34 15 35
REMARK SMILES IDX 16 36 17 37 64 38 18 39 69 40 63 41 65 42 19 43 68 44 62 45
REMARK SMILES IDX 61 46 20 48 50 49 31 50 49 51 32 52 35 53 48 54 66 55 33 56
REMARK SMILES IDX 34 57 47 59 67 60 36 61 21 62 22 63 30 64 23 65 29 66 24 67
REMARK SMILES IDX 25 68 26 69 27 70 28 71 51 72 52 73 60 74 53 75 59 76 54 77
REMARK SMILES IDX 55 78 56 79 57 80 58 81 37 82 38 83 46 84 39 85 45 86 40 87
REMARK SMILES IDX 41 88 42 89 43 90 44 91
REMARK H PARENT 5 5 72 10 9 28 65 47 35 58
REMARK Flexibility Score: inf
ROOT
ATOM      1  C   UNL     1       3.626  -1.307   1.218  1.00  0.00     0.118 C 
ENDROOT
BRANCH   1   2
ATOM      2  N   UNL     1       2.634  -1.067   2.240  1.00  0.00    -0.351 N 
ATOM      3  C   UNL     1       1.444  -0.413   2.111  1.00  0.00     0.278 C 
ATOM      4  O   UNL     1       1.155   0.296   3.071  1.00  0.00    -0.268 OA
ATOM      5  H   UNL     1       2.841  -1.417   3.137  1.00  0.00     0.163 HD
BRANCH   3   6
ATOM      6  C   UNL     1       0.580  -0.599   0.839  1.00  0.00     0.271 C 
ATOM      7  C   UNL     1       0.842   0.489  -0.198  1.00  0.00     0.086 C 
BRANCH   6   8
ATOM      8  N   UNL     1      -0.871  -0.778   1.102  1.00  0.00    -0.324 N 
ATOM      9  C   UNL     1      -1.194  -2.048   1.725  1.00  0.00     0.333 C 
ATOM     10  H   UNL     1      -1.218  -0.819   0.143  1.00  0.00     0.348 HD
BRANCH   8  11
ATOM     11  C   UNL     1      -1.696   0.368   1.519  1.00  0.00     0.299 C 
BRANCH  11  12
ATOM     12  C   UNL     1      -1.536   0.940   2.913  1.00  0.00     0.006 A 
ATOM     13  C   UNL     1      -1.711   0.160   4.063  1.00  0.00     0.010 A 
ATOM     14  C   UNL     1      -1.175   2.289   3.082  1.00  0.00     0.010 A 
ATOM     15  C   UNL     1      -1.392   0.666   5.327  1.00  0.00     0.009 A 
ATOM     16  C   UNL     1      -0.883   2.804   4.352  1.00  0.00     0.009 A 
ATOM     17  C   UNL     1      -0.942   1.983   5.485  1.00  0.00    -0.018 A 
BRANCH  17  18
ATOM     18  C   UNL     1      -0.479   2.451   6.795  1.00  0.00    -0.018 A 
ATOM     19  C   UNL     1       0.757   2.014   7.302  1.00  0.00     0.009 A 
ATOM     20  C   UNL     1      -1.252   3.318   7.579  1.00  0.00     0.009 A 
ATOM     21  C   UNL     1       1.202   2.419   8.562  1.00  0.00     0.001 A 
ATOM     22  C   UNL     1      -0.809   3.722   8.842  1.00  0.00     0.001 A 
ATOM     23  C   UNL     1       0.415   3.270   9.334  1.00  0.00     0.000 A 
ENDBRANCH  17  18
ENDBRANCH  11  12
ENDBRANCH   8  11
ENDBRANCH   6   8
ENDBRANCH   3   6
ENDBRANCH   1   2
BRANCH   1  24
ATOM     24  C   UNL     1       4.439  -0.044   0.922  1.00  0.00     0.042 C 
BRANCH  24  25
ATOM     25  C   UNL     1       5.034   0.654   2.147  1.00  0.00     0.118 C 
BRANCH  25  26
ATOM     26  N   UNL     1       6.017  -0.161   2.842  1.00  0.00    -0.352 N 
ATOM     27  C   UNL     1       7.346   0.081   3.081  1.00  0.00     0.251 C 
ATOM     28  H   UNL     1       5.677  -1.015   3.195  1.00  0.00     0.163 HD
ATOM     29  O   UNL     1       8.047  -0.820   3.546  1.00  0.00    -0.269 OA
BRANCH  27  30
ATOM     30  C   UNL     1       7.951   1.394   2.766  1.00  0.00     0.039 A 
ATOM     31  C   UNL     1       9.192   1.424   2.123  1.00  0.00     0.014 A 
ATOM     32  C   UNL     1       7.328   2.590   3.135  1.00  0.00     0.014 A 
ATOM     33  C   UNL     1       9.782   2.650   1.799  1.00  0.00     0.010 A 
ATOM     34  C   UNL     1       7.891   3.811   2.761  1.00  0.00     0.010 A 
ATOM     35  C   UNL     1       9.124   3.854   2.092  1.00  0.00    -0.014 A 
BRANCH  35  36
ATOM     36  C   UNL     1       9.709   5.168   1.718  1.00  0.00     0.031 A 
ATOM     37  C   UNL     1      10.140   6.136   2.786  1.00  0.00     0.074 A 
ATOM     38  C   UNL     1       9.789   5.522   0.420  1.00  0.00     0.049 A 
ATOM     39  N   UNL     1      10.573   7.365   2.661  1.00  0.00    -0.248 NA
ATOM     40  C   UNL     1      10.052   5.666   4.177  1.00  0.00     0.031 C 
ATOM     41  C   UNL     1       9.384   4.689  -0.713  1.00  0.00     0.029 A 
ATOM     42  N   UNL     1      10.223   6.687  -0.163  1.00  0.00    -0.354 N 
ATOM     43  C   UNL     1      10.781   7.826   3.955  1.00  0.00     0.074 A 
ATOM     44  C   UNL     1      10.399   6.754   4.851  1.00  0.00     0.031 C 
ATOM     45  C   UNL     1       9.597   5.365  -1.854  1.00  0.00     0.029 A 
ATOM     46  C   UNL     1      10.117   6.691  -1.533  1.00  0.00     0.049 A 
ATOM     47  H   UNL     1      10.577   7.448   0.352  1.00  0.00     0.167 HD
ATOM     48  C   UNL     1      11.255   9.028   4.364  1.00  0.00     0.031 A 
ATOM     49  C   UNL     1      10.392   7.656  -2.433  1.00  0.00     0.031 A 
ATOM     50  C   UNL     1      11.646  10.090   3.477  1.00  0.00     0.049 A 
ATOM     51  C   UNL     1      10.922   8.980  -1.959  1.00  0.00     0.074 A 
ATOM     52  C   UNL     1      12.179  11.327   3.795  1.00  0.00     0.029 A 
ATOM     53  N   UNL     1      11.550  10.041   2.094  1.00  0.00    -0.354 N 
ATOM     54  N   UNL     1      11.149   9.383  -0.732  1.00  0.00    -0.248 NA
ATOM     55  C   UNL     1      11.243   9.975  -2.992  1.00  0.00     0.031 C 
ATOM     56  C   UNL     1      12.373  12.040   2.606  1.00  0.00     0.029 A 
ATOM     57  C   UNL     1      12.001  11.229   1.545  1.00  0.00     0.049 A 
ATOM     58  H   UNL     1      11.210   9.274   1.579  1.00  0.00     0.167 HD
ATOM     59  C   UNL     1      11.662  10.670  -0.846  1.00  0.00     0.074 A 
ATOM     60  C   UNL     1      11.718  10.976  -2.261  1.00  0.00     0.031 C 
ATOM     61  C   UNL     1      12.054  11.519   0.135  1.00  0.00     0.031 A 
BRANCH  48  62
ATOM     62  C   UNL     1      11.355   9.257   5.849  1.00  0.00    -0.014 A 
ATOM     63  C   UNL     1      12.334   8.604   6.620  1.00  0.00     0.010 A 
ATOM     64  C   UNL     1      10.461  10.140   6.481  1.00  0.00     0.010 A 
ATOM     65  C   UNL     1      12.380   8.785   8.005  1.00  0.00     0.020 A 
ATOM     66  C   UNL     1      10.521  10.344   7.863  1.00  0.00     0.020 A 
ATOM     67  C   UNL     1      11.465   9.645   8.619  1.00  0.00     0.054 A 
BRANCH  67  68
ATOM     68  S   UNL     1      11.535   9.856  10.419  1.00  0.00     0.124 S 
ATOM     69  O   UNL     1      10.887   8.633  10.889  1.00  0.00    -0.237 OA
ATOM     70  O   UNL     1      12.970   9.945  10.680  1.00  0.00    -0.237 OA
ATOM     71  O   UNL     1      10.786  11.088  10.652  1.00  0.00    -0.744 OA
ENDBRANCH  67  68
ENDBRANCH  48  62
BRANCH  49  72
ATOM     72  C   UNL     1      10.181   7.389  -3.880  1.00  0.00    -0.014 A 
ATOM     73  C   UNL     1      11.277   7.151  -4.725  1.00  0.00     0.010 A 
ATOM     74  C   UNL     1       8.879   7.329  -4.410  1.00  0.00     0.010 A 
ATOM     75  C   UNL     1      11.078   6.858  -6.077  1.00  0.00     0.020 A 
ATOM     76  C   UNL     1       8.675   7.016  -5.757  1.00  0.00     0.020 A 
ATOM     77  C   UNL     1       9.777   6.788  -6.584  1.00  0.00     0.054 A 
BRANCH  77  78
ATOM     78  S   UNL     1       9.536   6.325  -8.322  1.00  0.00     0.124 S 
ATOM     79  O   UNL     1       9.871   7.564  -9.016  1.00  0.00    -0.237 OA
ATOM     80  O   UNL     1      10.484   5.227  -8.493  1.00  0.00    -0.237 OA
ATOM     81  O   UNL     1       8.129   5.934  -8.377  1.00  0.00    -0.744 OA
ENDBRANCH  77  78
ENDBRANCH  49  72
BRANCH  61  82
ATOM     82  C   UNL     1      12.615  12.851  -0.284  1.00  0.00    -0.014 A 
ATOM     83  C   UNL     1      11.775  13.884  -0.735  1.00  0.00     0.010 A 
ATOM     84  C   UNL     1      13.996  13.090  -0.163  1.00  0.00     0.010 A 
ATOM     85  C   UNL     1      12.312  15.129  -1.079  1.00  0.00     0.020 A 
ATOM     86  C   UNL     1      14.533  14.338  -0.487  1.00  0.00     0.020 A 
ATOM     87  C   UNL     1      13.688  15.347  -0.954  1.00  0.00     0.054 A 
BRANCH  87  88
ATOM     88  S   UNL     1      14.356  16.986  -1.353  1.00  0.00     0.124 S 
ATOM     89  O   UNL     1      14.368  16.962  -2.813  1.00  0.00    -0.237 OA
ATOM     90  O   UNL     1      13.380  17.890  -0.748  1.00  0.00    -0.237 OA
ATOM     91  O   UNL     1      15.671  16.987  -0.717  1.00  0.00    -0.744 OA
ENDBRANCH  87  88
ENDBRANCH  61  82
ENDBRANCH  35  36
ENDBRANCH  27  30
ENDBRANCH  25  26
ENDBRANCH  24  25
ENDBRANCH   1  24
TORSDOF 17
