REMARK SMILES O=C(CSc1ccnc(C(=O)NCCCNC(=O)c2ccc(-c3c4nc(c(-c5ccc(S(=O)(=O)[O-])cc5)c5ccc([nH]5)c(-c5ccc(S(=O)(=O)[O-])cc5)c5nc(c(-c6ccc(S(=O)(=O)[O-])cc6)c6ccc3[nH]6)C=C5)C=C4)cc2)c1)NCC(F)(F)F
REMARK SMILES IDX 13 1 12 2 10 3 11 4 9 6 5 7 6 8 79 9 7 10 8 11 4 12 3 13
REMARK SMILES IDX 2 14 1 15 80 16 81 18 82 19 83 20 84 21 85 22 14 23 15 24
REMARK SMILES IDX 16 25 17 26 18 28 19 29 20 30 78 31 21 32 77 33 22 34 23 35
REMARK SMILES IDX 24 36 71 37 25 38 76 39 70 40 72 41 26 42 75 43 69 44 68 45
REMARK SMILES IDX 27 47 57 48 38 49 56 50 39 51 42 52 55 53 73 54 40 55 41 56
REMARK SMILES IDX 54 58 74 59 43 60 28 61 29 62 37 63 30 64 36 65 31 66 32 67
REMARK SMILES IDX 33 68 34 69 35 70 58 71 59 72 67 73 60 74 66 75 61 76 62 77
REMARK SMILES IDX 63 78 64 79 65 80 44 81 45 82 53 83 46 84 52 85 47 86 48 87
REMARK SMILES IDX 49 88 50 89 51 90
REMARK H PARENT 12 5 80 17 16 27 72 46 42 57
REMARK Flexibility Score: inf
ROOT
ATOM      1  C   UNL     1       4.601  -6.677  -1.421  1.00  0.00     0.118 C 
ENDROOT
BRANCH   1   2
ATOM      2  N   UNL     1       3.431  -6.922  -2.244  1.00  0.00    -0.351 N 
ATOM      3  C   UNL     1       2.457  -6.105  -2.771  1.00  0.00     0.269 C 
ATOM      4  O   UNL     1       1.600  -6.668  -3.458  1.00  0.00    -0.268 OA
ATOM      5  H   UNL     1       3.309  -7.872  -2.473  1.00  0.00     0.163 HD
BRANCH   3   6
ATOM      6  C   UNL     1       2.412  -4.608  -2.596  1.00  0.00     0.129 A 
ATOM      7  C   UNL     1       3.045  -2.517  -1.608  1.00  0.00     0.012 A 
ATOM      8  C   UNL     1       2.308  -1.857  -2.585  1.00  0.00     0.035 A 
ATOM      9  C   UNL     1       3.063  -3.912  -1.590  1.00  0.00     0.049 A 
ATOM     10  C   UNL     1       1.621  -2.622  -3.506  1.00  0.00     0.113 A 
ATOM     11  N   UNL     1       1.676  -3.966  -3.543  1.00  0.00    -0.251 NA
BRANCH   7  12
ATOM     12  S   UNL     1       4.104  -1.635  -0.470  1.00  0.00    -0.116 SA
BRANCH  12  13
ATOM     13  C   UNL     1       2.873  -0.899   0.661  1.00  0.00     0.174 C 
BRANCH  13  14
ATOM     14  C   UNL     1       2.105   0.232  -0.001  1.00  0.00     0.230 C 
ATOM     15  O   UNL     1       0.886   0.337   0.091  1.00  0.00    -0.274 OA
ATOM     16  N   UNL     1       2.875   1.147  -0.685  1.00  0.00    -0.346 N 
ATOM     17  H   UNL     1       3.854   1.040  -0.682  1.00  0.00     0.163 HD
BRANCH  16  18
ATOM     18  C   UNL     1       2.290   2.272  -1.414  1.00  0.00     0.231 C 
BRANCH  18  19
ATOM     19  C   UNL     1       2.693   3.651  -0.900  1.00  0.00     0.405 C 
ATOM     20  F   UNL     1       4.036   3.809  -0.968  1.00  0.00    -0.169 F 
ATOM     21  F   UNL     1       2.134   4.624  -1.655  1.00  0.00    -0.169 F 
ATOM     22  F   UNL     1       2.316   3.850   0.380  1.00  0.00    -0.169 F 
ENDBRANCH  18  19
ENDBRANCH  16  18
ENDBRANCH  13  14
ENDBRANCH  12  13
ENDBRANCH   7  12
ENDBRANCH   3   6
ENDBRANCH   1   2
BRANCH   1  23
ATOM     23  C   UNL     1       4.287  -6.898   0.059  1.00  0.00     0.042 C 
BRANCH  23  24
ATOM     24  C   UNL     1       4.237  -8.375   0.447  1.00  0.00     0.118 C 
BRANCH  24  25
ATOM     25  N   UNL     1       5.556  -8.987   0.388  1.00  0.00    -0.352 N 
ATOM     26  C   UNL     1       6.278  -9.635   1.357  1.00  0.00     0.251 C 
ATOM     27  H   UNL     1       6.002  -8.925  -0.488  1.00  0.00     0.163 HD
ATOM     28  O   UNL     1       7.473  -9.843   1.163  1.00  0.00    -0.269 OA
BRANCH  26  29
ATOM     29  C   UNL     1       5.644 -10.086   2.616  1.00  0.00     0.039 A 
ATOM     30  C   UNL     1       6.395 -10.041   3.795  1.00  0.00     0.014 A 
ATOM     31  C   UNL     1       4.356 -10.629   2.634  1.00  0.00     0.014 A 
ATOM     32  C   UNL     1       5.849 -10.516   4.990  1.00  0.00     0.010 A 
ATOM     33  C   UNL     1       3.787 -11.038   3.839  1.00  0.00     0.010 A 
ATOM     34  C   UNL     1       4.534 -11.006   5.025  1.00  0.00    -0.014 A 
BRANCH  34  35
ATOM     35  C   UNL     1       3.943 -11.518   6.288  1.00  0.00     0.031 A 
ATOM     36  C   UNL     1       3.583 -12.975   6.421  1.00  0.00     0.074 A 
ATOM     37  C   UNL     1       3.695 -10.665   7.301  1.00  0.00     0.049 A 
ATOM     38  N   UNL     1       3.034 -13.600   7.431  1.00  0.00    -0.248 NA
ATOM     39  C   UNL     1       3.852 -13.837   5.258  1.00  0.00     0.031 C 
ATOM     40  C   UNL     1       3.964  -9.224   7.282  1.00  0.00     0.029 A 
ATOM     41  N   UNL     1       3.159 -10.884   8.545  1.00  0.00    -0.354 N 
ATOM     42  C   UNL     1       2.869 -14.918   7.017  1.00  0.00     0.074 A 
ATOM     43  C   UNL     1       3.337 -14.993   5.651  1.00  0.00     0.031 C 
ATOM     44  C   UNL     1       3.622  -8.697   8.468  1.00  0.00     0.029 A 
ATOM     45  C   UNL     1       3.080  -9.751   9.319  1.00  0.00     0.049 A 
ATOM     46  H   UNL     1       2.860 -11.770   8.854  1.00  0.00     0.167 HD
ATOM     47  C   UNL     1       2.386 -15.974   7.716  1.00  0.00     0.031 A 
ATOM     48  C   UNL     1       2.625  -9.581  10.576  1.00  0.00     0.031 A 
ATOM     49  C   UNL     1       1.945 -15.901   9.084  1.00  0.00     0.049 A 
ATOM     50  C   UNL     1       2.119 -10.774  11.339  1.00  0.00     0.074 A 
ATOM     51  C   UNL     1       1.496 -16.925   9.900  1.00  0.00     0.029 A 
ATOM     52  N   UNL     1       1.902 -14.739   9.839  1.00  0.00    -0.354 N 
ATOM     53  N   UNL     1       2.025 -12.023  10.949  1.00  0.00    -0.248 NA
ATOM     54  C   UNL     1       1.676 -10.535  12.719  1.00  0.00     0.031 C 
ATOM     55  C   UNL     1       1.144 -16.375  11.138  1.00  0.00     0.029 A 
ATOM     56  C   UNL     1       1.423 -15.018  11.108  1.00  0.00     0.049 A 
ATOM     57  H   UNL     1       2.173 -13.848   9.521  1.00  0.00     0.167 HD
ATOM     58  C   UNL     1       1.544 -12.725  12.048  1.00  0.00     0.074 A 
ATOM     59  C   UNL     1       1.378 -11.764  13.120  1.00  0.00     0.031 C 
ATOM     60  C   UNL     1       1.268 -14.048  12.163  1.00  0.00     0.031 A 
BRANCH  47  61
ATOM     61  C   UNL     1       2.307 -17.302   7.007  1.00  0.00    -0.014 A 
ATOM     62  C   UNL     1       3.469 -18.025   6.682  1.00  0.00     0.010 A 
ATOM     63  C   UNL     1       1.050 -17.851   6.693  1.00  0.00     0.010 A 
ATOM     64  C   UNL     1       3.378 -19.250   6.016  1.00  0.00     0.020 A 
ATOM     65  C   UNL     1       0.954 -19.090   6.052  1.00  0.00     0.020 A 
ATOM     66  C   UNL     1       2.121 -19.773   5.701  1.00  0.00     0.054 A 
BRANCH  66  67
ATOM     67  S   UNL     1       2.030 -21.376   4.855  1.00  0.00     0.124 S 
ATOM     68  O   UNL     1       2.429 -21.020   3.495  1.00  0.00    -0.237 OA
ATOM     69  O   UNL     1       2.992 -22.187   5.598  1.00  0.00    -0.237 OA
ATOM     70  O   UNL     1       0.633 -21.772   5.011  1.00  0.00    -0.744 OA
ENDBRANCH  66  67
ENDBRANCH  47  61
BRANCH  48  71
ATOM     71  C   UNL     1       2.664  -8.233  11.206  1.00  0.00    -0.014 A 
ATOM     72  C   UNL     1       3.584  -7.956  12.233  1.00  0.00     0.010 A 
ATOM     73  C   UNL     1       1.788  -7.219  10.780  1.00  0.00     0.010 A 
ATOM     74  C   UNL     1       3.611  -6.697  12.840  1.00  0.00     0.020 A 
ATOM     75  C   UNL     1       1.830  -5.951  11.366  1.00  0.00     0.020 A 
ATOM     76  C   UNL     1       2.733  -5.702  12.402  1.00  0.00     0.054 A 
BRANCH  76  77
ATOM     77  S   UNL     1       2.815  -4.061  13.171  1.00  0.00     0.124 S 
ATOM     78  O   UNL     1       2.159  -4.294  14.454  1.00  0.00    -0.237 OA
ATOM     79  O   UNL     1       4.253  -3.811  13.231  1.00  0.00    -0.237 OA
ATOM     80  O   UNL     1       2.082  -3.210  12.236  1.00  0.00    -0.744 OA
ENDBRANCH  76  77
ENDBRANCH  48  71
BRANCH  60  81
ATOM     81  C   UNL     1       0.804 -14.538  13.508  1.00  0.00    -0.014 A 
ATOM     82  C   UNL     1      -0.481 -14.239  13.994  1.00  0.00     0.010 A 
ATOM     83  C   UNL     1       1.666 -15.332  14.287  1.00  0.00     0.010 A 
ATOM     84  C   UNL     1      -0.878 -14.687  15.256  1.00  0.00     0.020 A 
ATOM     85  C   UNL     1       1.262 -15.804  15.537  1.00  0.00     0.020 A 
ATOM     86  C   UNL     1      -0.001 -15.461  16.023  1.00  0.00     0.054 A 
BRANCH  86  87
ATOM     87  S   UNL     1      -0.543 -16.044  17.653  1.00  0.00     0.124 S 
ATOM     88  O   UNL     1      -0.409 -14.838  18.465  1.00  0.00    -0.237 OA
ATOM     89  O   UNL     1      -1.913 -16.482  17.400  1.00  0.00    -0.237 OA
ATOM     90  O   UNL     1       0.399 -17.116  17.966  1.00  0.00    -0.744 OA
ENDBRANCH  86  87
ENDBRANCH  60  81
ENDBRANCH  34  35
ENDBRANCH  26  29
ENDBRANCH  24  25
ENDBRANCH  23  24
ENDBRANCH   1  23
TORSDOF 18
