REMARK SMILES CC(C)CCn1nc(C(=O)NCCCNC(=O)c2ccc(-c3c4nc(c(-c5ccc(S(=O)(=O)[O-])cc5)c5ccc([nH]5)c(-c5ccc(S(=O)(=O)[O-])cc5)c5nc(c(-c6ccc(S(=O)(=O)[O-])cc6)c6ccc3[nH]6)C=C5)C=C4)cc2)c2c1CCN(C(=O)[C@@H]1CCc3nn(C)c(=O)n3C1)C2
REMARK SMILES IDX 13 1 12 2 11 3 9 4 10 5 8 7 6 8 7 9 79 10 78 11 80 12 96 13
REMARK SMILES IDX 81 14 82 15 5 16 4 17 2 18 1 19 3 20 83 21 84 22 85 23 86 24
REMARK SMILES IDX 95 25 87 26 94 27 88 28 92 29 89 30 90 31 93 32 91 33 14 34
REMARK SMILES IDX 15 35 16 36 17 38 18 39 19 40 77 41 20 42 76 43 21 44 22 45
REMARK SMILES IDX 23 46 70 47 24 48 75 49 69 50 71 51 25 52 74 53 68 54 67 55
REMARK SMILES IDX 26 57 56 58 37 59 55 60 38 61 41 62 54 63 72 64 39 65 40 66
REMARK SMILES IDX 53 68 73 69 42 70 27 71 28 72 36 73 29 74 35 75 30 76 31 77
REMARK SMILES IDX 32 78 33 79 34 80 57 81 58 82 66 83 59 84 65 85 60 86 61 87
REMARK SMILES IDX 62 88 63 89 64 90 43 91 44 92 52 93 45 94 51 95 46 96 47 97
REMARK SMILES IDX 48 98 49 99 50 100
REMARK H PARENT 11 6 15 37 71 56 41 67
REMARK Flexibility Score: inf
ROOT
ATOM      1  C   UNL     1       0.752   8.118  -2.953  1.00  0.00     0.042 C 
ENDROOT
BRANCH   1   2
ATOM      2  C   UNL     1       0.690   7.969  -1.419  1.00  0.00     0.118 C 
BRANCH   2   3
ATOM      3  N   UNL     1      -0.655   7.662  -0.926  1.00  0.00    -0.351 N 
ATOM      4  C   UNL     1      -1.331   6.508  -0.554  1.00  0.00     0.272 C 
ATOM      5  O   UNL     1      -2.377   6.705   0.072  1.00  0.00    -0.267 OA
ATOM      6  H   UNL     1      -1.214   8.468  -0.836  1.00  0.00     0.163 HD
BRANCH   4   7
ATOM      7  C   UNL     1      -0.858   5.125  -0.841  1.00  0.00     0.155 A 
ATOM      8  N   UNL     1      -0.640   2.986  -0.572  1.00  0.00    -0.268 N 
ATOM      9  N   UNL     1      -1.208   4.094  -0.032  1.00  0.00    -0.167 NA
ATOM     10  C   UNL     1       0.265   3.330  -1.524  1.00  0.00     0.046 A 
ATOM     11  C   UNL     1      -0.093   4.599  -1.911  1.00  0.00     0.026 A 
ATOM     12  C   UNL     1       1.418   2.623  -2.127  1.00  0.00     0.078 C 
ATOM     13  C   UNL     1       0.453   5.230  -3.115  1.00  0.00     0.159 C 
ATOM     14  C   UNL     1       2.254   3.641  -2.921  1.00  0.00     0.126 C 
ATOM     15  N   UNL     1       1.431   4.426  -3.834  1.00  0.00    -0.338 N 
BRANCH   8  16
ATOM     16  C   UNL     1      -1.157   1.693  -0.144  1.00  0.00     0.145 C 
BRANCH  16  17
ATOM     17  C   UNL     1      -0.880   0.451  -1.011  1.00  0.00     0.027 C 
BRANCH  17  18
ATOM     18  C   UNL     1       0.525  -0.157  -0.855  1.00  0.00    -0.016 C 
ATOM     19  C   UNL     1       0.773  -0.829   0.488  1.00  0.00     0.007 C 
ATOM     20  C   UNL     1       0.857  -1.089  -2.022  1.00  0.00     0.007 C 
ENDBRANCH  17  18
ENDBRANCH  16  17
ENDBRANCH   8  16
BRANCH  15  21
ATOM     21  C   UNL     1       1.724   4.870  -5.111  1.00  0.00     0.227 C 
ATOM     22  O   UNL     1       1.161   5.888  -5.543  1.00  0.00    -0.274 OA
BRANCH  21  23
ATOM     23  C   UNL     1       2.651   4.145  -6.093  1.00  0.00     0.099 C 
ATOM     24  C   UNL     1       2.044   2.868  -6.674  1.00  0.00     0.023 C 
ATOM     25  C   UNL     1       4.107   3.975  -5.690  1.00  0.00     0.142 C 
ATOM     26  C   UNL     1       2.227   1.645  -5.792  1.00  0.00     0.078 C 
ATOM     27  N   UNL     1       4.389   2.668  -5.138  1.00  0.00    -0.278 N 
ATOM     28  C   UNL     1       3.550   1.613  -5.088  1.00  0.00     0.133 A 
ATOM     29  C   UNL     1       5.383   2.414  -4.223  1.00  0.00     0.345 A 
ATOM     30  N   UNL     1       3.898   0.679  -4.250  1.00  0.00    -0.155 NA
ATOM     31  N   UNL     1       5.058   1.164  -3.684  1.00  0.00    -0.216 N 
ATOM     32  O   UNL     1       6.256   3.179  -3.852  1.00  0.00    -0.246 OA
ATOM     33  C   UNL     1       5.592   0.644  -2.455  1.00  0.00     0.179 C 
ENDBRANCH  21  23
ENDBRANCH  15  21
ENDBRANCH   4   7
ENDBRANCH   2   3
ENDBRANCH   1   2
BRANCH   1  34
ATOM     34  C   UNL     1       0.849   9.503  -3.515  1.00  0.00     0.118 C 
BRANCH  34  35
ATOM     35  N   UNL     1       2.221  10.012  -3.484  1.00  0.00    -0.352 N 
ATOM     36  C   UNL     1       2.658  11.220  -4.002  1.00  0.00     0.251 C 
ATOM     37  H   UNL     1       2.898   9.441  -3.054  1.00  0.00     0.163 HD
ATOM     38  O   UNL     1       3.819  11.382  -4.328  1.00  0.00    -0.269 OA
BRANCH  36  39
ATOM     39  C   UNL     1       1.648  12.282  -4.170  1.00  0.00     0.039 A 
ATOM     40  C   UNL     1       1.615  13.080  -5.311  1.00  0.00     0.014 A 
ATOM     41  C   UNL     1       0.649  12.370  -3.204  1.00  0.00     0.014 A 
ATOM     42  C   UNL     1       0.501  13.890  -5.515  1.00  0.00     0.010 A 
ATOM     43  C   UNL     1      -0.530  12.990  -3.514  1.00  0.00     0.010 A 
ATOM     44  C   UNL     1      -0.593  13.804  -4.634  1.00  0.00    -0.014 A 
BRANCH  44  45
ATOM     45  C   UNL     1      -1.863  14.454  -4.947  1.00  0.00     0.031 A 
ATOM     46  C   UNL     1      -2.347  14.178  -6.323  1.00  0.00     0.074 A 
ATOM     47  C   UNL     1      -2.631  15.091  -4.035  1.00  0.00     0.049 A 
ATOM     48  N   UNL     1      -2.253  14.961  -7.345  1.00  0.00    -0.248 NA
ATOM     49  C   UNL     1      -2.789  12.813  -6.659  1.00  0.00     0.031 C 
ATOM     50  C   UNL     1      -2.433  15.177  -2.582  1.00  0.00     0.029 A 
ATOM     51  N   UNL     1      -3.826  15.722  -4.204  1.00  0.00    -0.354 N 
ATOM     52  C   UNL     1      -2.892  14.296  -8.384  1.00  0.00     0.074 A 
ATOM     53  C   UNL     1      -2.972  12.916  -7.979  1.00  0.00     0.031 C 
ATOM     54  C   UNL     1      -3.569  15.602  -1.987  1.00  0.00     0.029 A 
ATOM     55  C   UNL     1      -4.504  16.005  -3.020  1.00  0.00     0.049 A 
ATOM     56  H   UNL     1      -4.182  15.960  -5.090  1.00  0.00     0.167 HD
ATOM     57  C   UNL     1      -3.582  14.994  -9.331  1.00  0.00     0.031 A 
ATOM     58  C   UNL     1      -5.743  16.540  -2.891  1.00  0.00     0.031 A 
ATOM     59  C   UNL     1      -3.298  16.407  -9.235  1.00  0.00     0.049 A 
ATOM     60  C   UNL     1      -6.030  17.248  -4.158  1.00  0.00     0.074 A 
ATOM     61  C   UNL     1      -2.176  17.200  -9.354  1.00  0.00     0.029 A 
ATOM     62  N   UNL     1      -4.234  17.142  -8.547  1.00  0.00    -0.354 N 
ATOM     63  N   UNL     1      -5.380  18.309  -4.548  1.00  0.00    -0.248 NA
ATOM     64  C   UNL     1      -6.764  16.549  -5.199  1.00  0.00     0.031 C 
ATOM     65  C   UNL     1      -2.354  18.246  -8.401  1.00  0.00     0.029 A 
ATOM     66  C   UNL     1      -3.606  18.097  -7.799  1.00  0.00     0.049 A 
ATOM     67  H   UNL     1      -5.208  17.002  -8.587  1.00  0.00     0.167 HD
ATOM     68  C   UNL     1      -5.248  18.153  -5.918  1.00  0.00     0.074 A 
ATOM     69  C   UNL     1      -6.238  17.140  -6.276  1.00  0.00     0.031 C 
ATOM     70  C   UNL     1      -4.155  18.645  -6.573  1.00  0.00     0.031 A 
BRANCH  57  71
ATOM     71  C   UNL     1      -4.862  14.503  -9.980  1.00  0.00    -0.014 A 
ATOM     72  C   UNL     1      -5.532  15.371 -10.871  1.00  0.00     0.010 A 
ATOM     73  C   UNL     1      -5.580  13.373  -9.542  1.00  0.00     0.010 A 
ATOM     74  C   UNL     1      -6.872  15.167 -11.225  1.00  0.00     0.020 A 
ATOM     75  C   UNL     1      -6.903  13.137  -9.921  1.00  0.00     0.020 A 
ATOM     76  C   UNL     1      -7.552  14.054 -10.735  1.00  0.00     0.054 A 
BRANCH  76  77
ATOM     77  S   UNL     1      -9.302  13.839 -11.133  1.00  0.00     0.124 S 
ATOM     78  O   UNL     1      -9.910  14.967 -10.435  1.00  0.00    -0.237 OA
ATOM     79  O   UNL     1      -9.297  13.921 -12.591  1.00  0.00    -0.237 OA
ATOM     80  O   UNL     1      -9.616  12.520 -10.589  1.00  0.00    -0.744 OA
ENDBRANCH  76  77
ENDBRANCH  57  71
BRANCH  58  81
ATOM     81  C   UNL     1      -6.782  16.305  -1.858  1.00  0.00    -0.014 A 
ATOM     82  C   UNL     1      -7.917  17.136  -1.779  1.00  0.00     0.010 A 
ATOM     83  C   UNL     1      -6.813  15.086  -1.152  1.00  0.00     0.010 A 
ATOM     84  C   UNL     1      -9.073  16.723  -1.095  1.00  0.00     0.020 A 
ATOM     85  C   UNL     1      -7.961  14.671  -0.462  1.00  0.00     0.020 A 
ATOM     86  C   UNL     1      -9.097  15.478  -0.462  1.00  0.00     0.054 A 
BRANCH  86  87
ATOM     87  S   UNL     1     -10.659  14.862   0.239  1.00  0.00     0.124 S 
ATOM     88  O   UNL     1     -10.834  15.717   1.409  1.00  0.00    -0.237 OA
ATOM     89  O   UNL     1     -11.606  15.082  -0.851  1.00  0.00    -0.237 OA
ATOM     90  O   UNL     1     -10.374  13.459   0.532  1.00  0.00    -0.744 OA
ENDBRANCH  86  87
ENDBRANCH  58  81
BRANCH  70  91
ATOM     91  C   UNL     1      -3.345  19.729  -5.901  1.00  0.00    -0.014 A 
ATOM     92  C   UNL     1      -2.654  19.581  -4.683  1.00  0.00     0.010 A 
ATOM     93  C   UNL     1      -3.184  20.925  -6.623  1.00  0.00     0.010 A 
ATOM     94  C   UNL     1      -1.841  20.617  -4.195  1.00  0.00     0.020 A 
ATOM     95  C   UNL     1      -2.361  21.948  -6.156  1.00  0.00     0.020 A 
ATOM     96  C   UNL     1      -1.700  21.795  -4.938  1.00  0.00     0.054 A 
BRANCH  96  97
ATOM     97  S   UNL     1      -0.618  23.120  -4.331  1.00  0.00     0.124 S 
ATOM     98  O   UNL     1      -1.343  23.612  -3.163  1.00  0.00    -0.237 OA
ATOM     99  O   UNL     1       0.631  22.416  -4.048  1.00  0.00    -0.237 OA
ATOM    100  O   UNL     1      -0.549  24.055  -5.454  1.00  0.00    -0.744 OA
ENDBRANCH  96  97
ENDBRANCH  70  91
ENDBRANCH  44  45
ENDBRANCH  36  39
ENDBRANCH  34  35
ENDBRANCH   1  34
TORSDOF 18
