REMARK SMILES C[C@H](C[N@@H+](C)[C@@H](C)[C@@H](C)O)C(=O)NCCCNC(=O)c1ccc(-c2c3nc(c(-c4ccc(S(=O)(=O)[O-])cc4)c4ccc([nH]4)c(-c4ccc(S(=O)(=O)[O-])cc4)c4nc(c(-c5ccc(S(=O)(=O)[O-])cc5)c5ccc2[nH]5)C=C4)C=C3)cc1
REMARK SMILES IDX 14 1 13 2 11 3 12 4 2 6 1 7 3 8 4 9 5 10 6 12 7 13 8 14 9 15
REMARK SMILES IDX 10 16 15 18 16 19 17 20 18 21 19 23 20 24 21 25 79 26 22 27
REMARK SMILES IDX 78 28 23 29 24 30 25 31 72 32 26 33 77 34 71 35 73 36 27 37
REMARK SMILES IDX 76 38 70 39 69 40 28 42 58 43 39 44 57 45 40 46 43 47 56 48
REMARK SMILES IDX 74 49 41 50 42 51 55 53 75 54 44 55 29 56 30 57 38 58 31 59
REMARK SMILES IDX 37 60 32 61 33 62 34 63 35 64 36 65 59 66 60 67 68 68 61 69
REMARK SMILES IDX 67 70 62 71 63 72 64 73 65 74 66 75 45 76 46 77 54 78 47 79
REMARK SMILES IDX 53 80 48 81 49 82 50 83 51 84 52 85
REMARK H PARENT 13 5 4 11 10 17 17 22 73 41 43 52
REMARK Flexibility Score: inf
ROOT
ATOM      1  C   UNL     1      -2.046  -1.105  -1.101  1.00  0.00     0.117 C 
ENDROOT
BRANCH   1   2
ATOM      2  N   UNL     1      -2.082   0.331  -0.946  1.00  0.00    -0.356 N 
ATOM      3  C   UNL     1      -1.089   1.255  -0.917  1.00  0.00     0.228 C 
ATOM      4  O   UNL     1      -1.457   2.437  -0.930  1.00  0.00    -0.275 OA
ATOM      5  H   UNL     1      -2.987   0.705  -0.842  1.00  0.00     0.163 HD
BRANCH   3   6
ATOM      6  C   UNL     1       0.417   0.943  -0.942  1.00  0.00     0.130 C 
ATOM      7  C   UNL     1       1.004   1.204  -2.330  1.00  0.00     0.024 C 
BRANCH   6   8
ATOM      8  C   UNL     1       0.941  -0.281  -0.140  1.00  0.00     0.275 C 
BRANCH   8   9
ATOM      9  N   UNL     1       1.917  -1.241  -0.743  1.00  0.00    -0.332 N 
ATOM     10  C   UNL     1       2.808  -1.724   0.336  1.00  0.00     0.333 C 
ATOM     11  H   UNL     1       2.396  -0.709  -1.469  1.00  0.00     0.348 HD
BRANCH   9  12
ATOM     12  C   UNL     1       1.354  -2.427  -1.475  1.00  0.00     0.209 C 
ATOM     13  C   UNL     1       0.596  -3.421  -0.566  1.00  0.00     0.078 C 
BRANCH  12  14
ATOM     14  C   UNL     1       0.652  -2.089  -2.839  1.00  0.00     0.169 C 
ATOM     15  C   UNL     1       1.636  -1.964  -3.997  1.00  0.00     0.045 C 
BRANCH  14  16
ATOM     16  O   UNL     1      -0.362  -3.024  -3.210  1.00  0.00    -0.387 OA
ATOM     17  H   UNL     1       0.042  -3.890  -3.378  1.00  0.00     0.211 HD
ENDBRANCH  14  16
ENDBRANCH  12  14
ENDBRANCH   9  12
ENDBRANCH   8   9
ENDBRANCH   6   8
ENDBRANCH   3   6
ENDBRANCH   1   2
BRANCH   1  18
ATOM     18  C   UNL     1      -2.664  -1.853   0.067  1.00  0.00     0.042 C 
BRANCH  18  19
ATOM     19  C   UNL     1      -4.039  -2.410  -0.253  1.00  0.00     0.118 C 
BRANCH  19  20
ATOM     20  N   UNL     1      -4.013  -3.444  -1.285  1.00  0.00    -0.352 N 
ATOM     21  C   UNL     1      -4.206  -4.806  -1.288  1.00  0.00     0.251 C 
ATOM     22  H   UNL     1      -3.814  -3.085  -2.180  1.00  0.00     0.163 HD
ATOM     23  O   UNL     1      -4.010  -5.410  -2.337  1.00  0.00    -0.269 OA
BRANCH  21  24
ATOM     24  C   UNL     1      -4.600  -5.572  -0.076  1.00  0.00     0.039 A 
ATOM     25  C   UNL     1      -4.286  -6.937  -0.014  1.00  0.00     0.014 A 
ATOM     26  C   UNL     1      -5.307  -5.008   0.979  1.00  0.00     0.014 A 
ATOM     27  C   UNL     1      -4.634  -7.695   1.111  1.00  0.00     0.010 A 
ATOM     28  C   UNL     1      -5.498  -5.712   2.162  1.00  0.00     0.010 A 
ATOM     29  C   UNL     1      -5.212  -7.078   2.231  1.00  0.00    -0.014 A 
BRANCH  29  30
ATOM     30  C   UNL     1      -5.597  -7.838   3.451  1.00  0.00     0.031 A 
ATOM     31  C   UNL     1      -7.022  -7.780   3.958  1.00  0.00     0.074 A 
ATOM     32  C   UNL     1      -4.665  -8.520   4.146  1.00  0.00     0.049 A 
ATOM     33  N   UNL     1      -7.533  -8.280   5.054  1.00  0.00    -0.248 NA
ATOM     34  C   UNL     1      -7.991  -7.013   3.152  1.00  0.00     0.031 C 
ATOM     35  C   UNL     1      -3.242  -8.606   3.807  1.00  0.00     0.029 A 
ATOM     36  N   UNL     1      -4.775  -9.273   5.288  1.00  0.00    -0.354 N 
ATOM     37  C   UNL     1      -8.856  -7.848   5.088  1.00  0.00     0.074 A 
ATOM     38  C   UNL     1      -9.050  -6.987   3.946  1.00  0.00     0.031 C 
ATOM     39  C   UNL     1      -2.625  -9.409   4.689  1.00  0.00     0.029 A 
ATOM     40  C   UNL     1      -3.594  -9.857   5.682  1.00  0.00     0.049 A 
ATOM     41  H   UNL     1      -5.621  -9.384   5.780  1.00  0.00     0.167 HD
ATOM     42  C   UNL     1      -9.838  -8.167   5.966  1.00  0.00     0.031 A 
ATOM     43  C   UNL     1      -3.323 -10.668   6.722  1.00  0.00     0.031 A 
ATOM     44  C   UNL     1      -9.659  -9.075   7.066  1.00  0.00     0.049 A 
ATOM     45  C   UNL     1      -4.441 -11.062   7.648  1.00  0.00     0.074 A 
ATOM     46  C   UNL     1     -10.601  -9.529   7.972  1.00  0.00     0.029 A 
ATOM     47  N   UNL     1      -8.459  -9.686   7.394  1.00  0.00    -0.354 N 
ATOM     48  N   UNL     1      -5.697 -10.683   7.632  1.00  0.00    -0.248 NA
ATOM     49  C   UNL     1      -4.109 -12.012   8.717  1.00  0.00     0.031 C 
ATOM     50  C   UNL     1      -9.960 -10.387   8.873  1.00  0.00     0.029 A 
ATOM     51  C   UNL     1      -8.633 -10.511   8.492  1.00  0.00     0.049 A 
ATOM     52  H   UNL     1      -7.608  -9.553   6.917  1.00  0.00     0.167 HD
ATOM     53  C   UNL     1      -6.314 -11.375   8.669  1.00  0.00     0.074 A 
ATOM     54  C   UNL     1      -5.295 -12.207   9.277  1.00  0.00     0.031 C 
ATOM     55  C   UNL     1      -7.606 -11.331   9.080  1.00  0.00     0.031 A 
BRANCH  42  56
ATOM     56  C   UNL     1     -11.194  -7.539   5.756  1.00  0.00    -0.014 A 
ATOM     57  C   UNL     1     -11.985  -7.868   4.639  1.00  0.00     0.010 A 
ATOM     58  C   UNL     1     -11.694  -6.622   6.698  1.00  0.00     0.010 A 
ATOM     59  C   UNL     1     -13.223  -7.252   4.439  1.00  0.00     0.020 A 
ATOM     60  C   UNL     1     -12.949  -6.029   6.519  1.00  0.00     0.020 A 
ATOM     61  C   UNL     1     -13.696  -6.333   5.379  1.00  0.00     0.054 A 
BRANCH  61  62
ATOM     62  S   UNL     1     -15.314  -5.561   5.103  1.00  0.00     0.124 S 
ATOM     63  O   UNL     1     -15.019  -4.623   4.022  1.00  0.00    -0.237 OA
ATOM     64  O   UNL     1     -16.152  -6.699   4.734  1.00  0.00    -0.237 OA
ATOM     65  O   UNL     1     -15.631  -4.949   6.390  1.00  0.00    -0.744 OA
ENDBRANCH  61  62
ENDBRANCH  42  56
BRANCH  43  66
ATOM     66  C   UNL     1      -1.946 -11.203   6.911  1.00  0.00    -0.014 A 
ATOM     67  C   UNL     1      -1.670 -12.560   6.667  1.00  0.00     0.010 A 
ATOM     68  C   UNL     1      -0.899 -10.356   7.317  1.00  0.00     0.010 A 
ATOM     69  C   UNL     1      -0.380 -13.067   6.850  1.00  0.00     0.020 A 
ATOM     70  C   UNL     1       0.399 -10.853   7.472  1.00  0.00     0.020 A 
ATOM     71  C   UNL     1       0.648 -12.209   7.250  1.00  0.00     0.054 A 
BRANCH  71  72
ATOM     72  S   UNL     1       2.325 -12.877   7.431  1.00  0.00     0.124 S 
ATOM     73  O   UNL     1       2.214 -13.643   8.669  1.00  0.00    -0.237 OA
ATOM     74  O   UNL     1       2.485 -13.665   6.211  1.00  0.00    -0.237 OA
ATOM     75  O   UNL     1       3.162 -11.682   7.506  1.00  0.00    -0.744 OA
ENDBRANCH  71  72
ENDBRANCH  43  66
BRANCH  55  76
ATOM     76  C   UNL     1      -7.998 -12.246  10.208  1.00  0.00    -0.014 A 
ATOM     77  C   UNL     1      -7.556 -12.022  11.523  1.00  0.00     0.010 A 
ATOM     78  C   UNL     1      -8.842 -13.341   9.943  1.00  0.00     0.010 A 
ATOM     79  C   UNL     1      -7.906 -12.909  12.544  1.00  0.00     0.020 A 
ATOM     80  C   UNL     1      -9.220 -14.211  10.967  1.00  0.00     0.020 A 
ATOM     81  C   UNL     1      -8.729 -14.003  12.258  1.00  0.00     0.054 A 
BRANCH  81  82
ATOM     82  S   UNL     1      -9.172 -15.139  13.598  1.00  0.00     0.124 S 
ATOM     83  O   UNL     1      -7.935 -15.896  13.774  1.00  0.00    -0.237 OA
ATOM     84  O   UNL     1      -9.513 -14.231  14.691  1.00  0.00    -0.237 OA
ATOM     85  O   UNL     1     -10.295 -15.898  13.053  1.00  0.00    -0.744 OA
ENDBRANCH  81  82
ENDBRANCH  55  76
ENDBRANCH  29  30
ENDBRANCH  21  24
ENDBRANCH  19  20
ENDBRANCH  18  19
ENDBRANCH   1  18
TORSDOF 18
