REMARK SMILES O=C(C[C@@H]1C[N@@H+](C[C@H]2CCOC2)CCO1)NCCCNC(=O)c1ccc(-c2c3nc(c(-c4ccc(S(=O)(=O)[O-])cc4)c4ccc([nH]4)c(-c4ccc(S(=O)(=O)[O-])cc4)c4nc(c(-c5ccc(S(=O)(=O)[O-])cc5)c5ccc2[nH]5)C=C4)C=C3)cc1
REMARK SMILES IDX 18 1 17 2 16 3 1 4 2 5 3 7 4 8 5 9 15 10 6 11 14 12 13 13
REMARK SMILES IDX 7 15 8 16 9 17 12 18 10 19 11 20 19 21 20 22 21 23 22 25
REMARK SMILES IDX 23 26 24 27 82 28 25 29 81 30 26 31 27 32 28 33 75 34 29 35
REMARK SMILES IDX 80 36 74 37 76 38 30 39 79 40 73 41 72 42 31 44 61 45 42 46
REMARK SMILES IDX 60 47 43 48 46 49 59 50 77 51 44 52 45 53 58 55 78 56 47 57
REMARK SMILES IDX 32 58 33 59 41 60 34 61 40 62 35 63 36 64 37 65 38 66 39 67
REMARK SMILES IDX 62 68 63 69 71 70 64 71 70 72 65 73 66 74 67 75 68 76 69 77
REMARK SMILES IDX 48 78 49 79 57 80 50 81 56 82 51 83 52 84 53 85 54 86 55 87
REMARK H PARENT 16 6 6 14 20 24 76 43 46 54
REMARK Flexibility Score: inf
ROOT
ATOM      1  C   UNL     1       9.951   3.483  -1.972  1.00  0.00     0.042 C 
ENDROOT
BRANCH   1   2
ATOM      2  C   UNL     1       8.839   2.475  -1.707  1.00  0.00     0.117 C 
BRANCH   2   3
ATOM      3  N   UNL     1       8.541   1.700  -2.888  1.00  0.00    -0.356 N 
ATOM      4  O   UNL     1       9.194  -0.383  -2.161  1.00  0.00    -0.275 OA
ATOM      5  C   UNL     1       8.730   0.346  -3.029  1.00  0.00     0.222 C 
ATOM      6  H   UNL     1       8.169   2.184  -3.660  1.00  0.00     0.163 HD
BRANCH   5   7
ATOM      7  C   UNL     1       8.313  -0.172  -4.400  1.00  0.00     0.138 C 
BRANCH   7   8
ATOM      8  C   UNL     1       6.880   0.275  -4.685  1.00  0.00     0.182 C 
ATOM      9  C   UNL     1       6.224  -0.462  -5.866  1.00  0.00     0.295 C 
ATOM     10  O   UNL     1       6.883   1.694  -4.964  1.00  0.00    -0.366 OA
ATOM     11  N   UNL     1       4.846  -0.011  -6.162  1.00  0.00    -0.331 N 
ATOM     12  C   UNL     1       5.534   2.171  -5.053  1.00  0.00     0.222 C 
ATOM     13  C   UNL     1       4.756   1.456  -6.171  1.00  0.00     0.291 C 
ATOM     14  H   UNL     1       4.641  -0.293  -7.120  1.00  0.00     0.348 HD
BRANCH  11  15
ATOM     15  C   UNL     1       3.780  -0.740  -5.464  1.00  0.00     0.268 C 
BRANCH  15  16
ATOM     16  C   UNL     1       3.547  -0.446  -3.984  1.00  0.00     0.072 C 
ATOM     17  C   UNL     1       2.617   0.701  -3.638  1.00  0.00     0.040 C 
ATOM     18  C   UNL     1       2.867  -1.568  -3.215  1.00  0.00     0.169 C 
ATOM     19  C   UNL     1       2.465   0.463  -2.150  1.00  0.00     0.160 C 
ATOM     20  O   UNL     1       2.398  -0.966  -1.992  1.00  0.00    -0.381 OA
ENDBRANCH  15  16
ENDBRANCH  11  15
ENDBRANCH   7   8
ENDBRANCH   5   7
ENDBRANCH   2   3
ENDBRANCH   1   2
BRANCH   1  21
ATOM     21  C   UNL     1       9.687   4.431  -3.141  1.00  0.00     0.118 C 
BRANCH  21  22
ATOM     22  N   UNL     1       8.601   5.369  -2.898  1.00  0.00    -0.352 N 
ATOM     23  C   UNL     1       8.588   6.742  -2.999  1.00  0.00     0.251 C 
ATOM     24  H   UNL     1       7.748   4.961  -2.621  1.00  0.00     0.163 HD
ATOM     25  O   UNL     1       7.599   7.368  -2.637  1.00  0.00    -0.269 OA
BRANCH  23  26
ATOM     26  C   UNL     1       9.777   7.465  -3.512  1.00  0.00     0.039 A 
ATOM     27  C   UNL     1      10.225   8.597  -2.825  1.00  0.00     0.014 A 
ATOM     28  C   UNL     1      10.453   7.034  -4.657  1.00  0.00     0.014 A 
ATOM     29  C   UNL     1      11.391   9.247  -3.240  1.00  0.00     0.010 A 
ATOM     30  C   UNL     1      11.657   7.636  -5.022  1.00  0.00     0.010 A 
ATOM     31  C   UNL     1      12.143   8.748  -4.316  1.00  0.00    -0.014 A 
BRANCH  31  32
ATOM     32  C   UNL     1      13.445   9.359  -4.700  1.00  0.00     0.031 A 
ATOM     33  C   UNL     1      13.629   9.978  -6.061  1.00  0.00     0.074 A 
ATOM     34  C   UNL     1      14.487   9.305  -3.845  1.00  0.00     0.049 A 
ATOM     35  N   UNL     1      14.703  10.509  -6.588  1.00  0.00    -0.248 NA
ATOM     36  C   UNL     1      12.459   9.983  -6.955  1.00  0.00     0.031 C 
ATOM     37  C   UNL     1      14.456   8.702  -2.510  1.00  0.00     0.029 A 
ATOM     38  N   UNL     1      15.778   9.757  -3.971  1.00  0.00    -0.354 N 
ATOM     39  C   UNL     1      14.345  10.896  -7.874  1.00  0.00     0.074 A 
ATOM     40  C   UNL     1      12.969  10.494  -8.066  1.00  0.00     0.031 C 
ATOM     41  C   UNL     1      15.660   8.847  -1.932  1.00  0.00     0.029 A 
ATOM     42  C   UNL     1      16.563   9.508  -2.869  1.00  0.00     0.049 A 
ATOM     43  H   UNL     1      16.110  10.217  -4.776  1.00  0.00     0.167 HD
ATOM     44  C   UNL     1      15.087  11.544  -8.806  1.00  0.00     0.031 A 
ATOM     45  C   UNL     1      17.865   9.769  -2.638  1.00  0.00     0.031 A 
ATOM     46  C   UNL     1      16.457  11.945  -8.613  1.00  0.00     0.049 A 
ATOM     47  C   UNL     1      18.676  10.464  -3.698  1.00  0.00     0.074 A 
ATOM     48  C   UNL     1      17.275  12.650  -9.479  1.00  0.00     0.029 A 
ATOM     49  N   UNL     1      17.214  11.672  -7.484  1.00  0.00    -0.354 N 
ATOM     50  N   UNL     1      18.298  10.882  -4.883  1.00  0.00    -0.248 NA
ATOM     51  C   UNL     1      20.087  10.732  -3.386  1.00  0.00     0.031 C 
ATOM     52  C   UNL     1      18.544  12.749  -8.900  1.00  0.00     0.029 A 
ATOM     53  C   UNL     1      18.497  12.169  -7.642  1.00  0.00     0.049 A 
ATOM     54  H   UNL     1      16.887  11.195  -6.686  1.00  0.00     0.167 HD
ATOM     55  C   UNL     1      19.416  11.489  -5.444  1.00  0.00     0.074 A 
ATOM     56  C   UNL     1      20.478  11.399  -4.463  1.00  0.00     0.031 C 
ATOM     57  C   UNL     1      19.549  12.073  -6.661  1.00  0.00     0.031 A 
BRANCH  44  58
ATOM     58  C   UNL     1      14.434  11.851 -10.130  1.00  0.00    -0.014 A 
ATOM     59  C   UNL     1      13.398  12.799 -10.229  1.00  0.00     0.010 A 
ATOM     60  C   UNL     1      14.894  11.220 -11.300  1.00  0.00     0.010 A 
ATOM     61  C   UNL     1      12.807  13.076 -11.464  1.00  0.00     0.020 A 
ATOM     62  C   UNL     1      14.327  11.518 -12.543  1.00  0.00     0.020 A 
ATOM     63  C   UNL     1      13.274  12.432 -12.614  1.00  0.00     0.054 A 
BRANCH  63  64
ATOM     64  S   UNL     1      12.501  12.828 -14.206  1.00  0.00     0.124 S 
ATOM     65  O   UNL     1      11.190  12.198 -14.068  1.00  0.00    -0.237 OA
ATOM     66  O   UNL     1      12.498  14.289 -14.205  1.00  0.00    -0.237 OA
ATOM     67  O   UNL     1      13.388  12.210 -15.187  1.00  0.00    -0.744 OA
ENDBRANCH  63  64
ENDBRANCH  44  58
BRANCH  45  68
ATOM     68  C   UNL     1      18.484   9.377  -1.340  1.00  0.00    -0.014 A 
ATOM     69  C   UNL     1      18.886  10.356  -0.414  1.00  0.00     0.010 A 
ATOM     70  C   UNL     1      18.670   8.019  -1.021  1.00  0.00     0.010 A 
ATOM     71  C   UNL     1      19.479   9.986   0.797  1.00  0.00     0.020 A 
ATOM     72  C   UNL     1      19.233   7.644   0.202  1.00  0.00     0.020 A 
ATOM     73  C   UNL     1      19.646   8.632   1.099  1.00  0.00     0.054 A 
BRANCH  73  74
ATOM     74  S   UNL     1      20.374   8.175   2.697  1.00  0.00     0.124 S 
ATOM     75  O   UNL     1      21.771   8.555   2.514  1.00  0.00    -0.237 OA
ATOM     76  O   UNL     1      19.611   8.996   3.635  1.00  0.00    -0.237 OA
ATOM     77  O   UNL     1      20.122   6.739   2.790  1.00  0.00    -0.744 OA
ENDBRANCH  73  74
ENDBRANCH  45  68
BRANCH  57  78
ATOM     78  C   UNL     1      20.880  12.698  -6.993  1.00  0.00    -0.014 A 
ATOM     79  C   UNL     1      22.020  11.912  -7.238  1.00  0.00     0.010 A 
ATOM     80  C   UNL     1      20.975  14.097  -7.117  1.00  0.00     0.010 A 
ATOM     81  C   UNL     1      23.238  12.515  -7.567  1.00  0.00     0.020 A 
ATOM     82  C   UNL     1      22.182  14.701  -7.477  1.00  0.00     0.020 A 
ATOM     83  C   UNL     1      23.310  13.906  -7.687  1.00  0.00     0.054 A 
BRANCH  83  84
ATOM     84  S   UNL     1      24.890  14.661  -8.160  1.00  0.00     0.124 S 
ATOM     85  O   UNL     1      25.687  14.484  -6.949  1.00  0.00    -0.237 OA
ATOM     86  O   UNL     1      25.300  13.852  -9.305  1.00  0.00    -0.237 OA
ATOM     87  O   UNL     1      24.535  16.042  -8.476  1.00  0.00    -0.744 OA
ENDBRANCH  83  84
ENDBRANCH  57  78
ENDBRANCH  31  32
ENDBRANCH  23  26
ENDBRANCH  21  22
ENDBRANCH   1  21
TORSDOF 16
