REMARK SMILES O=C(NCCCNC(=O)[C@H]1CC1(c1ccccc1)c1ccccc1)c1ccc(-c2c3nc(c(-c4ccc(S(=O)(=O)[O-])cc4)c4ccc([nH]4)c(-c4ccc(S(=O)(=O)[O-])cc4)c4nc(c(-c5ccc(S(=O)(=O)[O-])cc5)c5ccc2[nH]5)C=C4)C=C3)cc1
REMARK SMILES IDX 4 1 3 2 1 3 2 4 25 6 26 7 84 8 27 9 83 10 28 11 29 12 30 13
REMARK SMILES IDX 77 14 31 15 82 16 76 17 78 18 32 19 81 20 75 21 74 22 33 24
REMARK SMILES IDX 63 25 44 26 62 27 45 28 48 29 61 30 79 31 46 32 47 33 60 35
REMARK SMILES IDX 80 36 49 37 34 38 35 39 43 40 36 41 42 42 37 43 38 44 39 45
REMARK SMILES IDX 40 46 41 47 64 48 65 49 73 50 66 51 72 52 67 53 68 54 69 55
REMARK SMILES IDX 70 56 71 57 50 58 51 59 59 60 52 61 58 62 53 63 54 64 55 65
REMARK SMILES IDX 56 66 57 67 5 68 6 69 7 70 8 71 9 73 10 74 11 75 12 76 13 77
REMARK SMILES IDX 14 78 18 79 15 80 17 81 16 82 19 83 20 84 24 85 21 86 23 87
REMARK SMILES IDX 22 88
REMARK H PARENT 3 5 78 23 48 34 7 72
REMARK Flexibility Score: inf
ROOT
ATOM      1  C   UNL     1      10.501   0.429  -6.033  1.00  0.00     0.118 C 
ENDROOT
BRANCH   1   2
ATOM      2  N   UNL     1      10.685   1.844  -5.766  1.00  0.00    -0.352 N 
ATOM      3  O   UNL     1      11.779   3.695  -5.109  1.00  0.00    -0.269 OA
ATOM      4  C   UNL     1      11.845   2.538  -5.516  1.00  0.00     0.251 C 
ATOM      5  H   UNL     1       9.861   2.384  -5.763  1.00  0.00     0.163 HD
BRANCH   4   6
ATOM      6  C   UNL     1      13.167   1.895  -5.715  1.00  0.00     0.039 A 
ATOM      7  C   UNL     1      13.428   1.105  -6.838  1.00  0.00     0.014 A 
ATOM      8  C   UNL     1      14.182   2.131  -4.782  1.00  0.00     0.014 A 
ATOM      9  C   UNL     1      14.657   0.461  -6.967  1.00  0.00     0.010 A 
ATOM     10  C   UNL     1      15.441   1.544  -4.952  1.00  0.00     0.010 A 
ATOM     11  C   UNL     1      15.683   0.688  -6.036  1.00  0.00    -0.014 A 
BRANCH  11  12
ATOM     12  C   UNL     1      17.023   0.087  -6.262  1.00  0.00     0.031 A 
ATOM     13  C   UNL     1      17.583  -0.953  -5.332  1.00  0.00     0.074 A 
ATOM     14  C   UNL     1      17.736   0.485  -7.335  1.00  0.00     0.049 A 
ATOM     15  N   UNL     1      18.723  -1.591  -5.407  1.00  0.00    -0.248 NA
ATOM     16  C   UNL     1      16.766  -1.320  -4.165  1.00  0.00     0.031 C 
ATOM     17  C   UNL     1      17.310   1.504  -8.299  1.00  0.00     0.029 A 
ATOM     18  N   UNL     1      18.956   0.073  -7.806  1.00  0.00    -0.354 N 
ATOM     19  C   UNL     1      18.773  -2.419  -4.292  1.00  0.00     0.074 A 
ATOM     20  C   UNL     1      17.554  -2.189  -3.545  1.00  0.00     0.031 C 
ATOM     21  C   UNL     1      18.233   1.606  -9.267  1.00  0.00     0.029 A 
ATOM     22  C   UNL     1      19.336   0.700  -8.969  1.00  0.00     0.049 A 
ATOM     23  H   UNL     1      19.508  -0.606  -7.354  1.00  0.00     0.167 HD
ATOM     24  C   UNL     1      19.744  -3.291  -3.925  1.00  0.00     0.031 A 
ATOM     25  C   UNL     1      20.450   0.571  -9.713  1.00  0.00     0.031 A 
ATOM     26  C   UNL     1      20.953  -3.522  -4.673  1.00  0.00     0.049 A 
ATOM     27  C   UNL     1      21.507  -0.405  -9.288  1.00  0.00     0.074 A 
ATOM     28  C   UNL     1      21.976  -4.415  -4.399  1.00  0.00     0.029 A 
ATOM     29  N   UNL     1      21.305  -2.858  -5.837  1.00  0.00    -0.354 N 
ATOM     30  N   UNL     1      21.515  -1.204  -8.248  1.00  0.00    -0.248 NA
ATOM     31  C   UNL     1      22.702  -0.498 -10.136  1.00  0.00     0.031 C 
ATOM     32  C   UNL     1      22.965  -4.261  -5.377  1.00  0.00     0.029 A 
ATOM     33  C   UNL     1      22.538  -3.305  -6.284  1.00  0.00     0.049 A 
ATOM     34  H   UNL     1      20.759  -2.170  -6.282  1.00  0.00     0.167 HD
ATOM     35  C   UNL     1      22.714  -1.901  -8.320  1.00  0.00     0.074 A 
ATOM     36  C   UNL     1      23.394  -1.445  -9.516  1.00  0.00     0.031 C 
ATOM     37  C   UNL     1      23.208  -2.832  -7.468  1.00  0.00     0.031 A 
BRANCH  24  38
ATOM     38  C   UNL     1      19.549  -4.050  -2.640  1.00  0.00    -0.014 A 
ATOM     39  C   UNL     1      18.640  -5.119  -2.558  1.00  0.00     0.010 A 
ATOM     40  C   UNL     1      20.323  -3.720  -1.512  1.00  0.00     0.010 A 
ATOM     41  C   UNL     1      18.483  -5.823  -1.361  1.00  0.00     0.020 A 
ATOM     42  C   UNL     1      20.182  -4.434  -0.318  1.00  0.00     0.020 A 
ATOM     43  C   UNL     1      19.250  -5.471  -0.246  1.00  0.00     0.054 A 
BRANCH  43  44
ATOM     44  S   UNL     1      19.039  -6.410   1.293  1.00  0.00     0.124 S 
ATOM     45  O   UNL     1      17.780  -5.870   1.802  1.00  0.00    -0.237 OA
ATOM     46  O   UNL     1      18.984  -7.792   0.824  1.00  0.00    -0.237 OA
ATOM     47  O   UNL     1      20.225  -6.067   2.074  1.00  0.00    -0.744 OA
ENDBRANCH  43  44
ENDBRANCH  24  38
BRANCH  25  48
ATOM     48  C   UNL     1      20.611   1.401 -10.935  1.00  0.00    -0.014 A 
ATOM     49  C   UNL     1      20.473   0.828 -12.210  1.00  0.00     0.010 A 
ATOM     50  C   UNL     1      20.851   2.783 -10.824  1.00  0.00     0.010 A 
ATOM     51  C   UNL     1      20.573   1.624 -13.355  1.00  0.00     0.020 A 
ATOM     52  C   UNL     1      20.928   3.584 -11.965  1.00  0.00     0.020 A 
ATOM     53  C   UNL     1      20.796   2.998 -13.225  1.00  0.00     0.054 A 
BRANCH  53  54
ATOM     54  S   UNL     1      20.841   4.029 -14.717  1.00  0.00     0.124 S 
ATOM     55  O   UNL     1      22.191   3.784 -15.214  1.00  0.00    -0.237 OA
ATOM     56  O   UNL     1      19.758   3.471 -15.524  1.00  0.00    -0.237 OA
ATOM     57  O   UNL     1      20.594   5.375 -14.206  1.00  0.00    -0.744 OA
ENDBRANCH  53  54
ENDBRANCH  25  48
BRANCH  37  58
ATOM     58  C   UNL     1      24.546  -3.426  -7.807  1.00  0.00    -0.014 A 
ATOM     59  C   UNL     1      25.731  -2.697  -7.605  1.00  0.00     0.010 A 
ATOM     60  C   UNL     1      24.622  -4.741  -8.300  1.00  0.00     0.010 A 
ATOM     61  C   UNL     1      26.970  -3.263  -7.918  1.00  0.00     0.020 A 
ATOM     62  C   UNL     1      25.860  -5.317  -8.595  1.00  0.00     0.020 A 
ATOM     63  C   UNL     1      27.025  -4.569  -8.416  1.00  0.00     0.054 A 
BRANCH  63  64
ATOM     64  S   UNL     1      28.645  -5.299  -8.784  1.00  0.00     0.124 S 
ATOM     65  O   UNL     1      28.968  -4.686 -10.070  1.00  0.00    -0.237 OA
ATOM     66  O   UNL     1      29.462  -4.860  -7.656  1.00  0.00    -0.237 OA
ATOM     67  O   UNL     1      28.373  -6.734  -8.827  1.00  0.00    -0.744 OA
ENDBRANCH  63  64
ENDBRANCH  37  58
ENDBRANCH  11  12
ENDBRANCH   4   6
ENDBRANCH   1   2
BRANCH   1  68
ATOM     68  C   UNL     1       9.614  -0.246  -4.995  1.00  0.00     0.042 C 
BRANCH  68  69
ATOM     69  C   UNL     1       8.120   0.005  -5.186  1.00  0.00     0.117 C 
BRANCH  69  70
ATOM     70  N   UNL     1       7.653  -0.684  -6.369  1.00  0.00    -0.356 N 
ATOM     71  C   UNL     1       6.840  -1.772  -6.478  1.00  0.00     0.224 C 
ATOM     72  H   UNL     1       7.970  -0.311  -7.223  1.00  0.00     0.163 HD
ATOM     73  O   UNL     1       6.692  -2.284  -7.586  1.00  0.00    -0.275 OA
BRANCH  71  74
ATOM     74  C   UNL     1       5.995  -2.201  -5.334  1.00  0.00     0.095 C 
ATOM     75  C   UNL     1       5.494  -3.626  -5.459  1.00  0.00     0.032 C 
ATOM     76  C   UNL     1       6.253  -3.213  -4.205  1.00  0.00     0.033 C 
BRANCH  76  77
ATOM     77  C   UNL     1       7.614  -3.911  -4.004  1.00  0.00    -0.037 A 
ATOM     78  C   UNL     1       7.752  -5.303  -4.159  1.00  0.00     0.004 A 
ATOM     79  C   UNL     1       8.735  -3.227  -3.500  1.00  0.00     0.004 A 
ATOM     80  C   UNL     1       8.937  -5.971  -3.831  1.00  0.00     0.000 A 
ATOM     81  C   UNL     1       9.925  -3.884  -3.171  1.00  0.00     0.000 A 
ATOM     82  C   UNL     1      10.023  -5.260  -3.333  1.00  0.00     0.000 A 
ENDBRANCH  76  77
BRANCH  76  83
ATOM     83  C   UNL     1       5.404  -3.035  -2.888  1.00  0.00    -0.037 A 
ATOM     84  C   UNL     1       6.006  -2.952  -1.614  1.00  0.00     0.004 A 
ATOM     85  C   UNL     1       3.993  -2.974  -2.888  1.00  0.00     0.004 A 
ATOM     86  C   UNL     1       5.265  -2.853  -0.431  1.00  0.00     0.000 A 
ATOM     87  C   UNL     1       3.242  -2.877  -1.710  1.00  0.00     0.000 A 
ATOM     88  C   UNL     1       3.879  -2.824  -0.479  1.00  0.00     0.000 A 
ENDBRANCH  76  83
ENDBRANCH  71  74
ENDBRANCH  69  70
ENDBRANCH  68  69
ENDBRANCH   1  68
TORSDOF 15
