REMARK SMILES COc1ccc(-c2ccc(CCC(=O)NCCCNC(=O)c3ccc(-c4c5nc(c(-c6ccc(S(=O)(=O)[O-])cc6)c6ccc([nH]6)c(-c6ccc(S(=O)(=O)[O-])cc6)c6nc(c(-c7ccc(S(=O)(=O)[O-])cc7)c7ccc4[nH]7)C=C6)C=C5)cc3)n2-c2ccc(C(C)=O)cc2)cc1
REMARK SMILES IDX 16 1 15 2 13 3 14 4 12 6 11 7 10 8 7 9 8 10 82 11 9 12 6 13
REMARK SMILES IDX 3 14 4 15 93 16 5 17 92 18 2 19 1 20 83 21 84 22 91 23 85 24
REMARK SMILES IDX 90 25 86 26 87 27 88 28 89 29 17 30 18 31 19 32 20 33 21 35
REMARK SMILES IDX 22 36 23 37 81 38 24 39 80 40 25 41 26 42 27 43 74 44 28 45
REMARK SMILES IDX 79 46 73 47 75 48 29 49 78 50 72 51 71 52 30 54 60 55 41 56
REMARK SMILES IDX 59 57 42 58 45 59 58 60 76 61 43 62 44 63 57 65 77 66 46 67
REMARK SMILES IDX 31 68 32 69 40 70 33 71 39 72 34 73 35 74 36 75 37 76 38 77
REMARK SMILES IDX 61 78 62 79 70 80 63 81 69 82 64 83 65 84 66 85 67 86 68 87
REMARK SMILES IDX 47 88 48 89 56 90 49 91 55 92 50 93 51 94 52 95 53 96 54 97
REMARK H PARENT 15 5 19 34 75 53 45 64
REMARK Flexibility Score: inf
ROOT
ATOM      1  C   UNL     1       5.182   7.043   4.263  1.00  0.00     0.117 C 
ENDROOT
BRANCH   1   2
ATOM      2  N   UNL     1       5.089   8.456   4.591  1.00  0.00    -0.356 N 
ATOM      3  C   UNL     1       4.016   9.165   5.048  1.00  0.00     0.220 C 
ATOM      4  O   UNL     1       4.104  10.391   5.110  1.00  0.00    -0.275 OA
ATOM      5  H   UNL     1       5.916   8.975   4.466  1.00  0.00     0.163 HD
BRANCH   3   6
ATOM      6  C   UNL     1       2.766   8.450   5.527  1.00  0.00     0.106 C 
BRANCH   6   7
ATOM      7  C   UNL     1       1.518   8.812   4.717  1.00  0.00     0.064 C 
BRANCH   7   8
ATOM      8  C   UNL     1       1.367   8.004   3.450  1.00  0.00     0.024 A 
ATOM      9  C   UNL     1       1.254   6.156   2.144  1.00  0.00     0.053 A 
ATOM     10  C   UNL     1       1.563   7.248   1.341  1.00  0.00     0.029 A 
ATOM     11  N   UNL     1       0.927   6.679   3.397  1.00  0.00    -0.314 N 
ATOM     12  C   UNL     1       1.615   8.402   2.151  1.00  0.00     0.024 A 
BRANCH   9  13
ATOM     13  C   UNL     1       1.024   4.789   1.672  1.00  0.00    -0.001 A 
ATOM     14  C   UNL     1       0.625   2.264   0.485  1.00  0.00     0.118 A 
ATOM     15  C   UNL     1      -0.413   3.196   0.544  1.00  0.00     0.047 A 
ATOM     16  C   UNL     1       1.867   2.594   1.025  1.00  0.00     0.047 A 
ATOM     17  C   UNL     1      -0.220   4.445   1.138  1.00  0.00     0.014 A 
ATOM     18  C   UNL     1       2.065   3.854   1.613  1.00  0.00     0.014 A 
BRANCH  14  19
ATOM     19  O   UNL     1       0.313   1.105  -0.168  1.00  0.00    -0.497 OA
ATOM     20  C   UNL     1       1.145  -0.018   0.089  1.00  0.00     0.278 C 
ENDBRANCH  14  19
ENDBRANCH   9  13
BRANCH  11  21
ATOM     21  C   UNL     1       0.043   6.087   4.333  1.00  0.00     0.046 A 
ATOM     22  C   UNL     1      -1.109   6.813   4.660  1.00  0.00     0.027 A 
ATOM     23  C   UNL     1       0.234   4.803   4.836  1.00  0.00     0.027 A 
ATOM     24  C   UNL     1      -2.078   6.261   5.492  1.00  0.00     0.014 A 
ATOM     25  C   UNL     1      -0.734   4.261   5.694  1.00  0.00     0.014 A 
ATOM     26  C   UNL     1      -1.903   4.979   6.017  1.00  0.00     0.017 A 
BRANCH  26  27
ATOM     27  C   UNL     1      -2.918   4.332   6.904  1.00  0.00     0.159 C 
ATOM     28  C   UNL     1      -4.264   4.974   7.143  1.00  0.00     0.093 C 
ATOM     29  O   UNL     1      -2.654   3.250   7.431  1.00  0.00    -0.295 OA
ENDBRANCH  26  27
ENDBRANCH  11  21
ENDBRANCH   7   8
ENDBRANCH   6   7
ENDBRANCH   3   6
ENDBRANCH   1   2
BRANCH   1  30
ATOM     30  C   UNL     1       4.672   6.786   2.855  1.00  0.00     0.042 C 
BRANCH  30  31
ATOM     31  C   UNL     1       5.680   7.111   1.774  1.00  0.00     0.118 C 
BRANCH  31  32
ATOM     32  N   UNL     1       6.370   5.931   1.295  1.00  0.00    -0.352 N 
ATOM     33  C   UNL     1       6.991   5.724   0.084  1.00  0.00     0.251 C 
ATOM     34  H   UNL     1       6.399   5.172   1.922  1.00  0.00     0.163 HD
ATOM     35  O   UNL     1       7.305   4.584  -0.223  1.00  0.00    -0.269 OA
BRANCH  33  36
ATOM     36  C   UNL     1       7.271   6.856  -0.843  1.00  0.00     0.039 A 
ATOM     37  C   UNL     1       7.416   6.567  -2.206  1.00  0.00     0.014 A 
ATOM     38  C   UNL     1       7.471   8.166  -0.392  1.00  0.00     0.014 A 
ATOM     39  C   UNL     1       7.738   7.584  -3.100  1.00  0.00     0.010 A 
ATOM     40  C   UNL     1       7.731   9.193  -1.281  1.00  0.00     0.010 A 
ATOM     41  C   UNL     1       7.892   8.894  -2.629  1.00  0.00    -0.014 A 
BRANCH  41  42
ATOM     42  C   UNL     1       8.257   9.976  -3.557  1.00  0.00     0.031 A 
ATOM     43  C   UNL     1       7.061  10.490  -4.346  1.00  0.00     0.074 A 
ATOM     44  C   UNL     1       9.584  10.300  -3.592  1.00  0.00     0.049 A 
ATOM     45  N   UNL     1       6.999  10.834  -5.591  1.00  0.00    -0.248 NA
ATOM     46  C   UNL     1       5.719  10.519  -3.708  1.00  0.00     0.031 C 
ATOM     47  C   UNL     1      10.610   9.707  -2.701  1.00  0.00     0.029 A 
ATOM     48  N   UNL     1      10.347  11.166  -4.343  1.00  0.00    -0.354 N 
ATOM     49  C   UNL     1       5.675  11.238  -5.865  1.00  0.00     0.074 A 
ATOM     50  C   UNL     1       4.909  10.918  -4.696  1.00  0.00     0.031 C 
ATOM     51  C   UNL     1      11.839  10.168  -3.004  1.00  0.00     0.029 A 
ATOM     52  C   UNL     1      11.744  11.089  -4.117  1.00  0.00     0.049 A 
ATOM     53  H   UNL     1       9.951  11.793  -4.990  1.00  0.00     0.167 HD
ATOM     54  C   UNL     1       5.333  11.928  -6.993  1.00  0.00     0.031 A 
ATOM     55  C   UNL     1      12.768  11.664  -4.817  1.00  0.00     0.031 A 
ATOM     56  C   UNL     1       6.507  12.213  -7.753  1.00  0.00     0.049 A 
ATOM     57  C   UNL     1      12.140  12.479  -5.870  1.00  0.00     0.074 A 
ATOM     58  C   UNL     1       7.334  11.439  -8.524  1.00  0.00     0.029 A 
ATOM     59  N   UNL     1       7.154  13.386  -7.433  1.00  0.00    -0.354 N 
ATOM     60  N   UNL     1      11.515  13.600  -5.681  1.00  0.00    -0.248 NA
ATOM     61  C   UNL     1      12.113  11.956  -7.244  1.00  0.00     0.031 C 
ATOM     62  C   UNL     1       8.618  11.948  -8.232  1.00  0.00     0.029 A 
ATOM     63  C   UNL     1       8.500  13.120  -7.474  1.00  0.00     0.049 A 
ATOM     64  H   UNL     1       6.733  14.249  -7.216  1.00  0.00     0.167 HD
ATOM     65  C   UNL     1      10.713  13.683  -6.794  1.00  0.00     0.074 A 
ATOM     66  C   UNL     1      11.342  12.876  -7.817  1.00  0.00     0.031 C 
ATOM     67  C   UNL     1       9.382  13.911  -6.643  1.00  0.00     0.031 A 
BRANCH  54  68
ATOM     68  C   UNL     1       4.075  12.638  -7.417  1.00  0.00    -0.014 A 
ATOM     69  C   UNL     1       3.980  13.000  -8.787  1.00  0.00     0.010 A 
ATOM     70  C   UNL     1       3.168  13.228  -6.529  1.00  0.00     0.010 A 
ATOM     71  C   UNL     1       3.124  14.009  -9.228  1.00  0.00     0.020 A 
ATOM     72  C   UNL     1       2.275  14.221  -6.973  1.00  0.00     0.020 A 
ATOM     73  C   UNL     1       2.300  14.642  -8.306  1.00  0.00     0.054 A 
BRANCH  73  74
ATOM     74  S   UNL     1       1.330  16.069  -8.865  1.00  0.00     0.124 S 
ATOM     75  O   UNL     1       2.361  17.086  -9.053  1.00  0.00    -0.237 OA
ATOM     76  O   UNL     1       0.710  15.572 -10.092  1.00  0.00    -0.237 OA
ATOM     77  O   UNL     1       0.404  16.308  -7.761  1.00  0.00    -0.744 OA
ENDBRANCH  73  74
ENDBRANCH  54  68
BRANCH  55  78
ATOM     78  C   UNL     1      14.267  11.508  -4.883  1.00  0.00    -0.014 A 
ATOM     79  C   UNL     1      15.065  10.790  -3.984  1.00  0.00     0.010 A 
ATOM     80  C   UNL     1      14.942  12.044  -6.014  1.00  0.00     0.010 A 
ATOM     81  C   UNL     1      16.412  10.483  -4.288  1.00  0.00     0.020 A 
ATOM     82  C   UNL     1      16.256  11.713  -6.349  1.00  0.00     0.020 A 
ATOM     83  C   UNL     1      16.979  10.901  -5.495  1.00  0.00     0.054 A 
BRANCH  83  84
ATOM     84  S   UNL     1      18.599  10.283  -6.028  1.00  0.00     0.124 S 
ATOM     85  O   UNL     1      19.517  11.220  -5.389  1.00  0.00    -0.237 OA
ATOM     86  O   UNL     1      18.616   8.921  -5.501  1.00  0.00    -0.237 OA
ATOM     87  O   UNL     1      18.530  10.371  -7.487  1.00  0.00    -0.744 OA
ENDBRANCH  83  84
ENDBRANCH  55  78
BRANCH  67  88
ATOM     88  C   UNL     1       8.995  14.623  -5.349  1.00  0.00    -0.014 A 
ATOM     89  C   UNL     1       9.588  15.863  -5.036  1.00  0.00     0.010 A 
ATOM     90  C   UNL     1       8.157  14.051  -4.371  1.00  0.00     0.010 A 
ATOM     91  C   UNL     1       9.385  16.487  -3.796  1.00  0.00     0.020 A 
ATOM     92  C   UNL     1       7.940  14.671  -3.125  1.00  0.00     0.020 A 
ATOM     93  C   UNL     1       8.565  15.886  -2.842  1.00  0.00     0.054 A 
BRANCH  93  94
ATOM     94  S   UNL     1       8.348  16.710  -1.235  1.00  0.00     0.124 S 
ATOM     95  O   UNL     1       9.710  16.757  -0.709  1.00  0.00    -0.237 OA
ATOM     96  O   UNL     1       7.782  18.002  -1.616  1.00  0.00    -0.237 OA
ATOM     97  O   UNL     1       7.438  15.827  -0.507  1.00  0.00    -0.744 OA
ENDBRANCH  93  94
ENDBRANCH  67  88
ENDBRANCH  41  42
ENDBRANCH  33  36
ENDBRANCH  31  32
ENDBRANCH  30  31
ENDBRANCH   1  30
TORSDOF 19
