REMARK SMILES O=C(NCCCNC(=O)c1nnn(-c2cccc(Br)c2)c1[C@@H]1COc2ccccc2O1)c1ccc(-c2c3nc(c(-c4ccc(S(=O)(=O)[O-])cc4)c4ccc([nH]4)c(-c4ccc(S(=O)(=O)[O-])cc4)c4nc(c(-c5ccc(S(=O)(=O)[O-])cc5)c5ccc2[nH]5)C=C4)C=C3)cc1
REMARK SMILES IDX 4 1 3 2 1 3 2 4 32 6 33 7 91 8 34 9 90 10 35 11 36 12 37 13
REMARK SMILES IDX 84 14 38 15 89 16 83 17 85 18 39 19 88 20 82 21 81 22 40 24
REMARK SMILES IDX 70 25 51 26 69 27 52 28 55 29 68 30 86 31 53 32 54 33 67 35
REMARK SMILES IDX 87 36 56 37 41 38 42 39 50 40 43 41 49 42 44 43 45 44 46 45
REMARK SMILES IDX 47 46 48 47 71 48 72 49 80 50 73 51 79 52 74 53 75 54 76 55
REMARK SMILES IDX 77 56 78 57 57 58 58 59 66 60 59 61 65 62 60 63 61 64 62 65
REMARK SMILES IDX 63 66 64 67 5 68 6 69 7 70 8 71 9 73 10 74 11 75 21 76 12 77
REMARK SMILES IDX 13 78 22 79 23 80 31 81 24 82 30 83 25 84 29 85 26 86 28 87
REMARK SMILES IDX 27 88 14 89 15 90 20 91 16 92 18 93 17 94 19 95
REMARK H PARENT 3 5 85 23 55 34 7 72
REMARK Flexibility Score: inf
ROOT
ATOM      1  C   UNL     1       5.306   0.034  -0.516  1.00  0.00     0.118 C 
ENDROOT
BRANCH   1   2
ATOM      2  N   UNL     1       3.889   0.341  -0.363  1.00  0.00    -0.352 N 
ATOM      3  O   UNL     1       2.022   0.792   0.766  1.00  0.00    -0.269 OA
ATOM      4  C   UNL     1       2.855  -0.053   0.438  1.00  0.00     0.251 C 
ATOM      5  H   UNL     1       3.598   1.018  -1.016  1.00  0.00     0.163 HD
BRANCH   4   6
ATOM      6  C   UNL     1       2.588  -1.463   0.691  1.00  0.00     0.039 A 
ATOM      7  C   UNL     1       3.621  -2.380   0.751  1.00  0.00     0.014 A 
ATOM      8  C   UNL     1       1.240  -1.868   0.685  1.00  0.00     0.014 A 
ATOM      9  C   UNL     1       3.326  -3.705   0.573  1.00  0.00     0.010 A 
ATOM     10  C   UNL     1       0.936  -3.212   0.599  1.00  0.00     0.010 A 
ATOM     11  C   UNL     1       1.989  -4.112   0.476  1.00  0.00    -0.014 A 
BRANCH  11  12
ATOM     12  C   UNL     1       1.781  -5.546   0.512  1.00  0.00     0.031 A 
ATOM     13  C   UNL     1       2.436  -6.160   1.706  1.00  0.00     0.074 A 
ATOM     14  C   UNL     1       1.023  -6.207  -0.378  1.00  0.00     0.049 A 
ATOM     15  N   UNL     1       3.415  -7.004   1.733  1.00  0.00    -0.248 NA
ATOM     16  C   UNL     1       2.131  -5.554   3.020  1.00  0.00     0.031 C 
ATOM     17  C   UNL     1       0.134  -5.662  -1.405  1.00  0.00     0.029 A 
ATOM     18  N   UNL     1       0.786  -7.540  -0.447  1.00  0.00    -0.354 N 
ATOM     19  C   UNL     1       3.707  -7.192   3.081  1.00  0.00     0.074 A 
ATOM     20  C   UNL     1       3.042  -6.136   3.796  1.00  0.00     0.031 C 
ATOM     21  C   UNL     1      -0.745  -6.622  -1.774  1.00  0.00     0.029 A 
ATOM     22  C   UNL     1      -0.386  -7.867  -1.113  1.00  0.00     0.049 A 
ATOM     23  H   UNL     1       1.390  -8.214  -0.060  1.00  0.00     0.167 HD
ATOM     24  C   UNL     1       4.246  -8.353   3.541  1.00  0.00     0.031 A 
ATOM     25  C   UNL     1      -1.058  -9.042  -1.010  1.00  0.00     0.031 A 
ATOM     26  C   UNL     1       4.884  -9.095   2.487  1.00  0.00     0.049 A 
ATOM     27  C   UNL     1      -0.108 -10.040  -0.446  1.00  0.00     0.074 A 
ATOM     28  C   UNL     1       5.951  -8.854   1.645  1.00  0.00     0.029 A 
ATOM     29  N   UNL     1       4.160 -10.110   1.907  1.00  0.00    -0.354 N 
ATOM     30  N   UNL     1       0.963 -10.441  -1.075  1.00  0.00    -0.248 NA
ATOM     31  C   UNL     1      -0.079 -10.215   1.000  1.00  0.00     0.031 C 
ATOM     32  C   UNL     1       5.550  -9.390   0.387  1.00  0.00     0.029 A 
ATOM     33  C   UNL     1       4.299  -9.990   0.549  1.00  0.00     0.049 A 
ATOM     34  H   UNL     1       3.637 -10.796   2.381  1.00  0.00     0.167 HD
ATOM     35  C   UNL     1       1.948 -10.517  -0.098  1.00  0.00     0.074 A 
ATOM     36  C   UNL     1       1.226 -10.446   1.173  1.00  0.00     0.031 C 
ATOM     37  C   UNL     1       3.269 -10.346  -0.405  1.00  0.00     0.031 A 
BRANCH  24  38
ATOM     38  C   UNL     1       3.764  -9.003   4.818  1.00  0.00    -0.014 A 
ATOM     39  C   UNL     1       4.300 -10.254   5.181  1.00  0.00     0.010 A 
ATOM     40  C   UNL     1       2.599  -8.586   5.498  1.00  0.00     0.010 A 
ATOM     41  C   UNL     1       3.635 -11.088   6.090  1.00  0.00     0.020 A 
ATOM     42  C   UNL     1       1.952  -9.390   6.433  1.00  0.00     0.020 A 
ATOM     43  C   UNL     1       2.450 -10.657   6.689  1.00  0.00     0.054 A 
BRANCH  43  44
ATOM     44  S   UNL     1       1.518 -11.794   7.739  1.00  0.00     0.124 S 
ATOM     45  O   UNL     1       1.115 -12.820   6.782  1.00  0.00    -0.237 OA
ATOM     46  O   UNL     1       2.522 -12.198   8.720  1.00  0.00    -0.237 OA
ATOM     47  O   UNL     1       0.436 -10.965   8.265  1.00  0.00    -0.744 OA
ENDBRANCH  43  44
ENDBRANCH  24  38
BRANCH  25  48
ATOM     48  C   UNL     1      -2.535  -9.214  -0.965  1.00  0.00    -0.014 A 
ATOM     49  C   UNL     1      -3.131 -10.481  -1.104  1.00  0.00     0.010 A 
ATOM     50  C   UNL     1      -3.355  -8.155  -0.519  1.00  0.00     0.010 A 
ATOM     51  C   UNL     1      -4.482 -10.687  -0.767  1.00  0.00     0.020 A 
ATOM     52  C   UNL     1      -4.700  -8.350  -0.189  1.00  0.00     0.020 A 
ATOM     53  C   UNL     1      -5.254  -9.621  -0.295  1.00  0.00     0.054 A 
BRANCH  53  54
ATOM     54  S   UNL     1      -6.949  -9.925   0.288  1.00  0.00     0.124 S 
ATOM     55  O   UNL     1      -7.659 -10.217  -0.954  1.00  0.00    -0.237 OA
ATOM     56  O   UNL     1      -6.776 -11.053   1.198  1.00  0.00    -0.237 OA
ATOM     57  O   UNL     1      -7.323  -8.666   0.932  1.00  0.00    -0.744 OA
ENDBRANCH  53  54
ENDBRANCH  25  48
BRANCH  37  58
ATOM     58  C   UNL     1       3.671 -10.301  -1.862  1.00  0.00    -0.014 A 
ATOM     59  C   UNL     1       3.245  -9.304  -2.763  1.00  0.00     0.010 A 
ATOM     60  C   UNL     1       4.656 -11.209  -2.284  1.00  0.00     0.010 A 
ATOM     61  C   UNL     1       3.778  -9.237  -4.061  1.00  0.00     0.020 A 
ATOM     62  C   UNL     1       5.203 -11.136  -3.567  1.00  0.00     0.020 A 
ATOM     63  C   UNL     1       4.756 -10.156  -4.453  1.00  0.00     0.054 A 
BRANCH  63  64
ATOM     64  S   UNL     1       5.481 -10.040  -6.113  1.00  0.00     0.124 S 
ATOM     65  O   UNL     1       4.363 -10.416  -6.974  1.00  0.00    -0.237 OA
ATOM     66  O   UNL     1       5.893  -8.640  -6.190  1.00  0.00    -0.237 OA
ATOM     67  O   UNL     1       6.584 -11.000  -6.079  1.00  0.00    -0.744 OA
ENDBRANCH  63  64
ENDBRANCH  37  58
ENDBRANCH  11  12
ENDBRANCH   4   6
ENDBRANCH   1   2
BRANCH   1  68
ATOM     68  C   UNL     1       5.838  -0.630  -1.802  1.00  0.00     0.042 C 
BRANCH  68  69
ATOM     69  C   UNL     1       5.880   0.078  -3.178  1.00  0.00     0.118 C 
BRANCH  69  70
ATOM     70  N   UNL     1       6.307   1.465  -3.223  1.00  0.00    -0.351 N 
ATOM     71  C   UNL     1       6.397   2.288  -4.345  1.00  0.00     0.273 C 
ATOM     72  H   UNL     1       6.562   1.871  -2.363  1.00  0.00     0.163 HD
ATOM     73  O   UNL     1       6.744   3.450  -4.201  1.00  0.00    -0.267 OA
BRANCH  71  74
ATOM     74  C   UNL     1       6.184   1.704  -5.672  1.00  0.00     0.178 A 
ATOM     75  N   UNL     1       7.282   1.251  -6.357  1.00  0.00    -0.124 NA
ATOM     76  C   UNL     1       5.036   1.507  -6.449  1.00  0.00     0.122 A 
ATOM     77  N   UNL     1       6.871   0.671  -7.466  1.00  0.00    -0.061 NA
ATOM     78  N   UNL     1       5.527   0.782  -7.539  1.00  0.00    -0.213 N 
BRANCH  76  79
ATOM     79  C   UNL     1       3.563   1.753  -6.236  1.00  0.00     0.262 C 
ATOM     80  C   UNL     1       3.016   3.119  -6.665  1.00  0.00     0.281 C 
ATOM     81  O   UNL     1       3.209   1.465  -4.886  1.00  0.00    -0.477 OA
ATOM     82  O   UNL     1       3.468   4.202  -5.848  1.00  0.00    -0.485 OA
ATOM     83  C   UNL     1       3.284   2.563  -4.079  1.00  0.00     0.162 A 
ATOM     84  C   UNL     1       3.468   3.865  -4.524  1.00  0.00     0.161 A 
ATOM     85  C   UNL     1       3.320   2.281  -2.728  1.00  0.00     0.050 A 
ATOM     86  C   UNL     1       3.768   4.872  -3.609  1.00  0.00     0.050 A 
ATOM     87  C   UNL     1       3.693   3.273  -1.820  1.00  0.00     0.004 A 
ATOM     88  C   UNL     1       3.922   4.566  -2.260  1.00  0.00     0.004 A 
ENDBRANCH  76  79
BRANCH  78  89
ATOM     89  C   UNL     1       4.827   0.039  -8.524  1.00  0.00     0.068 A 
ATOM     90  C   UNL     1       3.675   0.529  -9.149  1.00  0.00     0.028 A 
ATOM     91  C   UNL     1       5.267  -1.266  -8.793  1.00  0.00     0.044 A 
ATOM     92  C   UNL     1       2.910  -0.315  -9.957  1.00  0.00     0.003 A 
ATOM     93  C   UNL     1       4.488  -2.102  -9.589  1.00  0.00     0.020 A 
ATOM     94  C   UNL     1       3.302  -1.638 -10.155  1.00  0.00     0.016 A 
ATOM     95  Br  UNL     1       5.015  -3.895  -9.860  1.00  0.00    -0.051 Br
ENDBRANCH  78  89
ENDBRANCH  71  74
ENDBRANCH  69  70
ENDBRANCH  68  69
ENDBRANCH   1  68
TORSDOF 15
