REMARK SMILES O=C(Cc1cccn(C(F)F)c1=O)NCCCNC(=O)c1ccc(-c2c3nc(c(-c4ccc(S(=O)(=O)[O-])cc4)c4ccc([nH]4)c(-c4ccc(S(=O)(=O)[O-])cc4)c4nc(c(-c5ccc(S(=O)(=O)[O-])cc5)c5ccc2[nH]5)C=C4)C=C3)cc1
REMARK SMILES IDX 16 1 15 2 14 3 1 4 2 5 3 7 4 8 5 9 12 10 6 11 8 12 13 13
REMARK SMILES IDX 7 14 9 15 10 16 11 17 17 18 18 19 19 20 20 22 21 23 22 24
REMARK SMILES IDX 80 25 23 26 79 27 24 28 25 29 26 30 73 31 27 32 78 33 72 34
REMARK SMILES IDX 74 35 28 36 77 37 71 38 70 39 29 41 59 42 40 43 58 44 41 45
REMARK SMILES IDX 44 46 57 47 75 48 42 49 43 50 56 52 76 53 45 54 30 55 31 56
REMARK SMILES IDX 39 57 32 58 38 59 33 60 34 61 35 62 36 63 37 64 60 65 61 66
REMARK SMILES IDX 69 67 62 68 68 69 63 70 64 71 65 72 66 73 67 74 46 75 47 76
REMARK SMILES IDX 55 77 48 78 54 79 49 80 50 81 51 82 52 83 53 84
REMARK H PARENT 14 6 18 21 74 40 44 51
REMARK Flexibility Score: inf
ROOT
ATOM      1  C   UNL     1       2.437   1.821   3.017  1.00  0.00     0.042 C 
ENDROOT
BRANCH   1   2
ATOM      2  C   UNL     1       2.167   1.899   1.523  1.00  0.00     0.117 C 
BRANCH   2   3
ATOM      3  N   UNL     1       2.832   0.851   0.774  1.00  0.00    -0.356 N 
ATOM      4  O   UNL     1       0.955   0.096  -0.325  1.00  0.00    -0.275 OA
ATOM      5  C   UNL     1       2.168   0.062  -0.145  1.00  0.00     0.224 C 
ATOM      6  H   UNL     1       3.792   0.695   0.927  1.00  0.00     0.163 HD
BRANCH   5   7
ATOM      7  C   UNL     1       3.094  -0.803  -0.988  1.00  0.00     0.141 C 
BRANCH   7   8
ATOM      8  C   UNL     1       3.887  -0.006  -1.994  1.00  0.00     0.027 A 
ATOM      9  C   UNL     1       3.749   1.305  -2.270  1.00  0.00     0.011 A 
ATOM     10  C   UNL     1       4.939  -0.783  -2.737  1.00  0.00     0.258 A 
ATOM     11  C   UNL     1       4.609   1.975  -3.209  1.00  0.00     0.019 A 
ATOM     12  N   UNL     1       5.717  -0.068  -3.631  1.00  0.00    -0.258 N 
ATOM     13  O   UNL     1       5.073  -1.987  -2.529  1.00  0.00    -0.269 OA
ATOM     14  C   UNL     1       5.554   1.286  -3.853  1.00  0.00     0.095 A 
BRANCH  12  15
ATOM     15  C   UNL     1       6.721  -0.787  -4.372  1.00  0.00     0.451 C 
ATOM     16  F   UNL     1       6.441  -0.707  -5.702  1.00  0.00    -0.185 F 
ATOM     17  F   UNL     1       7.929  -0.185  -4.207  1.00  0.00    -0.185 F 
ENDBRANCH  12  15
ENDBRANCH   7   8
ENDBRANCH   5   7
ENDBRANCH   2   3
ENDBRANCH   1   2
BRANCH   1  18
ATOM     18  C   UNL     1       3.906   1.927   3.412  1.00  0.00     0.118 C 
BRANCH  18  19
ATOM     19  N   UNL     1       4.514   3.213   3.095  1.00  0.00    -0.352 N 
ATOM     20  C   UNL     1       5.260   4.052   3.892  1.00  0.00     0.251 C 
ATOM     21  H   UNL     1       4.371   3.528   2.173  1.00  0.00     0.163 HD
ATOM     22  O   UNL     1       5.608   5.148   3.458  1.00  0.00    -0.269 OA
BRANCH  20  23
ATOM     23  C   UNL     1       5.601   3.660   5.280  1.00  0.00     0.039 A 
ATOM     24  C   UNL     1       6.033   2.368   5.579  1.00  0.00     0.014 A 
ATOM     25  C   UNL     1       5.458   4.600   6.306  1.00  0.00     0.014 A 
ATOM     26  C   UNL     1       6.133   1.963   6.907  1.00  0.00     0.010 A 
ATOM     27  C   UNL     1       5.650   4.215   7.637  1.00  0.00     0.010 A 
ATOM     28  C   UNL     1       5.932   2.878   7.954  1.00  0.00    -0.014 A 
BRANCH  28  29
ATOM     29  C   UNL     1       6.007   2.406   9.364  1.00  0.00     0.031 A 
ATOM     30  C   UNL     1       4.791   2.433  10.254  1.00  0.00     0.074 A 
ATOM     31  C   UNL     1       7.161   1.881   9.824  1.00  0.00     0.049 A 
ATOM     32  N   UNL     1       4.666   2.003  11.485  1.00  0.00    -0.248 NA
ATOM     33  C   UNL     1       3.556   3.011   9.698  1.00  0.00     0.031 C 
ATOM     34  C   UNL     1       8.402   1.780   9.054  1.00  0.00     0.029 A 
ATOM     35  N   UNL     1       7.470   1.300  11.029  1.00  0.00    -0.354 N 
ATOM     36  C   UNL     1       3.351   2.267  11.852  1.00  0.00     0.074 A 
ATOM     37  C   UNL     1       2.725   2.927  10.728  1.00  0.00     0.031 C 
ATOM     38  C   UNL     1       9.314   1.115   9.777  1.00  0.00     0.029 A 
ATOM     39  C   UNL     1       8.750   0.799  11.086  1.00  0.00     0.049 A 
ATOM     40  H   UNL     1       6.836   1.247  11.780  1.00  0.00     0.167 HD
ATOM     41  C   UNL     1       2.719   1.972  13.012  1.00  0.00     0.031 A 
ATOM     42  C   UNL     1       9.405   0.159  12.075  1.00  0.00     0.031 A 
ATOM     43  C   UNL     1       3.340   1.300  14.124  1.00  0.00     0.049 A 
ATOM     44  C   UNL     1       8.697  -0.115  13.371  1.00  0.00     0.074 A 
ATOM     45  C   UNL     1       2.768   0.943  15.334  1.00  0.00     0.029 A 
ATOM     46  N   UNL     1       4.660   0.880  14.167  1.00  0.00    -0.354 N 
ATOM     47  N   UNL     1       7.452   0.140  13.693  1.00  0.00    -0.248 NA
ATOM     48  C   UNL     1       9.479  -0.756  14.437  1.00  0.00     0.031 C 
ATOM     49  C   UNL     1       3.758   0.362  16.130  1.00  0.00     0.029 A 
ATOM     50  C   UNL     1       4.929   0.294  15.393  1.00  0.00     0.049 A 
ATOM     51  H   UNL     1       5.311   0.983  13.435  1.00  0.00     0.167 HD
ATOM     52  C   UNL     1       7.298  -0.314  14.997  1.00  0.00     0.074 A 
ATOM     53  C   UNL     1       8.570  -0.881  15.397  1.00  0.00     0.031 C 
ATOM     54  C   UNL     1       6.200  -0.259  15.789  1.00  0.00     0.031 A 
BRANCH  41  55
ATOM     55  C   UNL     1       1.270   2.361  13.158  1.00  0.00    -0.014 A 
ATOM     56  C   UNL     1       0.903   3.358  14.082  1.00  0.00     0.010 A 
ATOM     57  C   UNL     1       0.261   1.660  12.473  1.00  0.00     0.010 A 
ATOM     58  C   UNL     1      -0.444   3.627  14.340  1.00  0.00     0.020 A 
ATOM     59  C   UNL     1      -1.087   1.945  12.709  1.00  0.00     0.020 A 
ATOM     60  C   UNL     1      -1.431   2.912  13.658  1.00  0.00     0.054 A 
BRANCH  60  61
ATOM     61  S   UNL     1      -3.175   3.260  14.018  1.00  0.00     0.124 S 
ATOM     62  O   UNL     1      -3.366   2.583  15.297  1.00  0.00    -0.237 OA
ATOM     63  O   UNL     1      -3.207   4.720  14.065  1.00  0.00    -0.237 OA
ATOM     64  O   UNL     1      -3.881   2.669  12.884  1.00  0.00    -0.744 OA
ENDBRANCH  60  61
ENDBRANCH  41  55
BRANCH  42  65
ATOM     65  C   UNL     1      10.809  -0.280  11.844  1.00  0.00    -0.014 A 
ATOM     66  C   UNL     1      11.834   0.672  11.688  1.00  0.00     0.010 A 
ATOM     67  C   UNL     1      11.110  -1.643  11.679  1.00  0.00     0.010 A 
ATOM     68  C   UNL     1      13.118   0.277  11.306  1.00  0.00     0.020 A 
ATOM     69  C   UNL     1      12.403  -2.045  11.327  1.00  0.00     0.020 A 
ATOM     70  C   UNL     1      13.389  -1.079  11.110  1.00  0.00     0.054 A 
BRANCH  70  71
ATOM     71  S   UNL     1      15.044  -1.566  10.549  1.00  0.00     0.124 S 
ATOM     72  O   UNL     1      14.986  -1.232   9.128  1.00  0.00    -0.237 OA
ATOM     73  O   UNL     1      15.918  -0.721  11.359  1.00  0.00    -0.237 OA
ATOM     74  O   UNL     1      15.102  -2.993  10.855  1.00  0.00    -0.744 OA
ENDBRANCH  70  71
ENDBRANCH  42  65
BRANCH  54  75
ATOM     75  C   UNL     1       6.303  -0.811  17.187  1.00  0.00    -0.014 A 
ATOM     76  C   UNL     1       5.583  -1.969  17.537  1.00  0.00     0.010 A 
ATOM     77  C   UNL     1       6.999  -0.108  18.186  1.00  0.00     0.010 A 
ATOM     78  C   UNL     1       5.526  -2.393  18.866  1.00  0.00     0.020 A 
ATOM     79  C   UNL     1       6.965  -0.545  19.513  1.00  0.00     0.020 A 
ATOM     80  C   UNL     1       6.207  -1.669  19.849  1.00  0.00     0.054 A 
BRANCH  80  81
ATOM     81  S   UNL     1       6.088  -2.211  21.576  1.00  0.00     0.124 S 
ATOM     82  O   UNL     1       4.762  -1.734  21.956  1.00  0.00    -0.237 OA
ATOM     83  O   UNL     1       6.230  -3.661  21.470  1.00  0.00    -0.237 OA
ATOM     84  O   UNL     1       7.206  -1.530  22.225  1.00  0.00    -0.744 OA
ENDBRANCH  80  81
ENDBRANCH  54  75
ENDBRANCH  28  29
ENDBRANCH  20  23
ENDBRANCH  18  19
ENDBRANCH   1  18
TORSDOF 15
