REMARK SMILES Cc1cc(C)c2c(c1)C=C(C(=O)NCCCNC(=O)c1ccc(-c3c4nc(c(-c5ccc(S(=O)(=O)[O-])cc5)c5ccc([nH]5)c(-c5ccc(S(=O)(=O)[O-])cc5)c5nc(c(-c6ccc(S(=O)(=O)[O-])cc6)c6ccc3[nH]6)C=C5)C=C4)cc1)[C@@H](C(F)(F)F)O2
REMARK SMILES IDX 16 1 15 2 14 3 13 4 11 5 12 6 10 8 1 9 2 10 3 11 8 12 4 13
REMARK SMILES IDX 7 14 5 15 6 16 9 17 85 18 80 19 81 20 82 21 83 22 84 23
REMARK SMILES IDX 17 24 18 25 19 27 20 28 21 29 79 30 22 31 78 32 23 33 24 34
REMARK SMILES IDX 25 35 72 36 26 37 77 38 71 39 73 40 27 41 76 42 70 43 69 44
REMARK SMILES IDX 28 46 58 47 39 48 57 49 40 50 43 51 56 52 74 53 41 54 42 55
REMARK SMILES IDX 55 57 75 58 44 59 29 60 30 61 38 62 31 63 37 64 32 65 33 66
REMARK SMILES IDX 34 67 35 68 36 69 59 70 60 71 68 72 61 73 67 74 62 75 63 76
REMARK SMILES IDX 64 77 65 78 66 79 45 80 46 81 54 82 47 83 53 84 48 85 49 86
REMARK SMILES IDX 50 87 51 88 52 89
REMARK H PARENT 13 7 17 26 73 45 43 56
REMARK Flexibility Score: inf
ROOT
ATOM      1  C   UNL     1      -1.591   2.120  10.828  1.00  0.00     0.118 C 
ENDROOT
BRANCH   1   2
ATOM      2  C   UNL     1      -1.359   1.079   9.742  1.00  0.00     0.042 C 
BRANCH   2   3
ATOM      3  C   UNL     1      -2.358   1.208   8.603  1.00  0.00     0.118 C 
BRANCH   3   4
ATOM      4  N   UNL     1      -2.013   2.291   7.693  1.00  0.00    -0.352 N 
ATOM      5  C   UNL     1      -1.538   2.414   6.432  1.00  0.00     0.251 C 
ATOM      6  O   UNL     1      -1.406   3.574   6.028  1.00  0.00    -0.270 OA
ATOM      7  H   UNL     1      -2.168   3.171   8.107  1.00  0.00     0.163 HD
BRANCH   5   8
ATOM      8  C   UNL     1      -1.182   1.274   5.538  1.00  0.00     0.067 C 
ATOM      9  C   UNL     1       0.940   0.053  -0.145  1.00  0.00     0.044 C 
ATOM     10  C   UNL     1       0.474  -0.239   1.250  1.00  0.00    -0.050 A 
ATOM     11  C   UNL     1       0.459  -1.561   1.719  1.00  0.00     0.010 A 
ATOM     12  C   UNL     1       0.118   0.803   2.118  1.00  0.00     0.015 A 
ATOM     13  C   UNL     1       0.075  -1.852   3.032  1.00  0.00    -0.008 A 
ATOM     14  C   UNL     1      -0.275   0.527   3.430  1.00  0.00     0.018 A 
ATOM     15  C   UNL     1       0.054  -3.268   3.533  1.00  0.00     0.048 C 
ATOM     16  C   UNL     1      -0.296  -0.797   3.874  1.00  0.00     0.130 A 
ATOM     17  C   UNL     1      -0.625   1.598   4.356  1.00  0.00     0.025 C 
ATOM     18  O   UNL     1      -0.624  -1.123   5.160  1.00  0.00    -0.475 OA
ATOM     19  C   UNL     1      -1.439  -0.165   5.878  1.00  0.00     0.314 C 
BRANCH  19  20
ATOM     20  C   UNL     1      -2.924  -0.552   5.732  1.00  0.00     0.429 C 
ATOM     21  F   UNL     1      -3.181  -1.706   6.398  1.00  0.00    -0.167 F 
ATOM     22  F   UNL     1      -3.760   0.380   6.248  1.00  0.00    -0.167 F 
ATOM     23  F   UNL     1      -3.296  -0.736   4.446  1.00  0.00    -0.167 F 
ENDBRANCH  19  20
ENDBRANCH   5   8
ENDBRANCH   3   4
ENDBRANCH   2   3
ENDBRANCH   1   2
BRANCH   1  24
ATOM     24  N   UNL     1      -2.895   1.954  11.466  1.00  0.00    -0.352 N 
ATOM     25  C   UNL     1      -3.217   1.453  12.701  1.00  0.00     0.251 C 
ATOM     26  H   UNL     1      -3.663   2.247  10.925  1.00  0.00     0.163 HD
ATOM     27  O   UNL     1      -4.377   1.119  12.938  1.00  0.00    -0.269 OA
BRANCH  25  28
ATOM     28  C   UNL     1      -2.177   1.318  13.738  1.00  0.00     0.039 A 
ATOM     29  C   UNL     1      -2.180   0.201  14.576  1.00  0.00     0.014 A 
ATOM     30  C   UNL     1      -1.213   2.316  13.899  1.00  0.00     0.014 A 
ATOM     31  C   UNL     1      -1.177   0.058  15.534  1.00  0.00     0.010 A 
ATOM     32  C   UNL     1      -0.160   2.124  14.782  1.00  0.00     0.010 A 
ATOM     33  C   UNL     1      -0.141   1.003  15.622  1.00  0.00    -0.014 A 
BRANCH  33  34
ATOM     34  C   UNL     1       0.957   0.860  16.607  1.00  0.00     0.031 A 
ATOM     35  C   UNL     1       1.138   1.903  17.677  1.00  0.00     0.074 A 
ATOM     36  C   UNL     1       1.821  -0.169  16.498  1.00  0.00     0.049 A 
ATOM     37  N   UNL     1       2.076   1.996  18.583  1.00  0.00    -0.248 NA
ATOM     38  C   UNL     1       0.156   3.002  17.720  1.00  0.00     0.031 C 
ATOM     39  C   UNL     1       1.771  -1.214  15.472  1.00  0.00     0.029 A 
ATOM     40  N   UNL     1       2.915  -0.503  17.256  1.00  0.00    -0.354 N 
ATOM     41  C   UNL     1       1.807   3.165  19.285  1.00  0.00     0.074 A 
ATOM     42  C   UNL     1       0.653   3.778  18.672  1.00  0.00     0.031 C 
ATOM     43  C   UNL     1       2.769  -2.087  15.683  1.00  0.00     0.029 A 
ATOM     44  C   UNL     1       3.555  -1.643  16.829  1.00  0.00     0.049 A 
ATOM     45  H   UNL     1       3.213   0.023  18.032  1.00  0.00     0.167 HD
ATOM     46  C   UNL     1       2.451   3.667  20.363  1.00  0.00     0.031 A 
ATOM     47  C   UNL     1       4.657  -2.257  17.303  1.00  0.00     0.031 A 
ATOM     48  C   UNL     1       3.576   3.032  20.992  1.00  0.00     0.049 A 
ATOM     49  C   UNL     1       5.351  -1.676  18.506  1.00  0.00     0.074 A 
ATOM     50  C   UNL     1       4.254   3.424  22.132  1.00  0.00     0.029 A 
ATOM     51  N   UNL     1       4.184   1.871  20.539  1.00  0.00    -0.354 N 
ATOM     52  N   UNL     1       5.037  -0.607  19.199  1.00  0.00    -0.248 NA
ATOM     53  C   UNL     1       6.541  -2.385  18.996  1.00  0.00     0.031 C 
ATOM     54  C   UNL     1       5.309   2.531  22.337  1.00  0.00     0.029 A 
ATOM     55  C   UNL     1       5.248   1.548  21.362  1.00  0.00     0.049 A 
ATOM     56  H   UNL     1       3.900   1.354  19.751  1.00  0.00     0.167 HD
ATOM     57  C   UNL     1       5.979  -0.528  20.219  1.00  0.00     0.074 A 
ATOM     58  C   UNL     1       6.859  -1.669  20.066  1.00  0.00     0.031 C 
ATOM     59  C   UNL     1       6.108   0.406  21.192  1.00  0.00     0.031 A 
BRANCH  46  60
ATOM     60  C   UNL     1       1.950   4.958  20.954  1.00  0.00    -0.014 A 
ATOM     61  C   UNL     1       0.743   5.001  21.674  1.00  0.00     0.010 A 
ATOM     62  C   UNL     1       2.746   6.115  20.877  1.00  0.00     0.010 A 
ATOM     63  C   UNL     1       0.339   6.181  22.303  1.00  0.00     0.020 A 
ATOM     64  C   UNL     1       2.357   7.290  21.527  1.00  0.00     0.020 A 
ATOM     65  C   UNL     1       1.154   7.315  22.234  1.00  0.00     0.054 A 
BRANCH  65  66
ATOM     66  S   UNL     1       0.641   8.804  23.135  1.00  0.00     0.124 S 
ATOM     67  O   UNL     1      -0.531   9.229  22.373  1.00  0.00    -0.237 OA
ATOM     68  O   UNL     1       0.367   8.286  24.473  1.00  0.00    -0.237 OA
ATOM     69  O   UNL     1       1.800   9.687  23.036  1.00  0.00    -0.744 OA
ENDBRANCH  65  66
ENDBRANCH  46  60
BRANCH  47  70
ATOM     70  C   UNL     1       5.171  -3.489  16.643  1.00  0.00    -0.014 A 
ATOM     71  C   UNL     1       5.106  -4.733  17.296  1.00  0.00     0.010 A 
ATOM     72  C   UNL     1       5.729  -3.425  15.353  1.00  0.00     0.010 A 
ATOM     73  C   UNL     1       5.614  -5.883  16.683  1.00  0.00     0.020 A 
ATOM     74  C   UNL     1       6.210  -4.577  14.724  1.00  0.00     0.020 A 
ATOM     75  C   UNL     1       6.162  -5.797  15.400  1.00  0.00     0.054 A 
BRANCH  75  76
ATOM     76  S   UNL     1       6.788  -7.308  14.613  1.00  0.00     0.124 S 
ATOM     77  O   UNL     1       7.988  -7.583  15.396  1.00  0.00    -0.237 OA
ATOM     78  O   UNL     1       5.680  -8.241  14.802  1.00  0.00    -0.237 OA
ATOM     79  O   UNL     1       7.021  -6.902  13.229  1.00  0.00    -0.744 OA
ENDBRANCH  75  76
ENDBRANCH  47  70
BRANCH  59  80
ATOM     80  C   UNL     1       7.226   0.233  22.183  1.00  0.00    -0.014 A 
ATOM     81  C   UNL     1       8.562   0.468  21.815  1.00  0.00     0.010 A 
ATOM     82  C   UNL     1       6.926  -0.081  23.522  1.00  0.00     0.010 A 
ATOM     83  C   UNL     1       9.581   0.372  22.765  1.00  0.00     0.020 A 
ATOM     84  C   UNL     1       7.939  -0.147  24.481  1.00  0.00     0.020 A 
ATOM     85  C   UNL     1       9.262   0.071  24.093  1.00  0.00     0.054 A 
BRANCH  85  86
ATOM     86  S   UNL     1      10.601   0.013  25.315  1.00  0.00     0.124 S 
ATOM     87  O   UNL     1      11.316  -1.199  24.926  1.00  0.00    -0.237 OA
ATOM     88  O   UNL     1      11.309   1.267  25.070  1.00  0.00    -0.237 OA
ATOM     89  O   UNL     1       9.900  -0.061  26.595  1.00  0.00    -0.744 OA
ENDBRANCH  85  86
ENDBRANCH  59  80
ENDBRANCH  33  34
ENDBRANCH  25  28
ENDBRANCH   1  24
TORSDOF 14
