REMARK SMILES COC(=O)C1=C(C)N(c2ccccc2)C(=S)N[C@@H]1c1ccc(C(=O)NCCCNC(=O)c2ccc(-c3c4nc(c(-c5ccc(S(=O)(=O)[O-])cc5)c5ccc([nH]5)c(-c5ccc(S(=O)(=O)[O-])cc5)c5nc(c(-c6ccc(S(=O)(=O)[O-])cc6)c6ccc3[nH]6)C=C5)C=C4)cc2)cc1
REMARK SMILES IDX 27 1 26 2 25 3 23 4 24 5 22 7 19 8 20 9 93 10 21 11 92 12
REMARK SMILES IDX 18 13 5 14 6 15 7 16 8 17 17 18 15 19 16 21 3 22 4 23 2 24
REMARK SMILES IDX 1 25 9 26 10 27 14 28 11 29 13 30 12 31 28 32 29 33 30 34
REMARK SMILES IDX 31 36 32 37 33 38 91 39 34 40 90 41 35 42 36 43 37 44 84 45
REMARK SMILES IDX 38 46 89 47 83 48 85 49 39 50 88 51 82 52 81 53 40 55 70 56
REMARK SMILES IDX 51 57 69 58 52 59 55 60 68 61 86 62 53 63 54 64 67 66 87 67
REMARK SMILES IDX 56 68 41 69 42 70 50 71 43 72 49 73 44 74 45 75 46 76 47 77
REMARK SMILES IDX 48 78 71 79 72 80 80 81 73 82 79 83 74 84 75 85 76 86 77 87
REMARK SMILES IDX 78 88 57 89 58 90 66 91 59 92 65 93 60 94 61 95 62 96 63 97
REMARK SMILES IDX 64 98
REMARK H PARENT 25 6 17 20 29 35 85 54 55 65
REMARK Flexibility Score: inf
ROOT
ATOM      1  C   UNL     1      -7.513   3.669  -3.262  1.00  0.00     0.042 C 
ENDROOT
BRANCH   1   2
ATOM      2  C   UNL     1      -6.421   4.474  -3.963  1.00  0.00     0.118 C 
BRANCH   2   3
ATOM      3  N   UNL     1      -5.667   5.288  -3.027  1.00  0.00    -0.352 N 
ATOM      4  C   UNL     1      -4.391   5.159  -2.542  1.00  0.00     0.251 C 
ATOM      5  O   UNL     1      -3.929   6.066  -1.852  1.00  0.00    -0.269 OA
ATOM      6  H   UNL     1      -6.157   6.068  -2.679  1.00  0.00     0.163 HD
BRANCH   4   7
ATOM      7  C   UNL     1      -3.534   3.994  -2.868  1.00  0.00     0.039 A 
ATOM      8  C   UNL     1      -1.755   1.869  -3.442  1.00  0.00    -0.021 A 
ATOM      9  C   UNL     1      -1.306   3.201  -3.411  1.00  0.00     0.007 A 
ATOM     10  C   UNL     1      -3.112   1.624  -3.171  1.00  0.00     0.007 A 
ATOM     11  C   UNL     1      -2.182   4.248  -3.115  1.00  0.00     0.014 A 
ATOM     12  C   UNL     1      -3.988   2.674  -2.871  1.00  0.00     0.014 A 
BRANCH   8  13
ATOM     13  C   UNL     1      -0.840   0.699  -3.799  1.00  0.00     0.151 C 
ATOM     14  C   UNL     1       0.619   0.960  -3.600  1.00  0.00     0.083 C 
ATOM     15  C   UNL     1       1.430   1.326  -4.620  1.00  0.00     0.035 C 
ATOM     16  C   UNL     1       2.867   1.749  -4.408  1.00  0.00     0.065 C 
ATOM     17  N   UNL     1       0.891   1.388  -5.932  1.00  0.00    -0.291 N 
ATOM     18  N   UNL     1      -1.069   0.316  -5.170  1.00  0.00    -0.351 N 
ATOM     19  C   UNL     1      -0.348   0.778  -6.233  1.00  0.00     0.178 C 
ATOM     20  H   UNL     1      -1.796  -0.322  -5.353  1.00  0.00     0.163 HD
ATOM     21  S   UNL     1      -1.008   0.468  -7.748  1.00  0.00    -0.040 S 
BRANCH  14  22
ATOM     22  C   UNL     1       1.046   0.972  -2.183  1.00  0.00     0.337 C 
ATOM     23  O   UNL     1       1.625   1.901  -1.643  1.00  0.00    -0.246 OA
BRANCH  22  24
ATOM     24  O   UNL     1       0.665  -0.184  -1.586  1.00  0.00    -0.466 OA
ATOM     25  C   UNL     1       0.947  -0.232  -0.186  1.00  0.00     0.282 C 
ENDBRANCH  22  24
ENDBRANCH  14  22
BRANCH  17  26
ATOM     26  C   UNL     1       1.547   2.130  -6.973  1.00  0.00     0.048 A 
ATOM     27  C   UNL     1       2.774   1.727  -7.507  1.00  0.00     0.027 A 
ATOM     28  C   UNL     1       0.937   3.299  -7.456  1.00  0.00     0.027 A 
ATOM     29  C   UNL     1       3.393   2.495  -8.497  1.00  0.00     0.002 A 
ATOM     30  C   UNL     1       1.553   4.058  -8.452  1.00  0.00     0.002 A 
ATOM     31  C   UNL     1       2.784   3.658  -8.967  1.00  0.00     0.000 A 
ENDBRANCH  17  26
ENDBRANCH   8  13
ENDBRANCH   4   7
ENDBRANCH   2   3
ENDBRANCH   1   2
BRANCH   1  32
ATOM     32  C   UNL     1      -8.647   4.520  -2.696  1.00  0.00     0.118 C 
BRANCH  32  33
ATOM     33  N   UNL     1      -9.493   5.075  -3.740  1.00  0.00    -0.352 N 
ATOM     34  C   UNL     1     -10.859   5.035  -3.875  1.00  0.00     0.251 C 
ATOM     35  H   UNL     1      -9.015   5.551  -4.457  1.00  0.00     0.163 HD
ATOM     36  O   UNL     1     -11.364   5.402  -4.933  1.00  0.00    -0.269 OA
BRANCH  34  37
ATOM     37  C   UNL     1     -11.724   4.547  -2.775  1.00  0.00     0.039 A 
ATOM     38  C   UNL     1     -12.832   3.757  -3.099  1.00  0.00     0.014 A 
ATOM     39  C   UNL     1     -11.496   4.910  -1.444  1.00  0.00     0.014 A 
ATOM     40  C   UNL     1     -13.690   3.306  -2.091  1.00  0.00     0.010 A 
ATOM     41  C   UNL     1     -12.322   4.415  -0.433  1.00  0.00     0.010 A 
ATOM     42  C   UNL     1     -13.434   3.620  -0.748  1.00  0.00    -0.014 A 
BRANCH  42  43
ATOM     43  C   UNL     1     -14.340   3.152   0.332  1.00  0.00     0.031 A 
ATOM     44  C   UNL     1     -15.180   4.141   1.095  1.00  0.00     0.074 A 
ATOM     45  C   UNL     1     -14.381   1.845   0.654  1.00  0.00     0.049 A 
ATOM     46  N   UNL     1     -15.995   3.931   2.098  1.00  0.00    -0.248 NA
ATOM     47  C   UNL     1     -15.074   5.552   0.692  1.00  0.00     0.031 C 
ATOM     48  C   UNL     1     -13.597   0.788   0.012  1.00  0.00     0.029 A 
ATOM     49  N   UNL     1     -15.113   1.183   1.608  1.00  0.00    -0.354 N 
ATOM     50  C   UNL     1     -16.481   5.182   2.459  1.00  0.00     0.074 A 
ATOM     51  C   UNL     1     -15.845   6.149   1.590  1.00  0.00     0.031 C 
ATOM     52  C   UNL     1     -13.905  -0.391   0.576  1.00  0.00     0.029 A 
ATOM     53  C   UNL     1     -14.886  -0.172   1.635  1.00  0.00     0.049 A 
ATOM     54  H   UNL     1     -15.741   1.637   2.215  1.00  0.00     0.167 HD
ATOM     55  C   UNL     1     -17.385   5.499   3.418  1.00  0.00     0.031 A 
ATOM     56  C   UNL     1     -15.409  -1.131   2.422  1.00  0.00     0.031 A 
ATOM     57  C   UNL     1     -18.034   4.539   4.270  1.00  0.00     0.049 A 
ATOM     58  C   UNL     1     -16.428  -0.760   3.462  1.00  0.00     0.074 A 
ATOM     59  C   UNL     1     -18.993   4.759   5.244  1.00  0.00     0.029 A 
ATOM     60  N   UNL     1     -17.795   3.174   4.246  1.00  0.00    -0.354 N 
ATOM     61  N   UNL     1     -16.902   0.425   3.763  1.00  0.00    -0.248 NA
ATOM     62  C   UNL     1     -16.992  -1.858   4.260  1.00  0.00     0.031 C 
ATOM     63  C   UNL     1     -19.316   3.528   5.826  1.00  0.00     0.029 A 
ATOM     64  C   UNL     1     -18.583   2.539   5.190  1.00  0.00     0.049 A 
ATOM     65  H   UNL     1     -17.159   2.722   3.646  1.00  0.00     0.167 HD
ATOM     66  C   UNL     1     -17.837   0.212   4.769  1.00  0.00     0.074 A 
ATOM     67  C   UNL     1     -17.868  -1.215   5.019  1.00  0.00     0.031 C 
ATOM     68  C   UNL     1     -18.603   1.118   5.425  1.00  0.00     0.031 A 
BRANCH  55  69
ATOM     69  C   UNL     1     -17.715   6.956   3.595  1.00  0.00    -0.014 A 
ATOM     70  C   UNL     1     -18.508   7.637   2.654  1.00  0.00     0.010 A 
ATOM     71  C   UNL     1     -17.236   7.650   4.720  1.00  0.00     0.010 A 
ATOM     72  C   UNL     1     -18.776   8.999   2.810  1.00  0.00     0.020 A 
ATOM     73  C   UNL     1     -17.521   9.008   4.891  1.00  0.00     0.020 A 
ATOM     74  C   UNL     1     -18.271   9.679   3.922  1.00  0.00     0.054 A 
BRANCH  74  75
ATOM     75  S   UNL     1     -18.629  11.448   4.105  1.00  0.00     0.124 S 
ATOM     76  O   UNL     1     -17.661  12.045   3.188  1.00  0.00    -0.237 OA
ATOM     77  O   UNL     1     -20.026  11.543   3.690  1.00  0.00    -0.237 OA
ATOM     78  O   UNL     1     -18.386  11.704   5.522  1.00  0.00    -0.744 OA
ENDBRANCH  74  75
ENDBRANCH  55  69
BRANCH  56  79
ATOM     79  C   UNL     1     -14.995  -2.546   2.233  1.00  0.00    -0.014 A 
ATOM     80  C   UNL     1     -15.855  -3.456   1.594  1.00  0.00     0.010 A 
ATOM     81  C   UNL     1     -13.731  -2.983   2.668  1.00  0.00     0.010 A 
ATOM     82  C   UNL     1     -15.462  -4.783   1.400  1.00  0.00     0.020 A 
ATOM     83  C   UNL     1     -13.328  -4.305   2.459  1.00  0.00     0.020 A 
ATOM     84  C   UNL     1     -14.200  -5.199   1.834  1.00  0.00     0.054 A 
BRANCH  84  85
ATOM     85  S   UNL     1     -13.677  -6.907   1.513  1.00  0.00     0.124 S 
ATOM     86  O   UNL     1     -14.350  -7.636   2.582  1.00  0.00    -0.237 OA
ATOM     87  O   UNL     1     -14.184  -7.149   0.164  1.00  0.00    -0.237 OA
ATOM     88  O   UNL     1     -12.221  -6.839   1.617  1.00  0.00    -0.744 OA
ENDBRANCH  84  85
ENDBRANCH  56  79
BRANCH  68  89
ATOM     89  C   UNL     1     -19.561   0.589   6.455  1.00  0.00    -0.014 A 
ATOM     90  C   UNL     1     -19.110   0.176   7.721  1.00  0.00     0.010 A 
ATOM     91  C   UNL     1     -20.936   0.542   6.164  1.00  0.00     0.010 A 
ATOM     92  C   UNL     1     -20.017  -0.304   8.669  1.00  0.00     0.020 A 
ATOM     93  C   UNL     1     -21.848   0.080   7.116  1.00  0.00     0.020 A 
ATOM     94  C   UNL     1     -21.380  -0.354   8.359  1.00  0.00     0.054 A 
BRANCH  94  95
ATOM     95  S   UNL     1     -22.547  -0.947   9.615  1.00  0.00     0.124 S 
ATOM     96  O   UNL     1     -22.400  -2.395   9.506  1.00  0.00    -0.237 OA
ATOM     97  O   UNL     1     -22.028  -0.354  10.846  1.00  0.00    -0.237 OA
ATOM     98  O   UNL     1     -23.832  -0.413   9.169  1.00  0.00    -0.744 OA
ENDBRANCH  94  95
ENDBRANCH  68  89
ENDBRANCH  42  43
ENDBRANCH  34  37
ENDBRANCH  32  33
ENDBRANCH   1  32
TORSDOF 17
