REMARK SMILES C[NH2+][C@@]1(C(=O)NCCCNC(=O)c2ccc(-c3c4nc(c(-c5ccc(S(=O)(=O)[O-])cc5)c5ccc([nH]5)c(-c5ccc(S(=O)(=O)[O-])cc5)c5nc(c(-c6ccc(S(=O)(=O)[O-])cc6)c6ccc3[nH]6)C=C5)C=C4)cc2)CC[C@H](SC(C)C)C1
REMARK SMILES IDX 8 1 7 2 6 3 4 4 5 5 3 7 73 8 80 9 74 10 75 11 2 12 1 13
REMARK SMILES IDX 76 16 77 17 78 18 79 19 9 20 10 21 11 22 12 24 13 25 14 26
REMARK SMILES IDX 72 27 15 28 71 29 16 30 17 31 18 32 65 33 19 34 70 35 64 36
REMARK SMILES IDX 66 37 20 38 69 39 63 40 62 41 21 43 51 44 32 45 50 46 33 47
REMARK SMILES IDX 36 48 49 49 67 50 34 51 35 52 48 54 68 55 37 56 22 57 23 58
REMARK SMILES IDX 31 59 24 60 30 61 25 62 26 63 27 64 28 65 29 66 52 67 53 68
REMARK SMILES IDX 61 69 54 70 60 71 55 72 56 73 57 74 58 75 59 76 38 77 39 78
REMARK SMILES IDX 47 79 40 80 46 81 41 82 42 83 43 84 44 85 45 86
REMARK H PARENT 6 6 2 14 2 15 10 23 66 42 36 53
REMARK Flexibility Score: inf
ROOT
ATOM      1  C   UNL     1      -4.619  -0.524   0.639  1.00  0.00     0.042 C 
ENDROOT
BRANCH   1   2
ATOM      2  C   UNL     1      -3.891   0.687   0.079  1.00  0.00     0.118 C 
BRANCH   2   3
ATOM      3  N   UNL     1      -2.572   0.884   0.629  1.00  0.00    -0.351 N 
ATOM      4  C   UNL     1      -1.353   1.004   0.046  1.00  0.00     0.281 C 
ATOM      5  O   UNL     1      -0.494   1.500   0.793  1.00  0.00    -0.268 OA
ATOM      6  H   UNL     1      -2.553   0.942   1.611  1.00  0.00     0.163 HD
BRANCH   4   7
ATOM      7  C   UNL     1      -0.995   0.626  -1.456  1.00  0.00     0.176 C 
ATOM      8  C   UNL     1      -1.577   1.632  -2.460  1.00  0.00     0.080 C 
ATOM      9  C   UNL     1      -1.470  -0.746  -1.966  1.00  0.00     0.093 C 
ATOM     10  C   UNL     1      -2.769   0.969  -3.149  1.00  0.00     0.022 C 
ATOM     11  C   UNL     1      -2.589  -0.543  -3.024  1.00  0.00     0.054 C 
BRANCH   7  12
ATOM     12  N   UNL     1       0.500   0.722  -1.601  1.00  0.00    -0.336 N 
ATOM     13  C   UNL     1       1.257  -0.224  -0.776  1.00  0.00     0.331 C 
ATOM     14  H   UNL     1       0.737   0.551  -2.578  1.00  0.00     0.346 HD
ATOM     15  H   UNL     1       0.761   1.655  -1.282  1.00  0.00     0.346 HD
ENDBRANCH   7  12
BRANCH  11  16
ATOM     16  S   UNL     1      -3.939  -1.702  -2.530  1.00  0.00    -0.155 SA
BRANCH  16  17
ATOM     17  C   UNL     1      -5.548  -1.177  -3.238  1.00  0.00     0.040 C 
ATOM     18  C   UNL     1      -5.887   0.302  -3.285  1.00  0.00     0.019 C 
ATOM     19  C   UNL     1      -5.797  -1.854  -4.578  1.00  0.00     0.019 C 
ENDBRANCH  16  17
ENDBRANCH  11  16
ENDBRANCH   4   7
ENDBRANCH   2   3
ENDBRANCH   1   2
BRANCH   1  20
ATOM     20  C   UNL     1      -5.168  -0.292   2.035  1.00  0.00     0.118 C 
BRANCH  20  21
ATOM     21  N   UNL     1      -6.284   0.647   2.035  1.00  0.00    -0.352 N 
ATOM     22  C   UNL     1      -7.641   0.467   1.903  1.00  0.00     0.251 C 
ATOM     23  H   UNL     1      -6.015   1.587   2.151  1.00  0.00     0.163 HD
ATOM     24  O   UNL     1      -8.335   1.455   1.663  1.00  0.00    -0.269 OA
BRANCH  22  25
ATOM     25  C   UNL     1      -8.284  -0.865   2.026  1.00  0.00     0.039 A 
ATOM     26  C   UNL     1      -9.477  -1.110   1.333  1.00  0.00     0.014 A 
ATOM     27  C   UNL     1      -7.789  -1.849   2.879  1.00  0.00     0.014 A 
ATOM     28  C   UNL     1     -10.133  -2.341   1.465  1.00  0.00     0.010 A 
ATOM     29  C   UNL     1      -8.369  -3.114   2.913  1.00  0.00     0.010 A 
ATOM     30  C   UNL     1      -9.568  -3.368   2.235  1.00  0.00    -0.014 A 
BRANCH  30  31
ATOM     31  C   UNL     1     -10.227  -4.692   2.409  1.00  0.00     0.031 A 
ATOM     32  C   UNL     1     -10.578  -5.180   3.796  1.00  0.00     0.074 A 
ATOM     33  C   UNL     1     -10.434  -5.493   1.345  1.00  0.00     0.049 A 
ATOM     34  N   UNL     1     -11.017  -6.354   4.175  1.00  0.00    -0.248 NA
ATOM     35  C   UNL     1     -10.367  -4.237   4.908  1.00  0.00     0.031 C 
ATOM     36  C   UNL     1     -10.104  -5.164  -0.044  1.00  0.00     0.029 A 
ATOM     37  N   UNL     1     -10.960  -6.758   1.268  1.00  0.00    -0.354 N 
ATOM     38  C   UNL     1     -11.084  -6.303   5.564  1.00  0.00     0.074 A 
ATOM     39  C   UNL     1     -10.596  -5.003   5.964  1.00  0.00     0.031 C 
ATOM     40  C   UNL     1     -10.465  -6.187  -0.836  1.00  0.00     0.029 A 
ATOM     41  C   UNL     1     -11.004  -7.263  -0.011  1.00  0.00     0.049 A 
ATOM     42  H   UNL     1     -11.277  -7.258   2.055  1.00  0.00     0.167 HD
ATOM     43  C   UNL     1     -11.531  -7.243   6.431  1.00  0.00     0.031 A 
ATOM     44  C   UNL     1     -11.421  -8.459  -0.468  1.00  0.00     0.031 A 
ATOM     45  C   UNL     1     -12.067  -8.516   6.029  1.00  0.00     0.049 A 
ATOM     46  C   UNL     1     -11.949  -9.475   0.508  1.00  0.00     0.074 A 
ATOM     47  C   UNL     1     -12.618  -9.508   6.821  1.00  0.00     0.029 A 
ATOM     48  N   UNL     1     -12.131  -8.966   4.719  1.00  0.00    -0.354 N 
ATOM     49  N   UNL     1     -12.049  -9.388   1.813  1.00  0.00    -0.248 NA
ATOM     50  C   UNL     1     -12.430 -10.745  -0.052  1.00  0.00     0.031 C 
ATOM     51  C   UNL     1     -12.981 -10.575   5.993  1.00  0.00     0.029 A 
ATOM     52  C   UNL     1     -12.703 -10.226   4.681  1.00  0.00     0.049 A 
ATOM     53  H   UNL     1     -11.818  -8.464   3.932  1.00  0.00     0.167 HD
ATOM     54  C   UNL     1     -12.631 -10.581   2.227  1.00  0.00     0.074 A 
ATOM     55  C   UNL     1     -12.872 -11.366   1.033  1.00  0.00     0.031 C 
ATOM     56  C   UNL     1     -12.941 -10.989   3.482  1.00  0.00     0.031 A 
BRANCH  43  57
ATOM     57  C   UNL     1     -11.463  -6.926   7.903  1.00  0.00    -0.014 A 
ATOM     58  C   UNL     1     -12.292  -5.944   8.477  1.00  0.00     0.010 A 
ATOM     59  C   UNL     1     -10.574  -7.637   8.731  1.00  0.00     0.010 A 
ATOM     60  C   UNL     1     -12.196  -5.643   9.839  1.00  0.00     0.020 A 
ATOM     61  C   UNL     1     -10.498  -7.360  10.100  1.00  0.00     0.020 A 
ATOM     62  C   UNL     1     -11.295  -6.349  10.640  1.00  0.00     0.054 A 
BRANCH  62  63
ATOM     63  S   UNL     1     -11.200  -5.946  12.406  1.00  0.00     0.124 S 
ATOM     64  O   UNL     1     -10.475  -4.678  12.386  1.00  0.00    -0.237 OA
ATOM     65  O   UNL     1     -12.606  -5.859  12.793  1.00  0.00    -0.237 OA
ATOM     66  O   UNL     1     -10.468  -7.073  12.981  1.00  0.00    -0.744 OA
ENDBRANCH  62  63
ENDBRANCH  43  57
BRANCH  44  67
ATOM     67  C   UNL     1     -11.383  -8.749  -1.928  1.00  0.00    -0.014 A 
ATOM     68  C   UNL     1     -12.576  -8.805  -2.670  1.00  0.00     0.010 A 
ATOM     69  C   UNL     1     -10.158  -8.951  -2.587  1.00  0.00     0.010 A 
ATOM     70  C   UNL     1     -12.547  -9.073  -4.041  1.00  0.00     0.020 A 
ATOM     71  C   UNL     1     -10.122  -9.193  -3.964  1.00  0.00     0.020 A 
ATOM     72  C   UNL     1     -11.319  -9.263  -4.681  1.00  0.00     0.054 A 
BRANCH  72  73
ATOM     73  S   UNL     1     -11.301  -9.553  -6.472  1.00  0.00     0.124 S 
ATOM     74  O   UNL     1     -11.761 -10.935  -6.560  1.00  0.00    -0.237 OA
ATOM     75  O   UNL     1     -12.234  -8.542  -6.965  1.00  0.00    -0.237 OA
ATOM     76  O   UNL     1      -9.904  -9.331  -6.840  1.00  0.00    -0.744 OA
ENDBRANCH  72  73
ENDBRANCH  44  67
BRANCH  56  77
ATOM     77  C   UNL     1     -13.614 -12.326   3.629  1.00  0.00    -0.014 A 
ATOM     78  C   UNL     1     -12.900 -13.525   3.458  1.00  0.00     0.010 A 
ATOM     79  C   UNL     1     -14.969 -12.380   4.003  1.00  0.00     0.010 A 
ATOM     80  C   UNL     1     -13.539 -14.756   3.628  1.00  0.00     0.020 A 
ATOM     81  C   UNL     1     -15.604 -13.608   4.200  1.00  0.00     0.020 A 
ATOM     82  C   UNL     1     -14.887 -14.789   3.998  1.00  0.00     0.054 A 
BRANCH  82  83
ATOM     83  S   UNL     1     -15.683 -16.398   4.258  1.00  0.00     0.124 S 
ATOM     84  O   UNL     1     -15.871 -16.869   2.889  1.00  0.00    -0.237 OA
ATOM     85  O   UNL     1     -14.687 -17.127   5.041  1.00  0.00    -0.237 OA
ATOM     86  O   UNL     1     -16.910 -16.066   4.978  1.00  0.00    -0.744 OA
ENDBRANCH  82  83
ENDBRANCH  56  77
ENDBRANCH  30  31
ENDBRANCH  22  25
ENDBRANCH  20  21
ENDBRANCH   1  20
TORSDOF 16
