REMARK SMILES O=C1CCCC2=C1[C@H](c1ccc([N+](=O)[O-])cc1)CC(=O)N2c1ccccc1C(=O)NCCCNC(=O)c1ccc(-c2c3nc(c(-c4ccc(S(=O)(=O)[O-])cc4)c4ccc([nH]4)c(-c4ccc(S(=O)(=O)[O-])cc4)c4nc(c(-c5ccc(S(=O)(=O)[O-])cc5)c5ccc2[nH]5)C=C4)C=C3)cc1
REMARK SMILES IDX 32 1 31 2 30 3 28 4 29 5 27 7 22 8 23 9 24 10 26 11 25 12
REMARK SMILES IDX 21 13 1 14 2 15 3 16 7 17 4 18 6 19 8 20 5 21 18 22 19 23
REMARK SMILES IDX 20 24 9 25 10 26 17 27 11 28 16 29 12 30 13 31 14 32 15 33
REMARK SMILES IDX 33 34 34 35 35 36 36 38 37 39 38 40 96 41 39 42 95 43 40 44
REMARK SMILES IDX 41 45 42 46 89 47 43 48 94 49 88 50 90 51 44 52 93 53 87 54
REMARK SMILES IDX 86 55 45 57 75 58 56 59 74 60 57 61 60 62 73 63 91 64 58 65
REMARK SMILES IDX 59 66 72 68 92 69 61 70 46 71 47 72 55 73 48 74 54 75 49 76
REMARK SMILES IDX 50 77 51 78 52 79 53 80 76 81 77 82 85 83 78 84 84 85 79 86
REMARK SMILES IDX 80 87 81 88 82 89 83 90 62 91 63 92 71 93 64 94 70 95 65 96
REMARK SMILES IDX 66 97 67 98 68 99 69 100
REMARK H PARENT 30 6 34 37 90 56 60 67
REMARK Flexibility Score: inf
ROOT
ATOM      1  C   UNL     1       3.963  -1.006   3.148  1.00  0.00     0.042 C 
ENDROOT
BRANCH   1   2
ATOM      2  C   UNL     1       4.713  -0.892   1.813  1.00  0.00     0.118 C 
BRANCH   2   3
ATOM      3  N   UNL     1       6.136  -0.639   1.908  1.00  0.00    -0.352 N 
ATOM      4  C   UNL     1       7.244  -0.817   1.113  1.00  0.00     0.253 C 
ATOM      5  O   UNL     1       8.223  -0.214   1.589  1.00  0.00    -0.269 OA
ATOM      6  H   UNL     1       6.374  -0.231   2.772  1.00  0.00     0.163 HD
BRANCH   4   7
ATOM      7  C   UNL     1       7.482  -1.577  -0.193  1.00  0.00     0.063 A 
ATOM      8  C   UNL     1       6.665  -2.270  -1.118  1.00  0.00     0.061 A 
ATOM      9  C   UNL     1       7.258  -2.868  -2.278  1.00  0.00     0.027 A 
ATOM     10  C   UNL     1       8.620  -2.864  -2.530  1.00  0.00     0.002 A 
ATOM     11  C   UNL     1       8.883  -1.610  -0.503  1.00  0.00     0.016 A 
ATOM     12  C   UNL     1       9.442  -2.237  -1.627  1.00  0.00     0.001 A 
BRANCH   8  13
ATOM     13  N   UNL     1       5.250  -2.494  -1.075  1.00  0.00    -0.284 N 
ATOM     14  O   UNL     1       0.802  -0.935  -0.870  1.00  0.00    -0.294 OA
ATOM     15  C   UNL     1       2.005  -0.676  -0.856  1.00  0.00     0.161 C 
ATOM     16  C   UNL     1       2.512   0.750  -0.783  1.00  0.00     0.081 C 
ATOM     17  C   UNL     1       3.005  -1.784  -0.856  1.00  0.00     0.023 C 
ATOM     18  C   UNL     1       3.679   0.958  -1.723  1.00  0.00     0.015 C 
ATOM     19  C   UNL     1       4.293  -1.474  -1.135  1.00  0.00     0.033 C 
ATOM     20  C   UNL     1       2.530  -3.229  -0.654  1.00  0.00     0.064 C 
ATOM     21  C   UNL     1       4.774  -0.085  -1.523  1.00  0.00     0.055 C 
ATOM     22  C   UNL     1       3.412  -4.090  -1.539  1.00  0.00     0.114 C 
ATOM     23  C   UNL     1       4.858  -3.857  -1.168  1.00  0.00     0.232 C 
ATOM     24  O   UNL     1       5.617  -4.820  -1.040  1.00  0.00    -0.274 OA
BRANCH  20  25
ATOM     25  C   UNL     1       2.493  -3.736   0.798  1.00  0.00    -0.039 A 
ATOM     26  C   UNL     1       3.311  -4.764   1.337  1.00  0.00     0.011 A 
ATOM     27  C   UNL     1       1.571  -3.162   1.659  1.00  0.00     0.011 A 
ATOM     28  C   UNL     1       3.343  -5.074   2.708  1.00  0.00     0.086 A 
ATOM     29  C   UNL     1       1.593  -3.490   3.013  1.00  0.00     0.086 A 
ATOM     30  C   UNL     1       2.511  -4.375   3.556  1.00  0.00     0.269 A 
BRANCH  30  31
ATOM     31  N   UNL     1       2.708  -4.397   5.006  1.00  0.00     0.062 N 
ATOM     32  O   UNL     1       3.110  -5.447   5.518  1.00  0.00    -0.258 OA
ATOM     33  O   UNL     1       2.530  -3.328   5.615  1.00  0.00    -0.258 OA
ENDBRANCH  30  31
ENDBRANCH  20  25
ENDBRANCH   8  13
ENDBRANCH   4   7
ENDBRANCH   2   3
ENDBRANCH   1   2
BRANCH   1  34
ATOM     34  C   UNL     1       2.862   0.005   3.563  1.00  0.00     0.118 C 
BRANCH  34  35
ATOM     35  N   UNL     1       1.740   0.319   2.663  1.00  0.00    -0.352 N 
ATOM     36  C   UNL     1       0.366   0.120   2.635  1.00  0.00     0.251 C 
ATOM     37  H   UNL     1       2.049   0.803   1.863  1.00  0.00     0.163 HD
ATOM     38  O   UNL     1      -0.266   0.786   1.809  1.00  0.00    -0.269 OA
BRANCH  36  39
ATOM     39  C   UNL     1      -0.395  -0.876   3.448  1.00  0.00     0.039 A 
ATOM     40  C   UNL     1      -1.423  -1.631   2.832  1.00  0.00     0.014 A 
ATOM     41  C   UNL     1      -0.083  -1.174   4.764  1.00  0.00     0.014 A 
ATOM     42  C   UNL     1      -2.042  -2.731   3.485  1.00  0.00     0.010 A 
ATOM     43  C   UNL     1      -0.619  -2.335   5.359  1.00  0.00     0.010 A 
ATOM     44  C   UNL     1      -1.625  -3.136   4.760  1.00  0.00    -0.014 A 
BRANCH  44  45
ATOM     45  C   UNL     1      -2.253  -4.273   5.554  1.00  0.00     0.031 A 
ATOM     46  C   UNL     1      -2.589  -4.016   7.020  1.00  0.00     0.074 A 
ATOM     47  C   UNL     1      -2.465  -5.537   5.105  1.00  0.00     0.049 A 
ATOM     48  N   UNL     1      -2.865  -4.861   7.984  1.00  0.00    -0.248 NA
ATOM     49  C   UNL     1      -2.484  -2.621   7.479  1.00  0.00     0.031 C 
ATOM     50  C   UNL     1      -2.160  -6.061   3.772  1.00  0.00     0.029 A 
ATOM     51  N   UNL     1      -2.986  -6.642   5.763  1.00  0.00    -0.354 N 
ATOM     52  C   UNL     1      -2.843  -4.103   9.150  1.00  0.00     0.074 A 
ATOM     53  C   UNL     1      -2.363  -2.792   8.783  1.00  0.00     0.031 C 
ATOM     54  C   UNL     1      -2.522  -7.360   3.706  1.00  0.00     0.029 A 
ATOM     55  C   UNL     1      -3.068  -7.787   4.995  1.00  0.00     0.049 A 
ATOM     56  H   UNL     1      -3.275  -6.612   6.704  1.00  0.00     0.167 HD
ATOM     57  C   UNL     1      -3.275  -4.395  10.400  1.00  0.00     0.031 A 
ATOM     58  C   UNL     1      -3.537  -9.027   5.281  1.00  0.00     0.031 A 
ATOM     59  C   UNL     1      -3.910  -5.627  10.767  1.00  0.00     0.049 A 
ATOM     60  C   UNL     1      -4.114  -9.329   6.651  1.00  0.00     0.074 A 
ATOM     61  C   UNL     1      -4.498  -5.966  11.973  1.00  0.00     0.029 A 
ATOM     62  N   UNL     1      -4.085  -6.702   9.915  1.00  0.00    -0.354 N 
ATOM     63  N   UNL     1      -4.162  -8.568   7.718  1.00  0.00    -0.248 NA
ATOM     64  C   UNL     1      -4.734 -10.654   6.842  1.00  0.00     0.031 C 
ATOM     65  C   UNL     1      -5.011  -7.262  11.857  1.00  0.00     0.029 A 
ATOM     66  C   UNL     1      -4.785  -7.704  10.563  1.00  0.00     0.049 A 
ATOM     67  H   UNL     1      -3.759  -6.748   8.988  1.00  0.00     0.167 HD
ATOM     68  C   UNL     1      -4.860  -9.298   8.681  1.00  0.00     0.074 A 
ATOM     69  C   UNL     1      -5.219 -10.559   8.074  1.00  0.00     0.031 C 
ATOM     70  C   UNL     1      -5.180  -8.945   9.951  1.00  0.00     0.031 A 
BRANCH  57  71
ATOM     71  C   UNL     1      -3.147  -3.306  11.438  1.00  0.00    -0.014 A 
ATOM     72  C   UNL     1      -3.854  -2.094  11.301  1.00  0.00     0.010 A 
ATOM     73  C   UNL     1      -2.291  -3.475  12.539  1.00  0.00     0.010 A 
ATOM     74  C   UNL     1      -3.627  -1.037  12.181  1.00  0.00     0.020 A 
ATOM     75  C   UNL     1      -2.103  -2.436  13.456  1.00  0.00     0.020 A 
ATOM     76  C   UNL     1      -2.746  -1.213  13.250  1.00  0.00     0.054 A 
BRANCH  76  77
ATOM     77  S   UNL     1      -2.468   0.181  14.374  1.00  0.00     0.124 S 
ATOM     78  O   UNL     1      -1.614   1.050  13.568  1.00  0.00    -0.237 OA
ATOM     79  O   UNL     1      -3.821   0.677  14.610  1.00  0.00    -0.237 OA
ATOM     80  O   UNL     1      -1.821  -0.431  15.531  1.00  0.00    -0.744 OA
ENDBRANCH  76  77
ENDBRANCH  57  71
BRANCH  58  81
ATOM     81  C   UNL     1      -3.566 -10.097   4.231  1.00  0.00    -0.014 A 
ATOM     82  C   UNL     1      -4.790 -10.497   3.658  1.00  0.00     0.010 A 
ATOM     83  C   UNL     1      -2.390 -10.755   3.828  1.00  0.00     0.010 A 
ATOM     84  C   UNL     1      -4.842 -11.536   2.721  1.00  0.00     0.020 A 
ATOM     85  C   UNL     1      -2.433 -11.778   2.869  1.00  0.00     0.020 A 
ATOM     86  C   UNL     1      -3.660 -12.167   2.325  1.00  0.00     0.054 A 
BRANCH  86  87
ATOM     87  S   UNL     1      -3.745 -13.461   1.052  1.00  0.00     0.124 S 
ATOM     88  O   UNL     1      -4.364 -14.567   1.775  1.00  0.00    -0.237 OA
ATOM     89  O   UNL     1      -4.573 -12.836   0.023  1.00  0.00    -0.237 OA
ATOM     90  O   UNL     1      -2.347 -13.663   0.676  1.00  0.00    -0.744 OA
ENDBRANCH  86  87
ENDBRANCH  58  81
BRANCH  70  91
ATOM     91  C   UNL     1      -6.041  -9.879  10.765  1.00  0.00    -0.014 A 
ATOM     92  C   UNL     1      -5.553 -11.099  11.263  1.00  0.00     0.010 A 
ATOM     93  C   UNL     1      -7.350  -9.481  11.104  1.00  0.00     0.010 A 
ATOM     94  C   UNL     1      -6.369 -11.919  12.052  1.00  0.00     0.020 A 
ATOM     95  C   UNL     1      -8.158 -10.283  11.914  1.00  0.00     0.020 A 
ATOM     96  C   UNL     1      -7.667 -11.507  12.370  1.00  0.00     0.054 A 
BRANCH  96  97
ATOM     97  S   UNL     1      -8.696 -12.573  13.417  1.00  0.00     0.124 S 
ATOM     98  O   UNL     1      -9.044 -13.656  12.501  1.00  0.00    -0.237 OA
ATOM     99  O   UNL     1      -7.785 -12.935  14.501  1.00  0.00    -0.237 OA
ATOM    100  O   UNL     1      -9.807 -11.709  13.809  1.00  0.00    -0.744 OA
ENDBRANCH  96  97
ENDBRANCH  70  91
ENDBRANCH  44  45
ENDBRANCH  36  39
ENDBRANCH  34  35
ENDBRANCH   1  34
TORSDOF 16
