REMARK SMILES Cc1ccc(-c2csc(NC(=O)[C@H]3[C@@H](C(=O)NCCCNC(=O)c4ccc(-c5c6nc(c(-c7ccc(S(=O)(=O)[O-])cc7)c7ccc([nH]7)c(-c7ccc(S(=O)(=O)[O-])cc7)c7nc(c(-c8ccc(S(=O)(=O)[O-])cc8)c8ccc5[nH]8)C=C7)C=C6)cc4)[C@H]4C=C[C@@H]3C4)c2C(=O)NC2CC2)cc1
REMARK SMILES IDX 18 1 17 2 15 3 16 4 14 6 13 7 87 8 84 9 86 10 88 11 85 12
REMARK SMILES IDX 11 13 10 14 12 16 9 17 6 18 7 19 89 20 8 21 5 22 1 23 2 24
REMARK SMILES IDX 3 25 97 26 4 27 96 28 90 29 91 30 92 31 93 33 94 34 95 35
REMARK SMILES IDX 19 36 20 37 21 38 22 39 23 41 24 42 25 43 83 44 26 45 82 46
REMARK SMILES IDX 27 47 28 48 29 49 76 50 30 51 81 52 75 53 77 54 31 55 80 56
REMARK SMILES IDX 74 57 73 58 32 60 62 61 43 62 61 63 44 64 47 65 60 66 78 67
REMARK SMILES IDX 45 68 46 69 59 71 79 72 48 73 33 74 34 75 42 76 35 77 41 78
REMARK SMILES IDX 36 79 37 80 38 81 39 82 40 83 63 84 64 85 72 86 65 87 71 88
REMARK SMILES IDX 66 89 67 90 68 91 69 92 70 93 49 94 50 95 58 96 51 97 57 98
REMARK SMILES IDX 52 99 53 100 54 101 55 102 56 103
REMARK H PARENT 17 5 10 15 92 32 21 40 77 59 47 70
REMARK Flexibility Score: inf
ROOT
ATOM      1  C   UNL     1      -4.492   2.254  -0.017  1.00  0.00     0.117 C 
ENDROOT
BRANCH   1   2
ATOM      2  N   UNL     1      -5.151   1.669  -1.178  1.00  0.00    -0.356 N 
ATOM      3  C   UNL     1      -6.429   1.193  -1.312  1.00  0.00     0.224 C 
ATOM      4  O   UNL     1      -6.784   0.768  -2.411  1.00  0.00    -0.275 OA
ATOM      5  H   UNL     1      -4.594   1.607  -1.988  1.00  0.00     0.163 HD
BRANCH   3   6
ATOM      6  C   UNL     1      -7.385   1.347  -0.129  1.00  0.00     0.098 C 
ATOM      7  C   UNL     1      -8.583   0.328   0.064  1.00  0.00     0.099 C 
ATOM      8  C   UNL     1      -9.813   1.267  -0.074  1.00  0.00     0.025 C 
ATOM      9  C   UNL     1      -8.124   2.715  -0.262  1.00  0.00     0.025 C 
ATOM     10  C   UNL     1      -9.890   1.852  -1.458  1.00  0.00    -0.027 C 
ATOM     11  C   UNL     1      -9.304   2.506   0.682  1.00  0.00     0.017 C 
ATOM     12  C   UNL     1      -8.898   2.747  -1.562  1.00  0.00    -0.027 C 
BRANCH   7  13
ATOM     13  C   UNL     1      -8.503  -0.957  -0.763  1.00  0.00     0.229 C 
ATOM     14  N   UNL     1      -9.622  -1.586  -1.236  1.00  0.00    -0.317 N 
ATOM     15  H   UNL     1      -9.523  -2.005  -2.122  1.00  0.00     0.170 HD
ATOM     16  O   UNL     1      -7.413  -1.504  -0.962  1.00  0.00    -0.274 OA
BRANCH  14  17
ATOM     17  C   UNL     1     -10.871  -1.723  -0.656  1.00  0.00     0.108 A 
ATOM     18  C   UNL     1     -13.160  -1.986  -0.298  1.00  0.00     0.007 A 
ATOM     19  C   UNL     1     -12.676  -1.786   0.984  1.00  0.00     0.076 A 
ATOM     20  C   UNL     1     -12.082  -2.031  -1.277  1.00  0.00     0.082 A 
ATOM     21  S   UNL     1     -10.982  -1.720   1.042  1.00  0.00    -0.125 S 
BRANCH  18  22
ATOM     22  C   UNL     1     -14.604  -2.120  -0.467  1.00  0.00    -0.017 A 
ATOM     23  C   UNL     1     -18.743  -3.001  -1.271  1.00  0.00     0.044 C 
ATOM     24  C   UNL     1     -17.340  -2.613  -0.907  1.00  0.00    -0.051 A 
ATOM     25  C   UNL     1     -16.625  -3.394   0.004  1.00  0.00     0.004 A 
ATOM     26  C   UNL     1     -16.693  -1.547  -1.549  1.00  0.00     0.004 A 
ATOM     27  C   UNL     1     -15.277  -3.133   0.238  1.00  0.00     0.009 A 
ATOM     28  C   UNL     1     -15.329  -1.300  -1.333  1.00  0.00     0.009 A 
ENDBRANCH  18  22
BRANCH  20  29
ATOM     29  C   UNL     1     -12.157  -2.089  -2.736  1.00  0.00     0.255 C 
ATOM     30  O   UNL     1     -11.720  -1.148  -3.405  1.00  0.00    -0.269 OA
ATOM     31  N   UNL     1     -12.624  -3.156  -3.467  1.00  0.00    -0.349 N 
ATOM     32  H   UNL     1     -12.584  -2.964  -4.432  1.00  0.00     0.164 HD
BRANCH  31  33
ATOM     33  C   UNL     1     -13.147  -4.457  -3.228  1.00  0.00     0.082 C 
ATOM     34  C   UNL     1     -13.675  -5.079  -1.983  1.00  0.00     0.027 C 
ATOM     35  C   UNL     1     -14.636  -4.558  -3.010  1.00  0.00     0.027 C 
ENDBRANCH  31  33
ENDBRANCH  20  29
ENDBRANCH  14  17
ENDBRANCH   7  13
ENDBRANCH   3   6
ENDBRANCH   1   2
BRANCH   1  36
ATOM     36  C   UNL     1      -3.869   1.188   0.880  1.00  0.00     0.042 C 
BRANCH  36  37
ATOM     37  C   UNL     1      -2.555   0.660   0.312  1.00  0.00     0.118 C 
BRANCH  37  38
ATOM     38  N   UNL     1      -1.383   1.079   1.072  1.00  0.00    -0.352 N 
ATOM     39  C   UNL     1      -0.071   0.678   0.891  1.00  0.00     0.251 C 
ATOM     40  H   UNL     1      -1.544   1.723   1.799  1.00  0.00     0.163 HD
ATOM     41  O   UNL     1       0.798   0.893   1.720  1.00  0.00    -0.269 OA
BRANCH  39  42
ATOM     42  C   UNL     1       0.269   0.084  -0.418  1.00  0.00     0.039 A 
ATOM     43  C   UNL     1       1.055   0.856  -1.282  1.00  0.00     0.014 A 
ATOM     44  C   UNL     1      -0.399  -1.050  -0.870  1.00  0.00     0.014 A 
ATOM     45  C   UNL     1       1.036   0.587  -2.648  1.00  0.00     0.010 A 
ATOM     46  C   UNL     1      -0.487  -1.260  -2.233  1.00  0.00     0.010 A 
ATOM     47  C   UNL     1       0.191  -0.415  -3.126  1.00  0.00    -0.014 A 
BRANCH  47  48
ATOM     48  C   UNL     1      -0.131  -0.591  -4.539  1.00  0.00     0.031 A 
ATOM     49  C   UNL     1       0.415  -1.744  -5.296  1.00  0.00     0.074 A 
ATOM     50  C   UNL     1      -1.009   0.242  -5.143  1.00  0.00     0.049 A 
ATOM     51  N   UNL     1       0.534  -1.790  -6.583  1.00  0.00    -0.248 NA
ATOM     52  C   UNL     1       0.934  -2.934  -4.630  1.00  0.00     0.031 C 
ATOM     53  C   UNL     1      -1.698   0.007  -6.409  1.00  0.00     0.029 A 
ATOM     54  N   UNL     1      -1.302   1.573  -4.840  1.00  0.00    -0.354 N 
ATOM     55  C   UNL     1       0.841  -3.090  -6.923  1.00  0.00     0.074 A 
ATOM     56  C   UNL     1       1.169  -3.735  -5.673  1.00  0.00     0.031 C 
ATOM     57  C   UNL     1      -2.069   1.190  -6.920  1.00  0.00     0.029 A 
ATOM     58  C   UNL     1      -1.502   2.223  -6.069  1.00  0.00     0.049 A 
ATOM     59  H   UNL     1      -1.359   1.976  -3.944  1.00  0.00     0.167 HD
ATOM     60  C   UNL     1       0.641  -3.530  -8.199  1.00  0.00     0.031 A 
ATOM     61  C   UNL     1      -0.777   3.293  -6.508  1.00  0.00     0.031 A 
ATOM     62  C   UNL     1       0.201  -2.456  -9.086  1.00  0.00     0.049 A 
ATOM     63  C   UNL     1      -0.115   3.050  -7.845  1.00  0.00     0.074 A 
ATOM     64  C   UNL     1      -1.046  -2.087  -9.564  1.00  0.00     0.029 A 
ATOM     65  N   UNL     1       1.066  -1.410  -9.387  1.00  0.00    -0.354 N 
ATOM     66  N   UNL     1       0.032   1.868  -8.375  1.00  0.00    -0.248 NA
ATOM     67  C   UNL     1       0.486   4.103  -8.661  1.00  0.00     0.031 C 
ATOM     68  C   UNL     1      -0.943  -0.772 -10.084  1.00  0.00     0.029 A 
ATOM     69  C   UNL     1       0.369  -0.356  -9.946  1.00  0.00     0.049 A 
ATOM     70  H   UNL     1       2.037  -1.419  -9.225  1.00  0.00     0.167 HD
ATOM     71  C   UNL     1       0.729   1.973  -9.548  1.00  0.00     0.074 A 
ATOM     72  C   UNL     1       0.982   3.395  -9.692  1.00  0.00     0.031 C 
ATOM     73  C   UNL     1       1.051   0.881 -10.298  1.00  0.00     0.031 A 
BRANCH  60  74
ATOM     74  C   UNL     1       0.541  -5.000  -8.565  1.00  0.00    -0.014 A 
ATOM     75  C   UNL     1      -0.264  -5.393  -9.656  1.00  0.00     0.010 A 
ATOM     76  C   UNL     1       1.150  -6.044  -7.845  1.00  0.00     0.010 A 
ATOM     77  C   UNL     1      -0.540  -6.740  -9.936  1.00  0.00     0.020 A 
ATOM     78  C   UNL     1       0.853  -7.395  -8.085  1.00  0.00     0.020 A 
ATOM     79  C   UNL     1      -0.007  -7.736  -9.123  1.00  0.00     0.054 A 
BRANCH  79  80
ATOM     80  S   UNL     1      -0.454  -9.465  -9.429  1.00  0.00     0.124 S 
ATOM     81  O   UNL     1      -1.913  -9.432  -9.363  1.00  0.00    -0.237 OA
ATOM     82  O   UNL     1       0.112  -9.707 -10.752  1.00  0.00    -0.237 OA
ATOM     83  O   UNL     1       0.194 -10.189  -8.336  1.00  0.00    -0.744 OA
ENDBRANCH  79  80
ENDBRANCH  60  74
BRANCH  61  84
ATOM     84  C   UNL     1      -0.213   4.146  -5.429  1.00  0.00    -0.014 A 
ATOM     85  C   UNL     1      -1.117   4.937  -4.691  1.00  0.00     0.010 A 
ATOM     86  C   UNL     1       1.045   3.846  -4.877  1.00  0.00     0.010 A 
ATOM     87  C   UNL     1      -0.847   5.266  -3.362  1.00  0.00     0.020 A 
ATOM     88  C   UNL     1       1.319   4.178  -3.543  1.00  0.00     0.020 A 
ATOM     89  C   UNL     1       0.341   4.823  -2.779  1.00  0.00     0.054 A 
BRANCH  89  90
ATOM     90  S   UNL     1       0.484   4.920  -0.969  1.00  0.00     0.124 S 
ATOM     91  O   UNL     1       0.329   6.349  -0.717  1.00  0.00    -0.237 OA
ATOM     92  O   UNL     1      -0.633   4.081  -0.534  1.00  0.00    -0.237 OA
ATOM     93  O   UNL     1       1.812   4.374  -0.707  1.00  0.00    -0.744 OA
ENDBRANCH  89  90
ENDBRANCH  61  84
BRANCH  73  94
ATOM     94  C   UNL     1       1.968   0.893 -11.491  1.00  0.00    -0.014 A 
ATOM     95  C   UNL     1       3.036   1.793 -11.639  1.00  0.00     0.010 A 
ATOM     96  C   UNL     1       1.842  -0.129 -12.460  1.00  0.00     0.010 A 
ATOM     97  C   UNL     1       3.896   1.722 -12.744  1.00  0.00     0.020 A 
ATOM     98  C   UNL     1       2.717  -0.231 -13.545  1.00  0.00     0.020 A 
ATOM     99  C   UNL     1       3.726   0.715 -13.695  1.00  0.00     0.054 A 
BRANCH  99 100
ATOM    100  S   UNL     1       4.870   0.598 -15.094  1.00  0.00     0.124 S 
ATOM    101  O   UNL     1       4.215   1.444 -16.089  1.00  0.00    -0.237 OA
ATOM    102  O   UNL     1       6.117   1.127 -14.548  1.00  0.00    -0.237 OA
ATOM    103  O   UNL     1       4.889  -0.830 -15.400  1.00  0.00    -0.744 OA
ENDBRANCH  99 100
ENDBRANCH  73  94
ENDBRANCH  47  48
ENDBRANCH  39  42
ENDBRANCH  37  38
ENDBRANCH  36  37
ENDBRANCH   1  36
TORSDOF 18
