REMARK SMILES CSCCC(=O)N1[C@H](C)CCC[C@@H]1C(=O)NCCCNC(=O)c1ccc(-c2c3nc(c(-c4ccc(S(=O)(=O)[O-])cc4)c4ccc([nH]4)c(-c4ccc(S(=O)(=O)[O-])cc4)c4nc(c(-c5ccc(S(=O)(=O)[O-])cc5)c5ccc2[nH]5)C=C4)C=C3)cc1
REMARK SMILES IDX 17 1 16 2 14 3 15 4 13 6 7 7 8 8 9 9 10 10 12 11 11 12 5 13
REMARK SMILES IDX 6 14 4 15 3 16 2 17 1 18 18 19 19 20 20 21 21 22 22 24 23 25
REMARK SMILES IDX 24 26 82 27 25 28 81 29 26 30 27 31 28 32 75 33 29 34 80 35
REMARK SMILES IDX 74 36 76 37 30 38 79 39 73 40 72 41 31 43 61 44 42 45 60 46
REMARK SMILES IDX 43 47 46 48 59 49 77 50 44 51 45 52 58 54 78 55 47 56 32 57
REMARK SMILES IDX 33 58 41 59 34 60 40 61 35 62 36 63 37 64 38 65 39 66 62 67
REMARK SMILES IDX 63 68 71 69 64 70 70 71 65 72 66 73 67 74 68 75 69 76 48 77
REMARK SMILES IDX 49 78 57 79 50 80 56 81 51 82 52 83 53 84 54 85 55 86
REMARK H PARENT 16 5 20 23 76 42 46 53
REMARK Flexibility Score: inf
ROOT
ATOM      1  C   UNL     1      -1.919   1.396  -1.709  1.00  0.00     0.117 C 
ENDROOT
BRANCH   1   2
ATOM      2  N   UNL     1      -2.148   0.189  -2.473  1.00  0.00    -0.354 N 
ATOM      3  C   UNL     1      -1.636  -1.071  -2.401  1.00  0.00     0.242 C 
ATOM      4  O   UNL     1      -2.422  -1.964  -2.748  1.00  0.00    -0.273 OA
ATOM      5  H   UNL     1      -2.811   0.301  -3.192  1.00  0.00     0.163 HD
BRANCH   3   6
ATOM      6  C   UNL     1      -0.170  -1.442  -2.009  1.00  0.00     0.174 C 
ATOM      7  N   UNL     1       0.233  -1.566  -0.582  1.00  0.00    -0.328 N 
ATOM      8  C   UNL     1       0.715  -0.372   0.104  1.00  0.00     0.082 C 
ATOM      9  C   UNL     1      -0.299   0.220   1.083  1.00  0.00     0.031 C 
ATOM     10  C   UNL     1       1.413   0.631  -0.826  1.00  0.00     0.025 C 
ATOM     11  C   UNL     1       0.875  -0.715  -2.872  1.00  0.00     0.035 C 
ATOM     12  C   UNL     1       1.981  -0.054  -2.061  1.00  0.00     0.005 C 
BRANCH   7  13
ATOM     13  C   UNL     1       0.516  -2.836  -0.056  1.00  0.00     0.224 C 
ATOM     14  O   UNL     1       0.628  -3.837  -0.767  1.00  0.00    -0.275 OA
BRANCH  13  15
ATOM     15  C   UNL     1       0.679  -2.987   1.460  1.00  0.00     0.111 C 
BRANCH  15  16
ATOM     16  C   UNL     1       2.108  -2.804   1.987  1.00  0.00     0.079 C 
BRANCH  16  17
ATOM     17  S   UNL     1       2.272  -1.522   3.306  1.00  0.00    -0.165 SA
ATOM     18  C   UNL     1       3.277  -0.258   2.461  1.00  0.00     0.085 C 
ENDBRANCH  16  17
ENDBRANCH  15  16
ENDBRANCH  13  15
ENDBRANCH   7  13
ENDBRANCH   3   6
ENDBRANCH   1   2
BRANCH   1  19
ATOM     19  C   UNL     1      -1.353   2.566  -2.496  1.00  0.00     0.042 C 
BRANCH  19  20
ATOM     20  C   UNL     1      -1.797   3.914  -1.933  1.00  0.00     0.118 C 
BRANCH  20  21
ATOM     21  N   UNL     1      -1.585   4.149  -0.508  1.00  0.00    -0.352 N 
ATOM     22  C   UNL     1      -1.530   5.369   0.154  1.00  0.00     0.251 C 
ATOM     23  H   UNL     1      -1.468   3.347   0.051  1.00  0.00     0.163 HD
ATOM     24  O   UNL     1      -1.366   5.407   1.363  1.00  0.00    -0.269 OA
BRANCH  22  25
ATOM     25  C   UNL     1      -1.600   6.624  -0.638  1.00  0.00     0.039 A 
ATOM     26  C   UNL     1      -0.651   7.627  -0.420  1.00  0.00     0.014 A 
ATOM     27  C   UNL     1      -2.526   6.758  -1.670  1.00  0.00     0.014 A 
ATOM     28  C   UNL     1      -0.545   8.688  -1.327  1.00  0.00     0.010 A 
ATOM     29  C   UNL     1      -2.336   7.734  -2.637  1.00  0.00     0.010 A 
ATOM     30  C   UNL     1      -1.337   8.707  -2.487  1.00  0.00    -0.014 A 
BRANCH  30  31
ATOM     31  C   UNL     1      -1.159   9.712  -3.571  1.00  0.00     0.031 A 
ATOM     32  C   UNL     1      -2.339  10.539  -4.016  1.00  0.00     0.074 A 
ATOM     33  C   UNL     1       0.008   9.786  -4.245  1.00  0.00     0.049 A 
ATOM     34  N   UNL     1      -2.463  11.306  -5.068  1.00  0.00    -0.248 NA
ATOM     35  C   UNL     1      -3.560  10.444  -3.197  1.00  0.00     0.031 C 
ATOM     36  C   UNL     1       1.212   8.999  -3.962  1.00  0.00     0.029 A 
ATOM     37  N   UNL     1       0.367  10.552  -5.327  1.00  0.00    -0.354 N 
ATOM     38  C   UNL     1      -3.786  11.734  -5.067  1.00  0.00     0.074 A 
ATOM     39  C   UNL     1      -4.436  11.100  -3.942  1.00  0.00     0.031 C 
ATOM     40  C   UNL     1       2.182   9.346  -4.824  1.00  0.00     0.029 A 
ATOM     41  C   UNL     1       1.659  10.341  -5.753  1.00  0.00     0.049 A 
ATOM     42  H   UNL     1      -0.243  11.193  -5.759  1.00  0.00     0.167 HD
ATOM     43  C   UNL     1      -4.401  12.597  -5.909  1.00  0.00     0.031 A 
ATOM     44  C   UNL     1       2.344  10.882  -6.780  1.00  0.00     0.031 A 
ATOM     45  C   UNL     1      -3.734  13.275  -6.986  1.00  0.00     0.049 A 
ATOM     46  C   UNL     1       1.661  11.889  -7.664  1.00  0.00     0.074 A 
ATOM     47  C   UNL     1      -4.243  14.230  -7.848  1.00  0.00     0.029 A 
ATOM     48  N   UNL     1      -2.405  13.087  -7.333  1.00  0.00    -0.354 N 
ATOM     49  N   UNL     1       0.421  12.315  -7.619  1.00  0.00    -0.248 NA
ATOM     50  C   UNL     1       2.470  12.496  -8.730  1.00  0.00     0.031 C 
ATOM     51  C   UNL     1      -3.226  14.601  -8.735  1.00  0.00     0.029 A 
ATOM     52  C   UNL     1      -2.075  13.907  -8.396  1.00  0.00     0.049 A 
ATOM     53  H   UNL     1      -1.788  12.461  -6.888  1.00  0.00     0.167 HD
ATOM     54  C   UNL     1       0.310  13.262  -8.630  1.00  0.00     0.074 A 
ATOM     55  C   UNL     1       1.610  13.353  -9.264  1.00  0.00     0.031 C 
ATOM     56  C   UNL     1      -0.770  13.993  -8.999  1.00  0.00     0.031 A 
BRANCH  43  57
ATOM     57  C   UNL     1      -5.866  12.862  -5.683  1.00  0.00    -0.014 A 
ATOM     58  C   UNL     1      -6.309  13.570  -4.550  1.00  0.00     0.010 A 
ATOM     59  C   UNL     1      -6.813  12.410  -6.619  1.00  0.00     0.010 A 
ATOM     60  C   UNL     1      -7.673  13.769  -4.328  1.00  0.00     0.020 A 
ATOM     61  C   UNL     1      -8.178  12.636  -6.417  1.00  0.00     0.020 A 
ATOM     62  C   UNL     1      -8.600  13.294  -5.260  1.00  0.00     0.054 A 
BRANCH  62  63
ATOM     63  S   UNL     1     -10.365  13.573  -4.951  1.00  0.00     0.124 S 
ATOM     64  O   UNL     1     -10.649  12.578  -3.919  1.00  0.00    -0.237 OA
ATOM     65  O   UNL     1     -10.399  14.964  -4.507  1.00  0.00    -0.237 OA
ATOM     66  O   UNL     1     -10.988  13.321  -6.248  1.00  0.00    -0.744 OA
ENDBRANCH  62  63
ENDBRANCH  43  57
BRANCH  44  67
ATOM     67  C   UNL     1       3.767  10.508  -7.007  1.00  0.00    -0.014 A 
ATOM     68  C   UNL     1       4.794  11.419  -6.700  1.00  0.00     0.010 A 
ATOM     69  C   UNL     1       4.108   9.240  -7.510  1.00  0.00     0.010 A 
ATOM     70  C   UNL     1       6.134  11.076  -6.907  1.00  0.00     0.020 A 
ATOM     71  C   UNL     1       5.448   8.884  -7.696  1.00  0.00     0.020 A 
ATOM     72  C   UNL     1       6.452   9.809  -7.403  1.00  0.00     0.054 A 
BRANCH  72  73
ATOM     73  S   UNL     1       8.200   9.364  -7.609  1.00  0.00     0.124 S 
ATOM     74  O   UNL     1       8.560  10.099  -8.816  1.00  0.00    -0.237 OA
ATOM     75  O   UNL     1       8.799   9.850  -6.368  1.00  0.00    -0.237 OA
ATOM     76  O   UNL     1       8.166   7.909  -7.745  1.00  0.00    -0.744 OA
ENDBRANCH  72  73
ENDBRANCH  44  67
BRANCH  56  77
ATOM     77  C   UNL     1      -0.586  14.993 -10.106  1.00  0.00    -0.014 A 
ATOM     78  C   UNL     1      -0.494  14.586 -11.448  1.00  0.00     0.010 A 
ATOM     79  C   UNL     1      -0.584  16.367  -9.800  1.00  0.00     0.010 A 
ATOM     80  C   UNL     1      -0.384  15.537 -12.465  1.00  0.00     0.020 A 
ATOM     81  C   UNL     1      -0.498  17.320 -10.816  1.00  0.00     0.020 A 
ATOM     82  C   UNL     1      -0.388  16.898 -12.143  1.00  0.00     0.054 A 
BRANCH  82  83
ATOM     83  S   UNL     1      -0.308  18.115 -13.485  1.00  0.00     0.124 S 
ATOM     84  O   UNL     1       1.100  18.051 -13.869  1.00  0.00    -0.237 OA
ATOM     85  O   UNL     1      -1.251  17.578 -14.463  1.00  0.00    -0.237 OA
ATOM     86  O   UNL     1      -0.725  19.362 -12.847  1.00  0.00    -0.744 OA
ENDBRANCH  82  83
ENDBRANCH  56  77
ENDBRANCH  30  31
ENDBRANCH  22  25
ENDBRANCH  20  21
ENDBRANCH  19  20
ENDBRANCH   1  19
TORSDOF 17
