REMARK SMILES Cc1cc2occ(CC(=O)NCCC(=O)NCCCNC(=O)c3ccc(-c4c5nc(c(-c6ccc(S(=O)(=O)[O-])cc6)c6ccc([nH]6)c(-c6ccc(S(=O)(=O)[O-])cc6)c6nc(c(-c7ccc(S(=O)(=O)[O-])cc7)c7ccc4[nH]7)C=C6)C=C5)cc3)c2cc1C
REMARK SMILES IDX 17 1 16 2 14 3 15 4 13 6 12 7 11 8 9 9 10 10 8 12 7 13 1 14
REMARK SMILES IDX 2 15 3 16 85 17 4 18 84 19 86 20 5 21 83 22 6 23 18 24 19 25
REMARK SMILES IDX 20 26 21 27 22 29 23 30 24 31 82 32 25 33 81 34 26 35 27 36
REMARK SMILES IDX 28 37 75 38 29 39 80 40 74 41 76 42 30 43 79 44 73 45 72 46
REMARK SMILES IDX 31 48 61 49 42 50 60 51 43 52 46 53 59 54 77 55 44 56 45 57
REMARK SMILES IDX 58 59 78 60 47 61 32 62 33 63 41 64 34 65 40 66 35 67 36 68
REMARK SMILES IDX 37 69 38 70 39 71 62 72 63 73 71 74 64 75 70 76 65 77 66 78
REMARK SMILES IDX 67 79 68 80 69 81 48 82 49 83 57 84 50 85 56 86 51 87 52 88
REMARK SMILES IDX 53 89 54 90 55 91
REMARK H PARENT 16 5 11 11 20 28 76 47 46 58
REMARK Flexibility Score: inf
ROOT
ATOM      1  C   UNL     1      -0.537   2.751   4.023  1.00  0.00     0.117 C 
ENDROOT
BRANCH   1   2
ATOM      2  N   UNL     1      -1.411   2.001   4.916  1.00  0.00    -0.356 N 
ATOM      3  C   UNL     1      -2.393   1.098   4.643  1.00  0.00     0.221 C 
ATOM      4  O   UNL     1      -3.039   0.633   5.585  1.00  0.00    -0.275 OA
ATOM      5  H   UNL     1      -1.267   2.174   5.874  1.00  0.00     0.163 HD
BRANCH   3   6
ATOM      6  C   UNL     1      -2.693   0.677   3.222  1.00  0.00     0.121 C 
BRANCH   6   7
ATOM      7  C   UNL     1      -3.831   1.491   2.612  1.00  0.00     0.125 C 
BRANCH   7   8
ATOM      8  N   UNL     1      -3.388   2.790   2.142  1.00  0.00    -0.355 N 
ATOM      9  C   UNL     1      -2.782   3.141   0.971  1.00  0.00     0.224 C 
ATOM     10  O   UNL     1      -2.186   4.220   0.936  1.00  0.00    -0.275 OA
ATOM     11  H   UNL     1      -3.549   3.534   2.765  1.00  0.00     0.163 HD
BRANCH   9  12
ATOM     12  C   UNL     1      -2.930   2.287  -0.272  1.00  0.00     0.139 C 
BRANCH  12  13
ATOM     13  C   UNL     1      -2.269   0.955  -0.223  1.00  0.00     0.008 A 
ATOM     14  C   UNL     1       2.882  -1.511   0.036  1.00  0.00     0.045 C 
ATOM     15  C   UNL     1       1.592  -0.736  -0.012  1.00  0.00    -0.044 A 
ATOM     16  C   UNL     1       0.391  -1.465  -0.076  1.00  0.00     0.051 A 
ATOM     17  C   UNL     1       1.565   0.676  -0.012  1.00  0.00    -0.047 A 
ATOM     18  C   UNL     1      -0.796  -0.743  -0.145  1.00  0.00     0.134 A 
ATOM     19  C   UNL     1       0.329   1.368  -0.068  1.00  0.00     0.016 A 
ATOM     20  C   UNL     1       2.818   1.513   0.032  1.00  0.00     0.044 C 
ATOM     21  O   UNL     1      -2.036  -1.292  -0.234  1.00  0.00    -0.464 OA
ATOM     22  C   UNL     1      -0.875   0.642  -0.141  1.00  0.00     0.024 A 
ATOM     23  C   UNL     1      -2.914  -0.266  -0.306  1.00  0.00     0.200 A 
ENDBRANCH  12  13
ENDBRANCH   9  12
ENDBRANCH   7   8
ENDBRANCH   6   7
ENDBRANCH   3   6
ENDBRANCH   1   2
BRANCH   1  24
ATOM     24  C   UNL     1      -0.875   4.240   4.012  1.00  0.00     0.042 C 
BRANCH  24  25
ATOM     25  C   UNL     1      -0.573   4.965   5.317  1.00  0.00     0.118 C 
BRANCH  25  26
ATOM     26  N   UNL     1       0.839   5.277   5.467  1.00  0.00    -0.352 N 
ATOM     27  C   UNL     1       1.484   6.488   5.425  1.00  0.00     0.251 C 
ATOM     28  H   UNL     1       1.423   4.499   5.623  1.00  0.00     0.163 HD
ATOM     29  O   UNL     1       2.716   6.504   5.364  1.00  0.00    -0.269 OA
BRANCH  27  30
ATOM     30  C   UNL     1       0.734   7.767   5.435  1.00  0.00     0.039 A 
ATOM     31  C   UNL     1       1.191   8.823   4.639  1.00  0.00     0.014 A 
ATOM     32  C   UNL     1      -0.381   7.960   6.255  1.00  0.00     0.014 A 
ATOM     33  C   UNL     1       0.505  10.043   4.627  1.00  0.00     0.010 A 
ATOM     34  C   UNL     1      -1.114   9.145   6.176  1.00  0.00     0.010 A 
ATOM     35  C   UNL     1      -0.672  10.207   5.374  1.00  0.00    -0.014 A 
BRANCH  35  36
ATOM     36  C   UNL     1      -1.438  11.483   5.349  1.00  0.00     0.031 A 
ATOM     37  C   UNL     1      -1.608  12.292   6.610  1.00  0.00     0.074 A 
ATOM     38  C   UNL     1      -2.030  11.892   4.209  1.00  0.00     0.049 A 
ATOM     39  N   UNL     1      -2.295  13.390   6.801  1.00  0.00    -0.248 NA
ATOM     40  C   UNL     1      -0.942  11.785   7.821  1.00  0.00     0.031 C 
ATOM     41  C   UNL     1      -1.980  11.187   2.926  1.00  0.00     0.029 A 
ATOM     42  N   UNL     1      -2.799  13.000   3.947  1.00  0.00    -0.354 N 
ATOM     43  C   UNL     1      -2.166  13.688   8.154  1.00  0.00     0.074 A 
ATOM     44  C   UNL     1      -1.374  12.632   8.744  1.00  0.00     0.031 C 
ATOM     45  C   UNL     1      -2.663  11.892   2.009  1.00  0.00     0.029 A 
ATOM     46  C   UNL     1      -3.233  13.076   2.644  1.00  0.00     0.049 A 
ATOM     47  H   UNL     1      -3.019  13.676   4.628  1.00  0.00     0.167 HD
ATOM     48  C   UNL     1      -2.646  14.753   8.842  1.00  0.00     0.031 A 
ATOM     49  C   UNL     1      -4.008  13.990   2.027  1.00  0.00     0.031 A 
ATOM     50  C   UNL     1      -3.413  15.818   8.252  1.00  0.00     0.049 A 
ATOM     51  C   UNL     1      -4.521  15.169   2.807  1.00  0.00     0.074 A 
ATOM     52  C   UNL     1      -3.892  16.968   8.854  1.00  0.00     0.029 A 
ATOM     53  N   UNL     1      -3.812  15.864   6.925  1.00  0.00    -0.354 N 
ATOM     54  N   UNL     1      -4.340  15.461   4.072  1.00  0.00    -0.248 NA
ATOM     55  C   UNL     1      -5.333  16.149   2.071  1.00  0.00     0.031 C 
ATOM     56  C   UNL     1      -4.617  17.691   7.900  1.00  0.00     0.029 A 
ATOM     57  C   UNL     1      -4.546  17.015   6.693  1.00  0.00     0.049 A 
ATOM     58  H   UNL     1      -3.604  15.181   6.248  1.00  0.00     0.167 HD
ATOM     59  C   UNL     1      -4.995  16.670   4.279  1.00  0.00     0.074 A 
ATOM     60  C   UNL     1      -5.565  17.061   3.006  1.00  0.00     0.031 C 
ATOM     61  C   UNL     1      -5.109  17.392   5.421  1.00  0.00     0.031 A 
BRANCH  48  62
ATOM     62  C   UNL     1      -2.355  14.812  10.319  1.00  0.00    -0.014 A 
ATOM     63  C   UNL     1      -1.054  15.056  10.795  1.00  0.00     0.010 A 
ATOM     64  C   UNL     1      -3.400  14.643  11.245  1.00  0.00     0.010 A 
ATOM     65  C   UNL     1      -0.794  15.079  12.168  1.00  0.00     0.020 A 
ATOM     66  C   UNL     1      -3.150  14.694  12.620  1.00  0.00     0.020 A 
ATOM     67  C   UNL     1      -1.843  14.889  13.072  1.00  0.00     0.054 A 
BRANCH  67  68
ATOM     68  S   UNL     1      -1.480  14.927  14.849  1.00  0.00     0.124 S 
ATOM     69  O   UNL     1      -0.837  13.631  15.050  1.00  0.00    -0.237 OA
ATOM     70  O   UNL     1      -0.604  16.088  14.975  1.00  0.00    -0.237 OA
ATOM     71  O   UNL     1      -2.795  15.073  15.468  1.00  0.00    -0.744 OA
ENDBRANCH  67  68
ENDBRANCH  48  62
BRANCH  49  72
ATOM     72  C   UNL     1      -4.327  13.833   0.582  1.00  0.00    -0.014 A 
ATOM     73  C   UNL     1      -3.728  14.672  -0.374  1.00  0.00     0.010 A 
ATOM     74  C   UNL     1      -5.210  12.826   0.151  1.00  0.00     0.010 A 
ATOM     75  C   UNL     1      -4.014  14.514  -1.734  1.00  0.00     0.020 A 
ATOM     76  C   UNL     1      -5.479  12.649  -1.209  1.00  0.00     0.020 A 
ATOM     77  C   UNL     1      -4.886  13.501  -2.143  1.00  0.00     0.054 A 
BRANCH  77  78
ATOM     78  S   UNL     1      -5.192  13.272  -3.917  1.00  0.00     0.124 S 
ATOM     79  O   UNL     1      -6.083  14.388  -4.218  1.00  0.00    -0.237 OA
ATOM     80  O   UNL     1      -3.849  13.363  -4.484  1.00  0.00    -0.237 OA
ATOM     81  O   UNL     1      -5.801  11.945  -3.990  1.00  0.00    -0.744 OA
ENDBRANCH  77  78
ENDBRANCH  49  72
BRANCH  61  82
ATOM     82  C   UNL     1      -5.854  18.698   5.344  1.00  0.00    -0.014 A 
ATOM     83  C   UNL     1      -7.255  18.732   5.232  1.00  0.00     0.010 A 
ATOM     84  C   UNL     1      -5.144  19.908   5.445  1.00  0.00     0.010 A 
ATOM     85  C   UNL     1      -7.930  19.956   5.195  1.00  0.00     0.020 A 
ATOM     86  C   UNL     1      -5.817  21.132   5.433  1.00  0.00     0.020 A 
ATOM     87  C   UNL     1      -7.206  21.148   5.295  1.00  0.00     0.054 A 
BRANCH  87  88
ATOM     88  S   UNL     1      -8.108  22.722   5.293  1.00  0.00     0.124 S 
ATOM     89  O   UNL     1      -8.465  22.866   3.884  1.00  0.00    -0.237 OA
ATOM     90  O   UNL     1      -9.223  22.456   6.199  1.00  0.00    -0.237 OA
ATOM     91  O   UNL     1      -7.127  23.684   5.790  1.00  0.00    -0.744 OA
ENDBRANCH  87  88
ENDBRANCH  61  82
ENDBRANCH  35  36
ENDBRANCH  27  30
ENDBRANCH  25  26
ENDBRANCH  24  25
ENDBRANCH   1  24
TORSDOF 17
