REMARK SMILES CN(C)S(=O)(=O)c1ccc(NC(=O)[C@@H]2CCCC[C@@H]2C(=O)NCCCNC(=O)c2ccc(-c3c4nc(c(-c5ccc(S(=O)(=O)[O-])cc5)c5ccc([nH]5)c(-c5ccc(S(=O)(=O)[O-])cc5)c5nc(c(-c6ccc(S(=O)(=O)[O-])cc6)c6ccc3[nH]6)C=C5)C=C4)cc2)cc1
REMARK SMILES IDX 23 1 22 2 20 3 21 4 19 6 14 7 15 8 16 9 18 10 17 11 12 12
REMARK SMILES IDX 11 13 13 15 10 16 7 17 8 18 90 19 9 20 89 21 4 22 5 23 6 24
REMARK SMILES IDX 2 25 1 26 3 27 24 28 25 29 26 30 27 31 28 33 29 34 30 35
REMARK SMILES IDX 88 36 31 37 87 38 32 39 33 40 34 41 81 42 35 43 86 44 80 45
REMARK SMILES IDX 82 46 36 47 85 48 79 49 78 50 37 52 67 53 48 54 66 55 49 56
REMARK SMILES IDX 52 57 65 58 83 59 50 60 51 61 64 63 84 64 53 65 38 66 39 67
REMARK SMILES IDX 47 68 40 69 46 70 41 71 42 72 43 73 44 74 45 75 68 76 69 77
REMARK SMILES IDX 77 78 70 79 76 80 71 81 72 82 73 83 74 84 75 85 54 86 55 87
REMARK SMILES IDX 63 88 56 89 62 90 57 91 58 92 59 93 60 94 61 95
REMARK H PARENT 22 5 11 14 26 32 82 51 52 62
REMARK Flexibility Score: inf
ROOT
ATOM      1  C   UNL     1      -1.760  -7.977  -2.968  1.00  0.00     0.117 C 
ENDROOT
BRANCH   1   2
ATOM      2  N   UNL     1      -2.298  -6.720  -2.490  1.00  0.00    -0.356 N 
ATOM      3  C   UNL     1      -3.259  -5.891  -2.957  1.00  0.00     0.223 C 
ATOM      4  O   UNL     1      -3.660  -5.056  -2.138  1.00  0.00    -0.275 OA
ATOM      5  H   UNL     1      -1.879  -6.405  -1.657  1.00  0.00     0.163 HD
BRANCH   3   6
ATOM      6  C   UNL     1      -3.841  -5.967  -4.377  1.00  0.00     0.091 C 
ATOM      7  C   UNL     1      -2.991  -5.516  -5.595  1.00  0.00     0.091 C 
ATOM      8  C   UNL     1      -3.045  -4.051  -6.083  1.00  0.00     0.014 C 
ATOM      9  C   UNL     1      -4.332  -3.290  -5.783  1.00  0.00     0.001 C 
ATOM     10  C   UNL     1      -5.190  -5.210  -4.405  1.00  0.00     0.014 C 
ATOM     11  C   UNL     1      -5.006  -3.695  -4.484  1.00  0.00     0.001 C 
BRANCH   7  12
ATOM     12  C   UNL     1      -1.608  -6.147  -5.697  1.00  0.00     0.228 C 
ATOM     13  N   UNL     1      -0.455  -5.655  -5.176  1.00  0.00    -0.326 N 
ATOM     14  H   UNL     1       0.332  -6.165  -5.475  1.00  0.00     0.169 HD
ATOM     15  O   UNL     1      -1.508  -7.223  -6.306  1.00  0.00    -0.274 OA
BRANCH  13  16
ATOM     16  C   UNL     1      -0.105  -4.602  -4.317  1.00  0.00     0.041 A 
ATOM     17  C   UNL     1       0.740  -2.406  -2.780  1.00  0.00     0.082 A 
ATOM     18  C   UNL     1      -0.610  -2.662  -2.959  1.00  0.00     0.024 A 
ATOM     19  C   UNL     1       1.687  -3.264  -3.343  1.00  0.00     0.024 A 
ATOM     20  C   UNL     1      -1.016  -3.780  -3.672  1.00  0.00     0.027 A 
ATOM     21  C   UNL     1       1.260  -4.358  -4.112  1.00  0.00     0.027 A 
BRANCH  17  22
ATOM     22  S   UNL     1       1.223  -0.879  -2.019  1.00  0.00     0.242 S 
ATOM     23  O   UNL     1       0.484   0.176  -2.691  1.00  0.00    -0.207 OA
ATOM     24  O   UNL     1       2.666  -0.868  -1.960  1.00  0.00    -0.207 OA
BRANCH  22  25
ATOM     25  N   UNL     1       0.648  -0.958  -0.396  1.00  0.00    -0.204 NA
ATOM     26  C   UNL     1       1.187   0.180   0.399  1.00  0.00     0.124 C 
ATOM     27  C   UNL     1      -0.818  -1.060  -0.211  1.00  0.00     0.124 C 
ENDBRANCH  22  25
ENDBRANCH  17  22
ENDBRANCH  13  16
ENDBRANCH   7  12
ENDBRANCH   3   6
ENDBRANCH   1   2
BRANCH   1  28
ATOM     28  C   UNL     1      -0.230  -8.086  -2.865  1.00  0.00     0.042 C 
BRANCH  28  29
ATOM     29  C   UNL     1       0.399  -7.512  -1.586  1.00  0.00     0.118 C 
BRANCH  29  30
ATOM     30  N   UNL     1       1.464  -8.384  -1.119  1.00  0.00    -0.352 N 
ATOM     31  C   UNL     1       2.817  -8.361  -1.320  1.00  0.00     0.251 C 
ATOM     32  H   UNL     1       1.154  -9.128  -0.554  1.00  0.00     0.163 HD
ATOM     33  O   UNL     1       3.419  -9.432  -1.231  1.00  0.00    -0.269 OA
BRANCH  31  34
ATOM     34  C   UNL     1       3.592  -7.122  -1.589  1.00  0.00     0.039 A 
ATOM     35  C   UNL     1       4.785  -7.252  -2.314  1.00  0.00     0.014 A 
ATOM     36  C   UNL     1       3.297  -5.894  -0.988  1.00  0.00     0.014 A 
ATOM     37  C   UNL     1       5.680  -6.181  -2.421  1.00  0.00     0.010 A 
ATOM     38  C   UNL     1       4.179  -4.807  -1.130  1.00  0.00     0.010 A 
ATOM     39  C   UNL     1       5.392  -4.943  -1.827  1.00  0.00    -0.014 A 
BRANCH  39  40
ATOM     40  C   UNL     1       6.369  -3.817  -1.914  1.00  0.00     0.031 A 
ATOM     41  C   UNL     1       7.073  -3.300  -0.682  1.00  0.00     0.074 A 
ATOM     42  C   UNL     1       6.638  -3.249  -3.108  1.00  0.00     0.049 A 
ATOM     43  N   UNL     1       7.939  -2.322  -0.571  1.00  0.00    -0.248 NA
ATOM     44  C   UNL     1       6.764  -3.968   0.592  1.00  0.00     0.031 C 
ATOM     45  C   UNL     1       6.043  -3.644  -4.386  1.00  0.00     0.029 A 
ATOM     46  N   UNL     1       7.482  -2.216  -3.442  1.00  0.00    -0.354 N 
ATOM     47  C   UNL     1       8.259  -2.239   0.780  1.00  0.00     0.074 A 
ATOM     48  C   UNL     1       7.475  -3.253   1.455  1.00  0.00     0.031 C 
ATOM     49  C   UNL     1       6.548  -2.875  -5.363  1.00  0.00     0.029 A 
ATOM     50  C   UNL     1       7.470  -1.902  -4.781  1.00  0.00     0.049 A 
ATOM     51  H   UNL     1       8.043  -1.746  -2.784  1.00  0.00     0.167 HD
ATOM     52  C   UNL     1       9.128  -1.406   1.406  1.00  0.00     0.031 A 
ATOM     53  C   UNL     1       8.110  -0.935  -5.468  1.00  0.00     0.031 A 
ATOM     54  C   UNL     1       9.916  -0.399   0.741  1.00  0.00     0.049 A 
ATOM     55  C   UNL     1       9.039   0.004  -4.747  1.00  0.00     0.074 A 
ATOM     56  C   UNL     1      10.858   0.456   1.291  1.00  0.00     0.029 A 
ATOM     57  N   UNL     1       9.853  -0.102  -0.611  1.00  0.00    -0.354 N 
ATOM     58  N   UNL     1       9.366   0.027  -3.478  1.00  0.00    -0.248 NA
ATOM     59  C   UNL     1       9.693   1.044  -5.556  1.00  0.00     0.031 C 
ATOM     60  C   UNL     1      11.323   1.306   0.282  1.00  0.00     0.029 A 
ATOM     61  C   UNL     1      10.716   0.942  -0.908  1.00  0.00     0.049 A 
ATOM     62  H   UNL     1       9.279  -0.563  -1.264  1.00  0.00     0.167 HD
ATOM     63  C   UNL     1      10.278   1.068  -3.340  1.00  0.00     0.074 A 
ATOM     64  C   UNL     1      10.467   1.638  -4.658  1.00  0.00     0.031 C 
ATOM     65  C   UNL     1      10.902   1.509  -2.220  1.00  0.00     0.031 A 
BRANCH  52  66
ATOM     66  C   UNL     1       9.264  -1.529   2.904  1.00  0.00    -0.014 A 
ATOM     67  C   UNL     1       9.904  -2.636   3.490  1.00  0.00     0.010 A 
ATOM     68  C   UNL     1       8.796  -0.493   3.734  1.00  0.00     0.010 A 
ATOM     69  C   UNL     1      10.034  -2.725   4.880  1.00  0.00     0.020 A 
ATOM     70  C   UNL     1       8.949  -0.565   5.122  1.00  0.00     0.020 A 
ATOM     71  C   UNL     1       9.550  -1.691   5.688  1.00  0.00     0.054 A 
BRANCH  71  72
ATOM     72  S   UNL     1       9.744  -1.827   7.487  1.00  0.00     0.124 S 
ATOM     73  O   UNL     1       8.757  -2.852   7.818  1.00  0.00    -0.237 OA
ATOM     74  O   UNL     1      11.140  -2.231   7.630  1.00  0.00    -0.237 OA
ATOM     75  O   UNL     1       9.434  -0.485   7.973  1.00  0.00    -0.744 OA
ENDBRANCH  71  72
ENDBRANCH  52  66
BRANCH  53  76
ATOM     76  C   UNL     1       7.885  -0.799  -6.934  1.00  0.00    -0.014 A 
ATOM     77  C   UNL     1       8.903  -1.123  -7.848  1.00  0.00     0.010 A 
ATOM     78  C   UNL     1       6.644  -0.352  -7.423  1.00  0.00     0.010 A 
ATOM     79  C   UNL     1       8.688  -0.990  -9.223  1.00  0.00     0.020 A 
ATOM     80  C   UNL     1       6.415  -0.246  -8.797  1.00  0.00     0.020 A 
ATOM     81  C   UNL     1       7.443  -0.556  -9.689  1.00  0.00     0.054 A 
BRANCH  81  82
ATOM     82  S   UNL     1       7.167  -0.449 -11.479  1.00  0.00     0.124 S 
ATOM     83  O   UNL     1       7.930   0.744 -11.834  1.00  0.00    -0.237 OA
ATOM     84  O   UNL     1       7.713  -1.716 -11.959  1.00  0.00    -0.237 OA
ATOM     85  O   UNL     1       5.716  -0.323 -11.595  1.00  0.00    -0.744 OA
ENDBRANCH  81  82
ENDBRANCH  53  76
BRANCH  65  86
ATOM     86  C   UNL     1      11.877   2.650  -2.365  1.00  0.00    -0.014 A 
ATOM     87  C   UNL     1      11.434   3.962  -2.608  1.00  0.00     0.010 A 
ATOM     88  C   UNL     1      13.254   2.415  -2.195  1.00  0.00     0.010 A 
ATOM     89  C   UNL     1      12.351   5.013  -2.704  1.00  0.00     0.020 A 
ATOM     90  C   UNL     1      14.172   3.467  -2.263  1.00  0.00     0.020 A 
ATOM     91  C   UNL     1      13.715   4.759  -2.529  1.00  0.00     0.054 A 
BRANCH  91  92
ATOM     92  S   UNL     1      14.881   6.148  -2.604  1.00  0.00     0.124 S 
ATOM     93  O   UNL     1      14.910   6.444  -4.034  1.00  0.00    -0.237 OA
ATOM     94  O   UNL     1      14.234   7.156  -1.767  1.00  0.00    -0.237 OA
ATOM     95  O   UNL     1      16.117   5.594  -2.058  1.00  0.00    -0.744 OA
ENDBRANCH  91  92
ENDBRANCH  65  86
ENDBRANCH  39  40
ENDBRANCH  31  34
ENDBRANCH  29  30
ENDBRANCH  28  29
ENDBRANCH   1  28
TORSDOF 17
