REMARK SMILES Nc1nc(SCc2c(C(=O)NCCCNC(=O)c3ccc(-c4c5nc(c(-c6ccc(S(=O)(=O)[O-])cc6)c6ccc([nH]6)c(-c6ccc(S(=O)(=O)[O-])cc6)c6nc(c(-c7ccc(S(=O)(=O)[O-])cc7)c7ccc4[nH]7)C=C6)C=C5)cc3)sc3cccc(F)c23)n[nH]1
REMARK SMILES IDX 12 1 11 2 9 3 10 4 8 6 7 7 85 8 78 9 79 10 83 11 80 12 82 13
REMARK SMILES IDX 84 14 81 15 6 16 5 17 4 18 2 19 3 20 87 21 86 22 1 24 13 27
REMARK SMILES IDX 14 28 15 29 16 30 17 32 18 33 19 34 77 35 20 36 76 37 21 38
REMARK SMILES IDX 22 39 23 40 70 41 24 42 75 43 69 44 71 45 25 46 74 47 68 48
REMARK SMILES IDX 67 49 26 51 56 52 37 53 55 54 38 55 41 56 54 57 72 58 39 59
REMARK SMILES IDX 40 60 53 62 73 63 42 64 27 65 28 66 36 67 29 68 35 69 30 70
REMARK SMILES IDX 31 71 32 72 33 73 34 74 57 75 58 76 66 77 59 78 65 79 60 80
REMARK SMILES IDX 61 81 62 82 63 83 64 84 43 85 44 86 52 87 45 88 51 89 46 90
REMARK SMILES IDX 47 91 48 92 49 93 50 94
REMARK H PARENT 11 5 87 23 1 25 1 26 15 31 71 50 41 61
REMARK Flexibility Score: inf
ROOT
ATOM      1  C   UNL     1       0.648   2.803   1.158  1.00  0.00     0.118 C 
ENDROOT
BRANCH   1   2
ATOM      2  N   UNL     1      -0.388   2.136   0.392  1.00  0.00    -0.351 N 
ATOM      3  C   UNL     1      -0.577   2.056  -0.973  1.00  0.00     0.261 C 
ATOM      4  O   UNL     1      -1.489   1.306  -1.356  1.00  0.00    -0.268 OA
ATOM      5  H   UNL     1      -1.064   1.666   0.932  1.00  0.00     0.163 HD
BRANCH   3   6
ATOM      6  C   UNL     1       0.157   2.925  -1.864  1.00  0.00     0.097 A 
ATOM      7  C   UNL     1       1.449   3.438  -1.915  1.00  0.00    -0.003 A 
ATOM      8  C   UNL     1       1.268   4.842  -2.296  1.00  0.00     0.033 A 
ATOM      9  S   UNL     1      -0.676   3.502  -3.265  1.00  0.00    -0.130 S 
ATOM     10  C   UNL     1       0.151   4.997  -3.124  1.00  0.00     0.038 A 
ATOM     11  C   UNL     1       1.975   6.023  -1.970  1.00  0.00     0.132 A 
ATOM     12  C   UNL     1      -0.216   6.229  -3.696  1.00  0.00     0.020 A 
ATOM     13  C   UNL     1       1.543   7.276  -2.420  1.00  0.00     0.040 A 
ATOM     14  F   UNL     1       3.001   5.973  -1.107  1.00  0.00    -0.206 F 
ATOM     15  C   UNL     1       0.469   7.375  -3.295  1.00  0.00     0.005 A 
BRANCH   7  16
ATOM     16  C   UNL     1       2.737   2.855  -1.392  1.00  0.00     0.116 C 
BRANCH  16  17
ATOM     17  S   UNL     1       3.210   1.202  -1.948  1.00  0.00    -0.080 SA
BRANCH  17  18
ATOM     18  C   UNL     1       2.129  -0.013  -1.320  1.00  0.00     0.210 A 
ATOM     19  C   UNL     1       0.547  -0.996  -0.324  1.00  0.00     0.216 A 
ATOM     20  N   UNL     1       1.271   0.100  -0.263  1.00  0.00    -0.186 NA
ATOM     21  N   UNL     1       1.087  -1.816  -1.270  1.00  0.00    -0.245 N 
ATOM     22  N   UNL     1       2.097  -1.212  -1.916  1.00  0.00    -0.145 NA
ATOM     23  H   UNL     1       0.777  -2.732  -1.454  1.00  0.00     0.193 HD
BRANCH  19  24
ATOM     24  N   UNL     1      -0.561  -1.331   0.355  1.00  0.00    -0.368 N 
ATOM     25  H   UNL     1      -0.927  -0.717   1.032  1.00  0.00     0.159 HD
ATOM     26  H   UNL     1      -1.007  -2.190   0.177  1.00  0.00     0.159 HD
ENDBRANCH  19  24
ENDBRANCH  17  18
ENDBRANCH  16  17
ENDBRANCH   7  16
ENDBRANCH   3   6
ENDBRANCH   1   2
BRANCH   1  27
ATOM     27  C   UNL     1       0.584   2.550   2.664  1.00  0.00     0.042 C 
BRANCH  27  28
ATOM     28  C   UNL     1       1.224   1.219   3.080  1.00  0.00     0.118 C 
BRANCH  28  29
ATOM     29  N   UNL     1       2.689   1.219   3.049  1.00  0.00    -0.352 N 
ATOM     30  C   UNL     1       3.532   0.227   3.510  1.00  0.00     0.251 C 
ATOM     31  H   UNL     1       3.119   2.013   2.657  1.00  0.00     0.163 HD
ATOM     32  O   UNL     1       4.733   0.449   3.681  1.00  0.00    -0.269 OA
BRANCH  30  33
ATOM     33  C   UNL     1       2.972  -1.105   3.803  1.00  0.00     0.039 A 
ATOM     34  C   UNL     1       3.176  -1.729   5.035  1.00  0.00     0.014 A 
ATOM     35  C   UNL     1       2.191  -1.714   2.824  1.00  0.00     0.014 A 
ATOM     36  C   UNL     1       2.494  -2.915   5.316  1.00  0.00     0.010 A 
ATOM     37  C   UNL     1       1.465  -2.850   3.123  1.00  0.00     0.010 A 
ATOM     38  C   UNL     1       1.610  -3.459   4.371  1.00  0.00    -0.014 A 
BRANCH  38  39
ATOM     39  C   UNL     1       0.740  -4.581   4.735  1.00  0.00     0.031 A 
ATOM     40  C   UNL     1      -0.212  -4.346   5.867  1.00  0.00     0.074 A 
ATOM     41  C   UNL     1       0.563  -5.674   3.963  1.00  0.00     0.049 A 
ATOM     42  N   UNL     1      -0.306  -4.986   6.988  1.00  0.00    -0.248 NA
ATOM     43  C   UNL     1      -1.161  -3.228   5.741  1.00  0.00     0.031 C 
ATOM     44  C   UNL     1       1.115  -5.945   2.632  1.00  0.00     0.029 A 
ATOM     45  N   UNL     1      -0.275  -6.729   4.167  1.00  0.00    -0.354 N 
ATOM     46  C   UNL     1      -1.415  -4.460   7.652  1.00  0.00     0.074 A 
ATOM     47  C   UNL     1      -1.838  -3.312   6.888  1.00  0.00     0.031 C 
ATOM     48  C   UNL     1       0.421  -6.954   2.058  1.00  0.00     0.029 A 
ATOM     49  C   UNL     1      -0.503  -7.501   3.036  1.00  0.00     0.049 A 
ATOM     50  H   UNL     1      -0.683  -6.927   5.041  1.00  0.00     0.167 HD
ATOM     51  C   UNL     1      -2.025  -5.090   8.697  1.00  0.00     0.031 A 
ATOM     52  C   UNL     1      -1.423  -8.487   2.902  1.00  0.00     0.031 A 
ATOM     53  C   UNL     1      -1.248  -6.180   9.215  1.00  0.00     0.049 A 
ATOM     54  C   UNL     1      -1.770  -8.947   4.268  1.00  0.00     0.074 A 
ATOM     55  C   UNL     1      -0.004  -6.304   9.800  1.00  0.00     0.029 A 
ATOM     56  N   UNL     1      -1.611  -7.450   8.834  1.00  0.00    -0.354 N 
ATOM     57  N   UNL     1      -0.923  -9.528   5.072  1.00  0.00    -0.248 NA
ATOM     58  C   UNL     1      -2.970  -8.426   4.902  1.00  0.00     0.031 C 
ATOM     59  C   UNL     1       0.517  -7.532   9.294  1.00  0.00     0.029 A 
ATOM     60  C   UNL     1      -0.458  -8.095   8.466  1.00  0.00     0.049 A 
ATOM     61  H   UNL     1      -2.522  -7.823   8.826  1.00  0.00     0.167 HD
ATOM     62  C   UNL     1      -1.276  -9.093   6.340  1.00  0.00     0.074 A 
ATOM     63  C   UNL     1      -2.608  -8.517   6.184  1.00  0.00     0.031 C 
ATOM     64  C   UNL     1      -0.350  -8.998   7.340  1.00  0.00     0.031 A 
BRANCH  51  65
ATOM     65  C   UNL     1      -3.482  -4.927   9.051  1.00  0.00    -0.014 A 
ATOM     66  C   UNL     1      -3.960  -5.415  10.285  1.00  0.00     0.010 A 
ATOM     67  C   UNL     1      -4.444  -4.549   8.092  1.00  0.00     0.010 A 
ATOM     68  C   UNL     1      -5.335  -5.554  10.529  1.00  0.00     0.020 A 
ATOM     69  C   UNL     1      -5.816  -4.646   8.341  1.00  0.00     0.020 A 
ATOM     70  C   UNL     1      -6.254  -5.176   9.548  1.00  0.00     0.054 A 
BRANCH  70  71
ATOM     71  S   UNL     1      -8.019  -5.480   9.823  1.00  0.00     0.124 S 
ATOM     72  O   UNL     1      -8.053  -6.926  10.022  1.00  0.00    -0.237 OA
ATOM     73  O   UNL     1      -8.290  -4.670  11.007  1.00  0.00    -0.237 OA
ATOM     74  O   UNL     1      -8.645  -5.005   8.591  1.00  0.00    -0.744 OA
ENDBRANCH  70  71
ENDBRANCH  51  65
BRANCH  52  75
ATOM     75  C   UNL     1      -2.231  -8.830   1.705  1.00  0.00    -0.014 A 
ATOM     76  C   UNL     1      -3.035  -9.986   1.690  1.00  0.00     0.010 A 
ATOM     77  C   UNL     1      -2.440  -7.876   0.687  1.00  0.00     0.010 A 
ATOM     78  C   UNL     1      -4.066 -10.139   0.749  1.00  0.00     0.020 A 
ATOM     79  C   UNL     1      -3.458  -8.027  -0.262  1.00  0.00     0.020 A 
ATOM     80  C   UNL     1      -4.291  -9.140  -0.201  1.00  0.00     0.054 A 
BRANCH  80  81
ATOM     81  S   UNL     1      -5.749  -9.250  -1.280  1.00  0.00     0.124 S 
ATOM     82  O   UNL     1      -5.521 -10.504  -1.990  1.00  0.00    -0.237 OA
ATOM     83  O   UNL     1      -6.845  -9.256  -0.316  1.00  0.00    -0.237 OA
ATOM     84  O   UNL     1      -5.657  -8.045  -2.104  1.00  0.00    -0.744 OA
ENDBRANCH  80  81
ENDBRANCH  52  75
BRANCH  64  85
ATOM     85  C   UNL     1       1.001  -9.641   7.133  1.00  0.00    -0.014 A 
ATOM     86  C   UNL     1       1.923  -9.197   6.164  1.00  0.00     0.010 A 
ATOM     87  C   UNL     1       1.422 -10.598   8.072  1.00  0.00     0.010 A 
ATOM     88  C   UNL     1       3.232  -9.700   6.137  1.00  0.00     0.020 A 
ATOM     89  C   UNL     1       2.729 -11.093   8.059  1.00  0.00     0.020 A 
ATOM     90  C   UNL     1       3.630 -10.637   7.096  1.00  0.00     0.054 A 
BRANCH  90  91
ATOM     91  S   UNL     1       5.348 -11.226   7.103  1.00  0.00     0.124 S 
ATOM     92  O   UNL     1       5.493 -11.814   5.774  1.00  0.00    -0.237 OA
ATOM     93  O   UNL     1       6.104  -9.998   7.333  1.00  0.00    -0.237 OA
ATOM     94  O   UNL     1       5.384 -12.184   8.207  1.00  0.00    -0.744 OA
ENDBRANCH  90  91
ENDBRANCH  64  85
ENDBRANCH  38  39
ENDBRANCH  30  33
ENDBRANCH  28  29
ENDBRANCH  27  28
ENDBRANCH   1  27
TORSDOF 17
