REMARK SMILES CC1=C(CC(=O)NCCCNC(=O)c2ccc(-c3c4nc(c(-c5ccc(S(=O)(=O)[O-])cc5)c5ccc([nH]5)c(-c5ccc(S(=O)(=O)[O-])cc5)c5nc(c(-c6ccc(S(=O)(=O)[O-])cc6)c6ccc3[nH]6)C=C5)C=C4)cc2)c2cc(F)ccc2/C1=C\c1ccc([S@@+](C)[O-])cc1
REMARK SMILES IDX 9 1 8 2 7 3 5 4 6 5 4 7 3 8 1 9 2 10 81 11 74 12 80 13 82 14
REMARK SMILES IDX 75 15 79 16 76 17 78 18 77 19 83 20 84 21 91 22 85 23 90 24
REMARK SMILES IDX 86 25 87 26 88 27 89 28 10 29 11 30 12 31 13 33 14 34 15 35
REMARK SMILES IDX 73 36 16 37 72 38 17 39 18 40 19 41 66 42 20 43 71 44 65 45
REMARK SMILES IDX 67 46 21 47 70 48 64 49 63 50 22 52 52 53 33 54 51 55 34 56
REMARK SMILES IDX 37 57 50 58 68 59 35 60 36 61 49 63 69 64 38 65 23 66 24 67
REMARK SMILES IDX 32 68 25 69 31 70 26 71 27 72 28 73 29 74 30 75 53 76 54 77
REMARK SMILES IDX 62 78 55 79 61 80 56 81 57 82 58 83 59 84 60 85 39 86 40 87
REMARK SMILES IDX 48 88 41 89 47 90 42 91 43 92 44 93 45 94 46 95
REMARK H PARENT 7 6 11 32 67 51 37 62
REMARK Flexibility Score: inf
ROOT
ATOM      1  C   UNL     1      -2.078  -1.972   1.423  1.00  0.00     0.042 C 
ENDROOT
BRANCH   1   2
ATOM      2  C   UNL     1      -0.826  -2.059   2.288  1.00  0.00     0.117 C 
BRANCH   2   3
ATOM      3  N   UNL     1      -0.197  -3.364   2.225  1.00  0.00    -0.356 N 
ATOM      4  C   UNL     1       0.875  -3.768   1.486  1.00  0.00     0.224 C 
ATOM      5  O   UNL     1       1.247  -4.939   1.597  1.00  0.00    -0.275 OA
ATOM      6  H   UNL     1      -0.602  -4.056   2.797  1.00  0.00     0.163 HD
BRANCH   4   7
ATOM      7  C   UNL     1       1.616  -2.783   0.584  1.00  0.00     0.136 C 
BRANCH   7   8
ATOM      8  C   UNL     1       0.854  -2.390  -0.641  1.00  0.00    -0.027 C 
ATOM      9  C   UNL     1       0.922   0.141  -0.431  1.00  0.00     0.045 C 
ATOM     10  C   UNL     1       0.518  -1.148  -1.067  1.00  0.00    -0.039 C 
ATOM     11  C   UNL     1      -0.262  -1.247  -2.312  1.00  0.00    -0.014 C 
ATOM     12  C   UNL     1       0.392  -3.355  -1.654  1.00  0.00    -0.011 A 
ATOM     13  C   UNL     1      -0.236  -2.669  -2.711  1.00  0.00    -0.010 A 
ATOM     14  C   UNL     1      -0.918  -0.223  -2.896  1.00  0.00     0.017 C 
ATOM     15  C   UNL     1       0.543  -4.735  -1.698  1.00  0.00     0.048 A 
ATOM     16  C   UNL     1      -0.655  -3.356  -3.843  1.00  0.00     0.012 A 
ATOM     17  C   UNL     1       0.067  -5.418  -2.813  1.00  0.00     0.123 A 
ATOM     18  C   UNL     1      -0.517  -4.745  -3.885  1.00  0.00     0.040 A 
ATOM     19  F   UNL     1       0.193  -6.750  -2.870  1.00  0.00    -0.207 F 
BRANCH  14  20
ATOM     20  C   UNL     1      -1.728  -0.319  -4.116  1.00  0.00    -0.025 A 
ATOM     21  C   UNL     1      -2.949  -1.003  -4.122  1.00  0.00     0.013 A 
ATOM     22  C   UNL     1      -1.213   0.180  -5.315  1.00  0.00     0.013 A 
ATOM     23  C   UNL     1      -3.576  -1.309  -5.336  1.00  0.00     0.061 A 
ATOM     24  C   UNL     1      -1.850  -0.111  -6.524  1.00  0.00     0.061 A 
ATOM     25  C   UNL     1      -3.006  -0.900  -6.547  1.00  0.00     0.152 A 
BRANCH  25  26
ATOM     26  S   UNL     1      -3.628  -1.554  -8.116  1.00  0.00    -0.018 S 
ATOM     27  C   UNL     1      -5.285  -0.847  -8.091  1.00  0.00     0.346 C 
ATOM     28  O   UNL     1      -2.801  -0.874  -9.265  1.00  0.00    -0.612 OA
ENDBRANCH  25  26
ENDBRANCH  14  20
ENDBRANCH   7   8
ENDBRANCH   4   7
ENDBRANCH   2   3
ENDBRANCH   1   2
BRANCH   1  29
ATOM     29  C   UNL     1      -3.239  -2.824   1.923  1.00  0.00     0.118 C 
BRANCH  29  30
ATOM     30  N   UNL     1      -3.788  -2.352   3.189  1.00  0.00    -0.352 N 
ATOM     31  C   UNL     1      -5.066  -1.961   3.509  1.00  0.00     0.251 C 
ATOM     32  H   UNL     1      -3.141  -2.305   3.930  1.00  0.00     0.163 HD
ATOM     33  O   UNL     1      -5.283  -1.442   4.602  1.00  0.00    -0.269 OA
BRANCH  31  34
ATOM     34  C   UNL     1      -6.169  -2.130   2.537  1.00  0.00     0.039 A 
ATOM     35  C   UNL     1      -6.296  -3.303   1.791  1.00  0.00     0.014 A 
ATOM     36  C   UNL     1      -7.093  -1.094   2.368  1.00  0.00     0.014 A 
ATOM     37  C   UNL     1      -7.226  -3.368   0.759  1.00  0.00     0.010 A 
ATOM     38  C   UNL     1      -8.083  -1.196   1.386  1.00  0.00     0.010 A 
ATOM     39  C   UNL     1      -8.124  -2.312   0.536  1.00  0.00    -0.014 A 
BRANCH  39  40
ATOM     40  C   UNL     1      -9.086  -2.394  -0.595  1.00  0.00     0.031 A 
ATOM     41  C   UNL     1      -8.998  -1.431  -1.750  1.00  0.00     0.074 A 
ATOM     42  C   UNL     1     -10.008  -3.378  -0.609  1.00  0.00     0.049 A 
ATOM     43  N   UNL     1      -9.727  -1.387  -2.836  1.00  0.00    -0.248 NA
ATOM     44  C   UNL     1      -7.963  -0.385  -1.686  1.00  0.00     0.031 C 
ATOM     45  C   UNL     1     -10.186  -4.375   0.449  1.00  0.00     0.029 A 
ATOM     46  N   UNL     1     -10.950  -3.718  -1.548  1.00  0.00    -0.354 N 
ATOM     47  C   UNL     1      -9.261  -0.301  -3.567  1.00  0.00     0.074 A 
ATOM     48  C   UNL     1      -8.196   0.301  -2.797  1.00  0.00     0.031 C 
ATOM     49  C   UNL     1     -11.138  -5.243   0.077  1.00  0.00     0.029 A 
ATOM     50  C   UNL     1     -11.684  -4.831  -1.213  1.00  0.00     0.049 A 
ATOM     51  H   UNL     1     -11.086  -3.213  -2.382  1.00  0.00     0.167 HD
ATOM     52  C   UNL     1      -9.676   0.142  -4.776  1.00  0.00     0.031 A 
ATOM     53  C   UNL     1     -12.693  -5.452  -1.857  1.00  0.00     0.031 A 
ATOM     54  C   UNL     1     -10.718  -0.479  -5.552  1.00  0.00     0.049 A 
ATOM     55  C   UNL     1     -13.146  -4.929  -3.189  1.00  0.00     0.074 A 
ATOM     56  C   UNL     1     -11.171  -0.121  -6.810  1.00  0.00     0.029 A 
ATOM     57  N   UNL     1     -11.466  -1.576  -5.154  1.00  0.00    -0.354 N 
ATOM     58  N   UNL     1     -12.668  -3.919  -3.877  1.00  0.00    -0.248 NA
ATOM     59  C   UNL     1     -14.269  -5.622  -3.836  1.00  0.00     0.031 C 
ATOM     60  C   UNL     1     -12.233  -0.961  -7.147  1.00  0.00     0.029 A 
ATOM     61  C   UNL     1     -12.397  -1.888  -6.130  1.00  0.00     0.049 A 
ATOM     62  H   UNL     1     -11.351  -2.061  -4.305  1.00  0.00     0.167 HD
ATOM     63  C   UNL     1     -13.431  -3.857  -5.037  1.00  0.00     0.074 A 
ATOM     64  C   UNL     1     -14.384  -4.945  -4.972  1.00  0.00     0.031 C 
ATOM     65  C   UNL     1     -13.348  -2.969  -6.057  1.00  0.00     0.031 A 
BRANCH  52  66
ATOM     66  C   UNL     1      -9.012   1.358  -5.367  1.00  0.00    -0.014 A 
ATOM     67  C   UNL     1      -9.751   2.546  -5.523  1.00  0.00     0.010 A 
ATOM     68  C   UNL     1      -7.718   1.281  -5.909  1.00  0.00     0.010 A 
ATOM     69  C   UNL     1      -9.229   3.616  -6.253  1.00  0.00     0.020 A 
ATOM     70  C   UNL     1      -7.182   2.359  -6.618  1.00  0.00     0.020 A 
ATOM     71  C   UNL     1      -7.954   3.508  -6.811  1.00  0.00     0.054 A 
BRANCH  71  72
ATOM     72  S   UNL     1      -7.316   4.880  -7.812  1.00  0.00     0.124 S 
ATOM     73  O   UNL     1      -8.076   4.733  -9.049  1.00  0.00    -0.237 OA
ATOM     74  O   UNL     1      -7.647   6.047  -6.999  1.00  0.00    -0.237 OA
ATOM     75  O   UNL     1      -5.888   4.588  -7.915  1.00  0.00    -0.744 OA
ENDBRANCH  71  72
ENDBRANCH  52  66
BRANCH  53  76
ATOM     76  C   UNL     1     -13.328  -6.640  -1.225  1.00  0.00    -0.014 A 
ATOM     77  C   UNL     1     -14.077  -6.493  -0.042  1.00  0.00     0.010 A 
ATOM     78  C   UNL     1     -13.112  -7.929  -1.741  1.00  0.00     0.010 A 
ATOM     79  C   UNL     1     -14.544  -7.613   0.648  1.00  0.00     0.020 A 
ATOM     80  C   UNL     1     -13.605  -9.053  -1.069  1.00  0.00     0.020 A 
ATOM     81  C   UNL     1     -14.290  -8.888   0.138  1.00  0.00     0.054 A 
BRANCH  81  82
ATOM     82  S   UNL     1     -14.856 -10.333   1.077  1.00  0.00     0.124 S 
ATOM     83  O   UNL     1     -13.828 -10.438   2.109  1.00  0.00    -0.237 OA
ATOM     84  O   UNL     1     -16.176  -9.917   1.544  1.00  0.00    -0.237 OA
ATOM     85  O   UNL     1     -14.858 -11.404   0.084  1.00  0.00    -0.744 OA
ENDBRANCH  81  82
ENDBRANCH  53  76
BRANCH  65  86
ATOM     86  C   UNL     1     -14.314  -3.107  -7.202  1.00  0.00    -0.014 A 
ATOM     87  C   UNL     1     -13.842  -3.485  -8.473  1.00  0.00     0.010 A 
ATOM     88  C   UNL     1     -15.658  -2.722  -7.056  1.00  0.00     0.010 A 
ATOM     89  C   UNL     1     -14.684  -3.436  -9.586  1.00  0.00     0.020 A 
ATOM     90  C   UNL     1     -16.512  -2.697  -8.163  1.00  0.00     0.020 A 
ATOM     91  C   UNL     1     -16.011  -3.028  -9.425  1.00  0.00     0.054 A 
BRANCH  91  92
ATOM     92  S   UNL     1     -17.079  -2.927 -10.887  1.00  0.00     0.124 S 
ATOM     93  O   UNL     1     -16.640  -1.678 -11.502  1.00  0.00    -0.237 OA
ATOM     94  O   UNL     1     -16.738  -4.144 -11.620  1.00  0.00    -0.237 OA
ATOM     95  O   UNL     1     -18.428  -2.907 -10.324  1.00  0.00    -0.744 OA
ENDBRANCH  91  92
ENDBRANCH  65  86
ENDBRANCH  39  40
ENDBRANCH  31  34
ENDBRANCH  29  30
ENDBRANCH   1  29
TORSDOF 16
