REMARK SMILES O=C(NCCCNC(=O)c1cccc(S(=O)(=O)Cc2cccc(O)c2)c1)c1ccc(-c2c3nc(c(-c4ccc(S(=O)(=O)[O-])cc4)c4ccc([nH]4)c(-c4ccc(S(=O)(=O)[O-])cc4)c4nc(c(-c5ccc(S(=O)(=O)[O-])cc5)c5ccc2[nH]5)C=C4)C=C3)cc1
REMARK SMILES IDX 5 1 4 2 3 3 1 4 2 5 27 7 28 8 86 9 29 10 85 11 30 12 31 13
REMARK SMILES IDX 32 14 79 15 33 16 84 17 78 18 80 19 34 20 83 21 77 22 76 23
REMARK SMILES IDX 35 25 65 26 46 27 64 28 47 29 50 30 63 31 81 32 48 33 49 34
REMARK SMILES IDX 62 36 82 37 51 38 36 39 37 40 45 41 38 42 44 43 39 44 40 45
REMARK SMILES IDX 41 46 42 47 43 48 66 49 67 50 75 51 68 52 74 53 69 54 70 55
REMARK SMILES IDX 71 56 72 57 73 58 52 59 53 60 61 61 54 62 60 63 55 64 56 65
REMARK SMILES IDX 57 66 58 67 59 68 6 69 7 70 8 71 9 73 10 74 11 75 26 76
REMARK SMILES IDX 12 77 14 78 13 79 15 80 16 81 17 82 18 83 19 84 20 85 25 86
REMARK SMILES IDX 21 87 23 88 22 89 24 90
REMARK H PARENT 3 6 80 24 50 35 7 72 24 91
REMARK Flexibility Score: inf
ROOT
ATOM      1  C   UNL     1       5.371  -1.651   1.450  1.00  0.00     0.042 C 
ENDROOT
BRANCH   1   2
ATOM      2  C   UNL     1       4.661  -1.730   0.106  1.00  0.00     0.118 C 
BRANCH   2   3
ATOM      3  N   UNL     1       3.240  -1.425   0.181  1.00  0.00    -0.352 N 
ATOM      4  O   UNL     1       1.309  -0.305   0.158  1.00  0.00    -0.269 OA
ATOM      5  C   UNL     1       2.507  -0.303  -0.122  1.00  0.00     0.251 C 
ATOM      6  H   UNL     1       2.694  -2.173   0.516  1.00  0.00     0.163 HD
BRANCH   5   7
ATOM      7  C   UNL     1       3.106   0.909  -0.739  1.00  0.00     0.039 A 
ATOM      8  C   UNL     1       4.122   0.848  -1.692  1.00  0.00     0.014 A 
ATOM      9  C   UNL     1       2.574   2.161  -0.400  1.00  0.00     0.014 A 
ATOM     10  C   UNL     1       4.716   2.018  -2.167  1.00  0.00     0.010 A 
ATOM     11  C   UNL     1       3.099   3.333  -0.960  1.00  0.00     0.010 A 
ATOM     12  C   UNL     1       4.205   3.276  -1.819  1.00  0.00    -0.014 A 
BRANCH  12  13
ATOM     13  C   UNL     1       4.807   4.512  -2.393  1.00  0.00     0.031 A 
ATOM     14  C   UNL     1       5.425   5.557  -1.501  1.00  0.00     0.074 A 
ATOM     15  C   UNL     1       4.804   4.695  -3.729  1.00  0.00     0.049 A 
ATOM     16  N   UNL     1       5.967   6.704  -1.828  1.00  0.00    -0.248 NA
ATOM     17  C   UNL     1       5.429   5.284  -0.056  1.00  0.00     0.031 C 
ATOM     18  C   UNL     1       4.237   3.763  -4.708  1.00  0.00     0.029 A 
ATOM     19  N   UNL     1       5.298   5.719  -4.498  1.00  0.00    -0.354 N 
ATOM     20  C   UNL     1       6.346   7.302  -0.632  1.00  0.00     0.074 A 
ATOM     21  C   UNL     1       5.955   6.400   0.430  1.00  0.00     0.031 C 
ATOM     22  C   UNL     1       4.450   4.238  -5.943  1.00  0.00     0.029 A 
ATOM     23  C   UNL     1       5.103   5.539  -5.847  1.00  0.00     0.049 A 
ATOM     24  H   UNL     1       5.749   6.508  -4.119  1.00  0.00     0.167 HD
ATOM     25  C   UNL     1       6.965   8.492  -0.433  1.00  0.00     0.031 A 
ATOM     26  C   UNL     1       5.390   6.335  -6.895  1.00  0.00     0.031 A 
ATOM     27  C   UNL     1       7.355   9.389  -1.490  1.00  0.00     0.049 A 
ATOM     28  C   UNL     1       6.053   7.659  -6.653  1.00  0.00     0.074 A 
ATOM     29  C   UNL     1       8.010  10.604  -1.389  1.00  0.00     0.029 A 
ATOM     30  N   UNL     1       7.123   9.172  -2.840  1.00  0.00    -0.354 N 
ATOM     31  N   UNL     1       6.422   8.195  -5.514  1.00  0.00    -0.248 NA
ATOM     32  C   UNL     1       6.339   8.486  -7.833  1.00  0.00     0.031 C 
ATOM     33  C   UNL     1       8.131  11.145  -2.674  1.00  0.00     0.029 A 
ATOM     34  C   UNL     1       7.603  10.239  -3.581  1.00  0.00     0.049 A 
ATOM     35  H   UNL     1       6.682   8.376  -3.217  1.00  0.00     0.167 HD
ATOM     36  C   UNL     1       7.003   9.414  -5.842  1.00  0.00     0.074 A 
ATOM     37  C   UNL     1       6.944   9.532  -7.285  1.00  0.00     0.031 C 
ATOM     38  C   UNL     1       7.540  10.347  -5.018  1.00  0.00     0.031 A 
BRANCH  25  39
ATOM     39  C   UNL     1       7.220   8.910   0.992  1.00  0.00    -0.014 A 
ATOM     40  C   UNL     1       8.192   8.270   1.782  1.00  0.00     0.010 A 
ATOM     41  C   UNL     1       6.482   9.972   1.547  1.00  0.00     0.010 A 
ATOM     42  C   UNL     1       8.379   8.643   3.116  1.00  0.00     0.020 A 
ATOM     43  C   UNL     1       6.685  10.367   2.872  1.00  0.00     0.020 A 
ATOM     44  C   UNL     1       7.615   9.682   3.656  1.00  0.00     0.054 A 
BRANCH  44  45
ATOM     45  S   UNL     1       7.862  10.136   5.395  1.00  0.00     0.124 S 
ATOM     46  O   UNL     1       7.184   9.043   6.088  1.00  0.00    -0.237 OA
ATOM     47  O   UNL     1       9.317  10.150   5.522  1.00  0.00    -0.237 OA
ATOM     48  O   UNL     1       7.217  11.441   5.508  1.00  0.00    -0.744 OA
ENDBRANCH  44  45
ENDBRANCH  25  39
BRANCH  26  49
ATOM     49  C   UNL     1       5.031   5.885  -8.267  1.00  0.00    -0.014 A 
ATOM     50  C   UNL     1       6.024   5.455  -9.163  1.00  0.00     0.010 A 
ATOM     51  C   UNL     1       3.680   5.813  -8.654  1.00  0.00     0.010 A 
ATOM     52  C   UNL     1       5.671   4.953 -10.420  1.00  0.00     0.020 A 
ATOM     53  C   UNL     1       3.322   5.287  -9.898  1.00  0.00     0.020 A 
ATOM     54  C   UNL     1       4.322   4.863 -10.775  1.00  0.00     0.054 A 
BRANCH  54  55
ATOM     55  S   UNL     1       3.883   4.114 -12.368  1.00  0.00     0.124 S 
ATOM     56  O   UNL     1       4.227   5.176 -13.308  1.00  0.00    -0.237 OA
ATOM     57  O   UNL     1       4.739   2.931 -12.408  1.00  0.00    -0.237 OA
ATOM     58  O   UNL     1       2.455   3.834 -12.232  1.00  0.00    -0.744 OA
ENDBRANCH  54  55
ENDBRANCH  26  49
BRANCH  38  59
ATOM     59  C   UNL     1       8.148  11.568  -5.652  1.00  0.00    -0.014 A 
ATOM     60  C   UNL     1       7.345  12.595  -6.176  1.00  0.00     0.010 A 
ATOM     61  C   UNL     1       9.547  11.720  -5.653  1.00  0.00     0.010 A 
ATOM     62  C   UNL     1       7.932  13.749  -6.704  1.00  0.00     0.020 A 
ATOM     63  C   UNL     1      10.136  12.881  -6.159  1.00  0.00     0.020 A 
ATOM     64  C   UNL     1       9.324  13.885  -6.689  1.00  0.00     0.054 A 
BRANCH  64  65
ATOM     65  S   UNL     1      10.060  15.420  -7.317  1.00  0.00     0.124 S 
ATOM     66  O   UNL     1       9.922  15.255  -8.761  1.00  0.00    -0.237 OA
ATOM     67  O   UNL     1       9.215  16.451  -6.719  1.00  0.00    -0.237 OA
ATOM     68  O   UNL     1      11.431  15.378  -6.813  1.00  0.00    -0.744 OA
ENDBRANCH  64  65
ENDBRANCH  38  59
ENDBRANCH  12  13
ENDBRANCH   5   7
ENDBRANCH   2   3
ENDBRANCH   1   2
BRANCH   1  69
ATOM     69  C   UNL     1       4.957  -2.717   2.455  1.00  0.00     0.118 C 
BRANCH  69  70
ATOM     70  N   UNL     1       5.308  -4.073   2.063  1.00  0.00    -0.352 N 
ATOM     71  C   UNL     1       5.833  -5.074   2.843  1.00  0.00     0.251 C 
ATOM     72  H   UNL     1       5.149  -4.302   1.118  1.00  0.00     0.163 HD
ATOM     73  O   UNL     1       6.130  -6.162   2.363  1.00  0.00    -0.269 OA
BRANCH  71  74
ATOM     74  C   UNL     1       6.069  -4.820   4.279  1.00  0.00     0.041 A 
ATOM     75  C   UNL     1       7.389  -4.822   4.740  1.00  0.00     0.014 A 
ATOM     76  C   UNL     1       5.000  -4.565   5.147  1.00  0.00     0.034 A 
ATOM     77  C   UNL     1       7.654  -4.517   6.074  1.00  0.00     0.002 A 
ATOM     78  C   UNL     1       5.279  -4.232   6.476  1.00  0.00     0.068 A 
ATOM     79  C   UNL     1       6.602  -4.208   6.938  1.00  0.00     0.020 A 
BRANCH  78  80
ATOM     80  S   UNL     1       3.994  -3.793   7.632  1.00  0.00     0.182 S 
ATOM     81  O   UNL     1       3.551  -5.064   8.184  1.00  0.00    -0.223 OA
ATOM     82  O   UNL     1       4.543  -2.777   8.510  1.00  0.00    -0.223 OA
BRANCH  80  83
ATOM     83  C   UNL     1       2.614  -3.101   6.754  1.00  0.00     0.177 C 
BRANCH  83  84
ATOM     84  C   UNL     1       2.782  -1.685   6.251  1.00  0.00    -0.029 A 
ATOM     85  C   UNL     1       3.877  -1.257   5.491  1.00  0.00     0.005 A 
ATOM     86  C   UNL     1       1.719  -0.779   6.430  1.00  0.00     0.051 A 
ATOM     87  C   UNL     1       3.894   0.003   4.883  1.00  0.00     0.004 A 
ATOM     88  C   UNL     1       1.758   0.487   5.844  1.00  0.00     0.115 A 
ATOM     89  C   UNL     1       2.825   0.873   5.049  1.00  0.00     0.046 A 
BRANCH  88  90
ATOM     90  O   UNL     1       0.747   1.383   6.022  1.00  0.00    -0.508 OA
ATOM     91  H   UNL     1       0.794   2.228   5.620  1.00  0.00     0.293 HD
ENDBRANCH  88  90
ENDBRANCH  83  84
ENDBRANCH  80  83
ENDBRANCH  78  80
ENDBRANCH  71  74
ENDBRANCH  69  70
ENDBRANCH   1  69
TORSDOF 17
