REMARK SMILES C[C@@H](C(=O)NCCCNC(=O)c1ccc(-c2c3nc(c(-c4ccc(S(=O)(=O)[O-])cc4)c4ccc([nH]4)c(-c4ccc(S(=O)(=O)[O-])cc4)c4nc(c(-c5ccc(S(=O)(=O)[O-])cc5)c5ccc2[nH]5)C=C4)C=C3)cc1)c1ccc(C[C@H]2CCC[C@@H]2O)cc1
REMARK SMILES IDX 6 1 5 2 3 3 4 4 2 6 1 7 72 8 73 9 84 10 74 11 83 12 75 13
REMARK SMILES IDX 76 14 77 15 78 16 81 17 79 18 80 19 82 20 7 22 8 23 9 24
REMARK SMILES IDX 10 25 11 27 12 28 13 29 71 30 14 31 70 32 15 33 16 34 17 35
REMARK SMILES IDX 64 36 18 37 69 38 63 39 65 40 19 41 68 42 62 43 61 44 20 46
REMARK SMILES IDX 50 47 31 48 49 49 32 50 35 51 48 52 66 53 33 54 34 55 47 57
REMARK SMILES IDX 67 58 36 59 21 60 22 61 30 62 23 63 29 64 24 65 25 66 26 67
REMARK SMILES IDX 27 68 28 69 51 70 52 71 60 72 53 73 59 74 54 75 55 76 56 77
REMARK SMILES IDX 57 78 58 79 37 80 38 81 46 82 39 83 45 84 40 85 41 86 42 87
REMARK SMILES IDX 43 88 44 89
REMARK H PARENT 5 5 82 21 9 26 65 45 35 56
REMARK Flexibility Score: inf
ROOT
ATOM      1  C   UNL     1       3.566   0.314  -2.027  1.00  0.00     0.117 C 
ENDROOT
BRANCH   1   2
ATOM      2  N   UNL     1       2.544  -0.481  -2.679  1.00  0.00    -0.356 N 
ATOM      3  C   UNL     1       1.207  -0.591  -2.427  1.00  0.00     0.227 C 
ATOM      4  O   UNL     1       0.583  -1.408  -3.106  1.00  0.00    -0.274 OA
ATOM      5  H   UNL     1       2.868  -1.033  -3.427  1.00  0.00     0.163 HD
BRANCH   3   6
ATOM      6  C   UNL     1       0.555   0.299  -1.359  1.00  0.00     0.105 C 
ATOM      7  C   UNL     1       0.947  -0.124   0.061  1.00  0.00     0.023 C 
BRANCH   6   8
ATOM      8  C   UNL     1      -0.966   0.340  -1.465  1.00  0.00    -0.036 A 
ATOM      9  C   UNL     1      -1.620   1.542  -1.762  1.00  0.00     0.005 A 
ATOM     10  C   UNL     1      -1.741  -0.801  -1.209  1.00  0.00     0.005 A 
ATOM     11  C   UNL     1      -3.014   1.615  -1.737  1.00  0.00     0.004 A 
ATOM     12  C   UNL     1      -3.131  -0.723  -1.173  1.00  0.00     0.004 A 
ATOM     13  C   UNL     1      -3.781   0.497  -1.391  1.00  0.00    -0.048 A 
BRANCH  13  14
ATOM     14  C   UNL     1      -5.274   0.599  -1.201  1.00  0.00     0.041 C 
BRANCH  14  15
ATOM     15  C   UNL     1      -5.733   1.156   0.160  1.00  0.00     0.022 C 
ATOM     16  C   UNL     1      -5.210   0.420   1.406  1.00  0.00     0.007 C 
ATOM     17  C   UNL     1      -5.400   2.628   0.422  1.00  0.00     0.117 C 
ATOM     18  C   UNL     1      -4.990   1.496   2.475  1.00  0.00     0.003 C 
ATOM     19  C   UNL     1      -5.627   2.759   1.920  1.00  0.00     0.032 C 
BRANCH  17  20
ATOM     20  O   UNL     1      -6.256   3.502  -0.290  1.00  0.00    -0.393 OA
ATOM     21  H   UNL     1      -7.178   3.318  -0.050  1.00  0.00     0.210 HD
ENDBRANCH  17  20
ENDBRANCH  14  15
ENDBRANCH  13  14
ENDBRANCH   6   8
ENDBRANCH   3   6
ENDBRANCH   1   2
BRANCH   1  22
ATOM     22  C   UNL     1       4.458  -0.532  -1.120  1.00  0.00     0.042 C 
BRANCH  22  23
ATOM     23  C   UNL     1       5.202  -1.662  -1.829  1.00  0.00     0.118 C 
BRANCH  23  24
ATOM     24  N   UNL     1       6.095  -1.183  -2.870  1.00  0.00    -0.352 N 
ATOM     25  C   UNL     1       7.429  -1.418  -3.071  1.00  0.00     0.251 C 
ATOM     26  H   UNL     1       5.673  -0.596  -3.538  1.00  0.00     0.163 HD
ATOM     27  O   UNL     1       8.021  -0.763  -3.934  1.00  0.00    -0.269 OA
BRANCH  25  28
ATOM     28  C   UNL     1       8.172  -2.416  -2.270  1.00  0.00     0.039 A 
ATOM     29  C   UNL     1       9.482  -2.113  -1.884  1.00  0.00     0.014 A 
ATOM     30  C   UNL     1       7.624  -3.659  -1.939  1.00  0.00     0.014 A 
ATOM     31  C   UNL     1      10.218  -3.029  -1.130  1.00  0.00     0.010 A 
ATOM     32  C   UNL     1       8.337  -4.547  -1.130  1.00  0.00     0.010 A 
ATOM     33  C   UNL     1       9.643  -4.244  -0.722  1.00  0.00    -0.014 A 
BRANCH  33  34
ATOM     34  C   UNL     1      10.405  -5.182   0.143  1.00  0.00     0.031 A 
ATOM     35  C   UNL     1      10.831  -6.532  -0.367  1.00  0.00     0.074 A 
ATOM     36  C   UNL     1      10.697  -4.819   1.408  1.00  0.00     0.049 A 
ATOM     37  N   UNL     1      11.533  -7.456   0.240  1.00  0.00    -0.248 NA
ATOM     38  C   UNL     1      10.399  -6.902  -1.724  1.00  0.00     0.031 C 
ATOM     39  C   UNL     1      10.295  -3.561   2.042  1.00  0.00     0.029 A 
ATOM     40  N   UNL     1      11.406  -5.471   2.386  1.00  0.00    -0.354 N 
ATOM     41  C   UNL     1      11.622  -8.516  -0.655  1.00  0.00     0.074 A 
ATOM     42  C   UNL     1      10.862  -8.140  -1.828  1.00  0.00     0.031 C 
ATOM     43  C   UNL     1      10.793  -3.517   3.288  1.00  0.00     0.029 A 
ATOM     44  C   UNL     1      11.525  -4.752   3.552  1.00  0.00     0.049 A 
ATOM     45  H   UNL     1      11.792  -6.368   2.265  1.00  0.00     0.167 HD
ATOM     46  C   UNL     1      12.292  -9.687  -0.524  1.00  0.00     0.031 A 
ATOM     47  C   UNL     1      12.160  -5.046   4.703  1.00  0.00     0.031 A 
ATOM     48  C   UNL     1      13.053 -10.060   0.640  1.00  0.00     0.049 A 
ATOM     49  C   UNL     1      12.911  -6.341   4.818  1.00  0.00     0.074 A 
ATOM     50  C   UNL     1      13.807 -11.203   0.847  1.00  0.00     0.029 A 
ATOM     51  N   UNL     1      13.155  -9.301   1.796  1.00  0.00    -0.354 N 
ATOM     52  N   UNL     1      13.040  -7.300   3.932  1.00  0.00    -0.248 NA
ATOM     53  C   UNL     1      13.616  -6.586   6.083  1.00  0.00     0.031 C 
ATOM     54  C   UNL     1      14.332 -11.153   2.144  1.00  0.00     0.029 A 
ATOM     55  C   UNL     1      13.944  -9.958   2.727  1.00  0.00     0.049 A 
ATOM     56  H   UNL     1      12.729  -8.424   1.935  1.00  0.00     0.167 HD
ATOM     57  C   UNL     1      13.853  -8.257   4.528  1.00  0.00     0.074 A 
ATOM     58  C   UNL     1      14.205  -7.749   5.839  1.00  0.00     0.031 C 
ATOM     59  C   UNL     1      14.270  -9.450   4.035  1.00  0.00     0.031 A 
BRANCH  46  60
ATOM     60  C   UNL     1      12.230 -10.653  -1.678  1.00  0.00    -0.014 A 
ATOM     61  C   UNL     1      12.908 -10.387  -2.882  1.00  0.00     0.010 A 
ATOM     62  C   UNL     1      11.515 -11.858  -1.548  1.00  0.00     0.010 A 
ATOM     63  C   UNL     1      12.837 -11.286  -3.949  1.00  0.00     0.020 A 
ATOM     64  C   UNL     1      11.463 -12.772  -2.605  1.00  0.00     0.020 A 
ATOM     65  C   UNL     1      12.110 -12.471  -3.806  1.00  0.00     0.054 A 
BRANCH  65  66
ATOM     66  S   UNL     1      12.047 -13.629  -5.201  1.00  0.00     0.124 S 
ATOM     67  O   UNL     1      11.114 -12.959  -6.104  1.00  0.00    -0.237 OA
ATOM     68  O   UNL     1      13.436 -13.668  -5.650  1.00  0.00    -0.237 OA
ATOM     69  O   UNL     1      11.554 -14.867  -4.602  1.00  0.00    -0.744 OA
ENDBRANCH  65  66
ENDBRANCH  46  60
BRANCH  47  70
ATOM     70  C   UNL     1      12.133  -4.074   5.828  1.00  0.00    -0.014 A 
ATOM     71  C   UNL     1      13.280  -3.330   6.156  1.00  0.00     0.010 A 
ATOM     72  C   UNL     1      10.951  -3.871   6.563  1.00  0.00     0.010 A 
ATOM     73  C   UNL     1      13.249  -2.409   7.206  1.00  0.00     0.020 A 
ATOM     74  C   UNL     1      10.909  -2.933   7.598  1.00  0.00     0.020 A 
ATOM     75  C   UNL     1      12.063  -2.215   7.919  1.00  0.00     0.054 A 
BRANCH  75  76
ATOM     76  S   UNL     1      12.023  -0.967   9.236  1.00  0.00     0.124 S 
ATOM     77  O   UNL     1      12.710  -1.653  10.325  1.00  0.00    -0.237 OA
ATOM     78  O   UNL     1      12.746   0.152   8.636  1.00  0.00    -0.237 OA
ATOM     79  O   UNL     1      10.595  -0.735   9.441  1.00  0.00    -0.744 OA
ENDBRANCH  75  76
ENDBRANCH  47  70
BRANCH  59  80
ATOM     80  C   UNL     1      15.161 -10.279   4.920  1.00  0.00    -0.014 A 
ATOM     81  C   UNL     1      14.649 -10.931   6.056  1.00  0.00     0.010 A 
ATOM     82  C   UNL     1      16.524 -10.418   4.604  1.00  0.00     0.010 A 
ATOM     83  C   UNL     1      15.495 -11.669   6.888  1.00  0.00     0.020 A 
ATOM     84  C   UNL     1      17.369 -11.175   5.420  1.00  0.00     0.020 A 
ATOM     85  C   UNL     1      16.852 -11.779   6.569  1.00  0.00     0.054 A 
BRANCH  85  86
ATOM     86  S   UNL     1      17.933 -12.748   7.657  1.00  0.00     0.124 S 
ATOM     87  O   UNL     1      18.142 -11.828   8.772  1.00  0.00    -0.237 OA
ATOM     88  O   UNL     1      17.119 -13.924   7.957  1.00  0.00    -0.237 OA
ATOM     89  O   UNL     1      19.110 -13.007   6.832  1.00  0.00    -0.744 OA
ENDBRANCH  85  86
ENDBRANCH  59  80
ENDBRANCH  33  34
ENDBRANCH  25  28
ENDBRANCH  23  24
ENDBRANCH  22  23
ENDBRANCH   1  22
TORSDOF 17
