REMARK SMILES Cc1ccc(C)c(N2C(=O)C[C@@H](SCC(=O)NCCCNC(=O)c3ccc(-c4c5nc(c(-c6ccc(S(=O)(=O)[O-])cc6)c6ccc([nH]6)c(-c6ccc(S(=O)(=O)[O-])cc6)c6nc(c(-c7ccc(S(=O)(=O)[O-])cc7)c7ccc4[nH]7)C=C6)C=C5)cc3)C2=O)c1
REMARK SMILES IDX 19 1 18 2 17 3 15 4 16 5 14 7 13 8 12 9 8 10 9 11 84 12
REMARK SMILES IDX 10 13 11 14 85 15 7 16 1 17 2 18 3 19 86 20 4 21 5 22 6 23
REMARK SMILES IDX 20 24 21 25 22 26 23 28 24 29 25 30 83 31 26 32 82 33 27 34
REMARK SMILES IDX 28 35 29 36 76 37 30 38 81 39 75 40 77 41 31 42 80 43 74 44
REMARK SMILES IDX 73 45 32 47 62 48 43 49 61 50 44 51 47 52 60 53 78 54 45 55
REMARK SMILES IDX 46 56 59 58 79 59 48 60 33 61 34 62 42 63 35 64 41 65 36 66
REMARK SMILES IDX 37 67 38 68 39 69 40 70 63 71 64 72 72 73 65 74 71 75 66 76
REMARK SMILES IDX 67 77 68 78 69 79 70 80 49 81 50 82 58 83 51 84 57 85 52 86
REMARK SMILES IDX 53 87 54 88 55 89 56 90
REMARK H PARENT 17 6 21 27 77 46 47 57
REMARK Flexibility Score: inf
ROOT
ATOM      1  C   UNL     1      -6.545   4.069   3.051  1.00  0.00     0.042 C 
ENDROOT
BRANCH   1   2
ATOM      2  C   UNL     1      -7.002   5.159   2.071  1.00  0.00     0.117 C 
BRANCH   2   3
ATOM      3  N   UNL     1      -5.972   6.130   1.734  1.00  0.00    -0.355 N 
ATOM      4  C   UNL     1      -5.210   6.252   0.611  1.00  0.00     0.230 C 
ATOM      5  O   UNL     1      -4.351   7.136   0.577  1.00  0.00    -0.274 OA
ATOM      6  H   UNL     1      -5.798   6.807   2.428  1.00  0.00     0.163 HD
BRANCH   4   7
ATOM      7  C   UNL     1      -5.391   5.312  -0.562  1.00  0.00     0.170 C 
BRANCH   7   8
ATOM      8  S   UNL     1      -4.683   3.668  -0.257  1.00  0.00    -0.138 SA
BRANCH   8   9
ATOM      9  C   UNL     1      -3.010   4.120   0.380  1.00  0.00     0.146 C 
ATOM     10  N   UNL     1      -1.424   2.459  -0.062  1.00  0.00    -0.249 N 
ATOM     11  C   UNL     1      -1.188   3.437  -0.999  1.00  0.00     0.235 C 
ATOM     12  C   UNL     1      -2.363   2.842   0.864  1.00  0.00     0.247 C 
ATOM     13  O   UNL     1      -0.422   3.402  -1.947  1.00  0.00    -0.274 OA
ATOM     14  C   UNL     1      -2.059   4.623  -0.690  1.00  0.00     0.125 C 
ATOM     15  O   UNL     1      -2.671   2.276   1.908  1.00  0.00    -0.273 OA
BRANCH  10  16
ATOM     16  C   UNL     1      -0.741   1.222  -0.032  1.00  0.00     0.055 A 
ATOM     17  C   UNL     1       2.901   0.052  -0.071  1.00  0.00     0.044 C 
ATOM     18  C   UNL     1       1.401   0.036  -0.035  1.00  0.00    -0.049 A 
ATOM     19  C   UNL     1       0.720  -1.176   0.083  1.00  0.00     0.004 A 
ATOM     20  C   UNL     1       0.664   1.225  -0.113  1.00  0.00     0.030 A 
ATOM     21  C   UNL     1      -0.673  -1.198   0.130  1.00  0.00     0.006 A 
ATOM     22  C   UNL     1      -1.421  -0.009   0.068  1.00  0.00    -0.027 A 
ATOM     23  C   UNL     1      -2.919  -0.152   0.039  1.00  0.00     0.046 C 
ENDBRANCH  10  16
ENDBRANCH   8   9
ENDBRANCH   7   8
ENDBRANCH   4   7
ENDBRANCH   2   3
ENDBRANCH   1   2
BRANCH   1  24
ATOM     24  C   UNL     1      -6.250   4.529   4.477  1.00  0.00     0.118 C 
BRANCH  24  25
ATOM     25  N   UNL     1      -7.409   5.139   5.146  1.00  0.00    -0.352 N 
ATOM     26  C   UNL     1      -7.554   6.148   6.089  1.00  0.00     0.251 C 
ATOM     27  H   UNL     1      -8.268   4.748   4.863  1.00  0.00     0.163 HD
ATOM     28  O   UNL     1      -8.604   6.219   6.711  1.00  0.00    -0.269 OA
BRANCH  26  29
ATOM     29  C   UNL     1      -6.472   7.127   6.354  1.00  0.00     0.039 A 
ATOM     30  C   UNL     1      -6.497   8.022   7.429  1.00  0.00     0.014 A 
ATOM     31  C   UNL     1      -5.419   7.206   5.464  1.00  0.00     0.014 A 
ATOM     32  C   UNL     1      -5.486   8.986   7.516  1.00  0.00     0.010 A 
ATOM     33  C   UNL     1      -4.265   7.854   5.768  1.00  0.00     0.010 A 
ATOM     34  C   UNL     1      -4.390   8.900   6.645  1.00  0.00    -0.014 A 
BRANCH  34  35
ATOM     35  C   UNL     1      -3.328   9.881   6.570  1.00  0.00     0.031 A 
ATOM     36  C   UNL     1      -2.454   9.893   7.748  1.00  0.00     0.074 A 
ATOM     37  C   UNL     1      -2.953  10.524   5.442  1.00  0.00     0.049 A 
ATOM     38  N   UNL     1      -2.509  10.715   8.736  1.00  0.00    -0.248 NA
ATOM     39  C   UNL     1      -1.538   8.760   7.936  1.00  0.00     0.031 C 
ATOM     40  C   UNL     1      -3.419  10.337   4.061  1.00  0.00     0.029 A 
ATOM     41  N   UNL     1      -1.961  11.443   5.301  1.00  0.00    -0.354 N 
ATOM     42  C   UNL     1      -1.465  10.349   9.567  1.00  0.00     0.074 A 
ATOM     43  C   UNL     1      -1.074   9.021   9.158  1.00  0.00     0.031 C 
ATOM     44  C   UNL     1      -2.581  10.978   3.211  1.00  0.00     0.029 A 
ATOM     45  C   UNL     1      -1.621  11.742   3.989  1.00  0.00     0.049 A 
ATOM     46  H   UNL     1      -1.516  11.864   6.072  1.00  0.00     0.167 HD
ATOM     47  C   UNL     1      -0.825  11.269  10.338  1.00  0.00     0.031 A 
ATOM     48  C   UNL     1      -0.600  12.541   3.589  1.00  0.00     0.031 A 
ATOM     49  C   UNL     1      -1.507  12.543  10.324  1.00  0.00     0.049 A 
ATOM     50  C   UNL     1      -0.254  13.414   4.741  1.00  0.00     0.074 A 
ATOM     51  C   UNL     1      -2.786  12.963  10.638  1.00  0.00     0.029 A 
ATOM     52  N   UNL     1      -0.974  13.528   9.520  1.00  0.00    -0.354 N 
ATOM     53  N   UNL     1      -1.055  14.324   5.220  1.00  0.00    -0.248 NA
ATOM     54  C   UNL     1       0.809  12.992   5.641  1.00  0.00     0.031 C 
ATOM     55  C   UNL     1      -3.116  13.929   9.640  1.00  0.00     0.029 A 
ATOM     56  C   UNL     1      -2.004  14.096   8.812  1.00  0.00     0.049 A 
ATOM     57  H   UNL     1      -0.023  13.779   9.464  1.00  0.00     0.167 HD
ATOM     58  C   UNL     1      -0.876  14.274   6.596  1.00  0.00     0.074 A 
ATOM     59  C   UNL     1       0.363  13.524   6.784  1.00  0.00     0.031 C 
ATOM     60  C   UNL     1      -1.889  14.601   7.455  1.00  0.00     0.031 A 
BRANCH  47  61
ATOM     61  C   UNL     1       0.609  11.135  10.772  1.00  0.00    -0.014 A 
ATOM     62  C   UNL     1       1.130  12.080  11.676  1.00  0.00     0.010 A 
ATOM     63  C   UNL     1       1.530  10.267  10.149  1.00  0.00     0.010 A 
ATOM     64  C   UNL     1       2.508  12.188  11.895  1.00  0.00     0.020 A 
ATOM     65  C   UNL     1       2.899  10.331  10.400  1.00  0.00     0.020 A 
ATOM     66  C   UNL     1       3.383  11.319  11.244  1.00  0.00     0.054 A 
BRANCH  66  67
ATOM     67  S   UNL     1       5.165  11.537  11.446  1.00  0.00     0.124 S 
ATOM     68  O   UNL     1       5.389  12.805  10.758  1.00  0.00    -0.237 OA
ATOM     69  O   UNL     1       5.311  11.567  12.898  1.00  0.00    -0.237 OA
ATOM     70  O   UNL     1       5.730  10.359  10.791  1.00  0.00    -0.744 OA
ENDBRANCH  66  67
ENDBRANCH  47  61
BRANCH  48  71
ATOM     71  C   UNL     1       0.258  12.427   2.384  1.00  0.00    -0.014 A 
ATOM     72  C   UNL     1       1.121  13.474   2.008  1.00  0.00     0.010 A 
ATOM     73  C   UNL     1       0.444  11.172   1.768  1.00  0.00     0.010 A 
ATOM     74  C   UNL     1       2.181  13.253   1.111  1.00  0.00     0.020 A 
ATOM     75  C   UNL     1       1.493  10.947   0.867  1.00  0.00     0.020 A 
ATOM     76  C   UNL     1       2.375  11.982   0.566  1.00  0.00     0.054 A 
BRANCH  76  77
ATOM     77  S   UNL     1       3.863  11.651  -0.425  1.00  0.00     0.124 S 
ATOM     78  O   UNL     1       3.577  12.367  -1.665  1.00  0.00    -0.237 OA
ATOM     79  O   UNL     1       4.927  12.215   0.400  1.00  0.00    -0.237 OA
ATOM     80  O   UNL     1       3.882  10.194  -0.540  1.00  0.00    -0.744 OA
ENDBRANCH  76  77
ENDBRANCH  48  71
BRANCH  60  81
ATOM     81  C   UNL     1      -3.098  15.326   6.898  1.00  0.00    -0.014 A 
ATOM     82  C   UNL     1      -3.918  14.813   5.873  1.00  0.00     0.010 A 
ATOM     83  C   UNL     1      -3.499  16.514   7.537  1.00  0.00     0.010 A 
ATOM     84  C   UNL     1      -5.085  15.486   5.479  1.00  0.00     0.020 A 
ATOM     85  C   UNL     1      -4.671  17.178   7.164  1.00  0.00     0.020 A 
ATOM     86  C   UNL     1      -5.455  16.666   6.129  1.00  0.00     0.054 A 
BRANCH  86  87
ATOM     87  S   UNL     1      -6.991  17.506   5.649  1.00  0.00     0.124 S 
ATOM     88  O   UNL     1      -6.669  18.027   4.324  1.00  0.00    -0.237 OA
ATOM     89  O   UNL     1      -7.976  16.426   5.678  1.00  0.00    -0.237 OA
ATOM     90  O   UNL     1      -7.171  18.523   6.686  1.00  0.00    -0.744 OA
ENDBRANCH  86  87
ENDBRANCH  60  81
ENDBRANCH  34  35
ENDBRANCH  26  29
ENDBRANCH  24  25
ENDBRANCH   1  24
TORSDOF 16
