REMARK SMILES O=C(NCCCNC(=O)[C@@H]1C[C@@H]2CC[C@H]1N2C(=O)c1ccncc1Cl)c1ccc(-c2c3nc(c(-c4ccc(S(=O)(=O)[O-])cc4)c4ccc([nH]4)c(-c4ccc(S(=O)(=O)[O-])cc4)c4nc(c(-c5ccc(S(=O)(=O)[O-])cc5)c5ccc2[nH]5)C=C4)C=C3)cc1
REMARK SMILES IDX 4 1 3 2 1 3 2 4 26 6 27 7 85 8 28 9 84 10 29 11 30 12 31 13
REMARK SMILES IDX 78 14 32 15 83 16 77 17 79 18 33 19 82 20 76 21 75 22 34 24
REMARK SMILES IDX 64 25 45 26 63 27 46 28 49 29 62 30 80 31 47 32 48 33 61 35
REMARK SMILES IDX 81 36 50 37 35 38 36 39 44 40 37 41 43 42 38 43 39 44 40 45
REMARK SMILES IDX 41 46 42 47 65 48 66 49 74 50 67 51 73 52 68 53 69 54 70 55
REMARK SMILES IDX 71 56 72 57 51 58 52 59 60 60 53 61 59 62 54 63 55 64 56 65
REMARK SMILES IDX 57 66 58 67 5 68 6 69 7 70 8 71 9 73 10 74 11 75 15 76 12 77
REMARK SMILES IDX 14 78 16 79 13 80 17 81 18 82 19 83 20 84 24 85 21 86 23 87
REMARK SMILES IDX 25 88 22 89
REMARK H PARENT 3 5 79 23 49 34 7 72
REMARK Flexibility Score: inf
ROOT
ATOM      1  C   UNL     1       4.290  -1.409   0.345  1.00  0.00     0.118 C 
ENDROOT
BRANCH   1   2
ATOM      2  N   UNL     1       2.864  -1.185   0.165  1.00  0.00    -0.352 N 
ATOM      3  O   UNL     1       0.949  -0.049  -0.075  1.00  0.00    -0.269 OA
ATOM      4  C   UNL     1       2.167  -0.077  -0.253  1.00  0.00     0.251 C 
ATOM      5  H   UNL     1       2.300  -1.963   0.380  1.00  0.00     0.163 HD
BRANCH   4   6
ATOM      6  C   UNL     1       2.845   1.078  -0.885  1.00  0.00     0.039 A 
ATOM      7  C   UNL     1       3.905   0.908  -1.777  1.00  0.00     0.014 A 
ATOM      8  C   UNL     1       2.351   2.366  -0.646  1.00  0.00     0.014 A 
ATOM      9  C   UNL     1       4.563   2.015  -2.307  1.00  0.00     0.010 A 
ATOM     10  C   UNL     1       2.946   3.472  -1.262  1.00  0.00     0.010 A 
ATOM     11  C   UNL     1       4.075   3.308  -2.079  1.00  0.00    -0.014 A 
BRANCH  11  12
ATOM     12  C   UNL     1       4.704   4.473  -2.755  1.00  0.00     0.031 A 
ATOM     13  C   UNL     1       5.327   5.584  -1.957  1.00  0.00     0.074 A 
ATOM     14  C   UNL     1       4.691   4.536  -4.102  1.00  0.00     0.049 A 
ATOM     15  N   UNL     1       5.846   6.709  -2.377  1.00  0.00    -0.248 NA
ATOM     16  C   UNL     1       5.364   5.413  -0.496  1.00  0.00     0.031 C 
ATOM     17  C   UNL     1       4.120   3.518  -4.989  1.00  0.00     0.029 A 
ATOM     18  N   UNL     1       5.165   5.494  -4.962  1.00  0.00    -0.354 N 
ATOM     19  C   UNL     1       6.240   7.397  -1.235  1.00  0.00     0.074 A 
ATOM     20  C   UNL     1       5.884   6.568  -0.103  1.00  0.00     0.031 C 
ATOM     21  C   UNL     1       4.300   3.893  -6.263  1.00  0.00     0.029 A 
ATOM     22  C   UNL     1       4.928   5.209  -6.285  1.00  0.00     0.049 A 
ATOM     23  H   UNL     1       5.630   6.308  -4.660  1.00  0.00     0.167 HD
ATOM     24  C   UNL     1       6.840   8.609  -1.141  1.00  0.00     0.031 A 
ATOM     25  C   UNL     1       5.151   5.935  -7.397  1.00  0.00     0.031 A 
ATOM     26  C   UNL     1       7.183   9.428  -2.274  1.00  0.00     0.049 A 
ATOM     27  C   UNL     1       5.782   7.290  -7.269  1.00  0.00     0.074 A 
ATOM     28  C   UNL     1       7.815  10.660  -2.286  1.00  0.00     0.029 A 
ATOM     29  N   UNL     1       6.916   9.104  -3.597  1.00  0.00    -0.354 N 
ATOM     30  N   UNL     1       6.164   7.915  -6.182  1.00  0.00    -0.248 NA
ATOM     31  C   UNL     1       6.014   8.036  -8.512  1.00  0.00     0.031 C 
ATOM     32  C   UNL     1       7.881  11.104  -3.611  1.00  0.00     0.029 A 
ATOM     33  C   UNL     1       7.350  10.121  -4.431  1.00  0.00     0.049 A 
ATOM     34  H   UNL     1       6.482   8.273  -3.898  1.00  0.00     0.167 HD
ATOM     35  C   UNL     1       6.707   9.120  -6.610  1.00  0.00     0.074 A 
ATOM     36  C   UNL     1       6.607   9.133  -8.056  1.00  0.00     0.031 C 
ATOM     37  C   UNL     1       7.247  10.119  -5.870  1.00  0.00     0.031 A 
BRANCH  24  38
ATOM     38  C   UNL     1       7.114   9.140   0.243  1.00  0.00    -0.014 A 
ATOM     39  C   UNL     1       8.092   8.563   1.073  1.00  0.00     0.010 A 
ATOM     40  C   UNL     1       6.380  10.243   0.720  1.00  0.00     0.010 A 
ATOM     41  C   UNL     1       8.285   9.037   2.375  1.00  0.00     0.020 A 
ATOM     42  C   UNL     1       6.590  10.739   2.010  1.00  0.00     0.020 A 
ATOM     43  C   UNL     1       7.523  10.114   2.839  1.00  0.00     0.054 A 
BRANCH  43  44
ATOM     44  S   UNL     1       7.772  10.691   4.540  1.00  0.00     0.124 S 
ATOM     45  O   UNL     1       7.115   9.638   5.311  1.00  0.00    -0.237 OA
ATOM     46  O   UNL     1       9.227  10.737   4.656  1.00  0.00    -0.237 OA
ATOM     47  O   UNL     1       7.106  11.991   4.567  1.00  0.00    -0.744 OA
ENDBRANCH  43  44
ENDBRANCH  24  38
BRANCH  25  48
ATOM     48  C   UNL     1       4.748   5.379  -8.717  1.00  0.00    -0.014 A 
ATOM     49  C   UNL     1       5.714   4.909  -9.621  1.00  0.00     0.010 A 
ATOM     50  C   UNL     1       3.384   5.236  -9.035  1.00  0.00     0.010 A 
ATOM     51  C   UNL     1       5.324   4.298 -10.817  1.00  0.00     0.020 A 
ATOM     52  C   UNL     1       2.990   4.601 -10.215  1.00  0.00     0.020 A 
ATOM     53  C   UNL     1       3.964   4.137 -11.101  1.00  0.00     0.054 A 
BRANCH  53  54
ATOM     54  S   UNL     1       3.483   3.248 -12.608  1.00  0.00     0.124 S 
ATOM     55  O   UNL     1       3.786   4.227 -13.647  1.00  0.00    -0.237 OA
ATOM     56  O   UNL     1       4.352   2.074 -12.571  1.00  0.00    -0.237 OA
ATOM     57  O   UNL     1       2.064   2.970 -12.402  1.00  0.00    -0.744 OA
ENDBRANCH  53  54
ENDBRANCH  25  48
BRANCH  37  58
ATOM     58  C   UNL     1       7.819  11.299  -6.606  1.00  0.00    -0.014 A 
ATOM     59  C   UNL     1       6.990  12.273  -7.187  1.00  0.00     0.010 A 
ATOM     60  C   UNL     1       9.215  11.477  -6.635  1.00  0.00     0.010 A 
ATOM     61  C   UNL     1       7.548  13.402  -7.794  1.00  0.00     0.020 A 
ATOM     62  C   UNL     1       9.775  12.615  -7.219  1.00  0.00     0.020 A 
ATOM     63  C   UNL     1       8.937  13.568  -7.801  1.00  0.00     0.054 A 
BRANCH  63  64
ATOM     64  S   UNL     1       9.634  15.080  -8.522  1.00  0.00     0.124 S 
ATOM     65  O   UNL     1       9.460  14.842  -9.952  1.00  0.00    -0.237 OA
ATOM     66  O   UNL     1       8.788  16.126  -7.951  1.00  0.00    -0.237 OA
ATOM     67  O   UNL     1      11.018  15.082  -8.053  1.00  0.00    -0.744 OA
ENDBRANCH  63  64
ENDBRANCH  37  58
ENDBRANCH  11  12
ENDBRANCH   4   6
ENDBRANCH   1   2
BRANCH   1  68
ATOM     68  C   UNL     1       4.749  -1.085   1.758  1.00  0.00     0.042 C 
BRANCH  68  69
ATOM     69  C   UNL     1       4.219  -2.054   2.809  1.00  0.00     0.117 C 
BRANCH  69  70
ATOM     70  N   UNL     1       4.832  -3.373   2.731  1.00  0.00    -0.356 N 
ATOM     71  C   UNL     1       5.592  -4.138   3.549  1.00  0.00     0.225 C 
ATOM     72  H   UNL     1       4.649  -3.817   1.872  1.00  0.00     0.163 HD
ATOM     73  O   UNL     1       5.916  -5.241   3.086  1.00  0.00    -0.275 OA
BRANCH  71  74
ATOM     74  C   UNL     1       6.137  -3.754   4.920  1.00  0.00     0.103 C 
ATOM     75  C   UNL     1       5.529  -2.637   5.793  1.00  0.00     0.040 C 
ATOM     76  C   UNL     1       7.641  -3.362   4.879  1.00  0.00     0.098 C 
ATOM     77  C   UNL     1       6.705  -1.657   5.957  1.00  0.00     0.086 C 
ATOM     78  C   UNL     1       7.833  -2.204   3.888  1.00  0.00     0.028 C 
ATOM     79  N   UNL     1       7.764  -2.620   6.132  1.00  0.00    -0.332 N 
ATOM     80  C   UNL     1       7.141  -1.030   4.623  1.00  0.00     0.027 C 
BRANCH  79  81
ATOM     81  C   UNL     1       8.489  -2.748   7.276  1.00  0.00     0.256 C 
ATOM     82  O   UNL     1       8.316  -2.030   8.266  1.00  0.00    -0.269 OA
BRANCH  81  83
ATOM     83  C   UNL     1       9.454  -3.841   7.409  1.00  0.00     0.061 A 
ATOM     84  C   UNL     1       9.197  -4.765   8.428  1.00  0.00     0.035 A 
ATOM     85  C   UNL     1      10.637  -3.912   6.683  1.00  0.00     0.072 A 
ATOM     86  C   UNL     1      10.125  -5.762   8.655  1.00  0.00     0.112 A 
ATOM     87  C   UNL     1      11.496  -4.959   6.983  1.00  0.00     0.132 A 
ATOM     88  Cl  UNL     1      11.118  -2.753   5.509  1.00  0.00    -0.082 Cl
ATOM     89  N   UNL     1      11.264  -5.891   7.943  1.00  0.00    -0.263 NA
ENDBRANCH  81  83
ENDBRANCH  79  81
ENDBRANCH  71  74
ENDBRANCH  69  70
ENDBRANCH  68  69
ENDBRANCH   1  68
TORSDOF 15
