REMARK SMILES O=C(C[C@H](NC(=O)[C@]12C[C@H]3C[C@H](C[C@H](C3)C1)C2)c1cccc([N+](=O)[O-])c1)NCCCNC(=O)c1ccc(-c2c3nc(c(-c4ccc(S(=O)(=O)[O-])cc4)c4ccc([nH]4)c(-c4ccc(S(=O)(=O)[O-])cc4)c4nc(c(-c5ccc(S(=O)(=O)[O-])cc5)c5ccc2[nH]5)C=C4)C=C3)cc1
REMARK SMILES IDX 29 1 28 2 27 3 1 4 2 5 3 7 4 8 18 9 19 10 26 11 20 12 22 13
REMARK SMILES IDX 21 14 23 15 24 16 25 17 5 18 6 19 7 21 8 22 9 23 16 24 17 25
REMARK SMILES IDX 10 26 14 27 12 28 11 29 15 30 13 31 30 32 31 33 32 34 33 36
REMARK SMILES IDX 34 37 35 38 93 39 36 40 92 41 37 42 38 43 39 44 86 45 40 46
REMARK SMILES IDX 91 47 85 48 87 49 41 50 90 51 84 52 83 53 42 55 72 56 53 57
REMARK SMILES IDX 71 58 54 59 57 60 70 61 88 62 55 63 56 64 69 66 89 67 58 68
REMARK SMILES IDX 43 69 44 70 52 71 45 72 51 73 46 74 47 75 48 76 49 77 50 78
REMARK SMILES IDX 73 79 74 80 82 81 75 82 81 83 76 84 77 85 78 86 79 87 80 88
REMARK SMILES IDX 59 89 60 90 68 91 61 92 67 93 62 94 63 95 64 96 65 97 66 98
REMARK H PARENT 27 6 5 20 31 35 87 54 57 65
REMARK Flexibility Score: inf
ROOT
ATOM      1  C   UNL     1       2.477   2.033   4.236  1.00  0.00     0.042 C 
ENDROOT
BRANCH   1   2
ATOM      2  C   UNL     1       2.101   1.228   2.995  1.00  0.00     0.117 C 
BRANCH   2   3
ATOM      3  N   UNL     1       2.699   1.757   1.783  1.00  0.00    -0.356 N 
ATOM      4  O   UNL     1       4.657   0.621   2.063  1.00  0.00    -0.275 OA
ATOM      5  C   UNL     1       3.966   1.389   1.402  1.00  0.00     0.222 C 
ATOM      6  H   UNL     1       2.189   2.389   1.226  1.00  0.00     0.163 HD
BRANCH   5   7
ATOM      7  C   UNL     1       4.487   2.058   0.149  1.00  0.00     0.129 C 
BRANCH   7   8
ATOM      8  C   UNL     1       3.739   1.715  -1.150  1.00  0.00     0.122 C 
BRANCH   8   9
ATOM      9  C   UNL     1       4.448   2.248  -2.399  1.00  0.00    -0.018 A 
ATOM     10  C   UNL     1       4.950   1.408  -3.401  1.00  0.00     0.006 A 
ATOM     11  C   UNL     1       4.635   3.633  -2.570  1.00  0.00     0.091 A 
ATOM     12  C   UNL     1       5.710   1.890  -4.470  1.00  0.00     0.007 A 
ATOM     13  C   UNL     1       5.351   4.126  -3.677  1.00  0.00     0.269 A 
ATOM     14  C   UNL     1       5.920   3.255  -4.610  1.00  0.00     0.085 A 
BRANCH  13  15
ATOM     15  N   UNL     1       5.489   5.575  -3.872  1.00  0.00     0.062 N 
ATOM     16  O   UNL     1       6.192   5.965  -4.815  1.00  0.00    -0.258 OA
ATOM     17  O   UNL     1       4.880   6.318  -3.091  1.00  0.00    -0.258 OA
ENDBRANCH  13  15
ENDBRANCH   8   9
BRANCH   8  18
ATOM     18  N   UNL     1       3.161   0.367  -1.286  1.00  0.00    -0.348 N 
ATOM     19  C   UNL     1       3.498  -0.941  -1.264  1.00  0.00     0.226 C 
ATOM     20  H   UNL     1       2.194   0.447  -1.450  1.00  0.00     0.164 HD
ATOM     21  O   UNL     1       2.525  -1.695  -1.434  1.00  0.00    -0.274 OA
BRANCH  19  22
ATOM     22  C   UNL     1       4.901  -1.566  -1.141  1.00  0.00     0.050 C 
ATOM     23  C   UNL     1       4.837  -2.692  -0.063  1.00  0.00     0.020 C 
ATOM     24  C   UNL     1       6.048  -0.629  -0.751  1.00  0.00     0.020 C 
ATOM     25  C   UNL     1       5.242  -2.283  -2.481  1.00  0.00     0.020 C 
ATOM     26  C   UNL     1       6.185  -3.437   0.043  1.00  0.00    -0.010 C 
ATOM     27  C   UNL     1       7.392  -1.356  -0.673  1.00  0.00    -0.010 C 
ATOM     28  C   UNL     1       6.600  -2.999  -2.400  1.00  0.00    -0.010 C 
ATOM     29  C   UNL     1       6.529  -4.079  -1.311  1.00  0.00     0.007 C 
ATOM     30  C   UNL     1       7.295  -2.441   0.408  1.00  0.00     0.007 C 
ATOM     31  C   UNL     1       7.692  -1.981  -2.041  1.00  0.00     0.007 C 
ENDBRANCH  19  22
ENDBRANCH   8  18
ENDBRANCH   7   8
ENDBRANCH   5   7
ENDBRANCH   2   3
ENDBRANCH   1   2
BRANCH   1  32
ATOM     32  C   UNL     1       2.183   3.525   4.129  1.00  0.00     0.118 C 
BRANCH  32  33
ATOM     33  N   UNL     1       0.790   3.814   3.820  1.00  0.00    -0.352 N 
ATOM     34  C   UNL     1      -0.088   4.679   4.426  1.00  0.00     0.251 C 
ATOM     35  H   UNL     1       0.419   3.311   3.059  1.00  0.00     0.163 HD
ATOM     36  O   UNL     1      -1.266   4.675   4.091  1.00  0.00    -0.269 OA
BRANCH  34  37
ATOM     37  C   UNL     1       0.382   5.586   5.496  1.00  0.00     0.039 A 
ATOM     38  C   UNL     1      -0.390   5.711   6.653  1.00  0.00     0.014 A 
ATOM     39  C   UNL     1       1.573   6.304   5.365  1.00  0.00     0.014 A 
ATOM     40  C   UNL     1       0.068   6.504   7.707  1.00  0.00     0.010 A 
ATOM     41  C   UNL     1       2.064   7.032   6.446  1.00  0.00     0.010 A 
ATOM     42  C   UNL     1       1.318   7.139   7.629  1.00  0.00    -0.014 A 
BRANCH  42  43
ATOM     43  C   UNL     1       1.867   7.899   8.782  1.00  0.00     0.031 A 
ATOM     44  C   UNL     1       2.129   9.376   8.666  1.00  0.00     0.074 A 
ATOM     45  C   UNL     1       2.185   7.243   9.917  1.00  0.00     0.049 A 
ATOM     46  N   UNL     1       2.644  10.192   9.549  1.00  0.00    -0.248 NA
ATOM     47  C   UNL     1       1.790  10.015   7.384  1.00  0.00     0.031 C 
ATOM     48  C   UNL     1       2.018   5.805  10.140  1.00  0.00     0.029 A 
ATOM     49  N   UNL     1       2.720   7.700  11.096  1.00  0.00    -0.354 N 
ATOM     50  C   UNL     1       2.704  11.434   8.928  1.00  0.00     0.074 A 
ATOM     51  C   UNL     1       2.221  11.254   7.577  1.00  0.00     0.031 C 
ATOM     52  C   UNL     1       2.412   5.504  11.388  1.00  0.00     0.029 A 
ATOM     53  C   UNL     1       2.904   6.714  12.038  1.00  0.00     0.049 A 
ATOM     54  H   UNL     1       2.951   8.644  11.253  1.00  0.00     0.167 HD
ATOM     55  C   UNL     1       3.106  12.622   9.442  1.00  0.00     0.031 A 
ATOM     56  C   UNL     1       3.418   6.773  13.282  1.00  0.00     0.031 A 
ATOM     57  C   UNL     1       3.583  12.797  10.789  1.00  0.00     0.049 A 
ATOM     58  C   UNL     1       3.877   8.099  13.823  1.00  0.00     0.074 A 
ATOM     59  C   UNL     1       3.962  13.969  11.420  1.00  0.00     0.029 A 
ATOM     60  N   UNL     1       3.752  11.775  11.710  1.00  0.00    -0.354 N 
ATOM     61  N   UNL     1       3.859   9.276  13.243  1.00  0.00    -0.248 NA
ATOM     62  C   UNL     1       4.415   8.108  15.190  1.00  0.00     0.031 C 
ATOM     63  C   UNL     1       4.419  13.647  12.702  1.00  0.00     0.029 A 
ATOM     64  C   UNL     1       4.257  12.285  12.895  1.00  0.00     0.049 A 
ATOM     65  H   UNL     1       3.543  10.827  11.547  1.00  0.00     0.167 HD
ATOM     66  C   UNL     1       4.355  10.170  14.185  1.00  0.00     0.074 A 
ATOM     67  C   UNL     1       4.649   9.400  15.377  1.00  0.00     0.031 C 
ATOM     68  C   UNL     1       4.547  11.508  14.075  1.00  0.00     0.031 A 
BRANCH  55  69
ATOM     69  C   UNL     1       3.056  13.827   8.538  1.00  0.00    -0.014 A 
ATOM     70  C   UNL     1       1.829  14.372   8.117  1.00  0.00     0.010 A 
ATOM     71  C   UNL     1       4.252  14.453   8.140  1.00  0.00     0.010 A 
ATOM     72  C   UNL     1       1.799  15.492   7.282  1.00  0.00     0.020 A 
ATOM     73  C   UNL     1       4.226  15.592   7.330  1.00  0.00     0.020 A 
ATOM     74  C   UNL     1       2.999  16.094   6.893  1.00  0.00     0.054 A 
BRANCH  74  75
ATOM     75  S   UNL     1       2.928  17.561   5.828  1.00  0.00     0.124 S 
ATOM     76  O   UNL     1       2.505  16.987   4.553  1.00  0.00    -0.237 OA
ATOM     77  O   UNL     1       1.936  18.396   6.501  1.00  0.00    -0.237 OA
ATOM     78  O   UNL     1       4.295  18.077   5.855  1.00  0.00    -0.744 OA
ENDBRANCH  74  75
ENDBRANCH  55  69
BRANCH  56  79
ATOM     79  C   UNL     1       3.515   5.536  14.106  1.00  0.00    -0.014 A 
ATOM     80  C   UNL     1       2.701   5.365  15.240  1.00  0.00     0.010 A 
ATOM     81  C   UNL     1       4.416   4.514  13.753  1.00  0.00     0.010 A 
ATOM     82  C   UNL     1       2.800   4.207  16.016  1.00  0.00     0.020 A 
ATOM     83  C   UNL     1       4.496   3.341  14.509  1.00  0.00     0.020 A 
ATOM     84  C   UNL     1       3.695   3.200  15.644  1.00  0.00     0.054 A 
BRANCH  84  85
ATOM     85  S   UNL     1       3.772   1.685  16.639  1.00  0.00     0.124 S 
ATOM     86  O   UNL     1       4.436   2.152  17.852  1.00  0.00    -0.237 OA
ATOM     87  O   UNL     1       2.361   1.333  16.784  1.00  0.00    -0.237 OA
ATOM     88  O   UNL     1       4.552   0.770  15.810  1.00  0.00    -0.744 OA
ENDBRANCH  84  85
ENDBRANCH  56  79
BRANCH  68  89
ATOM     89  C   UNL     1       5.066  12.239  15.285  1.00  0.00    -0.014 A 
ATOM     90  C   UNL     1       6.393  12.083  15.722  1.00  0.00     0.010 A 
ATOM     91  C   UNL     1       4.224  13.142  15.961  1.00  0.00     0.010 A 
ATOM     92  C   UNL     1       6.859  12.794  16.832  1.00  0.00     0.020 A 
ATOM     93  C   UNL     1       4.695  13.878  17.050  1.00  0.00     0.020 A 
ATOM     94  C   UNL     1       6.007  13.689  17.488  1.00  0.00     0.054 A 
BRANCH  94  95
ATOM     95  S   UNL     1       6.651  14.634  18.895  1.00  0.00     0.124 S 
ATOM     96  O   UNL     1       6.752  13.608  19.930  1.00  0.00    -0.237 OA
ATOM     97  O   UNL     1       7.923  15.140  18.385  1.00  0.00    -0.237 OA
ATOM     98  O   UNL     1       5.630  15.653  19.126  1.00  0.00    -0.744 OA
ENDBRANCH  94  95
ENDBRANCH  68  89
ENDBRANCH  42  43
ENDBRANCH  34  37
ENDBRANCH  32  33
ENDBRANCH   1  32
TORSDOF 18
