REMARK SMILES O=C(NCCCNC(=O)[C@@H]1CC(=O)N(c2ccc(Cl)cc2C(=O)c2ccccc2)C1)c1ccc(-c2c3nc(c(-c4ccc(S(=O)(=O)[O-])cc4)c4ccc([nH]4)c(-c4ccc(S(=O)(=O)[O-])cc4)c4nc(c(-c5ccc(S(=O)(=O)[O-])cc5)c5ccc2[nH]5)C=C4)C=C3)cc1
REMARK SMILES IDX 5 1 4 2 3 3 1 4 2 5 31 7 32 8 90 9 33 10 89 11 34 12 35 13
REMARK SMILES IDX 36 14 83 15 37 16 88 17 82 18 84 19 38 20 87 21 81 22 80 23
REMARK SMILES IDX 39 25 69 26 50 27 68 28 51 29 54 30 67 31 85 32 52 33 53 34
REMARK SMILES IDX 66 36 86 37 55 38 40 39 41 40 49 41 42 42 48 43 43 44 44 45
REMARK SMILES IDX 45 46 46 47 47 48 70 49 71 50 79 51 72 52 78 53 73 54 74 55
REMARK SMILES IDX 75 56 76 57 77 58 56 59 57 60 65 61 58 62 64 63 59 64 60 65
REMARK SMILES IDX 61 66 62 67 63 68 6 69 7 70 8 71 9 73 10 74 11 75 30 76
REMARK SMILES IDX 12 77 14 78 13 79 15 80 16 81 21 82 17 83 20 84 18 85 19 86
REMARK SMILES IDX 22 87 23 88 24 89 25 90 29 91 26 92 28 93 27 94
REMARK H PARENT 3 6 84 24 54 35 7 72
REMARK Flexibility Score: inf
ROOT
ATOM      1  C   UNL     1       4.944  -2.550  -0.225  1.00  0.00     0.042 C 
ENDROOT
BRANCH   1   2
ATOM      2  C   UNL     1       4.610  -1.124  -0.659  1.00  0.00     0.118 C 
BRANCH   2   3
ATOM      3  N   UNL     1       3.180  -0.860  -0.759  1.00  0.00    -0.352 N 
ATOM      4  O   UNL     1       1.195   0.063  -0.205  1.00  0.00    -0.269 OA
ATOM      5  C   UNL     1       2.414   0.058  -0.070  1.00  0.00     0.251 C 
ATOM      6  H   UNL     1       2.692  -1.416  -1.409  1.00  0.00     0.163 HD
BRANCH   5   7
ATOM      7  C   UNL     1       3.068   1.000   0.867  1.00  0.00     0.039 A 
ATOM      8  C   UNL     1       4.220   1.690   0.489  1.00  0.00     0.014 A 
ATOM      9  C   UNL     1       2.558   1.146   2.159  1.00  0.00     0.014 A 
ATOM     10  C   UNL     1       4.974   2.345   1.456  1.00  0.00     0.010 A 
ATOM     11  C   UNL     1       3.264   1.902   3.103  1.00  0.00     0.010 A 
ATOM     12  C   UNL     1       4.511   2.458   2.778  1.00  0.00    -0.014 A 
BRANCH  12  13
ATOM     13  C   UNL     1       5.346   3.169   3.785  1.00  0.00     0.031 A 
ATOM     14  C   UNL     1       5.876   2.460   5.008  1.00  0.00     0.074 A 
ATOM     15  C   UNL     1       5.676   4.458   3.566  1.00  0.00     0.049 A 
ATOM     16  N   UNL     1       6.661   2.920   5.950  1.00  0.00    -0.248 NA
ATOM     17  C   UNL     1       5.468   1.060   5.207  1.00  0.00     0.031 C 
ATOM     18  C   UNL     1       5.229   5.260   2.423  1.00  0.00     0.029 A 
ATOM     19  N   UNL     1       6.485   5.313   4.271  1.00  0.00    -0.354 N 
ATOM     20  C   UNL     1       6.816   1.883   6.865  1.00  0.00     0.074 A 
ATOM     21  C   UNL     1       6.024   0.775   6.377  1.00  0.00     0.031 C 
ATOM     22  C   UNL     1       5.822   6.462   2.468  1.00  0.00     0.029 A 
ATOM     23  C   UNL     1       6.631   6.545   3.678  1.00  0.00     0.049 A 
ATOM     24  H   UNL     1       6.920   5.067   5.119  1.00  0.00     0.167 HD
ATOM     25  C   UNL     1       7.552   1.853   8.004  1.00  0.00     0.031 A 
ATOM     26  C   UNL     1       7.327   7.631   4.064  1.00  0.00     0.031 A 
ATOM     27  C   UNL     1       8.348   2.955   8.483  1.00  0.00     0.049 A 
ATOM     28  C   UNL     1       8.119   7.577   5.338  1.00  0.00     0.074 A 
ATOM     29  C   UNL     1       9.158   3.007   9.606  1.00  0.00     0.029 A 
ATOM     30  N   UNL     1       8.435   4.197   7.873  1.00  0.00    -0.354 N 
ATOM     31  N   UNL     1       8.274   6.574   6.169  1.00  0.00    -0.248 NA
ATOM     32  C   UNL     1       8.835   8.800   5.722  1.00  0.00     0.031 C 
ATOM     33  C   UNL     1       9.688   4.298   9.706  1.00  0.00     0.029 A 
ATOM     34  C   UNL     1       9.263   5.030   8.609  1.00  0.00     0.049 A 
ATOM     35  H   UNL     1       7.975   4.451   7.040  1.00  0.00     0.167 HD
ATOM     36  C   UNL     1       9.129   7.038   7.162  1.00  0.00     0.074 A 
ATOM     37  C   UNL     1       9.469   8.404   6.817  1.00  0.00     0.031 C 
ATOM     38  C   UNL     1       9.592   6.389   8.259  1.00  0.00     0.031 A 
BRANCH  25  39
ATOM     39  C   UNL     1       7.506   0.597   8.839  1.00  0.00    -0.014 A 
ATOM     40  C   UNL     1       8.119  -0.595   8.410  1.00  0.00     0.010 A 
ATOM     41  C   UNL     1       6.880   0.624  10.100  1.00  0.00     0.010 A 
ATOM     42  C   UNL     1       8.067  -1.744   9.205  1.00  0.00     0.020 A 
ATOM     43  C   UNL     1       6.851  -0.515  10.910  1.00  0.00     0.020 A 
ATOM     44  C   UNL     1       7.428  -1.699  10.448  1.00  0.00     0.054 A 
BRANCH  44  45
ATOM     45  S   UNL     1       7.385  -3.203  11.461  1.00  0.00     0.124 S 
ATOM     46  O   UNL     1       6.421  -4.026  10.735  1.00  0.00    -0.237 OA
ATOM     47  O   UNL     1       8.769  -3.666  11.408  1.00  0.00    -0.237 OA
ATOM     48  O   UNL     1       6.939  -2.729  12.769  1.00  0.00    -0.744 OA
ENDBRANCH  44  45
ENDBRANCH  25  39
BRANCH  26  49
ATOM     49  C   UNL     1       7.300   8.861   3.227  1.00  0.00    -0.014 A 
ATOM     50  C   UNL     1       8.450   9.284   2.537  1.00  0.00     0.010 A 
ATOM     51  C   UNL     1       6.112   9.605   3.099  1.00  0.00     0.010 A 
ATOM     52  C   UNL     1       8.416  10.438   1.748  1.00  0.00     0.020 A 
ATOM     53  C   UNL     1       6.066  10.739   2.286  1.00  0.00     0.020 A 
ATOM     54  C   UNL     1       7.223  11.156   1.626  1.00  0.00     0.054 A 
BRANCH  54  55
ATOM     55  S   UNL     1       7.189  12.621   0.557  1.00  0.00     0.124 S 
ATOM     56  O   UNL     1       7.929  13.594   1.355  1.00  0.00    -0.237 OA
ATOM     57  O   UNL     1       7.862  12.147  -0.649  1.00  0.00    -0.237 OA
ATOM     58  O   UNL     1       5.763  12.895   0.399  1.00  0.00    -0.744 OA
ENDBRANCH  54  55
ENDBRANCH  26  49
BRANCH  38  59
ATOM     59  C   UNL     1      10.557   7.135   9.142  1.00  0.00    -0.014 A 
ATOM     60  C   UNL     1      10.139   8.214   9.941  1.00  0.00     0.010 A 
ATOM     61  C   UNL     1      11.904   6.730   9.188  1.00  0.00     0.010 A 
ATOM     62  C   UNL     1      11.061   8.904  10.734  1.00  0.00     0.020 A 
ATOM     63  C   UNL     1      12.821   7.397  10.002  1.00  0.00     0.020 A 
ATOM     64  C   UNL     1      12.398   8.493  10.756  1.00  0.00     0.054 A 
BRANCH  64  65
ATOM     65  S   UNL     1      13.571   9.390  11.808  1.00  0.00     0.124 S 
ATOM     66  O   UNL     1      13.765  10.628  11.059  1.00  0.00    -0.237 OA
ATOM     67  O   UNL     1      12.839   9.523  13.065  1.00  0.00    -0.237 OA
ATOM     68  O   UNL     1      14.733   8.506  11.862  1.00  0.00    -0.744 OA
ENDBRANCH  64  65
ENDBRANCH  38  59
ENDBRANCH  12  13
ENDBRANCH   5   7
ENDBRANCH   2   3
ENDBRANCH   1   2
BRANCH   1  69
ATOM     69  C   UNL     1       4.804  -3.591  -1.331  1.00  0.00     0.117 C 
BRANCH  69  70
ATOM     70  N   UNL     1       5.689  -3.289  -2.439  1.00  0.00    -0.356 N 
ATOM     71  C   UNL     1       6.708  -3.966  -3.012  1.00  0.00     0.225 C 
ATOM     72  H   UNL     1       5.512  -2.416  -2.858  1.00  0.00     0.163 HD
ATOM     73  O   UNL     1       7.360  -3.366  -3.869  1.00  0.00    -0.275 OA
BRANCH  71  74
ATOM     74  C   UNL     1       7.007  -5.407  -2.646  1.00  0.00     0.107 C 
ATOM     75  C   UNL     1       8.510  -5.623  -2.705  1.00  0.00     0.116 C 
ATOM     76  C   UNL     1       6.492  -6.362  -3.719  1.00  0.00     0.139 C 
ATOM     77  C   UNL     1       8.742  -5.927  -4.164  1.00  0.00     0.227 C 
ATOM     78  N   UNL     1       7.523  -6.375  -4.728  1.00  0.00    -0.311 N 
ATOM     79  O   UNL     1       9.841  -5.839  -4.696  1.00  0.00    -0.274 OA
BRANCH  78  80
ATOM     80  C   UNL     1       7.435  -7.002  -6.010  1.00  0.00     0.055 A 
ATOM     81  C   UNL     1       8.587  -7.734  -6.407  1.00  0.00     0.028 A 
ATOM     82  C   UNL     1       6.329  -7.038  -6.891  1.00  0.00     0.048 A 
ATOM     83  C   UNL     1       8.672  -8.452  -7.600  1.00  0.00     0.023 A 
ATOM     84  C   UNL     1       6.447  -7.750  -8.119  1.00  0.00     0.035 A 
ATOM     85  C   UNL     1       7.598  -8.448  -8.463  1.00  0.00     0.041 A 
ATOM     86  Cl  UNL     1       7.675  -9.334  -9.934  1.00  0.00    -0.084 Cl
BRANCH  82  87
ATOM     87  C   UNL     1       4.955  -6.494  -6.716  1.00  0.00     0.195 C 
ATOM     88  O   UNL     1       4.022  -7.193  -7.128  1.00  0.00    -0.289 OA
BRANCH  87  89
ATOM     89  C   UNL     1       4.569  -5.198  -6.125  1.00  0.00     0.023 A 
ATOM     90  C   UNL     1       3.375  -5.189  -5.377  1.00  0.00     0.012 A 
ATOM     91  C   UNL     1       5.283  -4.016  -6.300  1.00  0.00     0.012 A 
ATOM     92  C   UNL     1       2.918  -4.022  -4.772  1.00  0.00     0.001 A 
ATOM     93  C   UNL     1       4.801  -2.836  -5.715  1.00  0.00     0.001 A 
ATOM     94  C   UNL     1       3.630  -2.840  -4.949  1.00  0.00     0.000 A 
ENDBRANCH  87  89
ENDBRANCH  82  87
ENDBRANCH  78  80
ENDBRANCH  71  74
ENDBRANCH  69  70
ENDBRANCH   1  69
TORSDOF 16
