REMARK SMILES COC(=O)[C@@H]1C[C@@H](C(=O)NCCCNC(=O)c2ccc(-c3c4nc(c(-c5ccc(S(=O)(=O)[O-])cc5)c5ccc([nH]5)c(-c5ccc(S(=O)(=O)[O-])cc5)c5nc(c(-c6ccc(S(=O)(=O)[O-])cc6)c6ccc3[nH]6)C=C5)C=C4)cc2)[C@@H](c2cccc(F)c2F)[N@H+]1C
REMARK SMILES IDX 12 1 11 2 10 3 8 4 9 5 7 7 5 8 6 9 86 10 77 11 87 12 3 14
REMARK SMILES IDX 4 15 2 16 1 17 78 18 79 19 84 20 80 21 82 22 85 23 81 24
REMARK SMILES IDX 83 25 13 26 14 27 15 28 16 30 17 31 18 32 76 33 19 34 75 35
REMARK SMILES IDX 20 36 21 37 22 38 69 39 23 40 74 41 68 42 70 43 24 44 73 45
REMARK SMILES IDX 67 46 66 47 25 49 55 50 36 51 54 52 37 53 40 54 53 55 71 56
REMARK SMILES IDX 38 57 39 58 52 60 72 61 41 62 26 63 27 64 35 65 28 66 34 67
REMARK SMILES IDX 29 68 30 69 31 70 32 71 33 72 56 73 57 74 65 75 58 76 64 77
REMARK SMILES IDX 59 78 60 79 61 80 62 81 63 82 42 83 43 84 51 85 44 86 50 87
REMARK SMILES IDX 45 88 46 89 47 90 48 91 49 92
REMARK H PARENT 10 6 86 13 14 29 70 48 40 59
REMARK Flexibility Score: inf
ROOT
ATOM      1  C   UNL     1       1.640   2.388   2.225  1.00  0.00     0.042 C 
ENDROOT
BRANCH   1   2
ATOM      2  C   UNL     1       0.195   2.666   1.836  1.00  0.00     0.117 C 
BRANCH   2   3
ATOM      3  N   UNL     1      -0.221   4.043   2.045  1.00  0.00    -0.356 N 
ATOM      4  C   UNL     1      -0.343   5.133   1.251  1.00  0.00     0.229 C 
ATOM      5  O   UNL     1      -0.806   6.142   1.800  1.00  0.00    -0.275 OA
ATOM      6  H   UNL     1      -0.472   4.225   2.980  1.00  0.00     0.163 HD
BRANCH   4   7
ATOM      7  C   UNL     1       0.045   5.211  -0.220  1.00  0.00     0.148 C 
ATOM      8  C   UNL     1       0.565   3.404  -1.736  1.00  0.00     0.296 C 
ATOM      9  C   UNL     1      -0.598   4.106  -1.055  1.00  0.00     0.097 C 
ATOM     10  N   UNL     1       1.466   4.544  -1.936  1.00  0.00    -0.319 N 
ATOM     11  C   UNL     1       1.528   5.375  -0.711  1.00  0.00     0.231 C 
ATOM     12  C   UNL     1       2.601   4.342  -2.799  1.00  0.00     0.333 C 
ATOM     13  H   UNL     1       1.068   5.202  -2.607  1.00  0.00     0.349 HD
BRANCH   8  14
ATOM     14  C   UNL     1       0.087   2.721  -3.026  1.00  0.00     0.364 C 
ATOM     15  O   UNL     1      -1.036   2.810  -3.501  1.00  0.00    -0.245 OA
BRANCH  14  16
ATOM     16  O   UNL     1       1.081   1.943  -3.549  1.00  0.00    -0.465 OA
ATOM     17  C   UNL     1       0.756   1.325  -4.795  1.00  0.00     0.282 C 
ENDBRANCH  14  16
ENDBRANCH   8  14
BRANCH  11  18
ATOM     18  C   UNL     1       2.653   5.274   0.329  1.00  0.00     0.049 A 
ATOM     19  C   UNL     1       2.484   5.928   1.576  1.00  0.00     0.013 A 
ATOM     20  C   UNL     1       3.928   4.715   0.145  1.00  0.00     0.167 A 
ATOM     21  C   UNL     1       3.420   5.850   2.621  1.00  0.00     0.004 A 
ATOM     22  C   UNL     1       4.878   4.660   1.174  1.00  0.00     0.159 A 
ATOM     23  F   UNL     1       4.336   4.235  -1.029  1.00  0.00    -0.203 F 
ATOM     24  C   UNL     1       4.619   5.186   2.426  1.00  0.00     0.042 A 
ATOM     25  F   UNL     1       6.069   4.090   0.944  1.00  0.00    -0.204 F 
ENDBRANCH  11  18
ENDBRANCH   4   7
ENDBRANCH   2   3
ENDBRANCH   1   2
BRANCH   1  26
ATOM     26  C   UNL     1       1.972   2.706   3.679  1.00  0.00     0.118 C 
BRANCH  26  27
ATOM     27  N   UNL     1       1.511   1.658   4.572  1.00  0.00    -0.352 N 
ATOM     28  C   UNL     1       2.248   0.816   5.369  1.00  0.00     0.251 C 
ATOM     29  H   UNL     1       0.535   1.534   4.613  1.00  0.00     0.163 HD
ATOM     30  O   UNL     1       1.713  -0.188   5.834  1.00  0.00    -0.269 OA
BRANCH  28  31
ATOM     31  C   UNL     1       3.672   1.102   5.668  1.00  0.00     0.039 A 
ATOM     32  C   UNL     1       4.579   0.039   5.691  1.00  0.00     0.014 A 
ATOM     33  C   UNL     1       4.105   2.391   5.999  1.00  0.00     0.014 A 
ATOM     34  C   UNL     1       5.918   0.270   6.021  1.00  0.00     0.010 A 
ATOM     35  C   UNL     1       5.455   2.629   6.268  1.00  0.00     0.010 A 
ATOM     36  C   UNL     1       6.373   1.569   6.301  1.00  0.00    -0.014 A 
BRANCH  36  37
ATOM     37  C   UNL     1       7.799   1.815   6.651  1.00  0.00     0.031 A 
ATOM     38  C   UNL     1       8.180   2.292   8.029  1.00  0.00     0.074 A 
ATOM     39  C   UNL     1       8.759   1.624   5.725  1.00  0.00     0.049 A 
ATOM     40  N   UNL     1       9.369   2.542   8.517  1.00  0.00    -0.248 NA
ATOM     41  C   UNL     1       7.081   2.534   8.977  1.00  0.00     0.031 C 
ATOM     42  C   UNL     1       8.528   1.185   4.347  1.00  0.00     0.029 A 
ATOM     43  N   UNL     1      10.123   1.767   5.803  1.00  0.00    -0.354 N 
ATOM     44  C   UNL     1       9.162   2.979   9.821  1.00  0.00     0.074 A 
ATOM     45  C   UNL     1       7.731   3.009  10.030  1.00  0.00     0.031 C 
ATOM     46  C   UNL     1       9.710   1.060   3.723  1.00  0.00     0.029 A 
ATOM     47  C   UNL     1      10.779   1.448   4.638  1.00  0.00     0.049 A 
ATOM     48  H   UNL     1      10.586   2.070   6.617  1.00  0.00     0.167 HD
ATOM     49  C   UNL     1      10.077   3.309  10.766  1.00  0.00     0.031 A 
ATOM     50  C   UNL     1      12.092   1.465   4.335  1.00  0.00     0.031 A 
ATOM     51  C   UNL     1      11.502   3.285  10.557  1.00  0.00     0.049 A 
ATOM     52  C   UNL     1      13.089   1.868   5.387  1.00  0.00     0.074 A 
ATOM     53  C   UNL     1      12.509   3.558  11.467  1.00  0.00     0.029 A 
ATOM     54  N   UNL     1      12.123   2.982   9.355  1.00  0.00    -0.354 N 
ATOM     55  N   UNL     1      12.876   2.217   6.634  1.00  0.00    -0.248 NA
ATOM     56  C   UNL     1      14.505   1.867   4.994  1.00  0.00     0.031 C 
ATOM     57  C   UNL     1      13.736   3.481  10.799  1.00  0.00     0.029 A 
ATOM     58  C   UNL     1      13.498   3.092   9.490  1.00  0.00     0.049 A 
ATOM     59  H   UNL     1      11.656   2.725   8.527  1.00  0.00     0.167 HD
ATOM     60  C   UNL     1      14.133   2.452   7.181  1.00  0.00     0.074 A 
ATOM     61  C   UNL     1      15.101   2.192   6.134  1.00  0.00     0.031 C 
ATOM     62  C   UNL     1      14.455   2.843   8.440  1.00  0.00     0.031 A 
BRANCH  49  63
ATOM     63  C   UNL     1       9.556   3.749  12.111  1.00  0.00    -0.014 A 
ATOM     64  C   UNL     1       8.905   2.848  12.975  1.00  0.00     0.010 A 
ATOM     65  C   UNL     1       9.735   5.082  12.528  1.00  0.00     0.010 A 
ATOM     66  C   UNL     1       8.391   3.284  14.199  1.00  0.00     0.020 A 
ATOM     67  C   UNL     1       9.250   5.514  13.766  1.00  0.00     0.020 A 
ATOM     68  C   UNL     1       8.559   4.617  14.583  1.00  0.00     0.054 A 
BRANCH  68  69
ATOM     69  S   UNL     1       7.870   5.159  16.171  1.00  0.00     0.124 S 
ATOM     70  O   UNL     1       6.437   5.179  15.885  1.00  0.00    -0.237 OA
ATOM     71  O   UNL     1       8.312   4.111  17.087  1.00  0.00    -0.237 OA
ATOM     72  O   UNL     1       8.479   6.469  16.386  1.00  0.00    -0.744 OA
ENDBRANCH  68  69
ENDBRANCH  49  63
BRANCH  50  73
ATOM     73  C   UNL     1      12.538   1.060   2.973  1.00  0.00    -0.014 A 
ATOM     74  C   UNL     1      13.218  -0.154   2.777  1.00  0.00     0.010 A 
ATOM     75  C   UNL     1      12.251   1.871   1.859  1.00  0.00     0.010 A 
ATOM     76  C   UNL     1      13.606  -0.550   1.494  1.00  0.00     0.020 A 
ATOM     77  C   UNL     1      12.612   1.465   0.571  1.00  0.00     0.020 A 
ATOM     78  C   UNL     1      13.293   0.259   0.398  1.00  0.00     0.054 A 
BRANCH  78  79
ATOM     79  S   UNL     1      13.739  -0.314  -1.266  1.00  0.00     0.124 S 
ATOM     80  O   UNL     1      15.190  -0.158  -1.263  1.00  0.00    -0.237 OA
ATOM     81  O   UNL     1      13.250  -1.690  -1.265  1.00  0.00    -0.237 OA
ATOM     82  O   UNL     1      13.012   0.596  -2.148  1.00  0.00    -0.744 OA
ENDBRANCH  78  79
ENDBRANCH  50  73
BRANCH  62  83
ATOM     83  C   UNL     1      15.919   2.989   8.771  1.00  0.00    -0.014 A 
ATOM     84  C   UNL     1      16.687   4.044   8.246  1.00  0.00     0.010 A 
ATOM     85  C   UNL     1      16.521   2.084   9.665  1.00  0.00     0.010 A 
ATOM     86  C   UNL     1      18.038   4.172   8.585  1.00  0.00     0.020 A 
ATOM     87  C   UNL     1      17.863   2.227  10.030  1.00  0.00     0.020 A 
ATOM     88  C   UNL     1      18.617   3.262   9.476  1.00  0.00     0.054 A 
BRANCH  88  89
ATOM     89  S   UNL     1      20.359   3.476   9.933  1.00  0.00     0.124 S 
ATOM     90  O   UNL     1      21.047   3.061   8.713  1.00  0.00    -0.237 OA
ATOM     91  O   UNL     1      20.436   4.902  10.243  1.00  0.00    -0.237 OA
ATOM     92  O   UNL     1      20.530   2.585  11.078  1.00  0.00    -0.744 OA
ENDBRANCH  88  89
ENDBRANCH  62  83
ENDBRANCH  36  37
ENDBRANCH  28  31
ENDBRANCH  26  27
ENDBRANCH   1  26
TORSDOF 16
