REMARK SMILES O=C(NCCCNC(=O)c1ccc(-c2c3nc(c(-c4ccc(S(=O)(=O)[O-])cc4)c4ccc([nH]4)c(-c4ccc(S(=O)(=O)[O-])cc4)c4nc(c(-c5ccc(S(=O)(=O)[O-])cc5)c5ccc2[nH]5)C=C4)C=C3)cc1)c1ccc(-c2ccc(=O)[nH]c2)cc1
REMARK SMILES IDX 6 1 5 2 4 3 3 4 1 5 2 6 70 8 71 9 82 10 72 11 81 12 73 13
REMARK SMILES IDX 74 14 75 15 80 16 76 17 79 18 77 19 78 21 7 22 8 23 9 25
REMARK SMILES IDX 10 26 11 27 69 28 12 29 68 30 13 31 14 32 15 33 62 34 16 35
REMARK SMILES IDX 67 36 61 37 63 38 17 39 66 40 60 41 59 42 18 44 48 45 29 46
REMARK SMILES IDX 47 47 30 48 33 49 46 50 64 51 31 52 32 53 45 55 65 56 34 57
REMARK SMILES IDX 19 58 20 59 28 60 21 61 27 62 22 63 23 64 24 65 25 66 26 67
REMARK SMILES IDX 49 68 50 69 58 70 51 71 57 72 52 73 53 74 54 75 55 76 56 77
REMARK SMILES IDX 35 78 36 79 44 80 37 81 43 82 38 83 39 84 40 85 41 86 42 87
REMARK H PARENT 3 7 79 20 7 24 63 43 33 54
REMARK Flexibility Score: inf
ROOT
ATOM      1  C   UNL     1       4.395   2.610  -2.672  1.00  0.00     0.118 C 
ENDROOT
BRANCH   1   2
ATOM      2  C   UNL     1       4.932   1.375  -1.965  1.00  0.00     0.042 C 
BRANCH   2   3
ATOM      3  C   UNL     1       4.529   1.273  -0.502  1.00  0.00     0.118 C 
BRANCH   3   4
ATOM      4  N   UNL     1       3.092   1.107  -0.321  1.00  0.00    -0.352 N 
ATOM      5  O   UNL     1       1.166   0.007   0.108  1.00  0.00    -0.269 OA
ATOM      6  C   UNL     1       2.391   0.031   0.166  1.00  0.00     0.251 C 
ATOM      7  H   UNL     1       2.543   1.880  -0.588  1.00  0.00     0.163 HD
BRANCH   6   8
ATOM      8  C   UNL     1       3.121  -1.112   0.750  1.00  0.00     0.039 A 
ATOM      9  C   UNL     1       4.109  -0.904   1.714  1.00  0.00     0.014 A 
ATOM     10  C   UNL     1       2.821  -2.405   0.316  1.00  0.00     0.014 A 
ATOM     11  C   UNL     1       4.883  -1.976   2.151  1.00  0.00     0.009 A 
ATOM     12  C   UNL     1       3.575  -3.485   0.787  1.00  0.00     0.009 A 
ATOM     13  C   UNL     1       4.630  -3.277   1.690  1.00  0.00    -0.017 A 
BRANCH  13  14
ATOM     14  C   UNL     1       5.486  -4.399   2.129  1.00  0.00    -0.002 A 
ATOM     15  C   UNL     1       6.102  -5.345   1.206  1.00  0.00     0.016 A 
ATOM     16  C   UNL     1       5.745  -4.542   3.443  1.00  0.00     0.094 A 
ATOM     17  C   UNL     1       6.910  -6.324   1.640  1.00  0.00     0.072 A 
ATOM     18  N   UNL     1       6.572  -5.537   3.901  1.00  0.00    -0.328 N 
ATOM     19  C   UNL     1       7.189  -6.456   3.090  1.00  0.00     0.247 A 
ATOM     20  H   UNL     1       6.734  -5.593   4.870  1.00  0.00     0.169 HD
ATOM     21  O   UNL     1       7.923  -7.336   3.526  1.00  0.00    -0.270 OA
ENDBRANCH  13  14
ENDBRANCH   6   8
ENDBRANCH   3   4
ENDBRANCH   2   3
ENDBRANCH   1   2
BRANCH   1  22
ATOM     22  N   UNL     1       4.885   3.854  -2.089  1.00  0.00    -0.352 N 
ATOM     23  C   UNL     1       5.698   4.827  -2.617  1.00  0.00     0.251 C 
ATOM     24  H   UNL     1       4.583   4.023  -1.167  1.00  0.00     0.163 HD
ATOM     25  O   UNL     1       6.138   5.708  -1.883  1.00  0.00    -0.269 OA
BRANCH  23  26
ATOM     26  C   UNL     1       6.064   4.804  -4.050  1.00  0.00     0.039 A 
ATOM     27  C   UNL     1       7.375   5.115  -4.420  1.00  0.00     0.014 A 
ATOM     28  C   UNL     1       5.122   4.484  -5.030  1.00  0.00     0.014 A 
ATOM     29  C   UNL     1       7.759   5.021  -5.761  1.00  0.00     0.010 A 
ATOM     30  C   UNL     1       5.528   4.296  -6.347  1.00  0.00     0.010 A 
ATOM     31  C   UNL     1       6.850   4.564  -6.729  1.00  0.00    -0.014 A 
BRANCH  31  32
ATOM     32  C   UNL     1       7.256   4.354  -8.143  1.00  0.00     0.031 A 
ATOM     33  C   UNL     1       6.589   5.134  -9.245  1.00  0.00     0.074 A 
ATOM     34  C   UNL     1       8.170   3.408  -8.443  1.00  0.00     0.049 A 
ATOM     35  N   UNL     1       6.742   5.027 -10.540  1.00  0.00    -0.248 NA
ATOM     36  C   UNL     1       5.603   6.150  -8.840  1.00  0.00     0.031 C 
ATOM     37  C   UNL     1       8.865   2.560  -7.471  1.00  0.00     0.029 A 
ATOM     38  N   UNL     1       8.667   2.995  -9.654  1.00  0.00    -0.354 N 
ATOM     39  C   UNL     1       5.863   5.946 -11.102  1.00  0.00     0.074 A 
ATOM     40  C   UNL     1       5.141   6.562 -10.011  1.00  0.00     0.031 C 
ATOM     41  C   UNL     1       9.718   1.752  -8.121  1.00  0.00     0.029 A 
ATOM     42  C   UNL     1       9.596   1.986  -9.556  1.00  0.00     0.049 A 
ATOM     43  H   UNL     1       8.385   3.386 -10.513  1.00  0.00     0.167 HD
ATOM     44  C   UNL     1       5.688   6.267 -12.406  1.00  0.00     0.031 A 
ATOM     45  C   UNL     1      10.267   1.314 -10.512  1.00  0.00     0.031 A 
ATOM     46  C   UNL     1       6.414   5.658 -13.489  1.00  0.00     0.049 A 
ATOM     47  C   UNL     1      10.031   1.665 -11.956  1.00  0.00     0.074 A 
ATOM     48  C   UNL     1       6.342   5.946 -14.841  1.00  0.00     0.029 A 
ATOM     49  N   UNL     1       7.345   4.640 -13.346  1.00  0.00    -0.354 N 
ATOM     50  N   UNL     1       9.236   2.577 -12.463  1.00  0.00    -0.248 NA
ATOM     51  C   UNL     1      10.787   0.900 -12.957  1.00  0.00     0.031 C 
ATOM     52  C   UNL     1       7.189   5.064 -15.520  1.00  0.00     0.029 A 
ATOM     53  C   UNL     1       7.836   4.271 -14.586  1.00  0.00     0.049 A 
ATOM     54  H   UNL     1       7.616   4.239 -12.488  1.00  0.00     0.167 HD
ATOM     55  C   UNL     1       9.421   2.517 -13.840  1.00  0.00     0.074 A 
ATOM     56  C   UNL     1      10.412   1.489 -14.085  1.00  0.00     0.031 C 
ATOM     57  C   UNL     1       8.826   3.248 -14.814  1.00  0.00     0.031 A 
BRANCH  44  58
ATOM     58  C   UNL     1       4.668   7.327 -12.733  1.00  0.00    -0.014 A 
ATOM     59  C   UNL     1       4.885   8.673 -12.386  1.00  0.00     0.010 A 
ATOM     60  C   UNL     1       3.498   6.982 -13.434  1.00  0.00     0.010 A 
ATOM     61  C   UNL     1       3.932   9.646 -12.694  1.00  0.00     0.020 A 
ATOM     62  C   UNL     1       2.556   7.958 -13.772  1.00  0.00     0.020 A 
ATOM     63  C   UNL     1       2.772   9.282 -13.384  1.00  0.00     0.054 A 
BRANCH  63  64
ATOM     64  S   UNL     1       1.565  10.573 -13.791  1.00  0.00     0.124 S 
ATOM     65  O   UNL     1       0.988  10.869 -12.482  1.00  0.00    -0.237 OA
ATOM     66  O   UNL     1       2.402  11.626 -14.361  1.00  0.00    -0.237 OA
ATOM     67  O   UNL     1       0.662   9.919 -14.735  1.00  0.00    -0.744 OA
ENDBRANCH  63  64
ENDBRANCH  44  58
BRANCH  45  68
ATOM     68  C   UNL     1      11.234   0.245 -10.136  1.00  0.00    -0.014 A 
ATOM     69  C   UNL     1      12.614   0.433 -10.331  1.00  0.00     0.010 A 
ATOM     70  C   UNL     1      10.782  -0.966  -9.581  1.00  0.00     0.010 A 
ATOM     71  C   UNL     1      13.521  -0.578 -10.001  1.00  0.00     0.020 A 
ATOM     72  C   UNL     1      11.688  -1.967  -9.221  1.00  0.00     0.020 A 
ATOM     73  C   UNL     1      13.052  -1.772  -9.447  1.00  0.00     0.054 A 
BRANCH  73  74
ATOM     74  S   UNL     1      14.251  -3.054  -8.989  1.00  0.00     0.124 S 
ATOM     75  O   UNL     1      14.661  -3.565 -10.293  1.00  0.00    -0.237 OA
ATOM     76  O   UNL     1      15.261  -2.294  -8.259  1.00  0.00    -0.237 OA
ATOM     77  O   UNL     1      13.467  -3.978  -8.172  1.00  0.00    -0.744 OA
ENDBRANCH  73  74
ENDBRANCH  45  68
BRANCH  57  78
ATOM     78  C   UNL     1       9.254   2.994 -16.235  1.00  0.00    -0.014 A 
ATOM     79  C   UNL     1       8.881   1.819 -16.912  1.00  0.00     0.010 A 
ATOM     80  C   UNL     1       9.985   3.980 -16.924  1.00  0.00     0.010 A 
ATOM     81  C   UNL     1       9.255   1.624 -18.244  1.00  0.00     0.020 A 
ATOM     82  C   UNL     1      10.335   3.801 -18.264  1.00  0.00     0.020 A 
ATOM     83  C   UNL     1       9.978   2.618 -18.912  1.00  0.00     0.054 A 
BRANCH  83  84
ATOM     84  S   UNL     1      10.401   2.363 -20.657  1.00  0.00     0.124 S 
ATOM     85  O   UNL     1      11.446   1.347 -20.572  1.00  0.00    -0.237 OA
ATOM     86  O   UNL     1       9.134   1.915 -21.232  1.00  0.00    -0.237 OA
ATOM     87  O   UNL     1      10.848   3.681 -21.102  1.00  0.00    -0.744 OA
ENDBRANCH  83  84
ENDBRANCH  57  78
ENDBRANCH  31  32
ENDBRANCH  23  26
ENDBRANCH   1  22
TORSDOF 14
