REMARK SMILES CCC[C@@H]1CCc2nc3c(F)cccc3c(C(=O)NCCCNC(=O)c3ccc(-c4c5nc(c(-c6ccc(S(=O)(=O)[O-])cc6)c6ccc([nH]6)c(-c6ccc(S(=O)(=O)[O-])cc6)c6nc(c(-c7ccc(S(=O)(=O)[O-])cc7)c7ccc4[nH]7)C=C6)C=C5)cc3)c2C1
REMARK SMILES IDX 21 1 20 2 19 3 17 4 18 5 16 7 4 8 5 9 87 10 6 11 86 12 7 13
REMARK SMILES IDX 8 14 15 15 9 16 14 17 10 18 13 19 11 20 12 21 3 22 2 23 1 24
REMARK SMILES IDX 22 25 23 26 24 27 25 29 26 30 27 31 85 32 28 33 84 34 29 35
REMARK SMILES IDX 30 36 31 37 78 38 32 39 83 40 77 41 79 42 33 43 82 44 76 45
REMARK SMILES IDX 75 46 34 48 64 49 45 50 63 51 46 52 49 53 62 54 80 55 47 56
REMARK SMILES IDX 48 57 61 59 81 60 50 61 35 62 36 63 44 64 37 65 43 66 38 67
REMARK SMILES IDX 39 68 40 69 41 70 42 71 65 72 66 73 74 74 67 75 73 76 68 77
REMARK SMILES IDX 69 78 70 79 71 80 72 81 51 82 52 83 60 84 53 85 59 86 54 87
REMARK SMILES IDX 55 88 56 89 57 90 58 91
REMARK H PARENT 19 6 23 28 79 47 49 58
REMARK Flexibility Score: inf
ROOT
ATOM      1  C   UNL     1       0.281   4.812   4.979  1.00  0.00     0.042 C 
ENDROOT
BRANCH   1   2
ATOM      2  C   UNL     1      -0.673   4.037   4.057  1.00  0.00     0.118 C 
BRANCH   2   3
ATOM      3  N   UNL     1       0.092   3.100   3.248  1.00  0.00    -0.352 N 
ATOM      4  C   UNL     1       0.570   1.831   3.491  1.00  0.00     0.252 C 
ATOM      5  O   UNL     1       1.651   1.576   2.959  1.00  0.00    -0.269 OA
ATOM      6  H   UNL     1       0.312   3.440   2.351  1.00  0.00     0.163 HD
BRANCH   4   7
ATOM      7  C   UNL     1      -0.208   0.743   4.187  1.00  0.00     0.054 A 
ATOM      8  C   UNL     1       0.465  -2.288   1.830  1.00  0.00    -0.006 C 
ATOM      9  C   UNL     1      -0.874  -2.989   2.067  1.00  0.00     0.010 C 
ATOM     10  C   UNL     1       0.344  -0.805   2.200  1.00  0.00     0.042 C 
ATOM     11  C   UNL     1      -1.256  -2.866   3.540  1.00  0.00     0.057 C 
ATOM     12  C   UNL     1      -0.324  -0.506   3.522  1.00  0.00    -0.013 A 
ATOM     13  C   UNL     1      -1.179  -1.458   4.073  1.00  0.00     0.045 A 
ATOM     14  N   UNL     1      -1.937  -1.213   5.162  1.00  0.00    -0.249 NA
ATOM     15  C   UNL     1      -0.830   0.902   5.453  1.00  0.00     0.016 A 
ATOM     16  C   UNL     1      -1.773  -0.066   5.842  1.00  0.00     0.107 A 
ATOM     17  C   UNL     1      -0.538   1.926   6.381  1.00  0.00     0.011 A 
ATOM     18  C   UNL     1      -2.535   0.172   6.989  1.00  0.00     0.149 A 
ATOM     19  C   UNL     1      -1.304   2.148   7.523  1.00  0.00     0.004 A 
ATOM     20  F   UNL     1      -3.496  -0.699   7.344  1.00  0.00    -0.205 F 
ATOM     21  C   UNL     1      -2.343   1.283   7.806  1.00  0.00     0.041 A 
BRANCH   8  22
ATOM     22  C   UNL     1       1.029  -2.526   0.410  1.00  0.00     0.003 C 
BRANCH  22  23
ATOM     23  C   UNL     1       0.519  -1.633  -0.730  1.00  0.00    -0.003 C 
ATOM     24  C   UNL     1       1.248  -0.296  -0.856  1.00  0.00     0.004 C 
ENDBRANCH  22  23
ENDBRANCH   8  22
ENDBRANCH   4   7
ENDBRANCH   2   3
ENDBRANCH   1   2
BRANCH   1  25
ATOM     25  C   UNL     1       1.065   5.908   4.269  1.00  0.00     0.118 C 
BRANCH  25  26
ATOM     26  N   UNL     1       0.302   7.141   4.187  1.00  0.00    -0.352 N 
ATOM     27  C   UNL     1       0.346   8.235   5.012  1.00  0.00     0.251 C 
ATOM     28  H   UNL     1      -0.334   7.198   3.437  1.00  0.00     0.163 HD
ATOM     29  O   UNL     1      -0.572   9.061   4.971  1.00  0.00    -0.269 OA
BRANCH  27  30
ATOM     30  C   UNL     1       1.471   8.430   5.954  1.00  0.00     0.039 A 
ATOM     31  C   UNL     1       1.205   8.880   7.251  1.00  0.00     0.014 A 
ATOM     32  C   UNL     1       2.793   8.228   5.543  1.00  0.00     0.014 A 
ATOM     33  C   UNL     1       2.259   9.096   8.142  1.00  0.00     0.010 A 
ATOM     34  C   UNL     1       3.837   8.371   6.454  1.00  0.00     0.010 A 
ATOM     35  C   UNL     1       3.582   8.835   7.752  1.00  0.00    -0.014 A 
BRANCH  35  36
ATOM     36  C   UNL     1       4.720   9.129   8.656  1.00  0.00     0.031 A 
ATOM     37  C   UNL     1       5.661  10.254   8.322  1.00  0.00     0.074 A 
ATOM     38  C   UNL     1       4.921   8.386   9.760  1.00  0.00     0.049 A 
ATOM     39  N   UNL     1       6.722  10.660   8.968  1.00  0.00    -0.248 NA
ATOM     40  C   UNL     1       5.379  11.012   7.091  1.00  0.00     0.031 C 
ATOM     41  C   UNL     1       4.086   7.262  10.185  1.00  0.00     0.029 A 
ATOM     42  N   UNL     1       5.889   8.470  10.729  1.00  0.00    -0.354 N 
ATOM     43  C   UNL     1       7.226  11.724   8.230  1.00  0.00     0.074 A 
ATOM     44  C   UNL     1       6.399  11.855   7.052  1.00  0.00     0.031 C 
ATOM     45  C   UNL     1       4.560   6.780  11.345  1.00  0.00     0.029 A 
ATOM     46  C   UNL     1       5.747   7.540  11.731  1.00  0.00     0.049 A 
ATOM     47  H   UNL     1       6.616   9.133  10.709  1.00  0.00     0.167 HD
ATOM     48  C   UNL     1       8.262  12.543   8.522  1.00  0.00     0.031 A 
ATOM     49  C   UNL     1       6.485   7.324  12.838  1.00  0.00     0.031 A 
ATOM     50  C   UNL     1       9.089  12.410   9.689  1.00  0.00     0.049 A 
ATOM     51  C   UNL     1       7.668   8.205  13.120  1.00  0.00     0.074 A 
ATOM     52  C   UNL     1      10.160  13.194  10.078  1.00  0.00     0.029 A 
ATOM     53  N   UNL     1       8.933  11.430  10.657  1.00  0.00    -0.354 N 
ATOM     54  N   UNL     1       8.122   9.215  12.417  1.00  0.00    -0.248 NA
ATOM     55  C   UNL     1       8.434   7.927  14.343  1.00  0.00     0.031 C 
ATOM     56  C   UNL     1      10.678  12.662  11.262  1.00  0.00     0.029 A 
ATOM     57  C   UNL     1       9.898  11.578  11.637  1.00  0.00     0.049 A 
ATOM     58  H   UNL     1       8.239  10.732  10.649  1.00  0.00     0.167 HD
ATOM     59  C   UNL     1       9.219   9.703  13.117  1.00  0.00     0.074 A 
ATOM     60  C   UNL     1       9.358   8.880  14.302  1.00  0.00     0.031 C 
ATOM     61  C   UNL     1      10.031  10.743  12.805  1.00  0.00     0.031 A 
BRANCH  48  62
ATOM     62  C   UNL     1       8.543  13.665   7.559  1.00  0.00    -0.014 A 
ATOM     63  C   UNL     1       7.666  14.761   7.467  1.00  0.00     0.010 A 
ATOM     64  C   UNL     1       9.692  13.635   6.751  1.00  0.00     0.010 A 
ATOM     65  C   UNL     1       7.910  15.787   6.552  1.00  0.00     0.020 A 
ATOM     66  C   UNL     1       9.955  14.674   5.853  1.00  0.00     0.020 A 
ATOM     67  C   UNL     1       9.054  15.736   5.750  1.00  0.00     0.054 A 
BRANCH  67  68
ATOM     68  S   UNL     1       9.334  17.080   4.565  1.00  0.00     0.124 S 
ATOM     69  O   UNL     1       8.156  16.978   3.706  1.00  0.00    -0.237 OA
ATOM     70  O   UNL     1       9.381  18.256   5.429  1.00  0.00    -0.237 OA
ATOM     71  O   UNL     1      10.597  16.724   3.925  1.00  0.00    -0.744 OA
ENDBRANCH  67  68
ENDBRANCH  48  62
BRANCH  49  72
ATOM     72  C   UNL     1       6.073   6.240  13.768  1.00  0.00    -0.014 A 
ATOM     73  C   UNL     1       5.356   6.548  14.937  1.00  0.00     0.010 A 
ATOM     74  C   UNL     1       6.282   4.892  13.425  1.00  0.00     0.010 A 
ATOM     75  C   UNL     1       4.823   5.526  15.728  1.00  0.00     0.020 A 
ATOM     76  C   UNL     1       5.737   3.868  14.205  1.00  0.00     0.020 A 
ATOM     77  C   UNL     1       4.997   4.193  15.343  1.00  0.00     0.054 A 
BRANCH  77  78
ATOM     78  S   UNL     1       4.185   2.897  16.320  1.00  0.00     0.124 S 
ATOM     79  O   UNL     1       4.767   3.093  17.643  1.00  0.00    -0.237 OA
ATOM     80  O   UNL     1       2.775   3.255  16.188  1.00  0.00    -0.237 OA
ATOM     81  O   UNL     1       4.574   1.661  15.643  1.00  0.00    -0.744 OA
ENDBRANCH  77  78
ENDBRANCH  49  72
BRANCH  61  82
ATOM     82  C   UNL     1      11.153  11.074  13.750  1.00  0.00    -0.014 A 
ATOM     83  C   UNL     1      12.334  10.313  13.756  1.00  0.00     0.010 A 
ATOM     84  C   UNL     1      11.077  12.239  14.536  1.00  0.00     0.010 A 
ATOM     85  C   UNL     1      13.425  10.717  14.530  1.00  0.00     0.020 A 
ATOM     86  C   UNL     1      12.173  12.656  15.295  1.00  0.00     0.020 A 
ATOM     87  C   UNL     1      13.342  11.893  15.283  1.00  0.00     0.054 A 
BRANCH  87  88
ATOM     88  S   UNL     1      14.803  12.428  16.216  1.00  0.00     0.124 S 
ATOM     89  O   UNL     1      15.019  11.303  17.123  1.00  0.00    -0.237 OA
ATOM     90  O   UNL     1      15.804  12.588  15.164  1.00  0.00    -0.237 OA
ATOM     91  O   UNL     1      14.373  13.668  16.858  1.00  0.00    -0.744 OA
ENDBRANCH  87  88
ENDBRANCH  61  82
ENDBRANCH  35  36
ENDBRANCH  27  30
ENDBRANCH  25  26
ENDBRANCH   1  25
TORSDOF 15
