REMARK SMILES O=C(NCCCNC(=O)c1ccccc1/C=N\NC(=S)NCc1ccccc1)c1ccc(-c2c3nc(c(-c4ccc(S(=O)(=O)[O-])cc4)c4ccc([nH]4)c(-c4ccc(S(=O)(=O)[O-])cc4)c4nc(c(-c5ccc(S(=O)(=O)[O-])cc5)c5ccc2[nH]5)C=C4)C=C3)cc1
REMARK SMILES IDX 7 1 8 2 9 3 6 5 5 6 4 7 3 8 1 9 2 10 29 12 30 13 88 14 31 15
REMARK SMILES IDX 87 16 32 17 33 18 34 19 81 20 35 21 86 22 80 23 82 24 36 25
REMARK SMILES IDX 85 26 79 27 78 28 37 30 67 31 48 32 66 33 49 34 52 35 65 36
REMARK SMILES IDX 83 37 50 38 51 39 64 41 84 42 53 43 38 44 39 45 47 46 40 47
REMARK SMILES IDX 46 48 41 49 42 50 43 51 44 52 45 53 68 54 69 55 77 56 70 57
REMARK SMILES IDX 76 58 71 59 72 60 73 61 74 62 75 63 54 64 55 65 63 66 56 67
REMARK SMILES IDX 62 68 57 69 58 70 59 71 60 72 61 73 10 74 11 75 15 76 12 77
REMARK SMILES IDX 14 78 13 79 16 80 17 81 18 82 19 84 20 85 21 86 22 88 23 89
REMARK SMILES IDX 24 90 28 91 25 92 27 93 26 94
REMARK H PARENT 7 4 3 11 82 29 52 40 18 83 21 87
REMARK Flexibility Score: inf
ROOT
ATOM      1  N   UNL     1       4.026  -4.620  -1.016  1.00  0.00    -0.352 N 
ATOM      2  C   UNL     1       4.385  -5.947  -0.893  1.00  0.00     0.251 C 
ATOM      3  O   UNL     1       4.541  -6.611  -1.917  1.00  0.00    -0.269 OA
ATOM      4  H   UNL     1       4.028  -4.300  -1.946  1.00  0.00     0.163 HD
ENDROOT
BRANCH   1   5
ATOM      5  C   UNL     1       3.646  -3.595  -0.053  1.00  0.00     0.118 C 
BRANCH   5   6
ATOM      6  C   UNL     1       4.513  -2.346  -0.020  1.00  0.00     0.042 C 
BRANCH   6   7
ATOM      7  C   UNL     1       4.133  -1.296  -1.050  1.00  0.00     0.118 C 
BRANCH   7   8
ATOM      8  N   UNL     1       2.747  -0.858  -0.915  1.00  0.00    -0.352 N 
ATOM      9  O   UNL     1       0.958   0.240  -0.149  1.00  0.00    -0.269 OA
ATOM     10  C   UNL     1       2.171   0.255  -0.352  1.00  0.00     0.251 C 
ATOM     11  H   UNL     1       2.095  -1.484  -1.304  1.00  0.00     0.163 HD
BRANCH  10  12
ATOM     12  C   UNL     1       2.957   1.459   0.006  1.00  0.00     0.039 A 
ATOM     13  C   UNL     1       4.076   1.844  -0.727  1.00  0.00     0.014 A 
ATOM     14  C   UNL     1       2.502   2.289   1.042  1.00  0.00     0.014 A 
ATOM     15  C   UNL     1       4.823   2.952  -0.342  1.00  0.00     0.010 A 
ATOM     16  C   UNL     1       3.184   3.471   1.352  1.00  0.00     0.010 A 
ATOM     17  C   UNL     1       4.366   3.803   0.675  1.00  0.00    -0.014 A 
BRANCH  17  18
ATOM     18  C   UNL     1       5.091   5.075   0.927  1.00  0.00     0.031 A 
ATOM     19  C   UNL     1       5.742   5.356   2.252  1.00  0.00     0.074 A 
ATOM     20  C   UNL     1       5.190   5.968  -0.079  1.00  0.00     0.049 A 
ATOM     21  N   UNL     1       6.453   6.394   2.612  1.00  0.00    -0.248 NA
ATOM     22  C   UNL     1       5.570   4.350   3.311  1.00  0.00     0.031 C 
ATOM     23  C   UNL     1       4.590   5.809  -1.409  1.00  0.00     0.029 A 
ATOM     24  N   UNL     1       5.851   7.167  -0.160  1.00  0.00    -0.354 N 
ATOM     25  C   UNL     1       6.792   6.182   3.943  1.00  0.00     0.074 A 
ATOM     26  C   UNL     1       6.189   4.925   4.333  1.00  0.00     0.031 C 
ATOM     27  C   UNL     1       4.971   6.828  -2.191  1.00  0.00     0.029 A 
ATOM     28  C   UNL     1       5.772   7.754  -1.401  1.00  0.00     0.049 A 
ATOM     29  H   UNL     1       6.335   7.568   0.597  1.00  0.00     0.167 HD
ATOM     30  C   UNL     1       7.537   6.964   4.763  1.00  0.00     0.031 A 
ATOM     31  C   UNL     1       6.273   8.917  -1.857  1.00  0.00     0.031 A 
ATOM     32  C   UNL     1       8.125   8.218   4.367  1.00  0.00     0.049 A 
ATOM     33  C   UNL     1       7.069   9.778  -0.921  1.00  0.00     0.074 A 
ATOM     34  C   UNL     1       8.917   9.072   5.115  1.00  0.00     0.029 A 
ATOM     35  N   UNL     1       7.978   8.803   3.117  1.00  0.00    -0.354 N 
ATOM     36  N   UNL     1       7.400   9.545   0.326  1.00  0.00    -0.248 NA
ATOM     37  C   UNL     1       7.554  11.057  -1.451  1.00  0.00     0.031 C 
ATOM     38  C   UNL     1       9.203  10.198   4.335  1.00  0.00     0.029 A 
ATOM     39  C   UNL     1       8.641  10.019   3.081  1.00  0.00     0.049 A 
ATOM     40  H   UNL     1       7.475   8.412   2.366  1.00  0.00     0.167 HD
ATOM     41  C   UNL     1       8.145  10.645   0.730  1.00  0.00     0.074 A 
ATOM     42  C   UNL     1       8.232  11.532  -0.414  1.00  0.00     0.031 C 
ATOM     43  C   UNL     1       8.706  10.897   1.938  1.00  0.00     0.031 A 
BRANCH  30  44
ATOM     44  C   UNL     1       7.719   6.500   6.186  1.00  0.00    -0.014 A 
ATOM     45  C   UNL     1       8.515   5.382   6.497  1.00  0.00     0.010 A 
ATOM     46  C   UNL     1       7.093   7.203   7.232  1.00  0.00     0.010 A 
ATOM     47  C   UNL     1       8.636   4.944   7.819  1.00  0.00     0.020 A 
ATOM     48  C   UNL     1       7.234   6.785   8.559  1.00  0.00     0.020 A 
ATOM     49  C   UNL     1       7.986   5.643   8.841  1.00  0.00     0.054 A 
BRANCH  49  50
ATOM     50  S   UNL     1       8.147   5.045  10.546  1.00  0.00     0.124 S 
ATOM     51  O   UNL     1       7.291   3.861  10.530  1.00  0.00    -0.237 OA
ATOM     52  O   UNL     1       9.579   4.781  10.660  1.00  0.00    -0.237 OA
ATOM     53  O   UNL     1       7.655   6.158  11.353  1.00  0.00    -0.744 OA
ENDBRANCH  49  50
ENDBRANCH  30  44
BRANCH  31  54
ATOM     54  C   UNL     1       6.022   9.322  -3.267  1.00  0.00    -0.014 A 
ATOM     55  C   UNL     1       7.064   9.312  -4.209  1.00  0.00     0.010 A 
ATOM     56  C   UNL     1       4.722   9.660  -3.686  1.00  0.00     0.010 A 
ATOM     57  C   UNL     1       6.809   9.631  -5.547  1.00  0.00     0.020 A 
ATOM     58  C   UNL     1       4.458   9.951  -5.027  1.00  0.00     0.020 A 
ATOM     59  C   UNL     1       5.506   9.940  -5.948  1.00  0.00     0.054 A 
BRANCH  59  60
ATOM     60  S   UNL     1       5.185  10.268  -7.703  1.00  0.00     0.124 S 
ATOM     61  O   UNL     1       5.758  11.599  -7.873  1.00  0.00    -0.237 OA
ATOM     62  O   UNL     1       5.903   9.180  -8.363  1.00  0.00    -0.237 OA
ATOM     63  O   UNL     1       3.729  10.193  -7.804  1.00  0.00    -0.744 OA
ENDBRANCH  59  60
ENDBRANCH  31  54
BRANCH  43  64
ATOM     64  C   UNL     1       9.485  12.176   2.075  1.00  0.00    -0.014 A 
ATOM     65  C   UNL     1       8.836  13.422   2.134  1.00  0.00     0.010 A 
ATOM     66  C   UNL     1      10.886  12.125   2.186  1.00  0.00     0.010 A 
ATOM     67  C   UNL     1       9.579  14.598   2.268  1.00  0.00     0.020 A 
ATOM     68  C   UNL     1      11.630  13.296   2.348  1.00  0.00     0.020 A 
ATOM     69  C   UNL     1      10.971  14.527   2.373  1.00  0.00     0.054 A 
BRANCH  69  70
ATOM     70  S   UNL     1      11.911  16.063   2.587  1.00  0.00     0.124 S 
ATOM     71  O   UNL     1      11.857  16.641   1.247  1.00  0.00    -0.237 OA
ATOM     72  O   UNL     1      11.142  16.771   3.608  1.00  0.00    -0.237 OA
ATOM     73  O   UNL     1      13.230  15.605   3.016  1.00  0.00    -0.744 OA
ENDBRANCH  69  70
ENDBRANCH  43  64
ENDBRANCH  17  18
ENDBRANCH  10  12
ENDBRANCH   7   8
ENDBRANCH   6   7
ENDBRANCH   5   6
ENDBRANCH   1   5
BRANCH   2  74
ATOM     74  C   UNL     1       4.799  -6.562   0.392  1.00  0.00     0.048 A 
ATOM     75  C   UNL     1       6.355  -7.489   0.266  1.00  0.00     0.014 A 
ATOM     76  C   UNL     1       4.283  -5.883   1.997  1.00  0.00     0.007 A 
ATOM     77  C   UNL     1       7.420  -7.687   1.731  1.00  0.00     0.001 A 
ATOM     78  C   UNL     1       5.324  -6.114   3.471  1.00  0.00     0.010 A 
ATOM     79  C   UNL     1       6.874  -7.046   3.333  1.00  0.00     0.001 A 
BRANCH  76  80
ATOM     80  C   UNL     1       2.862  -5.883   2.251  1.00  0.00     0.142 C 
ATOM     81  N   UNL     1       2.329  -6.886   2.853  1.00  0.00    -0.181 NA
BRANCH  81  82
ATOM     82  N   UNL     1       3.121  -7.968   3.097  1.00  0.00    -0.254 N 
ATOM     83  H   UNL     1       2.742  -8.594   3.756  1.00  0.00     0.193 HD
BRANCH  82  84
ATOM     84  C   UNL     1       4.326  -8.354   2.614  1.00  0.00     0.187 C 
ATOM     85  S   UNL     1       4.619 -10.021   2.697  1.00  0.00    -0.039 S 
BRANCH  84  86
ATOM     86  N   UNL     1       5.366  -7.580   2.080  1.00  0.00    -0.357 N 
ATOM     87  H   UNL     1       5.960  -8.263   1.693  1.00  0.00     0.163 HD
BRANCH  86  88
ATOM     88  C   UNL     1       6.376  -5.809   1.637  1.00  0.00     0.151 C 
BRANCH  88  89
ATOM     89  C   UNL     1       7.381  -4.751   2.441  1.00  0.00    -0.029 A 
ATOM     90  C   UNL     1       8.782  -4.897   2.319  1.00  0.00     0.005 A 
ATOM     91  C   UNL     1       6.871  -3.487   2.805  1.00  0.00     0.005 A 
ATOM     92  C   UNL     1       9.635  -3.813   2.528  1.00  0.00     0.000 A 
ATOM     93  C   UNL     1       7.733  -2.404   2.995  1.00  0.00     0.000 A 
ATOM     94  C   UNL     1       9.109  -2.564   2.843  1.00  0.00     0.000 A 
ENDBRANCH  88  89
ENDBRANCH  86  88
ENDBRANCH  84  86
ENDBRANCH  82  84
ENDBRANCH  81  82
ENDBRANCH  76  80
ENDBRANCH   2  74
TORSDOF 19
