REMARK SMILES Cc1ccc2c(=O)c3cccc(CC(=O)NCCCNC(=O)c4ccc(-c5c6nc(c(-c7ccc(S(=O)(=O)[O-])cc7)c7ccc([nH]7)c(-c7ccc(S(=O)(=O)[O-])cc7)c7nc(c(-c8ccc(S(=O)(=O)[O-])cc8)c8ccc5[nH]8)C=C7)C=C6)cc4)c3oc2c1C
REMARK SMILES IDX 19 1 18 2 17 3 16 4 14 5 15 6 13 8 12 9 1 10 2 11 3 12 86 13
REMARK SMILES IDX 4 14 85 15 87 16 5 17 84 18 6 19 83 20 7 21 8 22 9 23 11 24
REMARK SMILES IDX 10 25 20 26 21 27 22 29 23 30 24 31 82 32 25 33 81 34 26 35
REMARK SMILES IDX 27 36 28 37 75 38 29 39 80 40 74 41 76 42 30 43 79 44 73 45
REMARK SMILES IDX 72 46 31 48 61 49 42 50 60 51 43 52 46 53 59 54 77 55 44 56
REMARK SMILES IDX 45 57 58 59 78 60 47 61 32 62 33 63 41 64 34 65 40 66 35 67
REMARK SMILES IDX 36 68 37 69 38 70 39 71 62 72 63 73 71 74 64 75 70 76 65 77
REMARK SMILES IDX 66 78 67 79 68 80 69 81 48 82 49 83 57 84 50 85 56 86 51 87
REMARK SMILES IDX 52 88 53 89 54 90 55 91
REMARK H PARENT 16 7 20 28 76 47 46 58
REMARK Flexibility Score: inf
ROOT
ATOM      1  C   UNL     1       4.866   7.115   3.432  1.00  0.00     0.118 C 
ENDROOT
BRANCH   1   2
ATOM      2  C   UNL     1       3.948   7.829   2.446  1.00  0.00     0.042 C 
BRANCH   2   3
ATOM      3  C   UNL     1       4.564   8.039   1.068  1.00  0.00     0.117 C 
BRANCH   3   4
ATOM      4  N   UNL     1       4.756   6.791   0.353  1.00  0.00    -0.356 N 
ATOM      5  C   UNL     1       4.013   6.244  -0.652  1.00  0.00     0.224 C 
ATOM      6  O   UNL     1       4.394   5.177  -1.140  1.00  0.00    -0.275 OA
ATOM      7  H   UNL     1       5.536   6.261   0.635  1.00  0.00     0.163 HD
BRANCH   5   8
ATOM      8  C   UNL     1       2.804   6.979  -1.206  1.00  0.00     0.139 C 
BRANCH   8   9
ATOM      9  C   UNL     1       1.642   7.122  -0.247  1.00  0.00     0.005 A 
ATOM     10  C   UNL     1       1.080  -0.167   0.002  1.00  0.00     0.045 C 
ATOM     11  C   UNL     1       0.635   1.206   0.431  1.00  0.00    -0.044 A 
ATOM     12  C   UNL     1      -0.425   1.304   1.348  1.00  0.00     0.005 A 
ATOM     13  C   UNL     1       1.235   2.385  -0.071  1.00  0.00    -0.005 A 
ATOM     14  C   UNL     1      -0.879   2.546   1.783  1.00  0.00     0.016 A 
ATOM     15  C   UNL     1       0.774   3.640   0.386  1.00  0.00     0.141 A 
ATOM     16  C   UNL     1       2.376   2.344  -1.056  1.00  0.00     0.049 C 
ATOM     17  C   UNL     1      -0.275   3.706   1.302  1.00  0.00     0.066 A 
ATOM     18  O   UNL     1       1.403   4.761  -0.111  1.00  0.00    -0.455 OA
ATOM     19  C   UNL     1      -0.746   5.020   1.750  1.00  0.00     0.200 A 
ATOM     20  C   UNL     1       0.982   6.005   0.295  1.00  0.00     0.142 A 
ATOM     21  O   UNL     1      -1.678   5.133   2.538  1.00  0.00    -0.288 OA
ATOM     22  C   UNL     1      -0.062   6.195   1.201  1.00  0.00     0.066 A 
ATOM     23  C   UNL     1      -0.465   7.479   1.580  1.00  0.00     0.016 A 
ATOM     24  C   UNL     1       1.199   8.412   0.108  1.00  0.00     0.008 A 
ATOM     25  C   UNL     1       0.164   8.589   1.026  1.00  0.00     0.001 A 
ENDBRANCH   8   9
ENDBRANCH   5   8
ENDBRANCH   3   4
ENDBRANCH   2   3
ENDBRANCH   1   2
BRANCH   1  26
ATOM     26  N   UNL     1       6.056   7.888   3.772  1.00  0.00    -0.352 N 
ATOM     27  C   UNL     1       6.549   8.263   5.001  1.00  0.00     0.251 C 
ATOM     28  H   UNL     1       6.590   8.188   3.002  1.00  0.00     0.163 HD
ATOM     29  O   UNL     1       7.495   9.043   5.058  1.00  0.00    -0.269 OA
BRANCH  27  30
ATOM     30  C   UNL     1       5.923   7.761   6.244  1.00  0.00     0.039 A 
ATOM     31  C   UNL     1       5.508   6.434   6.353  1.00  0.00     0.014 A 
ATOM     32  C   UNL     1       5.732   8.639   7.316  1.00  0.00     0.014 A 
ATOM     33  C   UNL     1       4.729   6.041   7.435  1.00  0.00     0.010 A 
ATOM     34  C   UNL     1       5.038   8.210   8.453  1.00  0.00     0.010 A 
ATOM     35  C   UNL     1       4.476   6.925   8.497  1.00  0.00    -0.014 A 
BRANCH  35  36
ATOM     36  C   UNL     1       3.609   6.485   9.624  1.00  0.00     0.031 A 
ATOM     37  C   UNL     1       2.298   7.177   9.904  1.00  0.00     0.074 A 
ATOM     38  C   UNL     1       3.969   5.409  10.354  1.00  0.00     0.049 A 
ATOM     39  N   UNL     1       1.397   6.891  10.809  1.00  0.00    -0.248 NA
ATOM     40  C   UNL     1       1.952   8.338   9.066  1.00  0.00     0.031 C 
ATOM     41  C   UNL     1       5.202   4.642  10.162  1.00  0.00     0.029 A 
ATOM     42  N   UNL     1       3.324   4.750  11.371  1.00  0.00    -0.354 N 
ATOM     43  C   UNL     1       0.386   7.834  10.655  1.00  0.00     0.074 A 
ATOM     44  C   UNL     1       0.804   8.732   9.602  1.00  0.00     0.031 C 
ATOM     45  C   UNL     1       5.189   3.579  10.978  1.00  0.00     0.029 A 
ATOM     46  C   UNL     1       3.990   3.628  11.809  1.00  0.00     0.049 A 
ATOM     47  H   UNL     1       2.467   5.051  11.750  1.00  0.00     0.167 HD
ATOM     48  C   UNL     1      -0.793   7.929  11.315  1.00  0.00     0.031 A 
ATOM     49  C   UNL     1       3.681   2.735  12.771  1.00  0.00     0.031 A 
ATOM     50  C   UNL     1      -1.210   7.018  12.351  1.00  0.00     0.049 A 
ATOM     51  C   UNL     1       2.393   2.894  13.528  1.00  0.00     0.074 A 
ATOM     52  C   UNL     1      -2.393   7.027  13.070  1.00  0.00     0.029 A 
ATOM     53  N   UNL     1      -0.473   5.936  12.810  1.00  0.00    -0.354 N 
ATOM     54  N   UNL     1       1.448   3.788  13.360  1.00  0.00    -0.248 NA
ATOM     55  C   UNL     1       2.122   1.924  14.598  1.00  0.00     0.031 C 
ATOM     56  C   UNL     1      -2.339   6.001  14.014  1.00  0.00     0.029 A 
ATOM     57  C   UNL     1      -1.164   5.291  13.823  1.00  0.00     0.049 A 
ATOM     58  H   UNL     1       0.409   5.666  12.467  1.00  0.00     0.167 HD
ATOM     59  C   UNL     1       0.460   3.476  14.287  1.00  0.00     0.074 A 
ATOM     60  C   UNL     1       0.913   2.298  14.999  1.00  0.00     0.031 C 
ATOM     61  C   UNL     1      -0.712   4.113  14.526  1.00  0.00     0.031 A 
BRANCH  48  62
ATOM     62  C   UNL     1      -1.740   9.045  10.946  1.00  0.00    -0.014 A 
ATOM     63  C   UNL     1      -2.059  10.035  11.895  1.00  0.00     0.010 A 
ATOM     64  C   UNL     1      -2.421   9.040   9.714  1.00  0.00     0.010 A 
ATOM     65  C   UNL     1      -3.067  10.969  11.640  1.00  0.00     0.020 A 
ATOM     66  C   UNL     1      -3.406   9.995   9.442  1.00  0.00     0.020 A 
ATOM     67  C   UNL     1      -3.742  10.936  10.418  1.00  0.00     0.054 A 
BRANCH  67  68
ATOM     68  S   UNL     1      -5.077  12.130  10.124  1.00  0.00     0.124 S 
ATOM     69  O   UNL     1      -6.139  11.624  10.987  1.00  0.00    -0.237 OA
ATOM     70  O   UNL     1      -4.471  13.392  10.541  1.00  0.00    -0.237 OA
ATOM     71  O   UNL     1      -5.329  12.015   8.689  1.00  0.00    -0.744 OA
ENDBRANCH  67  68
ENDBRANCH  48  62
BRANCH  49  72
ATOM     72  C   UNL     1       4.610   1.597  13.032  1.00  0.00    -0.014 A 
ATOM     73  C   UNL     1       5.914   1.837  13.507  1.00  0.00     0.010 A 
ATOM     74  C   UNL     1       4.232   0.280  12.719  1.00  0.00     0.010 A 
ATOM     75  C   UNL     1       6.842   0.797  13.595  1.00  0.00     0.020 A 
ATOM     76  C   UNL     1       5.147  -0.771  12.843  1.00  0.00     0.020 A 
ATOM     77  C   UNL     1       6.456  -0.499  13.247  1.00  0.00     0.054 A 
BRANCH  77  78
ATOM     78  S   UNL     1       7.700  -1.819  13.303  1.00  0.00     0.124 S 
ATOM     79  O   UNL     1       8.522  -1.504  12.138  1.00  0.00    -0.237 OA
ATOM     80  O   UNL     1       8.336  -1.601  14.599  1.00  0.00    -0.237 OA
ATOM     81  O   UNL     1       6.908  -3.041  13.197  1.00  0.00    -0.744 OA
ENDBRANCH  77  78
ENDBRANCH  49  72
BRANCH  61  82
ATOM     82  C   UNL     1      -1.622   3.564  15.597  1.00  0.00    -0.014 A 
ATOM     83  C   UNL     1      -2.893   3.070  15.245  1.00  0.00     0.010 A 
ATOM     84  C   UNL     1      -1.283   3.664  16.958  1.00  0.00     0.010 A 
ATOM     85  C   UNL     1      -3.823   2.732  16.230  1.00  0.00     0.020 A 
ATOM     86  C   UNL     1      -2.198   3.291  17.947  1.00  0.00     0.020 A 
ATOM     87  C   UNL     1      -3.472   2.855  17.576  1.00  0.00     0.054 A 
BRANCH  87  88
ATOM     88  S   UNL     1      -4.710   2.454  18.841  1.00  0.00     0.124 S 
ATOM     89  O   UNL     1      -5.616   3.596  18.758  1.00  0.00    -0.237 OA
ATOM     90  O   UNL     1      -5.253   1.184  18.366  1.00  0.00    -0.237 OA
ATOM     91  O   UNL     1      -3.927   2.367  20.072  1.00  0.00    -0.744 OA
ENDBRANCH  87  88
ENDBRANCH  61  82
ENDBRANCH  35  36
ENDBRANCH  27  30
ENDBRANCH   1  26
TORSDOF 14
