REMARK SMILES Cc1ccc(C#N)cc1Nc1cc(C)c(N)c(C(=O)NCCCNC(=O)c2ccc(-c3c4nc(c(-c5ccc(S(=O)(=O)[O-])cc5)c5ccc([nH]5)c(-c5ccc(S(=O)(=O)[O-])cc5)c5nc(c(-c6ccc(S(=O)(=O)[O-])cc6)c6ccc3[nH]6)C=C5)C=C4)cc2)c1
REMARK SMILES IDX 22 1 21 2 20 3 18 4 19 5 17 7 11 8 12 9 87 10 13 11 14 12
REMARK SMILES IDX 15 13 10 14 9 16 1 17 2 18 3 19 4 20 8 21 5 22 6 23 7 24
REMARK SMILES IDX 16 25 23 28 24 29 25 30 26 32 27 33 28 34 86 35 29 36 85 37
REMARK SMILES IDX 30 38 31 39 32 40 79 41 33 42 84 43 78 44 80 45 34 46 83 47
REMARK SMILES IDX 77 48 76 49 35 51 65 52 46 53 64 54 47 55 50 56 63 57 81 58
REMARK SMILES IDX 48 59 49 60 62 62 82 63 51 64 36 65 37 66 45 67 38 68 44 69
REMARK SMILES IDX 39 70 40 71 41 72 42 73 43 74 66 75 67 76 75 77 68 78 74 79
REMARK SMILES IDX 69 80 70 81 71 82 72 83 73 84 52 85 53 86 61 87 54 88 60 89
REMARK SMILES IDX 55 90 56 91 57 92 58 93 59 94
REMARK H PARENT 20 6 10 15 16 26 16 27 24 31 80 50 50 61
REMARK Flexibility Score: inf
ROOT
ATOM      1  C   UNL     1      -4.393   1.473  -3.113  1.00  0.00     0.042 C 
ENDROOT
BRANCH   1   2
ATOM      2  C   UNL     1      -3.619   1.492  -4.429  1.00  0.00     0.118 C 
BRANCH   2   3
ATOM      3  N   UNL     1      -3.697   2.804  -5.044  1.00  0.00    -0.352 N 
ATOM      4  C   UNL     1      -2.889   3.914  -5.037  1.00  0.00     0.253 C 
ATOM      5  O   UNL     1      -3.328   4.892  -5.650  1.00  0.00    -0.269 OA
ATOM      6  H   UNL     1      -4.510   2.926  -5.586  1.00  0.00     0.163 HD
BRANCH   4   7
ATOM      7  C   UNL     1      -1.533   3.981  -4.389  1.00  0.00     0.065 A 
ATOM      8  C   UNL     1       0.141   3.052  -2.868  1.00  0.00     0.040 A 
ATOM      9  C   UNL     1       1.045   4.024  -3.282  1.00  0.00     0.031 A 
ATOM     10  C   UNL     1      -1.157   3.094  -3.375  1.00  0.00     0.042 A 
ATOM     11  C   UNL     1       0.682   5.007  -4.224  1.00  0.00    -0.025 A 
ATOM     12  C   UNL     1       1.738   6.020  -4.581  1.00  0.00     0.047 C 
ATOM     13  C   UNL     1      -0.611   4.989  -4.795  1.00  0.00     0.047 A 
BRANCH   8  14
ATOM     14  N   UNL     1       0.557   1.986  -2.051  1.00  0.00    -0.355 N 
ATOM     15  H   UNL     1       0.953   2.241  -1.186  1.00  0.00     0.167 HD
BRANCH  14  16
ATOM     16  C   UNL     1       0.482   0.596  -2.305  1.00  0.00     0.043 A 
ATOM     17  C   UNL     1       0.966   0.071   0.149  1.00  0.00     0.046 C 
ATOM     18  C   UNL     1       0.644  -0.341  -1.263  1.00  0.00    -0.027 A 
ATOM     19  C   UNL     1       0.568  -1.720  -1.542  1.00  0.00     0.007 A 
ATOM     20  C   UNL     1       0.314  -2.179  -2.833  1.00  0.00     0.020 A 
ATOM     21  C   UNL     1       0.204   0.110  -3.597  1.00  0.00     0.045 A 
ATOM     22  C   UNL     1       0.133  -1.263  -3.866  1.00  0.00     0.054 A 
BRANCH  22  23
ATOM     23  C   UNL     1      -0.094  -1.726  -5.205  1.00  0.00     0.099 C 
ATOM     24  N   UNL     1      -0.263  -2.105  -6.287  1.00  0.00    -0.192 NA
ENDBRANCH  22  23
ENDBRANCH  14  16
ENDBRANCH   8  14
BRANCH  13  25
ATOM     25  N   UNL     1      -0.915   5.849  -5.859  1.00  0.00    -0.398 N 
ATOM     26  H   UNL     1      -0.271   6.541  -6.132  1.00  0.00     0.156 HD
ATOM     27  H   UNL     1      -1.773   5.760  -6.334  1.00  0.00     0.156 HD
ENDBRANCH  13  25
ENDBRANCH   4   7
ENDBRANCH   2   3
ENDBRANCH   1   2
BRANCH   1  28
ATOM     28  C   UNL     1      -5.902   1.431  -3.332  1.00  0.00     0.118 C 
BRANCH  28  29
ATOM     29  N   UNL     1      -6.332   0.180  -3.950  1.00  0.00    -0.352 N 
ATOM     30  C   UNL     1      -7.186  -0.790  -3.485  1.00  0.00     0.251 C 
ATOM     31  H   UNL     1      -5.949   0.004  -4.840  1.00  0.00     0.163 HD
ATOM     32  O   UNL     1      -7.241  -1.877  -4.051  1.00  0.00    -0.269 OA
BRANCH  30  33
ATOM     33  C   UNL     1      -8.014  -0.524  -2.292  1.00  0.00     0.039 A 
ATOM     34  C   UNL     1      -8.608   0.724  -2.116  1.00  0.00     0.014 A 
ATOM     35  C   UNL     1      -8.180  -1.524  -1.331  1.00  0.00     0.014 A 
ATOM     36  C   UNL     1      -9.181   1.042  -0.894  1.00  0.00     0.010 A 
ATOM     37  C   UNL     1      -8.867  -1.238  -0.149  1.00  0.00     0.010 A 
ATOM     38  C   UNL     1      -9.321   0.066   0.106  1.00  0.00    -0.014 A 
BRANCH  38  39
ATOM     39  C   UNL     1      -9.946   0.441   1.401  1.00  0.00     0.031 A 
ATOM     40  C   UNL     1      -9.172   0.341   2.689  1.00  0.00     0.074 A 
ATOM     41  C   UNL     1     -11.198   0.941   1.400  1.00  0.00     0.049 A 
ATOM     42  N   UNL     1      -9.548   0.676   3.897  1.00  0.00    -0.248 NA
ATOM     43  C   UNL     1      -7.808  -0.208   2.622  1.00  0.00     0.031 C 
ATOM     44  C   UNL     1     -12.034   1.104   0.207  1.00  0.00     0.029 A 
ATOM     45  N   UNL     1     -11.973   1.440   2.416  1.00  0.00    -0.354 N 
ATOM     46  C   UNL     1      -8.477   0.370   4.730  1.00  0.00     0.074 A 
ATOM     47  C   UNL     1      -7.454  -0.224   3.900  1.00  0.00     0.031 C 
ATOM     48  C   UNL     1     -13.168   1.730   0.546  1.00  0.00     0.029 A 
ATOM     49  C   UNL     1     -13.186   1.932   1.991  1.00  0.00     0.049 A 
ATOM     50  H   UNL     1     -11.690   1.445   3.359  1.00  0.00     0.167 HD
ATOM     51  C   UNL     1      -8.353   0.587   6.061  1.00  0.00     0.031 A 
ATOM     52  C   UNL     1     -14.209   2.477   2.679  1.00  0.00     0.031 A 
ATOM     53  C   UNL     1      -9.378   1.195   6.872  1.00  0.00     0.049 A 
ATOM     54  C   UNL     1     -14.068   2.653   4.163  1.00  0.00     0.074 A 
ATOM     55  C   UNL     1      -9.338   1.478   8.226  1.00  0.00     0.029 A 
ATOM     56  N   UNL     1     -10.619   1.617   6.415  1.00  0.00    -0.354 N 
ATOM     57  N   UNL     1     -13.035   2.387   4.927  1.00  0.00    -0.248 NA
ATOM     58  C   UNL     1     -15.222   3.211   4.879  1.00  0.00     0.031 C 
ATOM     59  C   UNL     1     -10.583   1.984   8.604  1.00  0.00     0.029 A 
ATOM     60  C   UNL     1     -11.367   2.118   7.469  1.00  0.00     0.049 A 
ATOM     61  H   UNL     1     -10.923   1.567   5.480  1.00  0.00     0.167 HD
ATOM     62  C   UNL     1     -13.407   2.762   6.213  1.00  0.00     0.074 A 
ATOM     63  C   UNL     1     -14.748   3.304   6.115  1.00  0.00     0.031 C 
ATOM     64  C   UNL     1     -12.704   2.655   7.368  1.00  0.00     0.031 A 
BRANCH  51  65
ATOM     65  C   UNL     1      -7.066   0.182   6.743  1.00  0.00    -0.014 A 
ATOM     66  C   UNL     1      -7.090  -0.789   7.763  1.00  0.00     0.010 A 
ATOM     67  C   UNL     1      -5.859   0.853   6.475  1.00  0.00     0.010 A 
ATOM     68  C   UNL     1      -5.952  -1.044   8.534  1.00  0.00     0.020 A 
ATOM     69  C   UNL     1      -4.706   0.571   7.217  1.00  0.00     0.020 A 
ATOM     70  C   UNL     1      -4.769  -0.353   8.262  1.00  0.00     0.054 A 
BRANCH  70  71
ATOM     71  S   UNL     1      -3.319  -0.657   9.308  1.00  0.00     0.124 S 
ATOM     72  O   UNL     1      -3.714  -0.041  10.571  1.00  0.00    -0.237 OA
ATOM     73  O   UNL     1      -3.232  -2.115   9.315  1.00  0.00    -0.237 OA
ATOM     74  O   UNL     1      -2.235   0.018   8.596  1.00  0.00    -0.744 OA
ENDBRANCH  70  71
ENDBRANCH  51  65
BRANCH  52  75
ATOM     75  C   UNL     1     -15.427   2.918   1.940  1.00  0.00    -0.014 A 
ATOM     76  C   UNL     1     -16.208   1.984   1.230  1.00  0.00     0.010 A 
ATOM     77  C   UNL     1     -15.754   4.282   1.851  1.00  0.00     0.010 A 
ATOM     78  C   UNL     1     -17.231   2.410   0.382  1.00  0.00     0.020 A 
ATOM     79  C   UNL     1     -16.808   4.710   1.036  1.00  0.00     0.020 A 
ATOM     80  C   UNL     1     -17.514   3.773   0.278  1.00  0.00     0.054 A 
BRANCH  80  81
ATOM     81  S   UNL     1     -18.787   4.306  -0.899  1.00  0.00     0.124 S 
ATOM     82  O   UNL     1     -18.135   4.048  -2.181  1.00  0.00    -0.237 OA
ATOM     83  O   UNL     1     -19.906   3.426  -0.573  1.00  0.00    -0.237 OA
ATOM     84  O   UNL     1     -18.988   5.715  -0.574  1.00  0.00    -0.744 OA
ENDBRANCH  80  81
ENDBRANCH  52  75
BRANCH  64  85
ATOM     85  C   UNL     1     -13.359   3.128   8.644  1.00  0.00    -0.014 A 
ATOM     86  C   UNL     1     -12.783   4.181   9.380  1.00  0.00     0.010 A 
ATOM     87  C   UNL     1     -14.472   2.455   9.180  1.00  0.00     0.010 A 
ATOM     88  C   UNL     1     -13.276   4.523  10.642  1.00  0.00     0.020 A 
ATOM     89  C   UNL     1     -14.997   2.823  10.422  1.00  0.00     0.020 A 
ATOM     90  C   UNL     1     -14.377   3.836  11.158  1.00  0.00     0.054 A 
BRANCH  90  91
ATOM     91  S   UNL     1     -14.978   4.270  12.812  1.00  0.00     0.124 S 
ATOM     92  O   UNL     1     -13.926   3.737  13.672  1.00  0.00    -0.237 OA
ATOM     93  O   UNL     1     -15.063   5.727  12.748  1.00  0.00    -0.237 OA
ATOM     94  O   UNL     1     -16.265   3.583  12.902  1.00  0.00    -0.744 OA
ENDBRANCH  90  91
ENDBRANCH  64  85
ENDBRANCH  38  39
ENDBRANCH  30  33
ENDBRANCH  28  29
ENDBRANCH   1  28
TORSDOF 17
