REMARK SMILES CCCCCCNC(=O)Oc1cccc(-c2ccc([C@@H](C)C(=O)NCCCNC(=O)c3ccc(-c4c5nc(c(-c6ccc(S(=O)(=O)[O-])cc6)c6ccc([nH]6)c(-c6ccc(S(=O)(=O)[O-])cc6)c6nc(c(-c7ccc(S(=O)(=O)[O-])cc7)c7ccc4[nH]7)C=C6)C=C5)cc3)cc2C(F)(F)F)c1
REMARK SMILES IDX 20 1 21 2 19 3 16 4 17 5 92 6 18 7 91 8 15 9 11 10 12 11
REMARK SMILES IDX 97 12 13 13 14 14 10 15 8 16 7 17 9 19 6 20 5 21 4 22 3 23
REMARK SMILES IDX 2 24 1 25 93 26 94 27 95 28 96 29 22 30 23 31 24 32 25 34
REMARK SMILES IDX 26 35 27 36 28 37 29 38 30 40 31 41 32 42 90 43 33 44 89 45
REMARK SMILES IDX 34 46 35 47 36 48 83 49 37 50 88 51 82 52 84 53 38 54 87 55
REMARK SMILES IDX 81 56 80 57 39 59 69 60 50 61 68 62 51 63 54 64 67 65 85 66
REMARK SMILES IDX 52 67 53 68 66 70 86 71 55 72 40 73 41 74 49 75 42 76 48 77
REMARK SMILES IDX 43 78 44 79 45 80 46 81 47 82 70 83 71 84 79 85 72 86 78 87
REMARK SMILES IDX 73 88 74 89 75 90 76 91 77 92 56 93 57 94 65 95 58 96 64 97
REMARK SMILES IDX 59 98 60 99 61 100 62 101 63 102
REMARK H PARENT 7 18 24 33 28 39 84 58 54 69
REMARK Flexibility Score: inf
ROOT
ATOM      1  C   UNL     1      -4.668 -13.086  -3.277  1.00  0.00     0.105 C 
ATOM      2  C   UNL     1      -5.892 -13.979  -3.468  1.00  0.00     0.023 C 
ENDROOT
BRANCH   1   3
ATOM      3  C   UNL     1      -4.893 -11.612  -3.577  1.00  0.00    -0.035 A 
ATOM      4  C   UNL     1      -5.118  -8.806  -4.130  1.00  0.00    -0.006 A 
ATOM      5  C   UNL     1      -5.485  -9.792  -5.067  1.00  0.00     0.009 A 
ATOM      6  C   UNL     1      -4.721  -9.251  -2.852  1.00  0.00     0.064 A 
ATOM      7  C   UNL     1      -5.429 -11.157  -4.776  1.00  0.00     0.005 A 
ATOM      8  C   UNL     1      -4.557 -10.643  -2.621  1.00  0.00     0.018 A 
BRANCH   4   9
ATOM      9  C   UNL     1      -5.174  -7.389  -4.555  1.00  0.00    -0.014 A 
ATOM     10  C   UNL     1      -4.193  -5.172  -4.727  1.00  0.00     0.133 A 
ATOM     11  C   UNL     1      -5.313  -4.689  -5.396  1.00  0.00     0.047 A 
ATOM     12  C   UNL     1      -4.104  -6.508  -4.328  1.00  0.00     0.056 A 
ATOM     13  C   UNL     1      -6.363  -5.556  -5.670  1.00  0.00     0.004 A 
ATOM     14  C   UNL     1      -6.300  -6.885  -5.240  1.00  0.00     0.009 A 
BRANCH  10  15
ATOM     15  O   UNL     1      -3.244  -4.216  -4.323  1.00  0.00    -0.410 OA
BRANCH  15  16
ATOM     16  C   UNL     1      -1.891  -4.476  -4.470  1.00  0.00     0.412 C 
ATOM     17  N   UNL     1      -1.104  -3.549  -3.843  1.00  0.00    -0.321 N 
ATOM     18  H   UNL     1      -0.132  -3.639  -3.966  1.00  0.00     0.167 HD
ATOM     19  O   UNL     1      -1.400  -5.422  -5.072  1.00  0.00    -0.224 OA
BRANCH  17  20
ATOM     20  C   UNL     1      -1.556  -2.447  -3.017  1.00  0.00     0.119 C 
BRANCH  20  21
ATOM     21  C   UNL     1      -0.986  -2.531  -1.599  1.00  0.00     0.021 C 
BRANCH  21  22
ATOM     22  C   UNL     1       0.542  -2.431  -1.514  1.00  0.00     0.002 C 
BRANCH  22  23
ATOM     23  C   UNL     1       1.151  -1.154  -2.102  1.00  0.00    -0.000 C 
BRANCH  23  24
ATOM     24  C   UNL     1       0.669   0.153  -1.468  1.00  0.00    -0.003 C 
ATOM     25  C   UNL     1       1.039   0.279   0.002  1.00  0.00     0.004 C 
ENDBRANCH  23  24
ENDBRANCH  22  23
ENDBRANCH  21  22
ENDBRANCH  20  21
ENDBRANCH  17  20
ENDBRANCH  15  16
ENDBRANCH  10  15
ENDBRANCH   4   9
BRANCH   6  26
ATOM     26  C   UNL     1      -4.486  -8.350  -1.658  1.00  0.00     0.417 C 
ATOM     27  F   UNL     1      -5.135  -8.820  -0.547  1.00  0.00    -0.166 F 
ATOM     28  F   UNL     1      -3.172  -8.290  -1.302  1.00  0.00    -0.166 F 
ATOM     29  F   UNL     1      -4.905  -7.063  -1.776  1.00  0.00    -0.166 F 
ENDBRANCH   6  26
ENDBRANCH   1   3
BRANCH   1  30
ATOM     30  C   UNL     1      -3.362 -13.658  -3.850  1.00  0.00     0.227 C 
ATOM     31  O   UNL     1      -2.395 -13.844  -3.101  1.00  0.00    -0.274 OA
ATOM     32  N   UNL     1      -3.185 -14.010  -5.152  1.00  0.00    -0.356 N 
ATOM     33  H   UNL     1      -2.314 -14.431  -5.337  1.00  0.00     0.163 HD
BRANCH  32  34
ATOM     34  C   UNL     1      -4.035 -13.883  -6.319  1.00  0.00     0.117 C 
BRANCH  34  35
ATOM     35  C   UNL     1      -3.696 -12.646  -7.144  1.00  0.00     0.042 C 
BRANCH  35  36
ATOM     36  C   UNL     1      -2.541 -12.853  -8.110  1.00  0.00     0.118 C 
BRANCH  36  37
ATOM     37  N   UNL     1      -2.912 -13.708  -9.230  1.00  0.00    -0.352 N 
ATOM     38  C   UNL     1      -2.971 -13.426 -10.574  1.00  0.00     0.251 C 
ATOM     39  H   UNL     1      -3.157 -14.630  -8.987  1.00  0.00     0.163 HD
ATOM     40  O   UNL     1      -3.523 -14.222 -11.330  1.00  0.00    -0.269 OA
BRANCH  38  41
ATOM     41  C   UNL     1      -2.391 -12.173 -11.109  1.00  0.00     0.039 A 
ATOM     42  C   UNL     1      -3.058 -11.496 -12.136  1.00  0.00     0.014 A 
ATOM     43  C   UNL     1      -1.177 -11.680 -10.627  1.00  0.00     0.014 A 
ATOM     44  C   UNL     1      -2.535 -10.299 -12.635  1.00  0.00     0.010 A 
ATOM     45  C   UNL     1      -0.707 -10.445 -11.059  1.00  0.00     0.010 A 
ATOM     46  C   UNL     1      -1.370  -9.748 -12.080  1.00  0.00    -0.014 A 
BRANCH  46  47
ATOM     47  C   UNL     1      -0.788  -8.472 -12.569  1.00  0.00     0.031 A 
ATOM     48  C   UNL     1       0.596  -8.468 -13.163  1.00  0.00     0.074 A 
ATOM     49  C   UNL     1      -1.457  -7.314 -12.402  1.00  0.00     0.049 A 
ATOM     50  N   UNL     1       1.345  -7.454 -13.512  1.00  0.00    -0.248 NA
ATOM     51  C   UNL     1       1.235  -9.781 -13.362  1.00  0.00     0.031 C 
ATOM     52  C   UNL     1      -2.792  -7.180 -11.815  1.00  0.00     0.029 A 
ATOM     53  N   UNL     1      -1.094  -6.023 -12.695  1.00  0.00    -0.354 N 
ATOM     54  C   UNL     1       2.550  -8.003 -13.937  1.00  0.00     0.074 A 
ATOM     55  C   UNL     1       2.450  -9.434 -13.759  1.00  0.00     0.031 C 
ATOM     56  C   UNL     1      -3.142  -5.883 -11.807  1.00  0.00     0.029 A 
ATOM     57  C   UNL     1      -2.039  -5.089 -12.341  1.00  0.00     0.049 A 
ATOM     58  H   UNL     1      -0.237  -5.787 -13.119  1.00  0.00     0.167 HD
ATOM     59  C   UNL     1       3.635  -7.375 -14.448  1.00  0.00     0.031 A 
ATOM     60  C   UNL     1      -2.015  -3.744 -12.421  1.00  0.00     0.031 A 
ATOM     61  C   UNL     1       3.720  -5.953 -14.643  1.00  0.00     0.049 A 
ATOM     62  C   UNL     1      -0.795  -3.066 -12.986  1.00  0.00     0.074 A 
ATOM     63  C   UNL     1       4.756  -5.221 -15.197  1.00  0.00     0.029 A 
ATOM     64  N   UNL     1       2.728  -5.048 -14.300  1.00  0.00    -0.354 N 
ATOM     65  N   UNL     1       0.320  -3.605 -13.422  1.00  0.00    -0.248 NA
ATOM     66  C   UNL     1      -0.833  -1.600 -13.080  1.00  0.00     0.031 C 
ATOM     67  C   UNL     1       4.407  -3.868 -15.148  1.00  0.00     0.029 A 
ATOM     68  C   UNL     1       3.130  -3.763 -14.619  1.00  0.00     0.049 A 
ATOM     69  H   UNL     1       1.865  -5.284 -13.889  1.00  0.00     0.167 HD
ATOM     70  C   UNL     1       1.099  -2.547 -13.877  1.00  0.00     0.074 A 
ATOM     71  C   UNL     1       0.327  -1.339 -13.668  1.00  0.00     0.031 C 
ATOM     72  C   UNL     1       2.340  -2.574 -14.422  1.00  0.00     0.031 A 
BRANCH  59  73
ATOM     73  C   UNL     1       4.818  -8.226 -14.829  1.00  0.00    -0.014 A 
ATOM     74  C   UNL     1       4.757  -9.107 -15.925  1.00  0.00     0.010 A 
ATOM     75  C   UNL     1       6.018  -8.124 -14.101  1.00  0.00     0.010 A 
ATOM     76  C   UNL     1       5.856  -9.902 -16.258  1.00  0.00     0.020 A 
ATOM     77  C   UNL     1       7.131  -8.896 -14.450  1.00  0.00     0.020 A 
ATOM     78  C   UNL     1       7.036  -9.794 -15.516  1.00  0.00     0.054 A 
BRANCH  78  79
ATOM     79  S   UNL     1       8.453 -10.824 -15.983  1.00  0.00     0.124 S 
ATOM     80  O   UNL     1       8.028 -12.145 -15.526  1.00  0.00    -0.237 OA
ATOM     81  O   UNL     1       8.512 -10.651 -17.432  1.00  0.00    -0.237 OA
ATOM     82  O   UNL     1       9.568 -10.239 -15.243  1.00  0.00    -0.744 OA
ENDBRANCH  78  79
ENDBRANCH  59  73
BRANCH  60  83
ATOM     83  C   UNL     1      -3.190  -2.949 -11.969  1.00  0.00    -0.014 A 
ATOM     84  C   UNL     1      -4.000  -2.281 -12.906  1.00  0.00     0.010 A 
ATOM     85  C   UNL     1      -3.513  -2.860 -10.603  1.00  0.00     0.010 A 
ATOM     86  C   UNL     1      -5.096  -1.523 -12.484  1.00  0.00     0.020 A 
ATOM     87  C   UNL     1      -4.625  -2.127 -10.179  1.00  0.00     0.020 A 
ATOM     88  C   UNL     1      -5.402  -1.452 -11.122  1.00  0.00     0.054 A 
BRANCH  88  89
ATOM     89  S   UNL     1      -6.857  -0.500 -10.601  1.00  0.00     0.124 S 
ATOM     90  O   UNL     1      -6.399   0.874 -10.777  1.00  0.00    -0.237 OA
ATOM     91  O   UNL     1      -7.883  -0.952 -11.537  1.00  0.00    -0.237 OA
ATOM     92  O   UNL     1      -7.061  -0.921  -9.216  1.00  0.00    -0.744 OA
ENDBRANCH  88  89
ENDBRANCH  60  83
BRANCH  72  93
ATOM     93  C   UNL     1       2.924  -1.269 -14.893  1.00  0.00    -0.014 A 
ATOM     94  C   UNL     1       3.395  -0.305 -13.985  1.00  0.00     0.010 A 
ATOM     95  C   UNL     1       3.074  -1.044 -16.274  1.00  0.00     0.010 A 
ATOM     96  C   UNL     1       3.986   0.872 -14.452  1.00  0.00     0.020 A 
ATOM     97  C   UNL     1       3.690   0.118 -16.744  1.00  0.00     0.020 A 
ATOM     98  C   UNL     1       4.133   1.074 -15.829  1.00  0.00     0.054 A 
BRANCH  98  99
ATOM     99  S   UNL     1       4.961   2.581 -16.407  1.00  0.00     0.124 S 
ATOM    100  O   UNL     1       3.944   3.600 -16.162  1.00  0.00    -0.237 OA
ATOM    101  O   UNL     1       6.139   2.650 -15.546  1.00  0.00    -0.237 OA
ATOM    102  O   UNL     1       5.241   2.305 -17.814  1.00  0.00    -0.744 OA
ENDBRANCH  98  99
ENDBRANCH  72  93
ENDBRANCH  46  47
ENDBRANCH  38  41
ENDBRANCH  36  37
ENDBRANCH  35  36
ENDBRANCH  34  35
ENDBRANCH  32  34
ENDBRANCH   1  30
TORSDOF 23
