REMARK SMILES CC[C@](C)(Nc1cccc(Cl)c1C(N)=O)C(=O)NCCCNC(=O)c1ccc(-c2c3nc(c(-c4ccc(S(=O)(=O)[O-])cc4)c4ccc([nH]4)c(-c4ccc(S(=O)(=O)[O-])cc4)c4nc(c(-c5ccc(S(=O)(=O)[O-])cc5)c5ccc2[nH]5)C=C4)C=C3)cc1
REMARK SMILES IDX 20 1 19 2 18 3 16 4 17 5 3 7 4 8 2 9 1 10 5 11 6 13 7 14
REMARK SMILES IDX 12 15 8 16 10 17 9 18 11 19 13 20 14 21 15 22 21 25 22 26
REMARK SMILES IDX 23 27 24 29 25 30 26 31 84 32 27 33 83 34 28 35 29 36 30 37
REMARK SMILES IDX 77 38 31 39 82 40 76 41 78 42 32 43 81 44 75 45 74 46 33 48
REMARK SMILES IDX 63 49 44 50 62 51 45 52 48 53 61 54 79 55 46 56 47 57 60 59
REMARK SMILES IDX 80 60 49 61 34 62 35 63 43 64 36 65 42 66 37 67 38 68 39 69
REMARK SMILES IDX 40 70 41 71 64 72 65 73 73 74 66 75 72 76 67 77 68 78 69 79
REMARK SMILES IDX 70 80 71 81 50 82 51 83 59 84 52 85 58 86 53 87 54 88 55 89
REMARK SMILES IDX 56 90 57 91
REMARK H PARENT 18 6 5 12 14 23 14 24 22 28 78 47 48 58
REMARK Flexibility Score: inf
ROOT
ATOM      1  C   UNL     1       2.723   0.722  -6.232  1.00  0.00     0.042 C 
ENDROOT
BRANCH   1   2
ATOM      2  C   UNL     1       2.307  -0.299  -5.179  1.00  0.00     0.117 C 
BRANCH   2   3
ATOM      3  N   UNL     1       2.965  -0.162  -3.888  1.00  0.00    -0.354 N 
ATOM      4  C   UNL     1       2.534   0.336  -2.688  1.00  0.00     0.245 C 
ATOM      5  O   UNL     1       3.352   0.297  -1.761  1.00  0.00    -0.272 OA
ATOM      6  H   UNL     1       3.894  -0.487  -3.876  1.00  0.00     0.163 HD
BRANCH   4   7
ATOM      7  C   UNL     1       1.102   0.911  -2.490  1.00  0.00     0.113 C 
ATOM      8  C   UNL     1       0.934   1.401  -1.031  1.00  0.00     0.045 C 
BRANCH   7   9
ATOM      9  C   UNL     1       0.107  -0.286  -2.675  1.00  0.00     0.035 C 
ATOM     10  C   UNL     1      -1.307   0.044  -3.131  1.00  0.00     0.007 C 
ENDBRANCH   7   9
BRANCH   7  11
ATOM     11  N   UNL     1       0.778   2.069  -3.371  1.00  0.00    -0.371 N 
ATOM     12  H   UNL     1      -0.119   2.031  -3.776  1.00  0.00     0.161 HD
BRANCH  11  13
ATOM     13  C   UNL     1       1.522   3.200  -3.724  1.00  0.00     0.049 A 
ATOM     14  C   UNL     1       2.920   3.168  -3.837  1.00  0.00     0.026 A 
ATOM     15  C   UNL     1       0.883   4.432  -4.076  1.00  0.00     0.081 A 
ATOM     16  C   UNL     1       3.637   4.172  -4.493  1.00  0.00     0.004 A 
ATOM     17  C   UNL     1       1.614   5.448  -4.736  1.00  0.00     0.055 A 
ATOM     18  C   UNL     1       2.978   5.285  -4.984  1.00  0.00     0.021 A 
ATOM     19  Cl  UNL     1       0.951   6.958  -5.259  1.00  0.00    -0.083 Cl
BRANCH  15  20
ATOM     20  C   UNL     1      -0.543   4.700  -3.677  1.00  0.00     0.252 C 
ATOM     21  N   UNL     1      -0.989   4.067  -2.543  1.00  0.00    -0.365 N 
ATOM     22  O   UNL     1      -1.303   5.448  -4.260  1.00  0.00    -0.269 OA
ATOM     23  H   UNL     1      -0.393   3.456  -2.053  1.00  0.00     0.159 HD
ATOM     24  H   UNL     1      -1.905   4.225  -2.220  1.00  0.00     0.159 HD
ENDBRANCH  15  20
ENDBRANCH  11  13
ENDBRANCH   7  11
ENDBRANCH   4   7
ENDBRANCH   2   3
ENDBRANCH   1   2
BRANCH   1  25
ATOM     25  C   UNL     1       4.221   0.953  -6.364  1.00  0.00     0.118 C 
BRANCH  25  26
ATOM     26  N   UNL     1       4.898  -0.148  -7.029  1.00  0.00    -0.352 N 
ATOM     27  C   UNL     1       5.550  -0.155  -8.240  1.00  0.00     0.251 C 
ATOM     28  H   UNL     1       4.888  -1.006  -6.547  1.00  0.00     0.163 HD
ATOM     29  O   UNL     1       5.890  -1.222  -8.743  1.00  0.00    -0.269 OA
BRANCH  27  30
ATOM     30  C   UNL     1       5.823   1.120  -8.943  1.00  0.00     0.039 A 
ATOM     31  C   UNL     1       5.534   1.220 -10.306  1.00  0.00     0.014 A 
ATOM     32  C   UNL     1       6.370   2.211  -8.262  1.00  0.00     0.014 A 
ATOM     33  C   UNL     1       5.736   2.432 -10.973  1.00  0.00     0.010 A 
ATOM     34  C   UNL     1       6.505   3.437  -8.911  1.00  0.00     0.010 A 
ATOM     35  C   UNL     1       6.195   3.561 -10.274  1.00  0.00    -0.014 A 
BRANCH  35  36
ATOM     36  C   UNL     1       6.375   4.877 -10.945  1.00  0.00     0.031 A 
ATOM     37  C   UNL     1       7.748   5.488 -11.042  1.00  0.00     0.074 A 
ATOM     38  C   UNL     1       5.303   5.556 -11.400  1.00  0.00     0.049 A 
ATOM     39  N   UNL     1       8.096   6.670 -11.482  1.00  0.00    -0.248 NA
ATOM     40  C   UNL     1       8.873   4.672 -10.559  1.00  0.00     0.031 C 
ATOM     41  C   UNL     1       3.917   5.085 -11.356  1.00  0.00     0.029 A 
ATOM     42  N   UNL     1       5.210   6.800 -11.976  1.00  0.00    -0.354 N 
ATOM     43  C   UNL     1       9.474   6.747 -11.311  1.00  0.00     0.074 A 
ATOM     44  C   UNL     1       9.891   5.511 -10.686  1.00  0.00     0.031 C 
ATOM     45  C   UNL     1       3.117   6.019 -11.895  1.00  0.00     0.029 A 
ATOM     46  C   UNL     1       3.921   7.177 -12.276  1.00  0.00     0.049 A 
ATOM     47  H   UNL     1       5.993   7.369 -12.158  1.00  0.00     0.167 HD
ATOM     48  C   UNL     1      10.318   7.750 -11.654  1.00  0.00     0.031 A 
ATOM     49  C   UNL     1       3.436   8.329 -12.781  1.00  0.00     0.031 A 
ATOM     50  C   UNL     1       9.901   8.976 -12.281  1.00  0.00     0.049 A 
ATOM     51  C   UNL     1       4.389   9.445 -13.121  1.00  0.00     0.074 A 
ATOM     52  C   UNL     1      10.687  10.034 -12.704  1.00  0.00     0.029 A 
ATOM     53  N   UNL     1       8.588   9.313 -12.572  1.00  0.00    -0.354 N 
ATOM     54  N   UNL     1       5.694   9.480 -12.993  1.00  0.00    -0.248 NA
ATOM     55  C   UNL     1       3.806  10.672 -13.682  1.00  0.00     0.031 C 
ATOM     56  C   UNL     1       9.845  11.034 -13.197  1.00  0.00     0.029 A 
ATOM     57  C   UNL     1       8.540  10.570 -13.149  1.00  0.00     0.049 A 
ATOM     58  H   UNL     1       7.805   8.742 -12.396  1.00  0.00     0.167 HD
ATOM     59  C   UNL     1       6.091  10.715 -13.498  1.00  0.00     0.074 A 
ATOM     60  C   UNL     1       4.889  11.396 -13.933  1.00  0.00     0.031 C 
ATOM     61  C   UNL     1       7.340  11.232 -13.598  1.00  0.00     0.031 A 
BRANCH  48  62
ATOM     62  C   UNL     1      11.781   7.570 -11.343  1.00  0.00    -0.014 A 
ATOM     63  C   UNL     1      12.563   6.624 -12.031  1.00  0.00     0.010 A 
ATOM     64  C   UNL     1      12.395   8.393 -10.380  1.00  0.00     0.010 A 
ATOM     65  C   UNL     1      13.920   6.474 -11.730  1.00  0.00     0.020 A 
ATOM     66  C   UNL     1      13.759   8.268 -10.100  1.00  0.00     0.020 A 
ATOM     67  C   UNL     1      14.509   7.296 -10.765  1.00  0.00     0.054 A 
BRANCH  67  68
ATOM     68  S   UNL     1      16.276   7.091 -10.410  1.00  0.00     0.124 S 
ATOM     69  O   UNL     1      16.294   5.813  -9.702  1.00  0.00    -0.237 OA
ATOM     70  O   UNL     1      16.870   7.077 -11.745  1.00  0.00    -0.237 OA
ATOM     71  O   UNL     1      16.605   8.258  -9.596  1.00  0.00    -0.744 OA
ENDBRANCH  67  68
ENDBRANCH  48  62
BRANCH  49  72
ATOM     72  C   UNL     1       1.971   8.485 -13.004  1.00  0.00    -0.014 A 
ATOM     73  C   UNL     1       1.450   8.547 -14.309  1.00  0.00     0.010 A 
ATOM     74  C   UNL     1       1.086   8.564 -11.913  1.00  0.00     0.010 A 
ATOM     75  C   UNL     1       0.077   8.705 -14.518  1.00  0.00     0.020 A 
ATOM     76  C   UNL     1      -0.291   8.690 -12.118  1.00  0.00     0.020 A 
ATOM     77  C   UNL     1      -0.786   8.771 -13.421  1.00  0.00     0.054 A 
BRANCH  77  78
ATOM     78  S   UNL     1      -2.569   8.925 -13.722  1.00  0.00     0.124 S 
ATOM     79  O   UNL     1      -2.679  10.301 -14.197  1.00  0.00    -0.237 OA
ATOM     80  O   UNL     1      -2.809   7.889 -14.723  1.00  0.00    -0.237 OA
ATOM     81  O   UNL     1      -3.162   8.665 -12.413  1.00  0.00    -0.744 OA
ENDBRANCH  77  78
ENDBRANCH  49  72
BRANCH  61  82
ATOM     82  C   UNL     1       7.498  12.575 -14.262  1.00  0.00    -0.014 A 
ATOM     83  C   UNL     1       7.101  13.765 -13.628  1.00  0.00     0.010 A 
ATOM     84  C   UNL     1       8.143  12.648 -15.512  1.00  0.00     0.010 A 
ATOM     85  C   UNL     1       7.334  15.001 -14.239  1.00  0.00     0.020 A 
ATOM     86  C   UNL     1       8.403  13.882 -16.111  1.00  0.00     0.020 A 
ATOM     87  C   UNL     1       7.990  15.052 -15.473  1.00  0.00     0.054 A 
BRANCH  87  88
ATOM     88  S   UNL     1       8.348  16.672 -16.207  1.00  0.00     0.124 S 
ATOM     89  O   UNL     1       7.022  17.116 -16.628  1.00  0.00    -0.237 OA
ATOM     90  O   UNL     1       8.932  17.408 -15.088  1.00  0.00    -0.237 OA
ATOM     91  O   UNL     1       9.275  16.364 -17.294  1.00  0.00    -0.744 OA
ENDBRANCH  87  88
ENDBRANCH  61  82
ENDBRANCH  35  36
ENDBRANCH  27  30
ENDBRANCH  25  26
ENDBRANCH   1  25
TORSDOF 17
