REMARK SMILES C[C@@H]1CC([NH2+][C@@](C)(C(=O)NCCCNC(=O)c2ccc(-c3c4nc(c(-c5ccc(S(=O)(=O)[O-])cc5)c5ccc([nH]5)c(-c5ccc(S(=O)(=O)[O-])cc5)c5nc(c(-c6ccc(S(=O)(=O)[O-])cc6)c6ccc3[nH]6)C=C5)C=C4)cc2)C(F)(F)F)C[C@@H](C)C1
REMARK SMILES IDX 12 1 11 2 10 3 8 4 9 5 6 7 7 8 5 9 4 12 1 13 2 14 3 15 84 16
REMARK SMILES IDX 82 17 81 18 83 19 77 20 78 21 79 22 80 23 13 24 14 25 15 26
REMARK SMILES IDX 16 28 17 29 18 30 76 31 19 32 75 33 20 34 21 35 22 36 69 37
REMARK SMILES IDX 23 38 74 39 68 40 70 41 24 42 73 43 67 44 66 45 25 47 55 48
REMARK SMILES IDX 36 49 54 50 37 51 40 52 53 53 71 54 38 55 39 56 52 58 72 59
REMARK SMILES IDX 41 60 26 61 27 62 35 63 28 64 34 65 29 66 30 67 31 68 32 69
REMARK SMILES IDX 33 70 56 71 57 72 65 73 58 74 64 75 59 76 60 77 61 78 62 79
REMARK SMILES IDX 63 80 42 81 43 82 51 83 44 84 50 85 45 86 46 87 47 88 48 89
REMARK SMILES IDX 49 90
REMARK H PARENT 10 6 5 10 5 11 14 27 70 46 40 57
REMARK Flexibility Score: inf
ROOT
ATOM      1  C   UNL     1       3.160  -0.377  -2.162  1.00  0.00     0.042 C 
ENDROOT
BRANCH   1   2
ATOM      2  C   UNL     1       2.715   0.625  -3.219  1.00  0.00     0.118 C 
BRANCH   2   3
ATOM      3  N   UNL     1       1.658   0.089  -4.061  1.00  0.00    -0.350 N 
ATOM      4  C   UNL     1       0.330   0.398  -4.205  1.00  0.00     0.290 C 
ATOM      5  O   UNL     1      -0.278  -0.296  -5.024  1.00  0.00    -0.267 OA
ATOM      6  H   UNL     1       1.956  -0.644  -4.646  1.00  0.00     0.163 HD
BRANCH   4   7
ATOM      7  C   UNL     1      -0.343   1.557  -3.412  1.00  0.00     0.268 C 
ATOM      8  C   UNL     1       0.363   2.870  -3.815  1.00  0.00     0.101 C 
BRANCH   7   9
ATOM      9  N   UNL     1      -0.251   1.203  -1.952  1.00  0.00    -0.324 N 
ATOM     10  H   UNL     1      -0.661   0.275  -1.846  1.00  0.00     0.347 HD
ATOM     11  H   UNL     1       0.744   1.299  -1.747  1.00  0.00     0.347 HD
BRANCH   9  12
ATOM     12  C   UNL     1      -0.888   2.065  -0.952  1.00  0.00     0.184 C 
ATOM     13  C   UNL     1       1.104  -0.053   0.864  1.00  0.00     0.008 C 
ATOM     14  C   UNL     1       0.297   1.194   1.236  1.00  0.00    -0.008 C 
ATOM     15  C   UNL     1      -1.002   1.322   0.408  1.00  0.00     0.068 C 
ATOM     16  C   UNL     1       1.145   2.482   1.239  1.00  0.00     0.007 C 
ATOM     17  C   UNL     1       1.257   3.151  -0.133  1.00  0.00    -0.008 C 
ATOM     18  C   UNL     1      -0.149   3.385  -0.699  1.00  0.00     0.068 C 
ATOM     19  C   UNL     1       2.028   4.467  -0.064  1.00  0.00     0.008 C 
ENDBRANCH   9  12
ENDBRANCH   7   9
BRANCH   7  20
ATOM     20  C   UNL     1      -1.796   1.652  -3.981  1.00  0.00     0.453 C 
ATOM     21  F   UNL     1      -2.549   0.559  -3.733  1.00  0.00    -0.164 F 
ATOM     22  F   UNL     1      -2.456   2.707  -3.423  1.00  0.00    -0.164 F 
ATOM     23  F   UNL     1      -1.811   1.889  -5.316  1.00  0.00    -0.164 F 
ENDBRANCH   7  20
ENDBRANCH   4   7
ENDBRANCH   2   3
ENDBRANCH   1   2
BRANCH   1  24
ATOM     24  C   UNL     1       4.053  -1.487  -2.696  1.00  0.00     0.118 C 
BRANCH  24  25
ATOM     25  N   UNL     1       5.354  -0.995  -3.122  1.00  0.00    -0.352 N 
ATOM     26  C   UNL     1       6.617  -1.359  -2.724  1.00  0.00     0.251 C 
ATOM     27  H   UNL     1       5.324  -0.286  -3.804  1.00  0.00     0.163 HD
ATOM     28  O   UNL     1       7.569  -0.671  -3.083  1.00  0.00    -0.269 OA
BRANCH  26  29
ATOM     29  C   UNL     1       6.840  -2.544  -1.863  1.00  0.00     0.039 A 
ATOM     30  C   UNL     1       7.856  -2.490  -0.904  1.00  0.00     0.014 A 
ATOM     31  C   UNL     1       6.097  -3.718  -2.015  1.00  0.00     0.014 A 
ATOM     32  C   UNL     1       8.089  -3.588  -0.071  1.00  0.00     0.010 A 
ATOM     33  C   UNL     1       6.268  -4.776  -1.124  1.00  0.00     0.010 A 
ATOM     34  C   UNL     1       7.277  -4.731  -0.152  1.00  0.00    -0.014 A 
BRANCH  34  35
ATOM     35  C   UNL     1       7.488  -5.888   0.759  1.00  0.00     0.031 A 
ATOM     36  C   UNL     1       7.871  -7.236   0.202  1.00  0.00     0.074 A 
ATOM     37  C   UNL     1       7.308  -5.733   2.086  1.00  0.00     0.049 A 
ATOM     38  N   UNL     1       8.073  -8.362   0.837  1.00  0.00    -0.248 NA
ATOM     39  C   UNL     1       8.025  -7.340  -1.260  1.00  0.00     0.031 C 
ATOM     40  C   UNL     1       6.889  -4.494   2.748  1.00  0.00     0.029 A 
ATOM     41  N   UNL     1       7.455  -6.624   3.120  1.00  0.00    -0.354 N 
ATOM     42  C   UNL     1       8.372  -9.304  -0.142  1.00  0.00     0.074 A 
ATOM     43  C   UNL     1       8.263  -8.634  -1.419  1.00  0.00     0.031 C 
ATOM     44  C   UNL     1       6.844  -4.696   4.075  1.00  0.00     0.029 A 
ATOM     45  C   UNL     1       7.194  -6.084   4.358  1.00  0.00     0.049 A 
ATOM     46  H   UNL     1       7.721  -7.563   2.988  1.00  0.00     0.167 HD
ATOM     47  C   UNL     1       8.735 -10.600   0.005  1.00  0.00     0.031 A 
ATOM     48  C   UNL     1       7.231  -6.641   5.583  1.00  0.00     0.031 A 
ATOM     49  C   UNL     1       8.857 -11.265   1.275  1.00  0.00     0.049 A 
ATOM     50  C   UNL     1       7.643  -8.083   5.718  1.00  0.00     0.074 A 
ATOM     51  C   UNL     1       9.244 -12.570   1.531  1.00  0.00     0.029 A 
ATOM     52  N   UNL     1       8.609 -10.675   2.505  1.00  0.00    -0.354 N 
ATOM     53  N   UNL     1       7.965  -8.941   4.779  1.00  0.00    -0.248 NA
ATOM     54  C   UNL     1       7.718  -8.625   7.082  1.00  0.00     0.031 C 
ATOM     55  C   UNL     1       9.194 -12.779   2.913  1.00  0.00     0.029 A 
ATOM     56  C   UNL     1       8.832 -11.589   3.521  1.00  0.00     0.049 A 
ATOM     57  H   UNL     1       8.318  -9.744   2.636  1.00  0.00     0.167 HD
ATOM     58  C   UNL     1       8.315 -10.112   5.443  1.00  0.00     0.074 A 
ATOM     59  C   UNL     1       8.186  -9.844   6.860  1.00  0.00     0.031 C 
ATOM     60  C   UNL     1       8.706 -11.304   4.927  1.00  0.00     0.031 A 
BRANCH  47  61
ATOM     61  C   UNL     1       9.052 -11.384  -1.242  1.00  0.00    -0.014 A 
ATOM     62  C   UNL     1      10.220 -11.117  -1.980  1.00  0.00     0.010 A 
ATOM     63  C   UNL     1       8.217 -12.442  -1.644  1.00  0.00     0.010 A 
ATOM     64  C   UNL     1      10.534 -11.875  -3.111  1.00  0.00     0.020 A 
ATOM     65  C   UNL     1       8.542 -13.222  -2.759  1.00  0.00     0.020 A 
ATOM     66  C   UNL     1       9.694 -12.926  -3.491  1.00  0.00     0.054 A 
BRANCH  66  67
ATOM     67  S   UNL     1      10.159 -13.927  -4.931  1.00  0.00     0.124 S 
ATOM     68  O   UNL     1       9.909 -13.002  -6.034  1.00  0.00    -0.237 OA
ATOM     69  O   UNL     1      11.564 -14.228  -4.670  1.00  0.00    -0.237 OA
ATOM     70  O   UNL     1       9.256 -15.073  -4.862  1.00  0.00    -0.744 OA
ENDBRANCH  66  67
ENDBRANCH  47  61
BRANCH  48  71
ATOM     71  C   UNL     1       6.879  -5.838   6.788  1.00  0.00    -0.014 A 
ATOM     72  C   UNL     1       7.856  -5.507   7.744  1.00  0.00     0.010 A 
ATOM     73  C   UNL     1       5.550  -5.429   7.001  1.00  0.00     0.010 A 
ATOM     74  C   UNL     1       7.504  -4.823   8.911  1.00  0.00     0.020 A 
ATOM     75  C   UNL     1       5.200  -4.716   8.151  1.00  0.00     0.020 A 
ATOM     76  C   UNL     1       6.175  -4.438   9.110  1.00  0.00     0.054 A 
BRANCH  76  77
ATOM     77  S   UNL     1       5.737  -3.546  10.628  1.00  0.00     0.124 S 
ATOM     78  O   UNL     1       5.755  -4.614  11.622  1.00  0.00    -0.237 OA
ATOM     79  O   UNL     1       6.810  -2.560  10.738  1.00  0.00    -0.237 OA
ATOM     80  O   UNL     1       4.420  -2.990  10.327  1.00  0.00    -0.744 OA
ENDBRANCH  76  77
ENDBRANCH  48  71
BRANCH  60  81
ATOM     81  C   UNL     1       9.077 -12.387   5.905  1.00  0.00    -0.014 A 
ATOM     82  C   UNL     1       8.107 -13.022   6.701  1.00  0.00     0.010 A 
ATOM     83  C   UNL     1      10.422 -12.782   6.019  1.00  0.00     0.010 A 
ATOM     84  C   UNL     1       8.485 -13.989   7.637  1.00  0.00     0.020 A 
ATOM     85  C   UNL     1      10.800 -13.771   6.930  1.00  0.00     0.020 A 
ATOM     86  C   UNL     1       9.830 -14.351   7.751  1.00  0.00     0.054 A 
BRANCH  86  87
ATOM     87  S   UNL     1      10.298 -15.607   8.972  1.00  0.00     0.124 S 
ATOM     88  O   UNL     1      10.211 -14.860  10.224  1.00  0.00    -0.237 OA
ATOM     89  O   UNL     1       9.278 -16.637   8.782  1.00  0.00    -0.237 OA
ATOM     90  O   UNL     1      11.648 -15.995   8.571  1.00  0.00    -0.744 OA
ENDBRANCH  86  87
ENDBRANCH  60  81
ENDBRANCH  34  35
ENDBRANCH  26  29
ENDBRANCH  24  25
ENDBRANCH   1  24
TORSDOF 16
