REMARK SMILES CCCCCN(C(=O)N1CCC(CC(=O)NCCCNC(=O)c2ccc(-c3c4nc(c(-c5ccc(S(=O)(=O)[O-])cc5)c5ccc([nH]5)c(-c5ccc(S(=O)(=O)[O-])cc5)c5nc(c(-c6ccc(S(=O)(=O)[O-])cc6)c6ccc3[nH]6)C=C5)C=C4)cc2)CC1)C(C)C
REMARK SMILES IDX 14 1 15 2 16 3 13 5 12 6 7 7 8 8 9 9 10 10 84 11 11 12 83 13
REMARK SMILES IDX 6 14 5 15 4 16 3 17 2 18 1 19 85 20 86 21 87 22 17 23 18 24
REMARK SMILES IDX 19 25 20 26 21 27 22 29 23 30 24 31 82 32 25 33 81 34 26 35
REMARK SMILES IDX 27 36 28 37 75 38 29 39 80 40 74 41 76 42 30 43 79 44 73 45
REMARK SMILES IDX 72 46 31 48 61 49 42 50 60 51 43 52 46 53 59 54 77 55 44 56
REMARK SMILES IDX 45 57 58 59 78 60 47 61 32 62 33 63 41 64 34 65 40 66 35 67
REMARK SMILES IDX 36 68 37 69 38 70 39 71 62 72 63 73 71 74 64 75 70 76 65 77
REMARK SMILES IDX 66 78 67 79 68 80 69 81 48 82 49 83 57 84 50 85 56 86 51 87
REMARK SMILES IDX 52 88 53 89 54 90 55 91
REMARK H PARENT 16 4 20 28 76 47 46 58
REMARK Flexibility Score: inf
ROOT
ATOM      1  C   UNL     1      -6.259  -4.252   7.065  1.00  0.00     0.220 C 
ATOM      2  O   UNL     1      -6.399  -3.584   8.092  1.00  0.00    -0.275 OA
ATOM      3  N   UNL     1      -6.170  -5.608   7.182  1.00  0.00    -0.356 N 
ATOM      4  H   UNL     1      -6.217  -5.942   8.107  1.00  0.00     0.163 HD
ENDROOT
BRANCH   1   5
ATOM      5  C   UNL     1      -6.178  -3.577   5.708  1.00  0.00     0.103 C 
BRANCH   5   6
ATOM      6  C   UNL     1      -4.773  -3.044   5.368  1.00  0.00     0.002 C 
ATOM      7  C   UNL     1      -2.220  -3.864   2.424  1.00  0.00     0.320 C 
ATOM      8  O   UNL     1      -2.446  -5.075   2.430  1.00  0.00    -0.248 OA
ATOM      9  N   UNL     1      -2.489  -3.097   3.545  1.00  0.00    -0.325 N 
ATOM     10  C   UNL     1      -2.371  -3.727   4.845  1.00  0.00     0.121 C 
ATOM     11  C   UNL     1      -3.400  -1.957   3.499  1.00  0.00     0.121 C 
ATOM     12  C   UNL     1      -3.732  -4.166   5.361  1.00  0.00     0.026 C 
ATOM     13  C   UNL     1      -4.798  -2.337   3.999  1.00  0.00     0.026 C 
BRANCH   7  14
ATOM     14  N   UNL     1      -1.692  -3.201   1.314  1.00  0.00    -0.322 N 
BRANCH  14  15
ATOM     15  C   UNL     1      -0.954  -1.926   1.425  1.00  0.00     0.121 C 
BRANCH  15  16
ATOM     16  C   UNL     1       0.540  -2.032   1.775  1.00  0.00     0.022 C 
BRANCH  16  17
ATOM     17  C   UNL     1       1.568  -1.915   0.638  1.00  0.00     0.002 C 
BRANCH  17  18
ATOM     18  C   UNL     1       1.264  -0.911  -0.476  1.00  0.00    -0.003 C 
ATOM     19  C   UNL     1       1.286   0.533  -0.005  1.00  0.00     0.004 C 
ENDBRANCH  17  18
ENDBRANCH  16  17
ENDBRANCH  15  16
ENDBRANCH  14  15
BRANCH  14  20
ATOM     20  C   UNL     1      -1.708  -3.943   0.033  1.00  0.00     0.080 C 
ATOM     21  C   UNL     1      -2.315  -3.128  -1.110  1.00  0.00     0.031 C 
ATOM     22  C   UNL     1      -0.358  -4.532  -0.365  1.00  0.00     0.031 C 
ENDBRANCH  14  20
ENDBRANCH   7  14
ENDBRANCH   5   6
ENDBRANCH   1   5
BRANCH   3  23
ATOM     23  C   UNL     1      -6.016  -6.648   6.171  1.00  0.00     0.117 C 
BRANCH  23  24
ATOM     24  C   UNL     1      -4.653  -7.340   6.225  1.00  0.00     0.042 C 
BRANCH  24  25
ATOM     25  C   UNL     1      -4.423  -8.180   7.473  1.00  0.00     0.118 C 
BRANCH  25  26
ATOM     26  N   UNL     1      -4.885  -9.544   7.291  1.00  0.00    -0.352 N 
ATOM     27  C   UNL     1      -4.160 -10.702   7.136  1.00  0.00     0.251 C 
ATOM     28  H   UNL     1      -5.863  -9.657   7.277  1.00  0.00     0.163 HD
ATOM     29  O   UNL     1      -4.731 -11.707   6.721  1.00  0.00    -0.269 OA
BRANCH  27  30
ATOM     30  C   UNL     1      -2.710 -10.758   7.457  1.00  0.00     0.039 A 
ATOM     31  C   UNL     1      -1.876 -11.554   6.665  1.00  0.00     0.014 A 
ATOM     32  C   UNL     1      -2.176 -10.104   8.571  1.00  0.00     0.014 A 
ATOM     33  C   UNL     1      -0.515 -11.670   6.970  1.00  0.00     0.010 A 
ATOM     34  C   UNL     1      -0.805 -10.154   8.827  1.00  0.00     0.010 A 
ATOM     35  C   UNL     1       0.038 -10.959   8.046  1.00  0.00    -0.014 A 
BRANCH  35  36
ATOM     36  C   UNL     1       1.481 -11.078   8.393  1.00  0.00     0.031 A 
ATOM     37  C   UNL     1       1.899 -11.664   9.718  1.00  0.00     0.074 A 
ATOM     38  C   UNL     1       2.420 -10.614   7.545  1.00  0.00     0.049 A 
ATOM     39  N   UNL     1       3.101 -11.809  10.216  1.00  0.00    -0.248 NA
ATOM     40  C   UNL     1       0.822 -12.119  10.611  1.00  0.00     0.031 C 
ATOM     41  C   UNL     1       2.153  -9.982   6.251  1.00  0.00     0.029 A 
ATOM     42  N   UNL     1       3.789 -10.594   7.649  1.00  0.00    -0.354 N 
ATOM     43  C   UNL     1       2.924 -12.345  11.487  1.00  0.00     0.074 A 
ATOM     44  C   UNL     1       1.497 -12.454  11.700  1.00  0.00     0.031 C 
ATOM     45  C   UNL     1       3.321  -9.656   5.674  1.00  0.00     0.029 A 
ATOM     46  C   UNL     1       4.416 -10.023   6.568  1.00  0.00     0.049 A 
ATOM     47  H   UNL     1       4.275 -10.955   8.426  1.00  0.00     0.167 HD
ATOM     48  C   UNL     1       3.859 -12.728  12.390  1.00  0.00     0.031 A 
ATOM     49  C   UNL     1       5.724  -9.811   6.320  1.00  0.00     0.031 A 
ATOM     50  C   UNL     1       5.279 -12.636  12.173  1.00  0.00     0.049 A 
ATOM     51  C   UNL     1       6.749 -10.262   7.322  1.00  0.00     0.074 A 
ATOM     52  C   UNL     1       6.306 -13.061  12.997  1.00  0.00     0.029 A 
ATOM     53  N   UNL     1       5.872 -12.075  11.052  1.00  0.00    -0.354 N 
ATOM     54  N   UNL     1       6.563 -10.833   8.489  1.00  0.00    -0.248 NA
ATOM     55  C   UNL     1       8.160 -10.053   6.970  1.00  0.00     0.031 C 
ATOM     56  C   UNL     1       7.521 -12.715  12.394  1.00  0.00     0.029 A 
ATOM     57  C   UNL     1       7.251 -12.121  11.171  1.00  0.00     0.049 A 
ATOM     58  H   UNL     1       5.384 -11.699  10.283  1.00  0.00     0.167 HD
ATOM     59  C   UNL     1       7.833 -11.068   9.003  1.00  0.00     0.074 A 
ATOM     60  C   UNL     1       8.779 -10.590   8.013  1.00  0.00     0.031 C 
ATOM     61  C   UNL     1       8.183 -11.631  10.186  1.00  0.00     0.031 A 
BRANCH  48  62
ATOM     62  C   UNL     1       3.362 -13.268  13.708  1.00  0.00    -0.014 A 
ATOM     63  C   UNL     1       2.705 -14.509  13.787  1.00  0.00     0.010 A 
ATOM     64  C   UNL     1       3.549 -12.518  14.883  1.00  0.00     0.010 A 
ATOM     65  C   UNL     1       2.182 -14.958  15.003  1.00  0.00     0.020 A 
ATOM     66  C   UNL     1       3.054 -12.977  16.108  1.00  0.00     0.020 A 
ATOM     67  C   UNL     1       2.348 -14.182  16.154  1.00  0.00     0.054 A 
BRANCH  67  68
ATOM     68  S   UNL     1       1.637 -14.771  17.715  1.00  0.00     0.124 S 
ATOM     69  O   UNL     1       0.219 -14.473  17.530  1.00  0.00    -0.237 OA
ATOM     70  O   UNL     1       1.986 -16.190  17.714  1.00  0.00    -0.237 OA
ATOM     71  O   UNL     1       2.315 -13.968  18.730  1.00  0.00    -0.744 OA
ENDBRANCH  67  68
ENDBRANCH  48  62
BRANCH  49  72
ATOM     72  C   UNL     1       6.125  -9.157   5.045  1.00  0.00    -0.014 A 
ATOM     73  C   UNL     1       6.683  -9.914   4.000  1.00  0.00     0.010 A 
ATOM     74  C   UNL     1       5.886  -7.785   4.846  1.00  0.00     0.010 A 
ATOM     75  C   UNL     1       6.990  -9.311   2.776  1.00  0.00     0.020 A 
ATOM     76  C   UNL     1       6.171  -7.184   3.616  1.00  0.00     0.020 A 
ATOM     77  C   UNL     1       6.723  -7.952   2.589  1.00  0.00     0.054 A 
BRANCH  77  78
ATOM     78  S   UNL     1       7.036  -7.214   0.960  1.00  0.00     0.124 S 
ATOM     79  O   UNL     1       8.491  -7.101   0.951  1.00  0.00    -0.237 OA
ATOM     80  O   UNL     1       6.473  -8.207   0.049  1.00  0.00    -0.237 OA
ATOM     81  O   UNL     1       6.309  -5.947   1.013  1.00  0.00    -0.744 OA
ENDBRANCH  77  78
ENDBRANCH  49  72
BRANCH  61  82
ATOM     82  C   UNL     1       9.653 -11.779  10.476  1.00  0.00    -0.014 A 
ATOM     83  C   UNL     1      10.443 -10.666  10.814  1.00  0.00     0.010 A 
ATOM     84  C   UNL     1      10.238 -13.058  10.465  1.00  0.00     0.010 A 
ATOM     85  C   UNL     1      11.799 -10.827  11.109  1.00  0.00     0.020 A 
ATOM     86  C   UNL     1      11.588 -13.226  10.783  1.00  0.00     0.020 A 
ATOM     87  C   UNL     1      12.364 -12.106  11.091  1.00  0.00     0.054 A 
BRANCH  87  88
ATOM     88  S   UNL     1      14.116 -12.296  11.521  1.00  0.00     0.124 S 
ATOM     89  O   UNL     1      14.780 -11.806  10.316  1.00  0.00    -0.237 OA
ATOM     90  O   UNL     1      14.252 -11.446  12.702  1.00  0.00    -0.237 OA
ATOM     91  O   UNL     1      14.258 -13.728  11.773  1.00  0.00    -0.744 OA
ENDBRANCH  87  88
ENDBRANCH  61  82
ENDBRANCH  35  36
ENDBRANCH  27  30
ENDBRANCH  25  26
ENDBRANCH  24  25
ENDBRANCH  23  24
ENDBRANCH   3  23
TORSDOF 20
