REMARK SMILES O=C(NCCCNC(=O)[C@H]1CCCN(c2cc(-c3ccccn3)nc(-c3ccccc3F)n2)C1)c1ccc(-c2c3nc(c(-c4ccc(S(=O)(=O)[O-])cc4)c4ccc([nH]4)c(-c4ccc(S(=O)(=O)[O-])cc4)c4nc(c(-c5ccc(S(=O)(=O)[O-])cc5)c5ccc2[nH]5)C=C4)C=C3)cc1
REMARK SMILES IDX 4 1 3 2 1 3 2 4 35 6 36 7 94 8 37 9 93 10 38 11 39 12 40 13
REMARK SMILES IDX 87 14 41 15 92 16 86 17 88 18 42 19 91 20 85 21 84 22 43 24
REMARK SMILES IDX 73 25 54 26 72 27 55 28 58 29 71 30 89 31 56 32 57 33 70 35
REMARK SMILES IDX 90 36 59 37 44 38 45 39 53 40 46 41 52 42 47 43 48 44 49 45
REMARK SMILES IDX 50 46 51 47 74 48 75 49 83 50 76 51 82 52 77 53 78 54 79 55
REMARK SMILES IDX 80 56 81 57 60 58 61 59 69 60 62 61 68 62 63 63 64 64 65 65
REMARK SMILES IDX 66 66 67 67 5 68 6 69 7 70 8 71 9 73 10 74 11 75 34 76 12 77
REMARK SMILES IDX 14 78 13 79 15 80 16 81 33 82 17 83 25 84 24 85 18 86 19 87
REMARK SMILES IDX 23 88 20 89 22 90 21 91 26 92 27 93 31 94 28 95 30 96 32 97
REMARK SMILES IDX 29 98
REMARK H PARENT 3 5 88 23 58 34 7 72
REMARK Flexibility Score: inf
ROOT
ATOM      1  C   UNL     1      10.269  -4.187   7.922  1.00  0.00     0.118 C 
ENDROOT
BRANCH   1   2
ATOM      2  N   UNL     1      11.323  -5.119   7.541  1.00  0.00    -0.352 N 
ATOM      3  O   UNL     1      13.415  -5.764   7.058  1.00  0.00    -0.269 OA
ATOM      4  C   UNL     1      12.679  -5.050   7.734  1.00  0.00     0.251 C 
ATOM      5  H   UNL     1      11.012  -5.925   7.071  1.00  0.00     0.163 HD
BRANCH   4   6
ATOM      6  C   UNL     1      13.256  -4.144   8.750  1.00  0.00     0.039 A 
ATOM      7  C   UNL     1      12.654  -3.992  10.002  1.00  0.00     0.014 A 
ATOM      8  C   UNL     1      14.476  -3.516   8.481  1.00  0.00     0.014 A 
ATOM      9  C   UNL     1      13.215  -3.138  10.947  1.00  0.00     0.010 A 
ATOM     10  C   UNL     1      15.075  -2.716   9.456  1.00  0.00     0.010 A 
ATOM     11  C   UNL     1      14.443  -2.510  10.692  1.00  0.00    -0.014 A 
BRANCH  11  12
ATOM     12  C   UNL     1      15.099  -1.698  11.745  1.00  0.00     0.031 A 
ATOM     13  C   UNL     1      15.304  -0.223  11.557  1.00  0.00     0.074 A 
ATOM     14  C   UNL     1      15.543  -2.310  12.860  1.00  0.00     0.049 A 
ATOM     15  N   UNL     1      15.925   0.627  12.333  1.00  0.00    -0.248 NA
ATOM     16  C   UNL     1      14.746   0.373  10.334  1.00  0.00     0.031 C 
ATOM     17  C   UNL     1      15.401  -3.739  13.149  1.00  0.00     0.029 A 
ATOM     18  N   UNL     1      16.211  -1.815  13.950  1.00  0.00    -0.354 N 
ATOM     19  C   UNL     1      15.861   1.852  11.681  1.00  0.00     0.074 A 
ATOM     20  C   UNL     1      15.153   1.630  10.438  1.00  0.00     0.031 C 
ATOM     21  C   UNL     1      15.954  -4.003  14.342  1.00  0.00     0.029 A 
ATOM     22  C   UNL     1      16.543  -2.778  14.871  1.00  0.00     0.049 A 
ATOM     23  H   UNL     1      16.431  -0.861  14.061  1.00  0.00     0.167 HD
ATOM     24  C   UNL     1      16.351   3.050  12.083  1.00  0.00     0.031 A 
ATOM     25  C   UNL     1      17.272  -2.699  16.001  1.00  0.00     0.031 A 
ATOM     26  C   UNL     1      17.065   3.253  13.316  1.00  0.00     0.049 A 
ATOM     27  C   UNL     1      17.832  -1.370  16.415  1.00  0.00     0.074 A 
ATOM     28  C   UNL     1      17.578   4.431  13.830  1.00  0.00     0.029 A 
ATOM     29  N   UNL     1      17.377   2.251  14.224  1.00  0.00    -0.354 N 
ATOM     30  N   UNL     1      17.732  -0.214  15.804  1.00  0.00    -0.248 NA
ATOM     31  C   UNL     1      18.598  -1.330  17.667  1.00  0.00     0.031 C 
ATOM     32  C   UNL     1      18.244   4.133  15.024  1.00  0.00     0.029 A 
ATOM     33  C   UNL     1      18.096   2.779  15.284  1.00  0.00     0.049 A 
ATOM     34  H   UNL     1      17.125   1.304  14.129  1.00  0.00     0.167 HD
ATOM     35  C   UNL     1      18.403   0.699  16.608  1.00  0.00     0.074 A 
ATOM     36  C   UNL     1      18.901  -0.040  17.751  1.00  0.00     0.031 C 
ATOM     37  C   UNL     1      18.581   2.029  16.416  1.00  0.00     0.031 A 
BRANCH  24  38
ATOM     38  C   UNL     1      16.169   4.217  11.148  1.00  0.00    -0.014 A 
ATOM     39  C   UNL     1      14.903   4.786  10.923  1.00  0.00     0.010 A 
ATOM     40  C   UNL     1      17.286   4.747  10.476  1.00  0.00     0.010 A 
ATOM     41  C   UNL     1      14.746   5.816   9.991  1.00  0.00     0.020 A 
ATOM     42  C   UNL     1      17.137   5.796   9.564  1.00  0.00     0.020 A 
ATOM     43  C   UNL     1      15.863   6.304   9.306  1.00  0.00     0.054 A 
BRANCH  43  44
ATOM     44  S   UNL     1      15.627   7.610   8.069  1.00  0.00     0.124 S 
ATOM     45  O   UNL     1      15.046   6.864   6.955  1.00  0.00    -0.237 OA
ATOM     46  O   UNL     1      14.719   8.534   8.745  1.00  0.00    -0.237 OA
ATOM     47  O   UNL     1      16.976   8.121   7.841  1.00  0.00    -0.744 OA
ENDBRANCH  43  44
ENDBRANCH  24  38
BRANCH  25  48
ATOM     48  C   UNL     1      17.509  -3.935  16.793  1.00  0.00    -0.014 A 
ATOM     49  C   UNL     1      16.820  -4.157  17.997  1.00  0.00     0.010 A 
ATOM     50  C   UNL     1      18.353  -4.942  16.289  1.00  0.00     0.010 A 
ATOM     51  C   UNL     1      16.960  -5.371  18.675  1.00  0.00     0.020 A 
ATOM     52  C   UNL     1      18.476  -6.166  16.952  1.00  0.00     0.020 A 
ATOM     53  C   UNL     1      17.778  -6.373  18.142  1.00  0.00     0.054 A 
BRANCH  53  54
ATOM     54  S   UNL     1      17.854  -7.980  18.982  1.00  0.00     0.124 S 
ATOM     55  O   UNL     1      18.686  -7.678  20.142  1.00  0.00    -0.237 OA
ATOM     56  O   UNL     1      16.447  -8.255  19.265  1.00  0.00    -0.237 OA
ATOM     57  O   UNL     1      18.463  -8.858  17.984  1.00  0.00    -0.744 OA
ENDBRANCH  53  54
ENDBRANCH  25  48
BRANCH  37  58
ATOM     58  C   UNL     1      19.315   2.793  17.484  1.00  0.00    -0.014 A 
ATOM     59  C   UNL     1      20.713   2.719  17.604  1.00  0.00     0.010 A 
ATOM     60  C   UNL     1      18.597   3.677  18.311  1.00  0.00     0.010 A 
ATOM     61  C   UNL     1      21.382   3.515  18.537  1.00  0.00     0.020 A 
ATOM     62  C   UNL     1      19.265   4.490  19.230  1.00  0.00     0.020 A 
ATOM     63  C   UNL     1      20.654   4.401  19.339  1.00  0.00     0.054 A 
BRANCH  63  64
ATOM     64  S   UNL     1      21.552   5.490  20.479  1.00  0.00     0.124 S 
ATOM     65  O   UNL     1      21.935   4.567  21.543  1.00  0.00    -0.237 OA
ATOM     66  O   UNL     1      22.649   5.985  19.651  1.00  0.00    -0.237 OA
ATOM     67  O   UNL     1      20.559   6.495  20.852  1.00  0.00    -0.744 OA
ENDBRANCH  63  64
ENDBRANCH  37  58
ENDBRANCH  11  12
ENDBRANCH   4   6
ENDBRANCH   1   2
BRANCH   1  68
ATOM     68  C   UNL     1       9.761  -3.396   6.718  1.00  0.00     0.042 C 
BRANCH  68  69
ATOM     69  C   UNL     1       9.052  -4.276   5.691  1.00  0.00     0.117 C 
BRANCH  69  70
ATOM     70  N   UNL     1       7.705  -4.630   6.114  1.00  0.00    -0.356 N 
ATOM     71  C   UNL     1       6.462  -4.134   5.907  1.00  0.00     0.224 C 
ATOM     72  H   UNL     1       7.695  -5.427   6.692  1.00  0.00     0.163 HD
ATOM     73  O   UNL     1       5.564  -4.726   6.525  1.00  0.00    -0.275 OA
BRANCH  71  74
ATOM     74  C   UNL     1       6.082  -2.984   4.969  1.00  0.00     0.098 C 
ATOM     75  C   UNL     1       5.073  -2.062   5.691  1.00  0.00     0.017 C 
ATOM     76  C   UNL     1       7.215  -2.174   4.372  1.00  0.00     0.131 C 
ATOM     77  C   UNL     1       4.661  -0.855   4.843  1.00  0.00     0.022 C 
ATOM     78  N   UNL     1       6.730  -1.011   3.635  1.00  0.00    -0.356 N 
ATOM     79  C   UNL     1       5.874  -0.076   4.333  1.00  0.00     0.118 C 
BRANCH  78  80
ATOM     80  C   UNL     1       7.465  -0.687   2.520  1.00  0.00     0.133 A 
ATOM     81  C   UNL     1       8.157   0.494   2.395  1.00  0.00     0.077 A 
ATOM     82  N   UNL     1       7.536  -1.632   1.572  1.00  0.00    -0.211 NA
ATOM     83  C   UNL     1       8.961   0.638   1.275  1.00  0.00     0.095 A 
ATOM     84  C   UNL     1       8.310  -1.405   0.500  1.00  0.00     0.165 A 
ATOM     85  N   UNL     1       9.048  -0.307   0.312  1.00  0.00    -0.226 NA
BRANCH  83  86
ATOM     86  C   UNL     1       9.803   1.829   1.101  1.00  0.00     0.089 A 
ATOM     87  C   UNL     1      10.919   2.055   1.909  1.00  0.00     0.030 A 
ATOM     88  N   UNL     1       9.411   2.708   0.142  1.00  0.00    -0.255 NA
ATOM     89  C   UNL     1      11.661   3.219   1.727  1.00  0.00     0.004 A 
ATOM     90  C   UNL     1      10.159   3.822  -0.018  1.00  0.00     0.112 A 
ATOM     91  C   UNL     1      11.276   4.121   0.744  1.00  0.00     0.020 A 
ENDBRANCH  83  86
BRANCH  84  92
ATOM     92  C   UNL     1       8.265  -2.426  -0.542  1.00  0.00     0.055 A 
ATOM     93  C   UNL     1       7.026  -2.923  -0.996  1.00  0.00     0.015 A 
ATOM     94  C   UNL     1       9.424  -2.979  -1.093  1.00  0.00     0.134 A 
ATOM     95  C   UNL     1       6.955  -3.923  -1.970  1.00  0.00     0.001 A 
ATOM     96  C   UNL     1       9.361  -3.984  -2.061  1.00  0.00     0.040 A 
ATOM     97  F   UNL     1      10.636  -2.590  -0.669  1.00  0.00    -0.206 F 
ATOM     98  C   UNL     1       8.126  -4.454  -2.503  1.00  0.00     0.003 A 
ENDBRANCH  84  92
ENDBRANCH  78  80
ENDBRANCH  71  74
ENDBRANCH  69  70
ENDBRANCH  68  69
ENDBRANCH   1  68
TORSDOF 16
