REMARK SMILES O=C(NCCCNC(=O)c1ccc(-c2cccc(F)c2)o1)c1ccc(-c2c3nc(c(-c4ccc(S(=O)(=O)[O-])cc4)c4ccc([nH]4)c(-c4ccc(S(=O)(=O)[O-])cc4)c4nc(c(-c5ccc(S(=O)(=O)[O-])cc5)c5ccc2[nH]5)C=C4)C=C3)cc1
REMARK SMILES IDX 4 1 3 2 1 3 2 4 22 6 23 7 81 8 24 9 80 10 25 11 26 12 27 13
REMARK SMILES IDX 74 14 28 15 79 16 73 17 75 18 29 19 78 20 72 21 71 22 30 24
REMARK SMILES IDX 60 25 41 26 59 27 42 28 45 29 58 30 76 31 43 32 44 33 57 35
REMARK SMILES IDX 77 36 46 37 31 38 32 39 40 40 33 41 39 42 34 43 35 44 36 45
REMARK SMILES IDX 37 46 38 47 61 48 62 49 70 50 63 51 69 52 64 53 65 54 66 55
REMARK SMILES IDX 67 56 68 57 47 58 48 59 56 60 49 61 55 62 50 63 51 64 52 65
REMARK SMILES IDX 53 66 54 67 5 68 6 69 7 70 8 71 9 73 10 74 11 75 21 76 12 77
REMARK SMILES IDX 13 78 14 79 15 80 20 81 16 82 18 83 17 84 19 85
REMARK H PARENT 3 5 75 23 45 34 7 72
REMARK Flexibility Score: inf
ROOT
ATOM      1  C   UNL     1       4.590  -1.079   0.901  1.00  0.00     0.118 C 
ENDROOT
BRANCH   1   2
ATOM      2  N   UNL     1       3.189  -1.111   0.507  1.00  0.00    -0.352 N 
ATOM      3  O   UNL     1       1.202  -0.324  -0.166  1.00  0.00    -0.269 OA
ATOM      4  C   UNL     1       2.422  -0.174  -0.139  1.00  0.00     0.251 C 
ATOM      5  H   UNL     1       2.715  -1.941   0.742  1.00  0.00     0.163 HD
BRANCH   4   6
ATOM      6  C   UNL     1       3.032   1.007  -0.791  1.00  0.00     0.039 A 
ATOM      7  C   UNL     1       4.178   0.894  -1.584  1.00  0.00     0.014 A 
ATOM      8  C   UNL     1       2.387   2.243  -0.675  1.00  0.00     0.014 A 
ATOM      9  C   UNL     1       4.731   2.031  -2.179  1.00  0.00     0.010 A 
ATOM     10  C   UNL     1       2.914   3.372  -1.308  1.00  0.00     0.010 A 
ATOM     11  C   UNL     1       4.103   3.279  -2.048  1.00  0.00    -0.014 A 
BRANCH  11  12
ATOM     12  C   UNL     1       4.673   4.476  -2.714  1.00  0.00     0.031 A 
ATOM     13  C   UNL     1       5.296   5.581  -1.908  1.00  0.00     0.074 A 
ATOM     14  C   UNL     1       4.624   4.575  -4.056  1.00  0.00     0.049 A 
ATOM     15  N   UNL     1       5.821   6.706  -2.322  1.00  0.00    -0.248 NA
ATOM     16  C   UNL     1       5.326   5.402  -0.449  1.00  0.00     0.031 C 
ATOM     17  C   UNL     1       4.034   3.582  -4.955  1.00  0.00     0.029 A 
ATOM     18  N   UNL     1       5.082   5.559  -4.896  1.00  0.00    -0.354 N 
ATOM     19  C   UNL     1       6.219   7.383  -1.177  1.00  0.00     0.074 A 
ATOM     20  C   UNL     1       5.872   6.543  -0.049  1.00  0.00     0.031 C 
ATOM     21  C   UNL     1       4.188   3.995  -6.224  1.00  0.00     0.029 A 
ATOM     22  C   UNL     1       4.857   5.294  -6.225  1.00  0.00     0.049 A 
ATOM     23  H   UNL     1       5.529   6.376  -4.578  1.00  0.00     0.167 HD
ATOM     24  C   UNL     1       6.819   8.593  -1.070  1.00  0.00     0.031 A 
ATOM     25  C   UNL     1       5.147   6.014  -7.325  1.00  0.00     0.031 A 
ATOM     26  C   UNL     1       7.182   9.428  -2.183  1.00  0.00     0.049 A 
ATOM     27  C   UNL     1       5.832   7.340  -7.187  1.00  0.00     0.074 A 
ATOM     28  C   UNL     1       7.815  10.659  -2.167  1.00  0.00     0.029 A 
ATOM     29  N   UNL     1       6.946   9.116  -3.512  1.00  0.00    -0.354 N 
ATOM     30  N   UNL     1       6.216   7.954  -6.094  1.00  0.00    -0.248 NA
ATOM     31  C   UNL     1       6.122   8.072  -8.428  1.00  0.00     0.031 C 
ATOM     32  C   UNL     1       7.948  11.100  -3.490  1.00  0.00     0.029 A 
ATOM     33  C   UNL     1       7.413  10.134  -4.327  1.00  0.00     0.049 A 
ATOM     34  H   UNL     1       6.510   8.293  -3.831  1.00  0.00     0.167 HD
ATOM     35  C   UNL     1       6.793   9.146  -6.514  1.00  0.00     0.074 A 
ATOM     36  C   UNL     1       6.721   9.161  -7.962  1.00  0.00     0.031 C 
ATOM     37  C   UNL     1       7.330  10.138  -5.765  1.00  0.00     0.031 A 
BRANCH  24  38
ATOM     38  C   UNL     1       7.093   9.090   0.320  1.00  0.00    -0.014 A 
ATOM     39  C   UNL     1       8.205   8.626   1.044  1.00  0.00     0.010 A 
ATOM     40  C   UNL     1       6.219  10.020   0.912  1.00  0.00     0.010 A 
ATOM     41  C   UNL     1       8.413   9.048   2.360  1.00  0.00     0.020 A 
ATOM     42  C   UNL     1       6.431  10.453   2.223  1.00  0.00     0.020 A 
ATOM     43  C   UNL     1       7.514   9.945   2.946  1.00  0.00     0.054 A 
BRANCH  43  44
ATOM     44  S   UNL     1       7.776  10.468   4.665  1.00  0.00     0.124 S 
ATOM     45  O   UNL     1       7.108   9.400   5.405  1.00  0.00    -0.237 OA
ATOM     46  O   UNL     1       9.231  10.497   4.784  1.00  0.00    -0.237 OA
ATOM     47  O   UNL     1       7.124  11.774   4.726  1.00  0.00    -0.744 OA
ENDBRANCH  43  44
ENDBRANCH  24  38
BRANCH  25  48
ATOM     48  C   UNL     1       4.782   5.469  -8.656  1.00  0.00    -0.014 A 
ATOM     49  C   UNL     1       5.746   4.811  -9.438  1.00  0.00     0.010 A 
ATOM     50  C   UNL     1       3.449   5.528  -9.101  1.00  0.00     0.010 A 
ATOM     51  C   UNL     1       5.379   4.203 -10.642  1.00  0.00     0.020 A 
ATOM     52  C   UNL     1       3.077   4.910 -10.298  1.00  0.00     0.020 A 
ATOM     53  C   UNL     1       4.045   4.251 -11.060  1.00  0.00     0.054 A 
BRANCH  53  54
ATOM     54  S   UNL     1       3.553   3.354 -12.561  1.00  0.00     0.124 S 
ATOM     55  O   UNL     1       3.809   4.343 -13.602  1.00  0.00    -0.237 OA
ATOM     56  O   UNL     1       4.444   2.196 -12.555  1.00  0.00    -0.237 OA
ATOM     57  O   UNL     1       2.146   3.044 -12.317  1.00  0.00    -0.744 OA
ENDBRANCH  53  54
ENDBRANCH  25  48
BRANCH  37  58
ATOM     58  C   UNL     1       7.886  11.326  -6.495  1.00  0.00    -0.014 A 
ATOM     59  C   UNL     1       7.037  12.363  -6.919  1.00  0.00     0.010 A 
ATOM     60  C   UNL     1       9.271  11.432  -6.710  1.00  0.00     0.010 A 
ATOM     61  C   UNL     1       7.565  13.486  -7.562  1.00  0.00     0.020 A 
ATOM     62  C   UNL     1       9.803  12.558  -7.344  1.00  0.00     0.020 A 
ATOM     63  C   UNL     1       8.944  13.574  -7.775  1.00  0.00     0.054 A 
BRANCH  63  64
ATOM     64  S   UNL     1       9.627  15.061  -8.561  1.00  0.00     0.124 S 
ATOM     65  O   UNL     1       9.466  14.754  -9.979  1.00  0.00    -0.237 OA
ATOM     66  O   UNL     1       8.770  16.128  -8.048  1.00  0.00    -0.237 OA
ATOM     67  O   UNL     1      11.007  15.097  -8.081  1.00  0.00    -0.744 OA
ENDBRANCH  63  64
ENDBRANCH  37  58
ENDBRANCH  11  12
ENDBRANCH   4   6
ENDBRANCH   1   2
BRANCH   1  68
ATOM     68  C   UNL     1       4.767  -1.022   2.419  1.00  0.00     0.042 C 
BRANCH  68  69
ATOM     69  C   UNL     1       4.245  -2.249   3.167  1.00  0.00     0.118 C 
BRANCH  69  70
ATOM     70  N   UNL     1       4.985  -3.452   2.824  1.00  0.00    -0.349 N 
ATOM     71  C   UNL     1       5.890  -4.173   3.568  1.00  0.00     0.287 C 
ATOM     72  H   UNL     1       4.811  -3.805   1.921  1.00  0.00     0.163 HD
ATOM     73  O   UNL     1       6.582  -4.991   2.960  1.00  0.00    -0.266 OA
BRANCH  71  74
ATOM     74  C   UNL     1       5.972  -3.971   4.997  1.00  0.00     0.192 A 
ATOM     75  C   UNL     1       5.013  -3.824   5.983  1.00  0.00     0.057 A 
ATOM     76  O   UNL     1       7.212  -3.989   5.578  1.00  0.00    -0.451 OA
ATOM     77  C   UNL     1       5.702  -3.744   7.218  1.00  0.00     0.052 A 
ATOM     78  C   UNL     1       7.045  -3.844   6.924  1.00  0.00     0.135 A 
BRANCH  78  79
ATOM     79  C   UNL     1       8.261  -3.862   7.722  1.00  0.00     0.020 A 
ATOM     80  C   UNL     1       8.272  -4.473   8.987  1.00  0.00     0.012 A 
ATOM     81  C   UNL     1       9.437  -3.267   7.249  1.00  0.00     0.051 A 
ATOM     82  C   UNL     1       9.436  -4.495   9.761  1.00  0.00     0.004 A 
ATOM     83  C   UNL     1      10.587  -3.284   8.032  1.00  0.00     0.123 A 
ATOM     84  C   UNL     1      10.597  -3.893   9.281  1.00  0.00     0.039 A 
ATOM     85  F   UNL     1      11.704  -2.702   7.577  1.00  0.00    -0.207 F 
ENDBRANCH  78  79
ENDBRANCH  71  74
ENDBRANCH  69  70
ENDBRANCH  68  69
ENDBRANCH   1  68
TORSDOF 14
