REMARK SMILES O=C(NCCCNC(=O)c1ccccc1[C@H](O)c1ccc(F)c(F)c1)c1ccc(-c2c3nc(c(-c4ccc(S(=O)(=O)[O-])cc4)c4ccc([nH]4)c(-c4ccc(S(=O)(=O)[O-])cc4)c4nc(c(-c5ccc(S(=O)(=O)[O-])cc5)c5ccc2[nH]5)C=C4)C=C3)cc1
REMARK SMILES IDX 4 1 3 2 1 3 2 4 26 6 27 7 85 8 28 9 84 10 29 11 30 12 31 13
REMARK SMILES IDX 78 14 32 15 83 16 77 17 79 18 33 19 82 20 76 21 75 22 34 24
REMARK SMILES IDX 64 25 45 26 63 27 46 28 49 29 62 30 80 31 47 32 48 33 61 35
REMARK SMILES IDX 81 36 50 37 35 38 36 39 44 40 37 41 43 42 38 43 39 44 40 45
REMARK SMILES IDX 41 46 42 47 65 48 66 49 74 50 67 51 73 52 68 53 69 54 70 55
REMARK SMILES IDX 71 56 72 57 51 58 52 59 60 60 53 61 59 62 54 63 55 64 56 65
REMARK SMILES IDX 57 66 58 67 5 68 6 69 7 70 8 71 9 73 10 74 11 75 15 76 12 77
REMARK SMILES IDX 14 78 13 79 16 80 18 81 19 82 25 83 20 84 23 85 21 86 24 87
REMARK SMILES IDX 22 88 17 89
REMARK H PARENT 3 5 79 23 49 34 7 72 17 90
REMARK Flexibility Score: inf
ROOT
ATOM      1  C   UNL     1       7.248  -0.948   8.626  1.00  0.00     0.118 C 
ENDROOT
BRANCH   1   2
ATOM      2  N   UNL     1       7.930  -0.541   7.404  1.00  0.00    -0.352 N 
ATOM      3  O   UNL     1       9.179   0.721   6.020  1.00  0.00    -0.269 OA
ATOM      4  C   UNL     1       8.803   0.496   7.163  1.00  0.00     0.251 C 
ATOM      5  H   UNL     1       7.733  -1.102   6.619  1.00  0.00     0.163 HD
BRANCH   4   6
ATOM      6  C   UNL     1       9.257   1.359   8.275  1.00  0.00     0.039 A 
ATOM      7  C   UNL     1       9.642   0.813   9.499  1.00  0.00     0.014 A 
ATOM      8  C   UNL     1       9.298   2.743   8.085  1.00  0.00     0.014 A 
ATOM      9  C   UNL     1       9.872   1.646  10.587  1.00  0.00     0.010 A 
ATOM     10  C   UNL     1       9.642   3.578   9.151  1.00  0.00     0.010 A 
ATOM     11  C   UNL     1       9.888   3.038  10.423  1.00  0.00    -0.014 A 
BRANCH  11  12
ATOM     12  C   UNL     1      10.213   3.916  11.575  1.00  0.00     0.031 A 
ATOM     13  C   UNL     1       9.221   4.927  12.079  1.00  0.00     0.074 A 
ATOM     14  C   UNL     1      11.422   3.804  12.159  1.00  0.00     0.049 A 
ATOM     15  N   UNL     1       9.368   5.827  13.018  1.00  0.00    -0.248 NA
ATOM     16  C   UNL     1       7.894   4.935  11.443  1.00  0.00     0.031 C 
ATOM     17  C   UNL     1      12.465   2.853  11.764  1.00  0.00     0.029 A 
ATOM     18  N   UNL     1      11.983   4.495  13.202  1.00  0.00    -0.354 N 
ATOM     19  C   UNL     1       8.172   6.534  13.059  1.00  0.00     0.074 A 
ATOM     20  C   UNL     1       7.313   5.965  12.042  1.00  0.00     0.031 C 
ATOM     21  C   UNL     1      13.527   3.005  12.565  1.00  0.00     0.029 A 
ATOM     22  C   UNL     1      13.274   4.114  13.477  1.00  0.00     0.049 A 
ATOM     23  H   UNL     1      11.507   5.195  13.705  1.00  0.00     0.167 HD
ATOM     24  C   UNL     1       7.826   7.566  13.867  1.00  0.00     0.031 A 
ATOM     25  C   UNL     1      14.178   4.623  14.334  1.00  0.00     0.031 A 
ATOM     26  C   UNL     1       8.693   8.125  14.871  1.00  0.00     0.049 A 
ATOM     27  C   UNL     1      13.790   5.787  15.194  1.00  0.00     0.074 A 
ATOM     28  C   UNL     1       8.429   9.151  15.762  1.00  0.00     0.029 A 
ATOM     29  N   UNL     1       9.997   7.713  15.111  1.00  0.00    -0.354 N 
ATOM     30  N   UNL     1      12.647   6.429  15.236  1.00  0.00    -0.248 NA
ATOM     31  C   UNL     1      14.806   6.297  16.123  1.00  0.00     0.031 C 
ATOM     32  C   UNL     1       9.590   9.394  16.503  1.00  0.00     0.029 A 
ATOM     33  C   UNL     1      10.559   8.480  16.118  1.00  0.00     0.049 A 
ATOM     34  H   UNL     1      10.455   6.983  14.635  1.00  0.00     0.167 HD
ATOM     35  C   UNL     1      12.797   7.406  16.210  1.00  0.00     0.074 A 
ATOM     36  C   UNL     1      14.141   7.268  16.736  1.00  0.00     0.031 C 
ATOM     37  C   UNL     1      11.898   8.328  16.633  1.00  0.00     0.031 A 
BRANCH  24  38
ATOM     38  C   UNL     1       6.469   8.188  13.656  1.00  0.00    -0.014 A 
ATOM     39  C   UNL     1       5.285   7.504  13.988  1.00  0.00     0.010 A 
ATOM     40  C   UNL     1       6.378   9.484  13.115  1.00  0.00     0.010 A 
ATOM     41  C   UNL     1       4.038   8.078  13.723  1.00  0.00     0.020 A 
ATOM     42  C   UNL     1       5.133  10.073  12.875  1.00  0.00     0.020 A 
ATOM     43  C   UNL     1       3.970   9.354  13.155  1.00  0.00     0.054 A 
BRANCH  43  44
ATOM     44  S   UNL     1       2.341  10.064  12.792  1.00  0.00     0.124 S 
ATOM     45  O   UNL     1       1.942   9.307  11.607  1.00  0.00    -0.237 OA
ATOM     46  O   UNL     1       1.583   9.771  14.005  1.00  0.00    -0.237 OA
ATOM     47  O   UNL     1       2.620  11.479  12.562  1.00  0.00    -0.744 OA
ENDBRANCH  43  44
ENDBRANCH  24  38
BRANCH  25  48
ATOM     48  C   UNL     1      15.540   4.028  14.376  1.00  0.00    -0.014 A 
ATOM     49  C   UNL     1      15.930   3.206  15.445  1.00  0.00     0.010 A 
ATOM     50  C   UNL     1      16.414   4.196  13.284  1.00  0.00     0.010 A 
ATOM     51  C   UNL     1      17.164   2.550  15.415  1.00  0.00     0.020 A 
ATOM     52  C   UNL     1      17.635   3.521  13.238  1.00  0.00     0.020 A 
ATOM     53  C   UNL     1      18.003   2.702  14.306  1.00  0.00     0.054 A 
BRANCH  53  54
ATOM     54  S   UNL     1      19.547   1.751  14.241  1.00  0.00     0.124 S 
ATOM     55  O   UNL     1      20.384   2.463  15.201  1.00  0.00    -0.237 OA
ATOM     56  O   UNL     1      19.113   0.416  14.646  1.00  0.00    -0.237 OA
ATOM     57  O   UNL     1      19.960   1.865  12.844  1.00  0.00    -0.744 OA
ENDBRANCH  53  54
ENDBRANCH  25  48
BRANCH  37  58
ATOM     58  C   UNL     1      12.313   9.243  17.752  1.00  0.00    -0.014 A 
ATOM     59  C   UNL     1      13.184  10.323  17.527  1.00  0.00     0.010 A 
ATOM     60  C   UNL     1      11.741   9.073  19.026  1.00  0.00     0.010 A 
ATOM     61  C   UNL     1      13.477  11.217  18.560  1.00  0.00     0.020 A 
ATOM     62  C   UNL     1      12.013   9.977  20.054  1.00  0.00     0.020 A 
ATOM     63  C   UNL     1      12.883  11.042  19.815  1.00  0.00     0.054 A 
BRANCH  63  64
ATOM     64  S   UNL     1      13.207  12.268  21.113  1.00  0.00     0.124 S 
ATOM     65  O   UNL     1      14.575  11.941  21.507  1.00  0.00    -0.237 OA
ATOM     66  O   UNL     1      13.042  13.535  20.406  1.00  0.00    -0.237 OA
ATOM     67  O   UNL     1      12.185  11.985  22.119  1.00  0.00    -0.744 OA
ENDBRANCH  63  64
ENDBRANCH  37  58
ENDBRANCH  11  12
ENDBRANCH   4   6
ENDBRANCH   1   2
BRANCH   1  68
ATOM     68  C   UNL     1       5.749  -0.682   8.615  1.00  0.00     0.042 C 
BRANCH  68  69
ATOM     69  C   UNL     1       4.993  -1.416   7.524  1.00  0.00     0.118 C 
BRANCH  69  70
ATOM     70  N   UNL     1       5.165  -2.852   7.548  1.00  0.00    -0.352 N 
ATOM     71  C   UNL     1       4.302  -3.819   7.122  1.00  0.00     0.251 C 
ATOM     72  H   UNL     1       6.018  -3.174   7.920  1.00  0.00     0.163 HD
ATOM     73  O   UNL     1       4.683  -4.985   7.040  1.00  0.00    -0.269 OA
BRANCH  71  74
ATOM     74  C   UNL     1       2.892  -3.525   6.793  1.00  0.00     0.045 A 
ATOM     75  C   UNL     1       1.966  -4.143   7.657  1.00  0.00     0.014 A 
ATOM     76  C   UNL     1       2.448  -2.861   5.632  1.00  0.00    -0.002 A 
ATOM     77  C   UNL     1       0.600  -4.102   7.390  1.00  0.00     0.001 A 
ATOM     78  C   UNL     1       1.056  -2.874   5.369  1.00  0.00     0.007 A 
ATOM     79  C   UNL     1       0.145  -3.475   6.238  1.00  0.00     0.000 A 
BRANCH  76  80
ATOM     80  C   UNL     1       3.313  -2.078   4.650  1.00  0.00     0.175 C 
BRANCH  80  81
ATOM     81  C   UNL     1       3.333  -0.555   4.853  1.00  0.00    -0.012 A 
ATOM     82  C   UNL     1       2.372   0.132   5.628  1.00  0.00     0.010 A 
ATOM     83  C   UNL     1       4.324   0.220   4.216  1.00  0.00     0.049 A 
ATOM     84  C   UNL     1       2.408   1.523   5.775  1.00  0.00     0.043 A 
ATOM     85  C   UNL     1       4.355   1.607   4.368  1.00  0.00     0.159 A 
ATOM     86  C   UNL     1       3.402   2.254   5.141  1.00  0.00     0.158 A 
ATOM     87  F   UNL     1       5.312   2.314   3.752  1.00  0.00    -0.204 F 
ATOM     88  F   UNL     1       3.426   3.586   5.277  1.00  0.00    -0.204 F 
ENDBRANCH  80  81
BRANCH  80  89
ATOM     89  O   UNL     1       4.643  -2.578   4.555  1.00  0.00    -0.384 OA
ATOM     90  H   UNL     1       5.105  -2.432   5.396  1.00  0.00     0.211 HD
ENDBRANCH  80  89
ENDBRANCH  76  80
ENDBRANCH  71  74
ENDBRANCH  69  70
ENDBRANCH  68  69
ENDBRANCH   1  68
TORSDOF 16
