REMARK SMILES O=C(Cc1ccccc1C(=O)NCCCNC(=O)c1ccc(-c2c3nc(c(-c4ccc(S(=O)(=O)[O-])cc4)c4ccc([nH]4)c(-c4ccc(S(=O)(=O)[O-])cc4)c4nc(c(-c5ccc(S(=O)(=O)[O-])cc5)c5ccc2[nH]5)C=C4)C=C3)cc1)Nc1cccc(OC[C@@H]2CCCO2)c1
REMARK SMILES IDX 10 1 11 2 12 3 9 5 4 6 5 7 6 8 8 9 7 10 3 11 2 12 1 13 79 14
REMARK SMILES IDX 80 16 81 17 92 18 82 19 84 20 83 21 85 22 86 23 87 24 88 25
REMARK SMILES IDX 91 26 89 27 90 28 13 29 14 30 15 31 16 32 17 33 18 35 19 36
REMARK SMILES IDX 20 37 78 38 21 39 77 40 22 41 23 42 24 43 71 44 25 45 76 46
REMARK SMILES IDX 70 47 72 48 26 49 75 50 69 51 68 52 27 54 57 55 38 56 56 57
REMARK SMILES IDX 39 58 42 59 55 60 73 61 40 62 41 63 54 65 74 66 43 67 28 68
REMARK SMILES IDX 29 69 37 70 30 71 36 72 31 73 32 74 33 75 34 76 35 77 58 78
REMARK SMILES IDX 59 79 67 80 60 81 66 82 61 83 62 84 63 85 64 86 65 87 44 88
REMARK SMILES IDX 45 89 53 90 46 91 52 92 47 93 48 94 49 95 50 96 51 97
REMARK H PARENT 12 4 79 15 16 34 72 53 42 64
REMARK Flexibility Score: inf
ROOT
ATOM      1  C   UNL     1       3.258   3.974   0.083  1.00  0.00     0.251 C 
ATOM      2  O   UNL     1       2.904   5.062   0.557  1.00  0.00    -0.269 OA
ATOM      3  N   UNL     1       2.898   3.796  -1.226  1.00  0.00    -0.352 N 
ATOM      4  H   UNL     1       2.426   4.585  -1.581  1.00  0.00     0.163 HD
ENDROOT
BRANCH   1   5
ATOM      5  C   UNL     1       4.084   3.073   0.968  1.00  0.00     0.043 A 
ATOM      6  C   UNL     1       4.091   1.663   1.088  1.00  0.00    -0.026 A 
ATOM      7  C   UNL     1       4.915   1.068   2.075  1.00  0.00     0.005 A 
ATOM      8  C   UNL     1       5.669   1.823   2.968  1.00  0.00     0.000 A 
ATOM      9  C   UNL     1       4.865   3.810   1.895  1.00  0.00     0.014 A 
ATOM     10  C   UNL     1       5.638   3.201   2.885  1.00  0.00     0.001 A 
BRANCH   6  11
ATOM     11  C   UNL     1       3.282   0.745   0.217  1.00  0.00     0.136 C 
BRANCH  11  12
ATOM     12  C   UNL     1       2.573  -0.418   0.865  1.00  0.00     0.228 C 
ATOM     13  O   UNL     1       1.424  -0.294   1.286  1.00  0.00    -0.274 OA
ATOM     14  N   UNL     1       3.301  -1.601   0.903  1.00  0.00    -0.326 N 
ATOM     15  H   UNL     1       4.280  -1.577   0.803  1.00  0.00     0.169 HD
BRANCH  14  16
ATOM     16  C   UNL     1       2.650  -2.831   1.082  1.00  0.00     0.044 A 
ATOM     17  C   UNL     1       3.045  -3.713   2.079  1.00  0.00     0.026 A 
ATOM     18  C   UNL     1       1.583  -3.147   0.243  1.00  0.00     0.072 A 
ATOM     19  C   UNL     1       2.283  -4.863   2.301  1.00  0.00     0.006 A 
ATOM     20  C   UNL     1       0.816  -4.282   0.458  1.00  0.00     0.121 A 
ATOM     21  C   UNL     1       1.167  -5.137   1.501  1.00  0.00     0.046 A 
BRANCH  20  22
ATOM     22  O   UNL     1      -0.298  -4.629  -0.249  1.00  0.00    -0.491 OA
BRANCH  22  23
ATOM     23  C   UNL     1      -0.717  -3.788  -1.336  1.00  0.00     0.261 C 
BRANCH  23  24
ATOM     24  C   UNL     1      -1.268  -2.424  -0.879  1.00  0.00     0.156 C 
ATOM     25  C   UNL     1      -2.585  -2.077  -1.530  1.00  0.00     0.038 C 
ATOM     26  O   UNL     1      -0.395  -1.352  -1.323  1.00  0.00    -0.375 OA
ATOM     27  C   UNL     1      -2.637  -0.580  -1.381  1.00  0.00     0.031 C 
ATOM     28  C   UNL     1      -1.194  -0.197  -1.606  1.00  0.00     0.161 C 
ENDBRANCH  23  24
ENDBRANCH  22  23
ENDBRANCH  20  22
ENDBRANCH  14  16
ENDBRANCH  11  12
ENDBRANCH   6  11
ENDBRANCH   1   5
BRANCH   3  29
ATOM     29  C   UNL     1       3.025   2.754  -2.231  1.00  0.00     0.118 C 
BRANCH  29  30
ATOM     30  C   UNL     1       1.685   2.030  -2.431  1.00  0.00     0.042 C 
BRANCH  30  31
ATOM     31  C   UNL     1       0.741   2.685  -3.437  1.00  0.00     0.118 C 
BRANCH  31  32
ATOM     32  N   UNL     1       1.052   2.304  -4.804  1.00  0.00    -0.352 N 
ATOM     33  C   UNL     1       0.370   1.537  -5.720  1.00  0.00     0.251 C 
ATOM     34  H   UNL     1       1.907   2.662  -5.137  1.00  0.00     0.163 HD
ATOM     35  O   UNL     1       0.978   1.186  -6.732  1.00  0.00    -0.269 OA
BRANCH  33  36
ATOM     36  C   UNL     1      -1.048   1.113  -5.542  1.00  0.00     0.039 A 
ATOM     37  C   UNL     1      -1.458  -0.090  -6.137  1.00  0.00     0.014 A 
ATOM     38  C   UNL     1      -2.008   1.896  -4.901  1.00  0.00     0.014 A 
ATOM     39  C   UNL     1      -2.795  -0.513  -6.065  1.00  0.00     0.010 A 
ATOM     40  C   UNL     1      -3.321   1.428  -4.752  1.00  0.00     0.010 A 
ATOM     41  C   UNL     1      -3.742   0.224  -5.344  1.00  0.00    -0.014 A 
BRANCH  41  42
ATOM     42  C   UNL     1      -5.171  -0.207  -5.211  1.00  0.00     0.031 A 
ATOM     43  C   UNL     1      -6.282   0.699  -5.681  1.00  0.00     0.074 A 
ATOM     44  C   UNL     1      -5.500  -1.368  -4.604  1.00  0.00     0.049 A 
ATOM     45  N   UNL     1      -7.575   0.569  -5.520  1.00  0.00    -0.248 NA
ATOM     46  C   UNL     1      -5.891   1.895  -6.446  1.00  0.00     0.031 C 
ATOM     47  C   UNL     1      -4.561  -2.395  -4.171  1.00  0.00     0.029 A 
ATOM     48  N   UNL     1      -6.719  -1.859  -4.193  1.00  0.00    -0.354 N 
ATOM     49  C   UNL     1      -8.150   1.636  -6.198  1.00  0.00     0.074 A 
ATOM     50  C   UNL     1      -7.065   2.462  -6.683  1.00  0.00     0.031 C 
ATOM     51  C   UNL     1      -5.207  -3.327  -3.452  1.00  0.00     0.029 A 
ATOM     52  C   UNL     1      -6.619  -2.981  -3.399  1.00  0.00     0.049 A 
ATOM     53  H   UNL     1      -7.579  -1.449  -4.442  1.00  0.00     0.167 HD
ATOM     54  C   UNL     1      -9.459   1.877  -6.452  1.00  0.00     0.031 A 
ATOM     55  C   UNL     1      -7.546  -3.659  -2.695  1.00  0.00     0.031 A 
ATOM     56  C   UNL     1     -10.544   1.060  -5.977  1.00  0.00     0.049 A 
ATOM     57  C   UNL     1      -8.991  -3.284  -2.849  1.00  0.00     0.074 A 
ATOM     58  C   UNL     1     -11.899   1.204  -6.221  1.00  0.00     0.029 A 
ATOM     59  N   UNL     1     -10.401  -0.053  -5.164  1.00  0.00    -0.354 N 
ATOM     60  N   UNL     1      -9.512  -2.307  -3.550  1.00  0.00    -0.248 NA
ATOM     61  C   UNL     1      -9.978  -4.141  -2.177  1.00  0.00     0.031 C 
ATOM     62  C   UNL     1     -12.580   0.202  -5.521  1.00  0.00     0.029 A 
ATOM     63  C   UNL     1     -11.644  -0.595  -4.882  1.00  0.00     0.049 A 
ATOM     64  H   UNL     1      -9.543  -0.406  -4.836  1.00  0.00     0.167 HD
ATOM     65  C   UNL     1     -10.888  -2.482  -3.471  1.00  0.00     0.074 A 
ATOM     66  C   UNL     1     -11.118  -3.643  -2.635  1.00  0.00     0.031 C 
ATOM     67  C   UNL     1     -11.868  -1.760  -4.065  1.00  0.00     0.031 A 
BRANCH  54  68
ATOM     68  C   UNL     1      -9.785   3.052  -7.334  1.00  0.00    -0.014 A 
ATOM     69  C   UNL     1      -9.489   3.008  -8.710  1.00  0.00     0.010 A 
ATOM     70  C   UNL     1     -10.441   4.179  -6.810  1.00  0.00     0.010 A 
ATOM     71  C   UNL     1      -9.812   4.083  -9.539  1.00  0.00     0.020 A 
ATOM     72  C   UNL     1     -10.790   5.248  -7.643  1.00  0.00     0.020 A 
ATOM     73  C   UNL     1     -10.460   5.197  -9.000  1.00  0.00     0.054 A 
BRANCH  73  74
ATOM     74  S   UNL     1     -10.901   6.564 -10.109  1.00  0.00     0.124 S 
ATOM     75  O   UNL     1      -9.594   7.158 -10.385  1.00  0.00    -0.237 OA
ATOM     76  O   UNL     1     -11.523   5.871 -11.237  1.00  0.00    -0.237 OA
ATOM     77  O   UNL     1     -11.802   7.384  -9.310  1.00  0.00    -0.744 OA
ENDBRANCH  73  74
ENDBRANCH  54  68
BRANCH  55  78
ATOM     78  C   UNL     1      -7.149  -4.787  -1.806  1.00  0.00    -0.014 A 
ATOM     79  C   UNL     1      -7.430  -6.117  -2.162  1.00  0.00     0.010 A 
ATOM     80  C   UNL     1      -6.522  -4.528  -0.572  1.00  0.00     0.010 A 
ATOM     81  C   UNL     1      -7.140  -7.163  -1.280  1.00  0.00     0.020 A 
ATOM     82  C   UNL     1      -6.209  -5.574   0.303  1.00  0.00     0.020 A 
ATOM     83  C   UNL     1      -6.540  -6.884  -0.049  1.00  0.00     0.054 A 
BRANCH  83  84
ATOM     84  S   UNL     1      -6.194  -8.259   1.084  1.00  0.00     0.124 S 
ATOM     85  O   UNL     1      -7.533  -8.624   1.535  1.00  0.00    -0.237 OA
ATOM     86  O   UNL     1      -5.535  -9.227   0.210  1.00  0.00    -0.237 OA
ATOM     87  O   UNL     1      -5.333  -7.659   2.100  1.00  0.00    -0.744 OA
ENDBRANCH  83  84
ENDBRANCH  55  78
BRANCH  67  88
ATOM     88  C   UNL     1     -13.282  -2.245  -3.898  1.00  0.00    -0.014 A 
ATOM     89  C   UNL     1     -13.962  -2.121  -2.675  1.00  0.00     0.010 A 
ATOM     90  C   UNL     1     -13.951  -2.803  -5.003  1.00  0.00     0.010 A 
ATOM     91  C   UNL     1     -15.277  -2.575  -2.551  1.00  0.00     0.020 A 
ATOM     92  C   UNL     1     -15.275  -3.232  -4.892  1.00  0.00     0.020 A 
ATOM     93  C   UNL     1     -15.926  -3.127  -3.661  1.00  0.00     0.054 A 
BRANCH  93  94
ATOM     94  S   UNL     1     -17.649  -3.663  -3.488  1.00  0.00     0.124 S 
ATOM     95  O   UNL     1     -17.507  -4.906  -2.735  1.00  0.00    -0.237 OA
ATOM     96  O   UNL     1     -18.259  -2.554  -2.759  1.00  0.00    -0.237 OA
ATOM     97  O   UNL     1     -18.104  -3.819  -4.868  1.00  0.00    -0.744 OA
ENDBRANCH  93  94
ENDBRANCH  67  88
ENDBRANCH  41  42
ENDBRANCH  33  36
ENDBRANCH  31  32
ENDBRANCH  30  31
ENDBRANCH  29  30
ENDBRANCH   3  29
TORSDOF 19
