REMARK SMILES CC[C@@](C)(NC(=O)N1CCCC[C@@H]1C)C(=O)NCCCNC(=O)c1ccc(-c2c3nc(c(-c4ccc(S(=O)(=O)[O-])cc4)c4ccc([nH]4)c(-c4ccc(S(=O)(=O)[O-])cc4)c4nc(c(-c5ccc(S(=O)(=O)[O-])cc5)c5ccc2[nH]5)C=C4)C=C3)cc1
REMARK SMILES IDX 19 1 18 2 17 3 15 4 16 5 3 7 4 8 2 9 1 10 5 11 6 12 7 14
REMARK SMILES IDX 8 15 9 16 13 17 10 18 12 19 14 20 11 21 20 22 21 23 22 24
REMARK SMILES IDX 23 26 24 27 25 28 83 29 26 30 82 31 27 32 28 33 29 34 76 35
REMARK SMILES IDX 30 36 81 37 75 38 77 39 31 40 80 41 74 42 73 43 32 45 62 46
REMARK SMILES IDX 43 47 61 48 44 49 47 50 60 51 78 52 45 53 46 54 59 56 79 57
REMARK SMILES IDX 48 58 33 59 34 60 42 61 35 62 41 63 36 64 37 65 38 66 39 67
REMARK SMILES IDX 40 68 63 69 64 70 72 71 65 72 71 73 66 74 67 75 68 76 69 77
REMARK SMILES IDX 70 78 49 79 50 80 58 81 51 82 57 83 52 84 53 85 54 86 55 87
REMARK SMILES IDX 56 88
REMARK H PARENT 17 6 5 13 21 25 77 44 47 55
REMARK Flexibility Score: inf
ROOT
ATOM      1  C   UNL     1       3.234   4.691   4.108  1.00  0.00     0.042 C 
ENDROOT
BRANCH   1   2
ATOM      2  C   UNL     1       2.911   4.364   2.614  1.00  0.00     0.117 C 
BRANCH   2   3
ATOM      3  N   UNL     1       3.187   3.021   1.999  1.00  0.00    -0.354 N 
ATOM      4  C   UNL     1       2.612   1.869   1.502  1.00  0.00     0.245 C 
ATOM      5  O   UNL     1       3.362   1.395   0.623  1.00  0.00    -0.272 OA
ATOM      6  H   UNL     1       4.163   2.925   1.919  1.00  0.00     0.163 HD
BRANCH   4   7
ATOM      7  C   UNL     1       1.177   1.056   1.764  1.00  0.00     0.117 C 
ATOM      8  C   UNL     1       0.034   1.982   1.311  1.00  0.00     0.045 C 
BRANCH   7   9
ATOM      9  C   UNL     1       1.180  -0.262   0.887  1.00  0.00     0.035 C 
ATOM     10  C   UNL     1       1.173  -0.159  -0.631  1.00  0.00     0.007 C 
ENDBRANCH   7   9
BRANCH   7  11
ATOM     11  N   UNL     1       0.691   0.512   3.108  1.00  0.00    -0.324 N 
ATOM     12  C   UNL     1       1.277  -0.468   3.888  1.00  0.00     0.318 C 
ATOM     13  H   UNL     1      -0.140   0.906   3.461  1.00  0.00     0.166 HD
ATOM     14  O   UNL     1       0.709  -1.542   4.055  1.00  0.00    -0.249 OA
BRANCH  12  15
ATOM     15  N   UNL     1       2.379  -0.072   4.604  1.00  0.00    -0.322 N 
ATOM     16  C   UNL     1       3.017  -0.913   5.630  1.00  0.00     0.121 C 
ATOM     17  C   UNL     1       2.692   1.326   4.658  1.00  0.00     0.083 C 
ATOM     18  C   UNL     1       4.054  -0.151   6.484  1.00  0.00     0.022 C 
ATOM     19  C   UNL     1       4.214   1.436   4.572  1.00  0.00     0.025 C 
ATOM     20  C   UNL     1       1.726   1.998   5.654  1.00  0.00     0.031 C 
ATOM     21  C   UNL     1       4.991   0.674   5.624  1.00  0.00     0.004 C 
ENDBRANCH  12  15
ENDBRANCH   7  11
ENDBRANCH   4   7
ENDBRANCH   2   3
ENDBRANCH   1   2
BRANCH   1  22
ATOM     22  C   UNL     1       4.602   4.892   4.811  1.00  0.00     0.118 C 
BRANCH  22  23
ATOM     23  N   UNL     1       5.266   6.168   4.734  1.00  0.00    -0.352 N 
ATOM     24  C   UNL     1       6.090   6.766   5.687  1.00  0.00     0.251 C 
ATOM     25  H   UNL     1       5.121   6.680   3.906  1.00  0.00     0.163 HD
ATOM     26  O   UNL     1       6.679   7.788   5.393  1.00  0.00    -0.269 OA
BRANCH  24  27
ATOM     27  C   UNL     1       6.230   6.221   7.080  1.00  0.00     0.039 A 
ATOM     28  C   UNL     1       6.104   7.128   8.143  1.00  0.00     0.014 A 
ATOM     29  C   UNL     1       6.561   4.893   7.373  1.00  0.00     0.014 A 
ATOM     30  C   UNL     1       6.274   6.709   9.473  1.00  0.00     0.010 A 
ATOM     31  C   UNL     1       6.689   4.465   8.711  1.00  0.00     0.010 A 
ATOM     32  C   UNL     1       6.566   5.370   9.779  1.00  0.00    -0.014 A 
BRANCH  32  33
ATOM     33  C   UNL     1       6.796   4.967  11.204  1.00  0.00     0.031 A 
ATOM     34  C   UNL     1       8.177   4.571  11.675  1.00  0.00     0.074 A 
ATOM     35  C   UNL     1       5.784   5.001  12.098  1.00  0.00     0.049 A 
ATOM     36  N   UNL     1       8.597   4.321  12.892  1.00  0.00    -0.248 NA
ATOM     37  C   UNL     1       9.216   4.423  10.646  1.00  0.00     0.031 C 
ATOM     38  C   UNL     1       4.392   5.326  11.783  1.00  0.00     0.029 A 
ATOM     39  N   UNL     1       5.770   4.781  13.457  1.00  0.00    -0.354 N 
ATOM     40  C   UNL     1       9.945   3.992  12.773  1.00  0.00     0.074 A 
ATOM     41  C   UNL     1      10.256   4.017  11.360  1.00  0.00     0.031 C 
ATOM     42  C   UNL     1       3.671   5.327  12.917  1.00  0.00     0.029 A 
ATOM     43  C   UNL     1       4.540   4.987  14.041  1.00  0.00     0.049 A 
ATOM     44  H   UNL     1       6.566   4.502  13.964  1.00  0.00     0.167 HD
ATOM     45  C   UNL     1      10.852   3.720  13.744  1.00  0.00     0.031 A 
ATOM     46  C   UNL     1       4.154   4.931  15.334  1.00  0.00     0.031 A 
ATOM     47  C   UNL     1      10.550   3.698  15.152  1.00  0.00     0.049 A 
ATOM     48  C   UNL     1       5.178   4.634  16.399  1.00  0.00     0.074 A 
ATOM     49  C   UNL     1      11.409   3.477  16.215  1.00  0.00     0.029 A 
ATOM     50  N   UNL     1       9.290   3.903  15.694  1.00  0.00    -0.354 N 
ATOM     51  N   UNL     1       6.463   4.406  16.265  1.00  0.00    -0.248 NA
ATOM     52  C   UNL     1       4.703   4.609  17.791  1.00  0.00     0.031 C 
ATOM     53  C   UNL     1      10.660   3.502  17.396  1.00  0.00     0.029 A 
ATOM     54  C   UNL     1       9.344   3.793  17.073  1.00  0.00     0.049 A 
ATOM     55  H   UNL     1       8.477   4.098  15.174  1.00  0.00     0.167 HD
ATOM     56  C   UNL     1       6.954   4.234  17.556  1.00  0.00     0.074 A 
ATOM     57  C   UNL     1       5.832   4.404  18.457  1.00  0.00     0.031 C 
ATOM     58  C   UNL     1       8.220   3.961  17.958  1.00  0.00     0.031 A 
BRANCH  45  59
ATOM     59  C   UNL     1      12.267   3.419  13.312  1.00  0.00    -0.014 A 
ATOM     60  C   UNL     1      13.092   4.427  12.779  1.00  0.00     0.010 A 
ATOM     61  C   UNL     1      12.790   2.123  13.469  1.00  0.00     0.010 A 
ATOM     62  C   UNL     1      14.393   4.133  12.362  1.00  0.00     0.020 A 
ATOM     63  C   UNL     1      14.102   1.831  13.079  1.00  0.00     0.020 A 
ATOM     64  C   UNL     1      14.888   2.834  12.508  1.00  0.00     0.054 A 
BRANCH  64  65
ATOM     65  S   UNL     1      16.582   2.481  11.963  1.00  0.00     0.124 S 
ATOM     66  O   UNL     1      16.437   2.490  10.509  1.00  0.00    -0.237 OA
ATOM     67  O   UNL     1      17.340   3.596  12.525  1.00  0.00    -0.237 OA
ATOM     68  O   UNL     1      16.872   1.175  12.550  1.00  0.00    -0.744 OA
ENDBRANCH  64  65
ENDBRANCH  45  59
BRANCH  46  69
ATOM     69  C   UNL     1       2.732   5.197  15.702  1.00  0.00    -0.014 A 
ATOM     70  C   UNL     1       2.373   6.371  16.390  1.00  0.00     0.010 A 
ATOM     71  C   UNL     1       1.726   4.275  15.361  1.00  0.00     0.010 A 
ATOM     72  C   UNL     1       1.039   6.611  16.740  1.00  0.00     0.020 A 
ATOM     73  C   UNL     1       0.388   4.524  15.685  1.00  0.00     0.020 A 
ATOM     74  C   UNL     1       0.054   5.687  16.381  1.00  0.00     0.054 A 
BRANCH  74  75
ATOM     75  S   UNL     1      -1.678   6.046  16.791  1.00  0.00     0.124 S 
ATOM     76  O   UNL     1      -1.708   5.800  18.229  1.00  0.00    -0.237 OA
ATOM     77  O   UNL     1      -1.816   7.442  16.384  1.00  0.00    -0.237 OA
ATOM     78  O   UNL     1      -2.426   5.091  15.976  1.00  0.00    -0.744 OA
ENDBRANCH  74  75
ENDBRANCH  46  69
BRANCH  58  79
ATOM     79  C   UNL     1       8.470   3.851  19.440  1.00  0.00    -0.014 A 
ATOM     80  C   UNL     1       8.013   2.744  20.176  1.00  0.00     0.010 A 
ATOM     81  C   UNL     1       9.220   4.846  20.093  1.00  0.00     0.010 A 
ATOM     82  C   UNL     1       8.271   2.651  21.547  1.00  0.00     0.020 A 
ATOM     83  C   UNL     1       9.503   4.744  21.458  1.00  0.00     0.020 A 
ATOM     84  C   UNL     1       9.013   3.654  22.179  1.00  0.00     0.054 A 
BRANCH  84  85
ATOM     85  S   UNL     1       9.368   3.492  23.951  1.00  0.00     0.124 S 
ATOM     86  O   UNL     1       8.078   3.823  24.550  1.00  0.00    -0.237 OA
ATOM     87  O   UNL     1       9.778   2.095  24.072  1.00  0.00    -0.237 OA
ATOM     88  O   UNL     1      10.431   4.468  24.182  1.00  0.00    -0.744 OA
ENDBRANCH  84  85
ENDBRANCH  58  79
ENDBRANCH  32  33
ENDBRANCH  24  27
ENDBRANCH  22  23
ENDBRANCH   1  22
TORSDOF 16
