REMARK SMILES C[C@@H]1CN(C(=O)NC[C@@H]2CC[C@H](C(=O)NCCCNC(=O)c3ccc(-c4c5nc(c(-c6ccc(S(=O)(=O)[O-])cc6)c6ccc([nH]6)c(-c6ccc(S(=O)(=O)[O-])cc6)c6nc(c(-c7ccc(S(=O)(=O)[O-])cc7)c7ccc4[nH]7)C=C6)C=C5)cc3)O2)CC(C)(C)O1
REMARK SMILES IDX 17 1 16 2 15 3 13 4 14 5 12 7 9 8 10 9 82 10 11 11 8 12 7 13
REMARK SMILES IDX 5 14 6 15 4 17 1 18 2 19 3 20 87 21 84 22 83 23 85 24 86 25
REMARK SMILES IDX 18 26 19 27 20 28 21 30 22 31 23 32 81 33 24 34 80 35 25 36
REMARK SMILES IDX 26 37 27 38 74 39 28 40 79 41 73 42 75 43 29 44 78 45 72 46
REMARK SMILES IDX 71 47 30 49 60 50 41 51 59 52 42 53 45 54 58 55 76 56 43 57
REMARK SMILES IDX 44 58 57 60 77 61 46 62 31 63 32 64 40 65 33 66 39 67 34 68
REMARK SMILES IDX 35 69 36 70 37 71 38 72 61 73 62 74 70 75 63 76 69 77 64 78
REMARK SMILES IDX 65 79 66 80 67 81 68 82 47 83 48 84 56 85 49 86 55 87 50 88
REMARK SMILES IDX 51 89 52 90 53 91 54 92
REMARK H PARENT 15 6 7 16 19 29 75 48 45 59
REMARK Flexibility Score: inf
ROOT
ATOM      1  C   UNL     1       3.911  -4.854  -4.103  1.00  0.00     0.042 C 
ENDROOT
BRANCH   1   2
ATOM      2  C   UNL     1       2.826  -5.415  -3.209  1.00  0.00     0.117 C 
BRANCH   2   3
ATOM      3  N   UNL     1       2.822  -6.855  -3.112  1.00  0.00    -0.354 N 
ATOM      4  C   UNL     1       2.953  -7.634  -1.996  1.00  0.00     0.249 C 
ATOM      5  O   UNL     1       2.802  -8.852  -2.127  1.00  0.00    -0.272 OA
ATOM      6  H   UNL     1       2.711  -7.340  -3.962  1.00  0.00     0.163 HD
BRANCH   4   7
ATOM      7  C   UNL     1       3.325  -7.028  -0.619  1.00  0.00     0.207 C 
ATOM      8  C   UNL     1       3.268  -4.870   0.326  1.00  0.00     0.138 C 
ATOM      9  C   UNL     1       4.680  -5.070  -0.211  1.00  0.00     0.037 C 
ATOM     10  O   UNL     1       2.481  -5.964  -0.194  1.00  0.00    -0.363 OA
ATOM     11  C   UNL     1       4.764  -6.548  -0.530  1.00  0.00     0.045 C 
BRANCH   8  12
ATOM     12  C   UNL     1       2.617  -3.522  -0.083  1.00  0.00     0.149 C 
BRANCH  12  13
ATOM     13  N   UNL     1       1.303  -3.744  -0.683  1.00  0.00    -0.335 N 
ATOM     14  C   UNL     1       0.033  -3.366  -0.632  1.00  0.00     0.317 C 
ATOM     15  O   UNL     1      -0.663  -3.813  -1.551  1.00  0.00    -0.249 OA
ATOM     16  H   UNL     1       1.395  -4.428  -1.386  1.00  0.00     0.165 HD
BRANCH  14  17
ATOM     17  N   UNL     1      -0.484  -2.573   0.327  1.00  0.00    -0.319 N 
ATOM     18  C   UNL     1       1.199   0.036   0.521  1.00  0.00     0.040 C 
ATOM     19  C   UNL     1       0.148  -0.517   1.480  1.00  0.00     0.135 C 
ATOM     20  C   UNL     1       0.128  -2.049   1.534  1.00  0.00     0.153 C 
ATOM     21  O   UNL     1      -1.163   0.027   1.234  1.00  0.00    -0.369 OA
ATOM     22  C   UNL     1      -1.941  -0.574   0.173  1.00  0.00     0.081 C 
ATOM     23  C   UNL     1      -1.864  -2.118   0.176  1.00  0.00     0.156 C 
ATOM     24  C   UNL     1      -1.550   0.007  -1.192  1.00  0.00     0.044 C 
ATOM     25  C   UNL     1      -3.396  -0.171   0.462  1.00  0.00     0.044 C 
ENDBRANCH  14  17
ENDBRANCH  12  13
ENDBRANCH   8  12
ENDBRANCH   4   7
ENDBRANCH   2   3
ENDBRANCH   1   2
BRANCH   1  26
ATOM     26  C   UNL     1       3.458  -4.688  -5.539  1.00  0.00     0.118 C 
BRANCH  26  27
ATOM     27  N   UNL     1       2.421  -3.669  -5.694  1.00  0.00    -0.352 N 
ATOM     28  C   UNL     1       2.395  -2.543  -6.483  1.00  0.00     0.251 C 
ATOM     29  H   UNL     1       1.614  -3.812  -5.149  1.00  0.00     0.163 HD
ATOM     30  O   UNL     1       1.476  -1.736  -6.365  1.00  0.00    -0.269 OA
BRANCH  28  31
ATOM     31  C   UNL     1       3.490  -2.281  -7.440  1.00  0.00     0.039 A 
ATOM     32  C   UNL     1       3.979  -0.980  -7.578  1.00  0.00     0.014 A 
ATOM     33  C   UNL     1       4.056  -3.321  -8.178  1.00  0.00     0.014 A 
ATOM     34  C   UNL     1       5.092  -0.743  -8.387  1.00  0.00     0.010 A 
ATOM     35  C   UNL     1       5.233  -3.106  -8.881  1.00  0.00     0.010 A 
ATOM     36  C   UNL     1       5.759  -1.813  -9.003  1.00  0.00    -0.014 A 
BRANCH  36  37
ATOM     37  C   UNL     1       6.997  -1.614  -9.798  1.00  0.00     0.031 A 
ATOM     38  C   UNL     1       7.025  -2.027 -11.247  1.00  0.00     0.074 A 
ATOM     39  C   UNL     1       8.113  -1.154  -9.197  1.00  0.00     0.049 A 
ATOM     40  N   UNL     1       8.034  -2.048 -12.078  1.00  0.00    -0.248 NA
ATOM     41  C   UNL     1       5.763  -2.521 -11.827  1.00  0.00     0.031 C 
ATOM     42  C   UNL     1       8.227  -0.779  -7.784  1.00  0.00     0.029 A 
ATOM     43  N   UNL     1       9.372  -0.935  -9.697  1.00  0.00    -0.354 N 
ATOM     44  C   UNL     1       7.538  -2.587 -13.259  1.00  0.00     0.074 A 
ATOM     45  C   UNL     1       6.154  -2.928 -13.025  1.00  0.00     0.031 C 
ATOM     46  C   UNL     1       9.477  -0.352  -7.540  1.00  0.00     0.029 A 
ATOM     47  C   UNL     1      10.265  -0.464  -8.762  1.00  0.00     0.049 A 
ATOM     48  H   UNL     1       9.614  -1.100 -10.637  1.00  0.00     0.167 HD
ATOM     49  C   UNL     1       8.172  -2.760 -14.442  1.00  0.00     0.031 A 
ATOM     50  C   UNL     1      11.573  -0.164  -8.875  1.00  0.00     0.031 A 
ATOM     51  C   UNL     1       9.536  -2.373 -14.683  1.00  0.00     0.049 A 
ATOM     52  C   UNL     1      12.244  -0.331 -10.212  1.00  0.00     0.074 A 
ATOM     53  C   UNL     1      10.247  -2.427 -15.868  1.00  0.00     0.029 A 
ATOM     54  N   UNL     1      10.389  -1.852 -13.723  1.00  0.00    -0.354 N 
ATOM     55  N   UNL     1      11.736  -0.772 -11.338  1.00  0.00    -0.248 NA
ATOM     56  C   UNL     1      13.660   0.053 -10.298  1.00  0.00     0.031 C 
ATOM     57  C   UNL     1      11.547  -1.979 -15.614  1.00  0.00     0.029 A 
ATOM     58  C   UNL     1      11.627  -1.596 -14.285  1.00  0.00     0.049 A 
ATOM     59  H   UNL     1      10.150  -1.688 -12.782  1.00  0.00     0.167 HD
ATOM     60  C   UNL     1      12.762  -0.692 -12.273  1.00  0.00     0.074 A 
ATOM     61  C   UNL     1      13.913  -0.145 -11.584  1.00  0.00     0.031 C 
ATOM     62  C   UNL     1      12.755  -1.041 -13.582  1.00  0.00     0.031 A 
BRANCH  49  63
ATOM     63  C   UNL     1       7.397  -3.382 -15.573  1.00  0.00    -0.014 A 
ATOM     64  C   UNL     1       6.358  -2.682 -16.213  1.00  0.00     0.010 A 
ATOM     65  C   UNL     1       7.752  -4.660 -16.042  1.00  0.00     0.010 A 
ATOM     66  C   UNL     1       5.671  -3.259 -17.283  1.00  0.00     0.020 A 
ATOM     67  C   UNL     1       7.085  -5.229 -17.131  1.00  0.00     0.020 A 
ATOM     68  C   UNL     1       6.041  -4.529 -17.737  1.00  0.00     0.054 A 
BRANCH  68  69
ATOM     69  S   UNL     1       5.167  -5.229 -19.164  1.00  0.00     0.124 S 
ATOM     70  O   UNL     1       3.871  -5.572 -18.584  1.00  0.00    -0.237 OA
ATOM     71  O   UNL     1       5.156  -4.117 -20.110  1.00  0.00    -0.237 OA
ATOM     72  O   UNL     1       5.995  -6.367 -19.554  1.00  0.00    -0.744 OA
ENDBRANCH  68  69
ENDBRANCH  49  63
BRANCH  50  73
ATOM     73  C   UNL     1      12.336   0.330  -7.696  1.00  0.00    -0.014 A 
ATOM     74  C   UNL     1      12.783   1.662  -7.639  1.00  0.00     0.010 A 
ATOM     75  C   UNL     1      12.629  -0.534  -6.624  1.00  0.00     0.010 A 
ATOM     76  C   UNL     1      13.537   2.112  -6.550  1.00  0.00     0.020 A 
ATOM     77  C   UNL     1      13.356  -0.080  -5.520  1.00  0.00     0.020 A 
ATOM     78  C   UNL     1      13.821   1.237  -5.498  1.00  0.00     0.054 A 
BRANCH  78  79
ATOM     79  S   UNL     1      14.776   1.847  -4.081  1.00  0.00     0.124 S 
ATOM     80  O   UNL     1      16.128   1.900  -4.628  1.00  0.00    -0.237 OA
ATOM     81  O   UNL     1      14.150   3.139  -3.810  1.00  0.00    -0.237 OA
ATOM     82  O   UNL     1      14.552   0.830  -3.057  1.00  0.00    -0.744 OA
ENDBRANCH  78  79
ENDBRANCH  50  73
BRANCH  62  83
ATOM     83  C   UNL     1      14.015  -0.805 -14.369  1.00  0.00    -0.014 A 
ATOM     84  C   UNL     1      15.148  -1.615 -14.189  1.00  0.00     0.010 A 
ATOM     85  C   UNL     1      14.038   0.205 -15.348  1.00  0.00     0.010 A 
ATOM     86  C   UNL     1      16.296  -1.400 -14.955  1.00  0.00     0.020 A 
ATOM     87  C   UNL     1      15.174   0.405 -16.136  1.00  0.00     0.020 A 
ATOM     88  C   UNL     1      16.301  -0.392 -15.924  1.00  0.00     0.054 A 
BRANCH  88  89
ATOM     89  S   UNL     1      17.786  -0.163 -16.939  1.00  0.00     0.124 S 
ATOM     90  O   UNL     1      18.700   0.479 -15.998  1.00  0.00    -0.237 OA
ATOM     91  O   UNL     1      18.131  -1.532 -17.315  1.00  0.00    -0.237 OA
ATOM     92  O   UNL     1      17.328   0.682 -18.039  1.00  0.00    -0.744 OA
ENDBRANCH  88  89
ENDBRANCH  62  83
ENDBRANCH  36  37
ENDBRANCH  28  31
ENDBRANCH  26  27
ENDBRANCH   1  26
TORSDOF 16
