REMARK SMILES O=C(NC1(C(=O)NCCCNC(=O)c2ccc(-c3c4nc(c(-c5ccc(S(=O)(=O)[O-])cc5)c5ccc([nH]5)c(-c5ccc(S(=O)(=O)[O-])cc5)c5nc(c(-c6ccc(S(=O)(=O)[O-])cc6)c6ccc3[nH]6)C=C5)C=C4)cc2)CC[NH2+]CC1)OCC1c2ccccc2-c2ccccc21
REMARK SMILES IDX 8 1 7 2 5 3 6 4 4 6 74 7 78 8 75 9 77 10 76 11 3 14 1 15
REMARK SMILES IDX 2 16 79 18 80 19 81 20 82 21 93 22 83 23 87 24 88 25 92 26
REMARK SMILES IDX 84 27 86 28 89 29 91 30 85 31 90 32 9 33 10 34 11 35 12 36
REMARK SMILES IDX 13 38 14 39 15 40 73 41 16 42 72 43 17 44 18 45 19 46 66 47
REMARK SMILES IDX 20 48 71 49 65 50 67 51 21 52 70 53 64 54 63 55 22 57 52 58
REMARK SMILES IDX 33 59 51 60 34 61 37 62 50 63 68 64 35 65 36 66 49 68 69 69
REMARK SMILES IDX 38 70 23 71 24 72 32 73 25 74 31 75 26 76 27 77 28 78 29 79
REMARK SMILES IDX 30 80 53 81 54 82 62 83 55 84 61 85 56 86 57 87 58 88 59 89
REMARK SMILES IDX 60 90 39 91 40 92 48 93 41 94 47 95 42 96 43 97 44 98 45 99
REMARK SMILES IDX 46 100
REMARK H PARENT 7 5 76 12 76 13 3 17 11 37 67 56 37 67
REMARK Flexibility Score: inf
ROOT
ATOM      1  C   UNL     1       6.374   1.108   1.544  1.00  0.00     0.117 C 
ENDROOT
BRANCH   1   2
ATOM      2  N   UNL     1       5.000   1.673   1.306  1.00  0.00    -0.354 N 
ATOM      3  C   UNL     1       3.851   1.681   0.588  1.00  0.00     0.246 C 
ATOM      4  O   UNL     1       2.973   2.203   1.331  1.00  0.00    -0.272 OA
ATOM      5  H   UNL     1       4.879   2.362   1.999  1.00  0.00     0.163 HD
BRANCH   3   6
ATOM      6  C   UNL     1       3.232   1.198  -0.926  1.00  0.00     0.132 C 
ATOM      7  C   UNL     1       2.581   2.559  -1.421  1.00  0.00     0.100 C 
ATOM      8  C   UNL     1       3.581   0.408  -2.238  1.00  0.00     0.100 C 
ATOM      9  C   UNL     1       3.079   3.173  -2.757  1.00  0.00     0.263 C 
ATOM     10  C   UNL     1       3.122   0.961  -3.577  1.00  0.00     0.263 C 
ATOM     11  N   UNL     1       3.717   2.264  -3.683  1.00  0.00    -0.346 N 
ATOM     12  H   UNL     1       4.711   2.200  -3.464  1.00  0.00     0.346 HD
ATOM     13  H   UNL     1       3.595   2.612  -4.634  1.00  0.00     0.346 HD
BRANCH   6  14
ATOM     14  N   UNL     1       2.260   0.281  -0.286  1.00  0.00    -0.307 N 
ATOM     15  O   UNL     1       1.687  -1.667   0.691  1.00  0.00    -0.225 OA
ATOM     16  C   UNL     1       2.512  -1.031   0.093  1.00  0.00     0.408 C 
ATOM     17  H   UNL     1       1.357   0.633  -0.114  1.00  0.00     0.168 HD
BRANCH  16  18
ATOM     18  O   UNL     1       3.651  -1.605  -0.440  1.00  0.00    -0.449 OA
BRANCH  18  19
ATOM     19  C   UNL     1       4.983  -1.294   0.069  1.00  0.00     0.248 C 
BRANCH  19  20
ATOM     20  C   UNL     1       6.072  -0.942  -1.055  1.00  0.00     0.088 C 
ATOM     21  C   UNL     1       7.382  -1.737  -0.985  1.00  0.00    -0.029 A 
ATOM     22  C   UNL     1       6.668   0.470  -1.515  1.00  0.00    -0.029 A 
ATOM     23  C   UNL     1       7.667  -2.941  -0.364  1.00  0.00     0.005 A 
ATOM     24  C   UNL     1       8.387  -1.051  -1.709  1.00  0.00    -0.014 A 
ATOM     25  C   UNL     1       7.929   0.259  -2.087  1.00  0.00    -0.014 A 
ATOM     26  C   UNL     1       6.226   1.796  -1.532  1.00  0.00     0.005 A 
ATOM     27  C   UNL     1       8.970  -3.433  -0.452  1.00  0.00     0.000 A 
ATOM     28  C   UNL     1       9.667  -1.554  -1.820  1.00  0.00     0.009 A 
ATOM     29  C   UNL     1       8.618   1.262  -2.782  1.00  0.00     0.009 A 
ATOM     30  C   UNL     1       6.924   2.830  -2.174  1.00  0.00     0.000 A 
ATOM     31  C   UNL     1       9.957  -2.750  -1.177  1.00  0.00     0.001 A 
ATOM     32  C   UNL     1       8.100   2.552  -2.841  1.00  0.00     0.001 A 
ENDBRANCH  19  20
ENDBRANCH  18  19
ENDBRANCH  16  18
ENDBRANCH   6  14
ENDBRANCH   3   6
ENDBRANCH   1   2
BRANCH   1  33
ATOM     33  C   UNL     1       7.522   2.113   1.511  1.00  0.00     0.042 C 
BRANCH  33  34
ATOM     34  C   UNL     1       8.848   1.593   2.087  1.00  0.00     0.118 C 
BRANCH  34  35
ATOM     35  N   UNL     1       9.590   0.574   1.343  1.00  0.00    -0.352 N 
ATOM     36  C   UNL     1      10.966   0.385   1.260  1.00  0.00     0.251 C 
ATOM     37  H   UNL     1       9.041  -0.064   0.831  1.00  0.00     0.163 HD
ATOM     38  O   UNL     1      11.436  -0.557   0.627  1.00  0.00    -0.269 OA
BRANCH  36  39
ATOM     39  C   UNL     1      11.903   1.347   1.891  1.00  0.00     0.039 A 
ATOM     40  C   UNL     1      13.066   1.739   1.214  1.00  0.00     0.014 A 
ATOM     41  C   UNL     1      11.616   1.903   3.132  1.00  0.00     0.014 A 
ATOM     42  C   UNL     1      13.867   2.765   1.734  1.00  0.00     0.010 A 
ATOM     43  C   UNL     1      12.316   3.019   3.562  1.00  0.00     0.010 A 
ATOM     44  C   UNL     1      13.465   3.456   2.886  1.00  0.00    -0.014 A 
BRANCH  44  45
ATOM     45  C   UNL     1      14.223   4.597   3.468  1.00  0.00     0.031 A 
ATOM     46  C   UNL     1      14.626   4.536   4.924  1.00  0.00     0.074 A 
ATOM     47  C   UNL     1      14.427   5.725   2.757  1.00  0.00     0.049 A 
ATOM     48  N   UNL     1      15.062   5.488   5.707  1.00  0.00    -0.248 NA
ATOM     49  C   UNL     1      14.433   3.245   5.610  1.00  0.00     0.031 C 
ATOM     50  C   UNL     1      14.030   5.942   1.363  1.00  0.00     0.029 A 
ATOM     51  N   UNL     1      15.007   6.916   3.119  1.00  0.00    -0.354 N 
ATOM     52  C   UNL     1      15.121   4.928   6.980  1.00  0.00     0.074 A 
ATOM     53  C   UNL     1      14.602   3.585   6.877  1.00  0.00     0.031 C 
ATOM     54  C   UNL     1      14.412   7.172   0.979  1.00  0.00     0.029 A 
ATOM     55  C   UNL     1      15.037   7.850   2.109  1.00  0.00     0.049 A 
ATOM     56  H   UNL     1      15.368   7.086   4.019  1.00  0.00     0.167 HD
ATOM     57  C   UNL     1      15.602   5.466   8.126  1.00  0.00     0.031 A 
ATOM     58  C   UNL     1      15.515   9.110   2.098  1.00  0.00     0.031 A 
ATOM     59  C   UNL     1      16.202   6.770   8.193  1.00  0.00     0.049 A 
ATOM     60  C   UNL     1      16.135   9.656   3.357  1.00  0.00     0.074 A 
ATOM     61  C   UNL     1      16.812   7.386   9.271  1.00  0.00     0.029 A 
ATOM     62  N   UNL     1      16.297   7.645   7.121  1.00  0.00    -0.354 N 
ATOM     63  N   UNL     1      16.222   9.098   4.542  1.00  0.00    -0.248 NA
ATOM     64  C   UNL     1      16.743  10.991   3.272  1.00  0.00     0.031 C 
ATOM     65  C   UNL     1      17.253   8.647   8.856  1.00  0.00     0.029 A 
ATOM     66  C   UNL     1      16.963   8.793   7.507  1.00  0.00     0.049 A 
ATOM     67  H   UNL     1      15.943   7.473   6.218  1.00  0.00     0.167 HD
ATOM     68  C   UNL     1      16.931   9.996   5.333  1.00  0.00     0.074 A 
ATOM     69  C   UNL     1      17.255  11.128   4.487  1.00  0.00     0.031 C 
ATOM     70  C   UNL     1      17.287   9.895   6.638  1.00  0.00     0.031 A 
BRANCH  57  71
ATOM     71  C   UNL     1      15.523   4.630   9.379  1.00  0.00    -0.014 A 
ATOM     72  C   UNL     1      16.259   3.436   9.508  1.00  0.00     0.010 A 
ATOM     73  C   UNL     1      14.709   5.043  10.450  1.00  0.00     0.010 A 
ATOM     74  C   UNL     1      16.133   2.641  10.650  1.00  0.00     0.020 A 
ATOM     75  C   UNL     1      14.610   4.271  11.612  1.00  0.00     0.020 A 
ATOM     76  C   UNL     1      15.305   3.062  11.694  1.00  0.00     0.054 A 
BRANCH  76  77
ATOM     77  S   UNL     1      15.173   2.018  13.171  1.00  0.00     0.124 S 
ATOM     78  O   UNL     1      14.349   0.913  12.684  1.00  0.00    -0.237 OA
ATOM     79  O   UNL     1      16.567   1.684  13.453  1.00  0.00    -0.237 OA
ATOM     80  O   UNL     1      14.532   2.887  14.154  1.00  0.00    -0.744 OA
ENDBRANCH  76  77
ENDBRANCH  57  71
BRANCH  58  81
ATOM     81  C   UNL     1      15.484   9.915   0.843  1.00  0.00    -0.014 A 
ATOM     82  C   UNL     1      16.675  10.180   0.142  1.00  0.00     0.010 A 
ATOM     83  C   UNL     1      14.270  10.404   0.328  1.00  0.00     0.010 A 
ATOM     84  C   UNL     1      16.657  10.936  -1.034  1.00  0.00     0.020 A 
ATOM     85  C   UNL     1      14.244  11.137  -0.864  1.00  0.00     0.020 A 
ATOM     86  C   UNL     1      15.440  11.408  -1.532  1.00  0.00     0.054 A 
BRANCH  86  87
ATOM     87  S   UNL     1      15.436  12.342  -3.088  1.00  0.00     0.124 S 
ATOM     88  O   UNL     1      16.012  13.619  -2.679  1.00  0.00    -0.237 OA
ATOM     89  O   UNL     1      16.276  11.518  -3.953  1.00  0.00    -0.237 OA
ATOM     90  O   UNL     1      14.023  12.382  -3.459  1.00  0.00    -0.744 OA
ENDBRANCH  86  87
ENDBRANCH  58  81
BRANCH  70  91
ATOM     91  C   UNL     1      18.124  11.004   7.212  1.00  0.00    -0.014 A 
ATOM     92  C   UNL     1      17.582  12.273   7.476  1.00  0.00     0.010 A 
ATOM     93  C   UNL     1      19.468  10.746   7.540  1.00  0.00     0.010 A 
ATOM     94  C   UNL     1      18.384  13.280   8.020  1.00  0.00     0.020 A 
ATOM     95  C   UNL     1      20.264  11.740   8.111  1.00  0.00     0.020 A 
ATOM     96  C   UNL     1      19.720  13.007   8.331  1.00  0.00     0.054 A 
BRANCH  96  97
ATOM     97  S   UNL     1      20.732  14.321   9.062  1.00  0.00     0.124 S 
ATOM     98  O   UNL     1      20.980  15.187   7.913  1.00  0.00    -0.237 OA
ATOM     99  O   UNL     1      19.849  14.873  10.087  1.00  0.00    -0.237 OA
ATOM    100  O   UNL     1      21.903  13.613   9.574  1.00  0.00    -0.744 OA
ENDBRANCH  96  97
ENDBRANCH  70  91
ENDBRANCH  44  45
ENDBRANCH  36  39
ENDBRANCH  34  35
ENDBRANCH  33  34
ENDBRANCH   1  33
TORSDOF 17
