REMARK SMILES O=C(NCCCNC(=O)c1c(F)cccc1NC(=O)C1CCCCC1)c1ccc(-c2c3nc(c(-c4ccc(S(=O)(=O)[O-])cc4)c4ccc([nH]4)c(-c4ccc(S(=O)(=O)[O-])cc4)c4nc(c(-c5ccc(S(=O)(=O)[O-])cc5)c5ccc2[nH]5)C=C4)C=C3)cc1
REMARK SMILES IDX 4 1 3 2 1 3 2 4 26 6 27 7 85 8 28 9 84 10 29 11 30 12 31 13
REMARK SMILES IDX 78 14 32 15 83 16 77 17 79 18 33 19 82 20 76 21 75 22 34 24
REMARK SMILES IDX 64 25 45 26 63 27 46 28 49 29 62 30 80 31 47 32 48 33 61 35
REMARK SMILES IDX 81 36 50 37 35 38 36 39 44 40 37 41 43 42 38 43 39 44 40 45
REMARK SMILES IDX 41 46 42 47 65 48 66 49 74 50 67 51 73 52 68 53 69 54 70 55
REMARK SMILES IDX 71 56 72 57 51 58 52 59 60 60 53 61 59 62 54 63 55 64 56 65
REMARK SMILES IDX 57 66 58 67 5 68 6 69 7 70 8 71 9 73 10 74 11 75 16 76 12 77
REMARK SMILES IDX 13 78 15 79 14 80 17 81 18 82 19 84 20 85 21 86 25 87 22 88
REMARK SMILES IDX 24 89 23 90
REMARK H PARENT 3 5 79 23 49 34 7 72 17 83
REMARK Flexibility Score: inf
ROOT
ATOM      1  C   UNL     1       4.620  -0.988   0.811  1.00  0.00     0.118 C 
ENDROOT
BRANCH   1   2
ATOM      2  N   UNL     1       3.180  -0.982   0.596  1.00  0.00    -0.352 N 
ATOM      3  O   UNL     1       1.168  -0.164   0.029  1.00  0.00    -0.269 OA
ATOM      4  C   UNL     1       2.388  -0.099  -0.094  1.00  0.00     0.251 C 
ATOM      5  H   UNL     1       2.698  -1.733   1.012  1.00  0.00     0.163 HD
BRANCH   4   6
ATOM      6  C   UNL     1       2.990   0.935  -0.964  1.00  0.00     0.039 A 
ATOM      7  C   UNL     1       4.066   0.636  -1.805  1.00  0.00     0.014 A 
ATOM      8  C   UNL     1       2.434   2.217  -0.972  1.00  0.00     0.014 A 
ATOM      9  C   UNL     1       4.671   1.647  -2.547  1.00  0.00     0.010 A 
ATOM     10  C   UNL     1       2.991   3.211  -1.779  1.00  0.00     0.010 A 
ATOM     11  C   UNL     1       4.131   2.941  -2.551  1.00  0.00    -0.014 A 
BRANCH  11  12
ATOM     12  C   UNL     1       4.728   3.993  -3.409  1.00  0.00     0.031 A 
ATOM     13  C   UNL     1       5.361   5.212  -2.800  1.00  0.00     0.074 A 
ATOM     14  C   UNL     1       4.672   3.855  -4.747  1.00  0.00     0.049 A 
ATOM     15  N   UNL     1       5.858   6.265  -3.397  1.00  0.00    -0.248 NA
ATOM     16  C   UNL     1       5.436   5.260  -1.332  1.00  0.00     0.031 C 
ATOM     17  C   UNL     1       4.083   2.715  -5.454  1.00  0.00     0.029 A 
ATOM     18  N   UNL     1       5.109   4.681  -5.752  1.00  0.00    -0.354 N 
ATOM     19  C   UNL     1       6.276   7.115  -2.380  1.00  0.00     0.074 A 
ATOM     20  C   UNL     1       5.962   6.459  -1.128  1.00  0.00     0.031 C 
ATOM     21  C   UNL     1       4.208   2.906  -6.775  1.00  0.00     0.029 A 
ATOM     22  C   UNL     1       4.828   4.205  -7.010  1.00  0.00     0.049 A 
ATOM     23  H   UNL     1       5.577   5.531  -5.587  1.00  0.00     0.167 HD
ATOM     24  C   UNL     1       6.863   8.332  -2.482  1.00  0.00     0.031 A 
ATOM     25  C   UNL     1       5.016   4.762  -8.221  1.00  0.00     0.031 A 
ATOM     26  C   UNL     1       7.171   8.977  -3.731  1.00  0.00     0.049 A 
ATOM     27  C   UNL     1       5.650   6.117  -8.313  1.00  0.00     0.074 A 
ATOM     28  C   UNL     1       7.792  10.196  -3.941  1.00  0.00     0.029 A 
ATOM     29  N   UNL     1       6.874   8.459  -4.983  1.00  0.00    -0.354 N 
ATOM     30  N   UNL     1       6.061   6.896  -7.341  1.00  0.00    -0.248 NA
ATOM     31  C   UNL     1       5.847   6.670  -9.659  1.00  0.00     0.031 C 
ATOM     32  C   UNL     1       7.834  10.433  -5.320  1.00  0.00     0.029 A 
ATOM     33  C   UNL     1       7.281   9.341  -5.970  1.00  0.00     0.049 A 
ATOM     34  H   UNL     1       6.438   7.591  -5.146  1.00  0.00     0.167 HD
ATOM     35  C   UNL     1       6.582   8.026  -7.958  1.00  0.00     0.074 A 
ATOM     36  C   UNL     1       6.439   7.827  -9.387  1.00  0.00     0.031 C 
ATOM     37  C   UNL     1       7.132   9.126  -7.388  1.00  0.00     0.031 A 
BRANCH  24  38
ATOM     38  C   UNL     1       7.166   9.059  -1.200  1.00  0.00    -0.014 A 
ATOM     39  C   UNL     1       8.211   8.645  -0.354  1.00  0.00     0.010 A 
ATOM     40  C   UNL     1       6.389  10.173  -0.834  1.00  0.00     0.010 A 
ATOM     41  C   UNL     1       8.433   9.294   0.864  1.00  0.00     0.020 A 
ATOM     42  C   UNL     1       6.623  10.839   0.372  1.00  0.00     0.020 A 
ATOM     43  C   UNL     1       7.626  10.378   1.227  1.00  0.00     0.054 A 
BRANCH  43  44
ATOM     44  S   UNL     1       7.909  11.184   2.827  1.00  0.00     0.124 S 
ATOM     45  O   UNL     1       7.278  10.245   3.750  1.00  0.00    -0.237 OA
ATOM     46  O   UNL     1       9.367  11.253   2.903  1.00  0.00    -0.237 OA
ATOM     47  O   UNL     1       7.235  12.473   2.689  1.00  0.00    -0.744 OA
ENDBRANCH  43  44
ENDBRANCH  24  38
BRANCH  25  48
ATOM     48  C   UNL     1       4.572   4.018  -9.428  1.00  0.00    -0.014 A 
ATOM     49  C   UNL     1       5.506   3.363 -10.246  1.00  0.00     0.010 A 
ATOM     50  C   UNL     1       3.198   3.877  -9.701  1.00  0.00     0.010 A 
ATOM     51  C   UNL     1       5.074   2.564 -11.309  1.00  0.00     0.020 A 
ATOM     52  C   UNL     1       2.763   3.062 -10.749  1.00  0.00     0.020 A 
ATOM     53  C   UNL     1       3.704   2.410 -11.547  1.00  0.00     0.054 A 
BRANCH  53  54
ATOM     54  S   UNL     1       3.163   1.276 -12.856  1.00  0.00     0.124 S 
ATOM     55  O   UNL     1       3.398   2.068 -14.059  1.00  0.00    -0.237 OA
ATOM     56  O   UNL     1       4.048   0.129 -12.670  1.00  0.00    -0.237 OA
ATOM     57  O   UNL     1       1.760   1.027 -12.532  1.00  0.00    -0.744 OA
ENDBRANCH  53  54
ENDBRANCH  25  48
BRANCH  37  58
ATOM     58  C   UNL     1       7.653  10.195  -8.307  1.00  0.00    -0.014 A 
ATOM     59  C   UNL     1       6.779  11.099  -8.936  1.00  0.00     0.010 A 
ATOM     60  C   UNL     1       9.041  10.351  -8.468  1.00  0.00     0.010 A 
ATOM     61  C   UNL     1       7.287  12.140  -9.717  1.00  0.00     0.020 A 
ATOM     62  C   UNL     1       9.553  11.401  -9.234  1.00  0.00     0.020 A 
ATOM     63  C   UNL     1       8.671  12.287  -9.858  1.00  0.00     0.054 A 
BRANCH  63  64
ATOM     64  S   UNL     1       9.311  13.694 -10.809  1.00  0.00     0.124 S 
ATOM     65  O   UNL     1       9.088  13.257 -12.184  1.00  0.00    -0.237 OA
ATOM     66  O   UNL     1       8.470  14.799 -10.356  1.00  0.00    -0.237 OA
ATOM     67  O   UNL     1      10.711  13.778 -10.400  1.00  0.00    -0.744 OA
ENDBRANCH  63  64
ENDBRANCH  37  58
ENDBRANCH  11  12
ENDBRANCH   4   6
ENDBRANCH   1   2
BRANCH   1  68
ATOM     68  C   UNL     1       4.994  -0.681   2.254  1.00  0.00     0.042 C 
BRANCH  68  69
ATOM     69  C   UNL     1       4.463  -1.688   3.262  1.00  0.00     0.118 C 
BRANCH  69  70
ATOM     70  N   UNL     1       5.015  -3.025   3.074  1.00  0.00    -0.352 N 
ATOM     71  C   UNL     1       5.617  -3.839   4.002  1.00  0.00     0.256 C 
ATOM     72  H   UNL     1       4.947  -3.392   2.163  1.00  0.00     0.163 HD
ATOM     73  O   UNL     1       6.138  -4.898   3.666  1.00  0.00    -0.269 OA
BRANCH  71  74
ATOM     74  C   UNL     1       5.723  -3.386   5.398  1.00  0.00     0.099 A 
ATOM     75  C   UNL     1       4.540  -3.071   6.077  1.00  0.00     0.138 A 
ATOM     76  C   UNL     1       6.981  -3.223   6.012  1.00  0.00     0.057 A 
ATOM     77  F   UNL     1       3.343  -3.304   5.519  1.00  0.00    -0.206 F 
ATOM     78  C   UNL     1       4.575  -2.462   7.321  1.00  0.00     0.040 A 
ATOM     79  C   UNL     1       6.987  -2.551   7.233  1.00  0.00     0.027 A 
ATOM     80  C   UNL     1       5.807  -2.169   7.885  1.00  0.00     0.005 A 
BRANCH  76  81
ATOM     81  N   UNL     1       8.136  -3.733   5.370  1.00  0.00    -0.325 N 
ATOM     82  C   UNL     1       9.443  -3.956   5.681  1.00  0.00     0.227 C 
ATOM     83  H   UNL     1       7.940  -4.001   4.444  1.00  0.00     0.169 HD
ATOM     84  O   UNL     1      10.145  -4.423   4.771  1.00  0.00    -0.274 OA
BRANCH  82  85
ATOM     85  C   UNL     1      10.109  -3.700   7.031  1.00  0.00     0.079 C 
ATOM     86  C   UNL     1      10.422  -2.211   7.223  1.00  0.00     0.013 C 
ATOM     87  C   UNL     1       9.444  -4.457   8.189  1.00  0.00     0.013 C 
ATOM     88  C   UNL     1      10.804  -1.838   8.651  1.00  0.00     0.001 C 
ATOM     89  C   UNL     1       9.861  -3.973   9.574  1.00  0.00     0.001 C 
ATOM     90  C   UNL     1       9.886  -2.456   9.697  1.00  0.00     0.000 C 
ENDBRANCH  82  85
ENDBRANCH  76  81
ENDBRANCH  71  74
ENDBRANCH  69  70
ENDBRANCH  68  69
ENDBRANCH   1  68
TORSDOF 15
