REMARK SMILES C[C@H]1N=N[C@H](S/C(=C/c2ccc(-c3cccc(Cl)c3)o2)C(=O)NCCCNC(=O)c2ccc(-c3c4nc(c(-c5ccc(S(=O)(=O)[O-])cc5)c5ccc([nH]5)c(-c5ccc(S(=O)(=O)[O-])cc5)c5nc(c(-c6ccc(S(=O)(=O)[O-])cc6)c6ccc3[nH]6)C=C5)C=C4)cc2)[NH2+]1
REMARK SMILES IDX 25 1 24 2 23 3 21 4 22 5 7 7 8 8 6 9 5 10 1 11 2 12 3 13
REMARK SMILES IDX 90 14 4 15 9 18 10 19 20 20 11 21 12 22 13 23 14 24 19 25
REMARK SMILES IDX 15 26 17 27 16 28 18 29 26 30 27 31 28 32 29 34 30 35 31 36
REMARK SMILES IDX 89 37 32 38 88 39 33 40 34 41 35 42 82 43 36 44 87 45 81 46
REMARK SMILES IDX 83 47 37 48 86 49 80 50 79 51 38 53 68 54 49 55 67 56 50 57
REMARK SMILES IDX 53 58 66 59 84 60 51 61 52 62 65 64 85 65 54 66 39 67 40 68
REMARK SMILES IDX 48 69 41 70 47 71 42 72 43 73 44 74 45 75 46 76 69 77 70 78
REMARK SMILES IDX 78 79 71 80 77 81 72 82 73 83 74 84 75 85 76 86 55 87 56 88
REMARK SMILES IDX 64 89 57 90 63 91 58 92 59 93 60 94 61 95 62 96
REMARK H PARENT 23 6 90 16 90 17 27 33 83 52 53 63
REMARK Flexibility Score: inf
ROOT
ATOM      1  C   UNL     1      -5.401  -1.047  -2.663  1.00  0.00     0.042 C 
ENDROOT
BRANCH   1   2
ATOM      2  C   UNL     1      -3.999  -1.530  -2.942  1.00  0.00     0.118 C 
BRANCH   2   3
ATOM      3  N   UNL     1      -3.502  -1.394  -4.278  1.00  0.00    -0.352 N 
ATOM      4  C   UNL     1      -2.208  -1.444  -4.707  1.00  0.00     0.258 C 
ATOM      5  O   UNL     1      -2.065  -1.384  -5.935  1.00  0.00    -0.269 OA
ATOM      6  H   UNL     1      -4.181  -1.246  -4.976  1.00  0.00     0.163 HD
BRANCH   4   7
ATOM      7  C   UNL     1      -0.981  -1.538  -3.788  1.00  0.00     0.084 C 
ATOM      8  C   UNL     1      -0.784  -2.229  -2.644  1.00  0.00     0.068 C 
BRANCH   7   9
ATOM      9  S   UNL     1       0.461  -0.866  -4.598  1.00  0.00    -0.030 SA
BRANCH   9  10
ATOM     10  C   UNL     1       1.369   0.177  -3.426  1.00  0.00     0.393 C 
ATOM     11  C   UNL     1       1.427   0.425   0.133  1.00  0.00     0.106 C 
ATOM     12  C   UNL     1       0.849   0.365  -1.267  1.00  0.00     0.324 C 
ATOM     13  N   UNL     1       0.753   1.690  -1.893  1.00  0.00    -0.126 NA
ATOM     14  N   UNL     1       1.660  -0.476  -2.149  1.00  0.00    -0.293 N 
ATOM     15  N   UNL     1       0.898   1.550  -3.135  1.00  0.00    -0.115 NA
ATOM     16  H   UNL     1       1.353  -1.449  -2.138  1.00  0.00     0.350 HD
ATOM     17  H   UNL     1       2.649  -0.539  -1.905  1.00  0.00     0.350 HD
ENDBRANCH   9  10
ENDBRANCH   7   9
BRANCH   8  18
ATOM     18  C   UNL     1      -1.694  -2.961  -1.842  1.00  0.00     0.128 A 
ATOM     19  C   UNL     1      -2.055  -4.297  -1.935  1.00  0.00     0.051 A 
ATOM     20  O   UNL     1      -2.326  -2.439  -0.719  1.00  0.00    -0.457 OA
ATOM     21  C   UNL     1      -2.973  -4.573  -0.894  1.00  0.00     0.051 A 
ATOM     22  C   UNL     1      -3.134  -3.404  -0.181  1.00  0.00     0.134 A 
BRANCH  22  23
ATOM     23  C   UNL     1      -4.001  -3.042   0.943  1.00  0.00     0.019 A 
ATOM     24  C   UNL     1      -4.416  -4.039   1.842  1.00  0.00     0.012 A 
ATOM     25  C   UNL     1      -4.516  -1.749   1.110  1.00  0.00     0.032 A 
ATOM     26  C   UNL     1      -5.333  -3.766   2.862  1.00  0.00     0.002 A 
ATOM     27  C   UNL     1      -5.454  -1.485   2.116  1.00  0.00     0.041 A 
ATOM     28  C   UNL     1      -5.864  -2.487   2.993  1.00  0.00     0.020 A 
ATOM     29  Cl  UNL     1      -6.139   0.089   2.254  1.00  0.00    -0.084 Cl
ENDBRANCH  22  23
ENDBRANCH   8  18
ENDBRANCH   4   7
ENDBRANCH   2   3
ENDBRANCH   1   2
BRANCH   1  30
ATOM     30  C   UNL     1      -6.520  -2.002  -3.059  1.00  0.00     0.118 C 
BRANCH  30  31
ATOM     31  N   UNL     1      -6.415  -3.364  -2.533  1.00  0.00    -0.352 N 
ATOM     32  C   UNL     1      -7.183  -4.110  -1.660  1.00  0.00     0.251 C 
ATOM     33  H   UNL     1      -5.631  -3.852  -2.873  1.00  0.00     0.163 HD
ATOM     34  O   UNL     1      -6.807  -5.241  -1.374  1.00  0.00    -0.269 OA
BRANCH  32  35
ATOM     35  C   UNL     1      -8.414  -3.566  -1.030  1.00  0.00     0.039 A 
ATOM     36  C   UNL     1      -8.780  -4.009   0.246  1.00  0.00     0.014 A 
ATOM     37  C   UNL     1      -9.213  -2.622  -1.664  1.00  0.00     0.014 A 
ATOM     38  C   UNL     1      -9.866  -3.421   0.907  1.00  0.00     0.010 A 
ATOM     39  C   UNL     1     -10.170  -1.918  -0.945  1.00  0.00     0.010 A 
ATOM     40  C   UNL     1     -10.527  -2.316   0.346  1.00  0.00    -0.014 A 
BRANCH  40  41
ATOM     41  C   UNL     1     -11.582  -1.567   1.083  1.00  0.00     0.031 A 
ATOM     42  C   UNL     1     -12.950  -1.359   0.475  1.00  0.00     0.074 A 
ATOM     43  C   UNL     1     -11.283  -1.000   2.272  1.00  0.00     0.049 A 
ATOM     44  N   UNL     1     -13.977  -0.707   0.959  1.00  0.00    -0.248 NA
ATOM     45  C   UNL     1     -13.187  -1.921  -0.866  1.00  0.00     0.031 C 
ATOM     46  C   UNL     1      -9.973  -1.045   2.928  1.00  0.00     0.029 A 
ATOM     47  N   UNL     1     -12.057  -0.274   3.141  1.00  0.00    -0.354 N 
ATOM     48  C   UNL     1     -14.962  -0.765  -0.021  1.00  0.00     0.074 A 
ATOM     49  C   UNL     1     -14.386  -1.444  -1.159  1.00  0.00     0.031 C 
ATOM     50  C   UNL     1     -10.049  -0.424   4.115  1.00  0.00     0.029 A 
ATOM     51  C   UNL     1     -11.396   0.104   4.287  1.00  0.00     0.049 A 
ATOM     52  H   UNL     1     -12.998  -0.044   2.962  1.00  0.00     0.167 HD
ATOM     53  C   UNL     1     -16.244  -0.331   0.029  1.00  0.00     0.031 A 
ATOM     54  C   UNL     1     -11.825   0.795   5.361  1.00  0.00     0.031 A 
ATOM     55  C   UNL     1     -16.823   0.324   1.172  1.00  0.00     0.049 A 
ATOM     56  C   UNL     1     -13.259   1.246   5.406  1.00  0.00     0.074 A 
ATOM     57  C   UNL     1     -18.130   0.735   1.360  1.00  0.00     0.029 A 
ATOM     58  N   UNL     1     -16.127   0.663   2.323  1.00  0.00    -0.354 N 
ATOM     59  N   UNL     1     -14.200   1.095   4.504  1.00  0.00    -0.248 NA
ATOM     60  C   UNL     1     -13.693   1.940   6.624  1.00  0.00     0.031 C 
ATOM     61  C   UNL     1     -18.213   1.373   2.602  1.00  0.00     0.029 A 
ATOM     62  C   UNL     1     -16.972   1.300   3.216  1.00  0.00     0.049 A 
ATOM     63  H   UNL     1     -15.173   0.478   2.482  1.00  0.00     0.167 HD
ATOM     64  C   UNL     1     -15.347   1.652   5.058  1.00  0.00     0.074 A 
ATOM     65  C   UNL     1     -14.984   2.115   6.383  1.00  0.00     0.031 C 
ATOM     66  C   UNL     1     -16.588   1.771   4.523  1.00  0.00     0.031 A 
BRANCH  53  67
ATOM     67  C   UNL     1     -17.111  -0.567  -1.184  1.00  0.00    -0.014 A 
ATOM     68  C   UNL     1     -17.485  -1.869  -1.567  1.00  0.00     0.010 A 
ATOM     69  C   UNL     1     -17.590   0.524  -1.931  1.00  0.00     0.010 A 
ATOM     70  C   UNL     1     -18.281  -2.078  -2.697  1.00  0.00     0.020 A 
ATOM     71  C   UNL     1     -18.414   0.323  -3.043  1.00  0.00     0.020 A 
ATOM     72  C   UNL     1     -18.741  -0.979  -3.428  1.00  0.00     0.054 A 
BRANCH  72  73
ATOM     73  S   UNL     1     -19.799  -1.280  -4.871  1.00  0.00     0.124 S 
ATOM     74  O   UNL     1     -18.849  -1.843  -5.829  1.00  0.00    -0.237 OA
ATOM     75  O   UNL     1     -20.791  -2.216  -4.349  1.00  0.00    -0.237 OA
ATOM     76  O   UNL     1     -20.312   0.045  -5.208  1.00  0.00    -0.744 OA
ENDBRANCH  72  73
ENDBRANCH  53  67
BRANCH  54  77
ATOM     77  C   UNL     1     -10.897   1.063   6.496  1.00  0.00    -0.014 A 
ATOM     78  C   UNL     1     -11.079   0.421   7.734  1.00  0.00     0.010 A 
ATOM     79  C   UNL     1      -9.816   1.949   6.341  1.00  0.00     0.010 A 
ATOM     80  C   UNL     1     -10.213   0.678   8.801  1.00  0.00     0.020 A 
ATOM     81  C   UNL     1      -8.928   2.184   7.396  1.00  0.00     0.020 A 
ATOM     82  C   UNL     1      -9.141   1.556   8.624  1.00  0.00     0.054 A 
BRANCH  82  83
ATOM     83  S   UNL     1      -8.003   1.835  10.010  1.00  0.00     0.124 S 
ATOM     84  O   UNL     1      -8.821   2.629  10.921  1.00  0.00    -0.237 OA
ATOM     85  O   UNL     1      -7.704   0.474  10.449  1.00  0.00    -0.237 OA
ATOM     86  O   UNL     1      -6.882   2.543   9.396  1.00  0.00    -0.744 OA
ENDBRANCH  82  83
ENDBRANCH  54  77
BRANCH  66  87
ATOM     87  C   UNL     1     -17.645   2.405   5.389  1.00  0.00    -0.014 A 
ATOM     88  C   UNL     1     -17.594   3.770   5.723  1.00  0.00     0.010 A 
ATOM     89  C   UNL     1     -18.704   1.618   5.876  1.00  0.00     0.010 A 
ATOM     90  C   UNL     1     -18.545   4.321   6.585  1.00  0.00     0.020 A 
ATOM     91  C   UNL     1     -19.678   2.174   6.709  1.00  0.00     0.020 A 
ATOM     92  C   UNL     1     -19.576   3.516   7.080  1.00  0.00     0.054 A 
BRANCH  92  93
ATOM     93  S   UNL     1     -20.790   4.249   8.209  1.00  0.00     0.124 S 
ATOM     94  O   UNL     1     -20.020   4.370   9.444  1.00  0.00    -0.237 OA
ATOM     95  O   UNL     1     -21.122   5.509   7.549  1.00  0.00    -0.237 OA
ATOM     96  O   UNL     1     -21.870   3.265   8.242  1.00  0.00    -0.744 OA
ENDBRANCH  92  93
ENDBRANCH  66  87
ENDBRANCH  40  41
ENDBRANCH  32  35
ENDBRANCH  30  31
ENDBRANCH   1  30
TORSDOF 17
