REMARK SMILES O=C1Nc2ccc(Br)cc2/C1=N/c1ccc(C(=O)NCCCNC(=O)c2ccc(-c3c4nc(c(-c5ccc(S(=O)(=O)[O-])cc5)c5ccc([nH]5)c(-c5ccc(S(=O)(=O)[O-])cc5)c5nc(c(-c6ccc(S(=O)(=O)[O-])cc6)c6ccc3[nH]6)C=C5)C=C4)cc2)cc1
REMARK SMILES IDX 22 1 21 2 20 3 19 4 17 5 18 6 16 8 13 9 14 10 87 11 15 12
REMARK SMILES IDX 86 13 12 14 1 15 2 16 3 17 11 18 4 19 10 21 5 22 9 23 6 24
REMARK SMILES IDX 7 25 8 26 23 27 24 28 25 30 26 31 27 32 85 33 28 34 84 35
REMARK SMILES IDX 29 36 30 37 31 38 78 39 32 40 83 41 77 42 79 43 33 44 82 45
REMARK SMILES IDX 76 46 75 47 34 49 64 50 45 51 63 52 46 53 49 54 62 55 80 56
REMARK SMILES IDX 47 57 48 58 61 60 81 61 50 62 35 63 36 64 44 65 37 66 43 67
REMARK SMILES IDX 38 68 39 69 40 70 41 71 42 72 65 73 66 74 74 75 67 76 73 77
REMARK SMILES IDX 68 78 69 79 70 80 71 81 72 82 51 83 52 84 60 85 53 86 59 87
REMARK SMILES IDX 54 88 55 89 56 90 57 91 58 92
REMARK H PARENT 19 7 3 20 23 29 79 48 49 59
REMARK Flexibility Score: inf
ROOT
ATOM      1  C   UNL     1       9.738   4.391  -4.002  1.00  0.00     0.118 C 
ENDROOT
BRANCH   1   2
ATOM      2  C   UNL     1       8.464   3.714  -3.503  1.00  0.00     0.042 C 
BRANCH   2   3
ATOM      3  C   UNL     1       8.565   3.224  -2.059  1.00  0.00     0.118 C 
BRANCH   3   4
ATOM      4  N   UNL     1       8.500   4.335  -1.126  1.00  0.00    -0.352 N 
ATOM      5  C   UNL     1       7.490   4.790  -0.316  1.00  0.00     0.251 C 
ATOM      6  O   UNL     1       7.738   5.727   0.443  1.00  0.00    -0.269 OA
ATOM      7  H   UNL     1       9.332   4.856  -1.062  1.00  0.00     0.163 HD
BRANCH   5   8
ATOM      8  C   UNL     1       6.142   4.162  -0.277  1.00  0.00     0.039 A 
ATOM      9  C   UNL     1       3.634   2.914  -0.007  1.00  0.00     0.064 A 
ATOM     10  C   UNL     1       4.205   3.579   1.076  1.00  0.00     0.029 A 
ATOM     11  C   UNL     1       4.279   2.954  -1.246  1.00  0.00     0.029 A 
ATOM     12  C   UNL     1       5.454   4.195   0.945  1.00  0.00     0.016 A 
ATOM     13  C   UNL     1       5.516   3.587  -1.384  1.00  0.00     0.016 A 
BRANCH   9  14
ATOM     14  N   UNL     1       2.391   2.290   0.117  1.00  0.00    -0.243 NA
ATOM     15  O   UNL     1       4.660   0.127   0.144  1.00  0.00    -0.267 OA
ATOM     16  C   UNL     1       3.469  -0.060   0.114  1.00  0.00     0.275 C 
ATOM     17  N   UNL     1       2.816  -1.280   0.066  1.00  0.00    -0.320 N 
ATOM     18  C   UNL     1       2.339   0.996   0.136  1.00  0.00     0.138 C 
ATOM     19  C   UNL     1       1.437  -1.111   0.074  1.00  0.00     0.051 A 
ATOM     20  H   UNL     1       3.269  -2.153   0.031  1.00  0.00     0.170 HD
ATOM     21  C   UNL     1       1.093   0.237   0.136  1.00  0.00     0.031 A 
ATOM     22  C   UNL     1       0.471  -2.092   0.014  1.00  0.00     0.028 A 
ATOM     23  C   UNL     1      -0.215   0.677   0.134  1.00  0.00     0.028 A 
ATOM     24  C   UNL     1      -0.868  -1.676   0.012  1.00  0.00     0.018 A 
ATOM     25  C   UNL     1      -1.201  -0.306   0.071  1.00  0.00     0.018 A 
ATOM     26  Br  UNL     1      -3.021   0.206   0.051  1.00  0.00    -0.051 Br
ENDBRANCH   9  14
ENDBRANCH   5   8
ENDBRANCH   3   4
ENDBRANCH   2   3
ENDBRANCH   1   2
BRANCH   1  27
ATOM     27  N   UNL     1      10.842   3.449  -4.106  1.00  0.00    -0.352 N 
ATOM     28  C   UNL     1      11.619   3.106  -5.181  1.00  0.00     0.251 C 
ATOM     29  H   UNL     1      11.068   2.984  -3.268  1.00  0.00     0.163 HD
ATOM     30  O   UNL     1      12.325   2.103  -5.106  1.00  0.00    -0.269 OA
BRANCH  28  31
ATOM     31  C   UNL     1      11.620   3.920  -6.418  1.00  0.00     0.039 A 
ATOM     32  C   UNL     1      11.781   3.267  -7.643  1.00  0.00     0.014 A 
ATOM     33  C   UNL     1      11.545   5.315  -6.379  1.00  0.00     0.014 A 
ATOM     34  C   UNL     1      11.841   4.008  -8.825  1.00  0.00     0.010 A 
ATOM     35  C   UNL     1      11.522   6.047  -7.565  1.00  0.00     0.010 A 
ATOM     36  C   UNL     1      11.693   5.404  -8.799  1.00  0.00    -0.014 A 
BRANCH  36  37
ATOM     37  C   UNL     1      11.743   6.197 -10.054  1.00  0.00     0.031 A 
ATOM     38  C   UNL     1      12.848   7.196 -10.279  1.00  0.00     0.074 A 
ATOM     39  C   UNL     1      10.783   6.028 -10.985  1.00  0.00     0.049 A 
ATOM     40  N   UNL     1      13.059   7.972 -11.312  1.00  0.00    -0.248 NA
ATOM     41  C   UNL     1      13.834   7.361  -9.198  1.00  0.00     0.031 C 
ATOM     42  C   UNL     1       9.643   5.114 -10.867  1.00  0.00     0.029 A 
ATOM     43  N   UNL     1      10.614   6.610 -12.216  1.00  0.00    -0.354 N 
ATOM     44  C   UNL     1      14.192   8.718 -11.003  1.00  0.00     0.074 A 
ATOM     45  C   UNL     1      14.588   8.347  -9.662  1.00  0.00     0.031 C 
ATOM     46  C   UNL     1       8.919   5.167 -11.997  1.00  0.00     0.029 A 
ATOM     47  C   UNL     1       9.514   6.147 -12.899  1.00  0.00     0.049 A 
ATOM     48  H   UNL     1      11.223   7.295 -12.575  1.00  0.00     0.167 HD
ATOM     49  C   UNL     1      14.858   9.611 -11.773  1.00  0.00     0.031 A 
ATOM     50  C   UNL     1       9.037   6.474 -14.116  1.00  0.00     0.031 A 
ATOM     51  C   UNL     1      14.461   9.975 -13.108  1.00  0.00     0.049 A 
ATOM     52  C   UNL     1       9.778   7.493 -14.939  1.00  0.00     0.074 A 
ATOM     53  C   UNL     1      15.090  10.839 -13.987  1.00  0.00     0.029 A 
ATOM     54  N   UNL     1      13.332   9.496 -13.756  1.00  0.00    -0.354 N 
ATOM     55  N   UNL     1      10.884   8.139 -14.652  1.00  0.00    -0.248 NA
ATOM     56  C   UNL     1       9.213   7.819 -16.255  1.00  0.00     0.031 C 
ATOM     57  C   UNL     1      14.310  10.928 -15.144  1.00  0.00     0.029 A 
ATOM     58  C   UNL     1      13.231  10.068 -15.014  1.00  0.00     0.049 A 
ATOM     59  H   UNL     1      12.696   8.847 -13.378  1.00  0.00     0.167 HD
ATOM     60  C   UNL     1      11.162   8.925 -15.765  1.00  0.00     0.074 A 
ATOM     61  C   UNL     1      10.120   8.657 -16.736  1.00  0.00     0.031 C 
ATOM     62  C   UNL     1      12.186   9.791 -15.967  1.00  0.00     0.031 A 
BRANCH  49  63
ATOM     63  C   UNL     1      16.088  10.259 -11.188  1.00  0.00    -0.014 A 
ATOM     64  C   UNL     1      17.258   9.514 -10.950  1.00  0.00     0.010 A 
ATOM     65  C   UNL     1      16.093  11.639 -10.915  1.00  0.00     0.010 A 
ATOM     66  C   UNL     1      18.393  10.126 -10.414  1.00  0.00     0.020 A 
ATOM     67  C   UNL     1      17.238  12.263 -10.408  1.00  0.00     0.020 A 
ATOM     68  C   UNL     1      18.376  11.498 -10.146  1.00  0.00     0.054 A 
BRANCH  68  69
ATOM     69  S   UNL     1      19.876  12.270  -9.477  1.00  0.00     0.124 S 
ATOM     70  O   UNL     1      19.910  11.734  -8.118  1.00  0.00    -0.237 OA
ATOM     71  O   UNL     1      20.917  11.773 -10.373  1.00  0.00    -0.237 OA
ATOM     72  O   UNL     1      19.604  13.701  -9.575  1.00  0.00    -0.744 OA
ENDBRANCH  68  69
ENDBRANCH  49  63
BRANCH  50  73
ATOM     73  C   UNL     1       7.803   5.822 -14.636  1.00  0.00    -0.014 A 
ATOM     74  C   UNL     1       7.866   4.945 -15.734  1.00  0.00     0.010 A 
ATOM     75  C   UNL     1       6.556   6.078 -14.038  1.00  0.00     0.010 A 
ATOM     76  C   UNL     1       6.702   4.359 -16.241  1.00  0.00     0.020 A 
ATOM     77  C   UNL     1       5.394   5.468 -14.521  1.00  0.00     0.020 A 
ATOM     78  C   UNL     1       5.473   4.624 -15.630  1.00  0.00     0.054 A 
BRANCH  78  79
ATOM     79  S   UNL     1       3.981   3.826 -16.285  1.00  0.00     0.124 S 
ATOM     80  O   UNL     1       3.782   4.540 -17.543  1.00  0.00    -0.237 OA
ATOM     81  O   UNL     1       4.398   2.432 -16.407  1.00  0.00    -0.237 OA
ATOM     82  O   UNL     1       2.977   4.081 -15.254  1.00  0.00    -0.744 OA
ENDBRANCH  78  79
ENDBRANCH  50  73
BRANCH  62  83
ATOM     83  C   UNL     1      12.249  10.489 -17.301  1.00  0.00    -0.014 A 
ATOM     84  C   UNL     1      11.315  11.480 -17.652  1.00  0.00     0.010 A 
ATOM     85  C   UNL     1      13.289  10.179 -18.197  1.00  0.00     0.010 A 
ATOM     86  C   UNL     1      11.397  12.120 -18.892  1.00  0.00     0.020 A 
ATOM     87  C   UNL     1      13.394  10.840 -19.422  1.00  0.00     0.020 A 
ATOM     88  C   UNL     1      12.437  11.796 -19.769  1.00  0.00     0.054 A 
BRANCH  88  89
ATOM     89  S   UNL     1      12.543  12.669 -21.355  1.00  0.00     0.124 S 
ATOM     90  O   UNL     1      11.423  12.093 -22.094  1.00  0.00    -0.237 OA
ATOM     91  O   UNL     1      12.384  14.067 -20.961  1.00  0.00    -0.237 OA
ATOM     92  O   UNL     1      13.868  12.316 -21.858  1.00  0.00    -0.744 OA
ENDBRANCH  88  89
ENDBRANCH  62  83
ENDBRANCH  36  37
ENDBRANCH  28  31
ENDBRANCH   1  27
TORSDOF 14
