REMARK SMILES C[C@@H]1[C@H](C(=O)NCCCNC(=O)c2ccc(-c3c4nc(c(-c5ccc(S(=O)(=O)[O-])cc5)c5ccc([nH]5)c(-c5ccc(S(=O)(=O)[O-])cc5)c5nc(c(-c6ccc(S(=O)(=O)[O-])cc6)c6ccc3[nH]6)C=C5)C=C4)cc2)CCN1S(=O)(=O)c1cc(F)cc(F)c1
REMARK SMILES IDX 8 1 7 2 6 3 4 4 5 5 3 7 1 8 2 9 75 10 73 11 74 12 76 13
REMARK SMILES IDX 77 14 78 15 79 16 80 17 86 18 81 19 84 20 82 21 83 22 85 23
REMARK SMILES IDX 9 24 10 25 11 26 12 28 13 29 14 30 72 31 15 32 71 33 16 34
REMARK SMILES IDX 17 35 18 36 65 37 19 38 70 39 64 40 66 41 20 42 69 43 63 44
REMARK SMILES IDX 62 45 21 47 51 48 32 49 50 50 33 51 36 52 49 53 67 54 34 55
REMARK SMILES IDX 35 56 48 58 68 59 37 60 22 61 23 62 31 63 24 64 30 65 25 66
REMARK SMILES IDX 26 67 27 68 28 69 29 70 52 71 53 72 61 73 54 74 60 75 55 76
REMARK SMILES IDX 56 77 57 78 58 79 59 80 38 81 39 82 47 83 40 84 46 85 41 86
REMARK SMILES IDX 42 87 43 88 44 89 45 90
REMARK H PARENT 6 6 10 27 66 46 36 57
REMARK Flexibility Score: inf
ROOT
ATOM      1  C   UNL     1       2.344   1.885   3.114  1.00  0.00     0.042 C 
ENDROOT
BRANCH   1   2
ATOM      2  C   UNL     1       0.971   2.242   2.532  1.00  0.00     0.117 C 
BRANCH   2   3
ATOM      3  N   UNL     1       1.024   2.801   1.185  1.00  0.00    -0.356 N 
ATOM      4  C   UNL     1       0.628   2.395  -0.045  1.00  0.00     0.224 C 
ATOM      5  O   UNL     1       0.819   3.213  -0.955  1.00  0.00    -0.275 OA
ATOM      6  H   UNL     1       1.449   3.689   1.166  1.00  0.00     0.163 HD
BRANCH   4   7
ATOM      7  C   UNL     1       0.025   1.044  -0.411  1.00  0.00     0.098 C 
ATOM      8  C   UNL     1       2.066  -0.182   0.522  1.00  0.00     0.026 C 
ATOM      9  C   UNL     1       0.976  -0.162  -0.521  1.00  0.00     0.082 C 
ATOM     10  N   UNL     1       0.067  -1.370  -0.523  1.00  0.00    -0.194 NA
ATOM     11  C   UNL     1      -1.161   0.519   0.362  1.00  0.00     0.032 C 
ATOM     12  C   UNL     1      -1.326  -0.875  -0.227  1.00  0.00     0.104 C 
BRANCH  10  13
ATOM     13  S   UNL     1       0.392  -2.832   0.291  1.00  0.00     0.243 S 
ATOM     14  O   UNL     1       0.577  -2.500   1.691  1.00  0.00    -0.207 OA
ATOM     15  O   UNL     1      -0.651  -3.753  -0.107  1.00  0.00    -0.207 OA
BRANCH  13  16
ATOM     16  C   UNL     1       1.907  -3.552  -0.277  1.00  0.00     0.088 A 
ATOM     17  C   UNL     1       2.261  -4.777   0.305  1.00  0.00     0.061 A 
ATOM     18  C   UNL     1       2.764  -2.950  -1.195  1.00  0.00     0.061 A 
ATOM     19  C   UNL     1       3.494  -5.348   0.014  1.00  0.00     0.127 A 
ATOM     20  C   UNL     1       4.016  -3.519  -1.427  1.00  0.00     0.127 A 
ATOM     21  F   UNL     1       3.819  -6.522   0.567  1.00  0.00    -0.207 F 
ATOM     22  C   UNL     1       4.394  -4.713  -0.827  1.00  0.00     0.078 A 
ATOM     23  F   UNL     1       4.879  -2.884  -2.230  1.00  0.00    -0.207 F 
ENDBRANCH  13  16
ENDBRANCH  10  13
ENDBRANCH   4   7
ENDBRANCH   2   3
ENDBRANCH   1   2
BRANCH   1  24
ATOM     24  C   UNL     1       3.283   3.065   3.328  1.00  0.00     0.118 C 
BRANCH  24  25
ATOM     25  N   UNL     1       3.216   3.556   4.691  1.00  0.00    -0.352 N 
ATOM     26  C   UNL     1       3.988   3.255   5.788  1.00  0.00     0.251 C 
ATOM     27  H   UNL     1       2.501   4.213   4.857  1.00  0.00     0.163 HD
ATOM     28  O   UNL     1       3.558   3.562   6.899  1.00  0.00    -0.269 OA
BRANCH  26  29
ATOM     29  C   UNL     1       5.306   2.574   5.677  1.00  0.00     0.039 A 
ATOM     30  C   UNL     1       5.700   1.715   6.712  1.00  0.00     0.014 A 
ATOM     31  C   UNL     1       6.212   2.853   4.650  1.00  0.00     0.014 A 
ATOM     32  C   UNL     1       6.974   1.133   6.708  1.00  0.00     0.010 A 
ATOM     33  C   UNL     1       7.455   2.211   4.606  1.00  0.00     0.010 A 
ATOM     34  C   UNL     1       7.864   1.367   5.649  1.00  0.00    -0.014 A 
BRANCH  34  35
ATOM     35  C   UNL     1       9.242   0.799   5.652  1.00  0.00     0.031 A 
ATOM     36  C   UNL     1      10.440   1.716   5.718  1.00  0.00     0.074 A 
ATOM     37  C   UNL     1       9.431  -0.533   5.564  1.00  0.00     0.049 A 
ATOM     38  N   UNL     1      11.715   1.417   5.663  1.00  0.00    -0.248 NA
ATOM     39  C   UNL     1      10.169   3.157   5.838  1.00  0.00     0.031 C 
ATOM     40  C   UNL     1       8.370  -1.537   5.473  1.00  0.00     0.029 A 
ATOM     41  N   UNL     1      10.590  -1.271   5.531  1.00  0.00    -0.354 N 
ATOM     42  C   UNL     1      12.393   2.631   5.712  1.00  0.00     0.074 A 
ATOM     43  C   UNL     1      11.389   3.671   5.763  1.00  0.00     0.031 C 
ATOM     44  C   UNL     1       8.926  -2.760   5.420  1.00  0.00     0.029 A 
ATOM     45  C   UNL     1      10.380  -2.627   5.437  1.00  0.00     0.049 A 
ATOM     46  H   UNL     1      11.487  -0.867   5.571  1.00  0.00     0.167 HD
ATOM     47  C   UNL     1      13.728   2.865   5.730  1.00  0.00     0.031 A 
ATOM     48  C   UNL     1      11.255  -3.650   5.368  1.00  0.00     0.031 A 
ATOM     49  C   UNL     1      14.733   1.837   5.714  1.00  0.00     0.049 A 
ATOM     50  C   UNL     1      12.732  -3.369   5.404  1.00  0.00     0.074 A 
ATOM     51  C   UNL     1      16.109   1.976   5.780  1.00  0.00     0.029 A 
ATOM     52  N   UNL     1      14.473   0.478   5.635  1.00  0.00    -0.354 N 
ATOM     53  N   UNL     1      13.349  -2.215   5.483  1.00  0.00    -0.248 NA
ATOM     54  C   UNL     1      13.630  -4.532   5.349  1.00  0.00     0.031 C 
ATOM     55  C   UNL     1      16.683   0.702   5.710  1.00  0.00     0.029 A 
ATOM     56  C   UNL     1      15.662  -0.232   5.641  1.00  0.00     0.049 A 
ATOM     57  H   UNL     1      13.576   0.076   5.583  1.00  0.00     0.167 HD
ATOM     58  C   UNL     1      14.707  -2.514   5.512  1.00  0.00     0.074 A 
ATOM     59  C   UNL     1      14.821  -3.956   5.452  1.00  0.00     0.031 C 
ATOM     60  C   UNL     1      15.763  -1.668   5.583  1.00  0.00     0.031 A 
BRANCH  47  61
ATOM     61  C   UNL     1      14.178   4.301   5.768  1.00  0.00    -0.014 A 
ATOM     62  C   UNL     1      14.037   5.076   6.933  1.00  0.00     0.010 A 
ATOM     63  C   UNL     1      14.776   4.877   4.631  1.00  0.00     0.010 A 
ATOM     64  C   UNL     1      14.439   6.414   6.947  1.00  0.00     0.020 A 
ATOM     65  C   UNL     1      15.202   6.209   4.649  1.00  0.00     0.020 A 
ATOM     66  C   UNL     1      15.011   6.975   5.801  1.00  0.00     0.054 A 
BRANCH  66  67
ATOM     67  S   UNL     1      15.530   8.713   5.845  1.00  0.00     0.124 S 
ATOM     68  O   UNL     1      14.253   9.409   5.711  1.00  0.00    -0.237 OA
ATOM     69  O   UNL     1      16.173   8.827   7.152  1.00  0.00    -0.237 OA
ATOM     70  O   UNL     1      16.429   8.833   4.700  1.00  0.00    -0.744 OA
ENDBRANCH  66  67
ENDBRANCH  47  61
BRANCH  48  71
ATOM     71  C   UNL     1      10.752  -5.047   5.279  1.00  0.00    -0.014 A 
ATOM     72  C   UNL     1      10.832  -5.901   6.393  1.00  0.00     0.010 A 
ATOM     73  C   UNL     1      10.179  -5.525   4.087  1.00  0.00     0.010 A 
ATOM     74  C   UNL     1      10.358  -7.213   6.313  1.00  0.00     0.020 A 
ATOM     75  C   UNL     1       9.684  -6.830   4.011  1.00  0.00     0.020 A 
ATOM     76  C   UNL     1       9.787  -7.670   5.122  1.00  0.00     0.054 A 
BRANCH  76  77
ATOM     77  S   UNL     1       9.124  -9.358   5.057  1.00  0.00     0.124 S 
ATOM     78  O   UNL     1      10.339 -10.154   4.915  1.00  0.00    -0.237 OA
ATOM     79  O   UNL     1       8.433  -9.478   6.339  1.00  0.00    -0.237 OA
ATOM     80  O   UNL     1       8.249  -9.333   3.887  1.00  0.00    -0.744 OA
ENDBRANCH  76  77
ENDBRANCH  48  71
BRANCH  60  81
ATOM     81  C   UNL     1      17.137  -2.277   5.632  1.00  0.00    -0.014 A 
ATOM     82  C   UNL     1      17.734  -2.812   4.477  1.00  0.00     0.010 A 
ATOM     83  C   UNL     1      17.860  -2.265   6.838  1.00  0.00     0.010 A 
ATOM     84  C   UNL     1      19.024  -3.349   4.534  1.00  0.00     0.020 A 
ATOM     85  C   UNL     1      19.157  -2.782   6.894  1.00  0.00     0.020 A 
ATOM     86  C   UNL     1      19.726  -3.333   5.744  1.00  0.00     0.054 A 
BRANCH  86  87
ATOM     87  S   UNL     1      21.416  -3.992   5.785  1.00  0.00     0.124 S 
ATOM     88  O   UNL     1      21.179  -5.432   5.811  1.00  0.00    -0.237 OA
ATOM     89  O   UNL     1      21.997  -3.473   4.549  1.00  0.00    -0.237 OA
ATOM     90  O   UNL     1      21.976  -3.429   7.012  1.00  0.00    -0.744 OA
ENDBRANCH  86  87
ENDBRANCH  60  81
ENDBRANCH  34  35
ENDBRANCH  26  29
ENDBRANCH  24  25
ENDBRANCH   1  24
TORSDOF 15
