REMARK SMILES CC(C)(C)OC(=O)N1CCC[C@H]1C(=O)N[C@@H](Cc1ccccc1)C(=O)NCCCNC(=O)c1ccc(-c2c3nc(c(-c4ccc(S(=O)(=O)[O-])cc4)c4ccc([nH]4)c(-c4ccc(S(=O)(=O)[O-])cc4)c4nc(c(-c5ccc(S(=O)(=O)[O-])cc5)c5ccc2[nH]5)C=C4)C=C3)cc1
REMARK SMILES IDX 27 1 26 2 24 3 25 4 16 6 15 7 13 8 14 9 12 11 8 12 9 13
REMARK SMILES IDX 10 14 11 15 6 16 7 17 5 18 2 19 1 20 3 21 4 22 17 23 18 24
REMARK SMILES IDX 19 25 23 26 20 27 22 28 21 29 28 30 29 31 30 32 31 33 32 35
REMARK SMILES IDX 33 36 34 37 92 38 35 39 91 40 36 41 37 42 38 43 85 44 39 45
REMARK SMILES IDX 90 46 84 47 86 48 40 49 89 50 83 51 82 52 41 54 71 55 52 56
REMARK SMILES IDX 70 57 53 58 56 59 69 60 87 61 54 62 55 63 68 65 88 66 57 67
REMARK SMILES IDX 42 68 43 69 51 70 44 71 50 72 45 73 46 74 47 75 48 76 49 77
REMARK SMILES IDX 72 78 73 79 81 80 74 81 80 82 75 83 76 84 77 85 78 86 79 87
REMARK SMILES IDX 58 88 59 89 67 90 60 91 66 92 61 93 62 94 63 95 64 96 65 97
REMARK H PARENT 26 5 15 10 30 34 86 53 56 64
REMARK Flexibility Score: inf
ROOT
ATOM      1  C   UNL     1       0.332   7.009  -4.333  1.00  0.00     0.117 C 
ENDROOT
BRANCH   1   2
ATOM      2  N   UNL     1       1.140   5.971  -3.741  1.00  0.00    -0.354 N 
ATOM      3  C   UNL     1       0.828   5.099  -2.750  1.00  0.00     0.242 C 
ATOM      4  O   UNL     1       1.641   4.193  -2.546  1.00  0.00    -0.273 OA
ATOM      5  H   UNL     1       2.049   5.883  -4.109  1.00  0.00     0.163 HD
BRANCH   3   6
ATOM      6  C   UNL     1      -0.453   5.225  -1.905  1.00  0.00     0.175 C 
BRANCH   6   7
ATOM      7  N   UNL     1      -0.495   6.497  -1.190  1.00  0.00    -0.342 N 
ATOM      8  C   UNL     1      -0.018   6.840   0.039  1.00  0.00     0.243 C 
ATOM      9  O   UNL     1      -0.078   8.052   0.291  1.00  0.00    -0.273 OA
ATOM     10  H   UNL     1      -0.942   7.227  -1.676  1.00  0.00     0.164 HD
BRANCH   8  11
ATOM     11  C   UNL     1       0.353   5.825   1.173  1.00  0.00     0.178 C 
ATOM     12  N   UNL     1       1.015   4.562   0.846  1.00  0.00    -0.296 N 
ATOM     13  C   UNL     1       2.436   4.649   1.101  1.00  0.00     0.124 C 
ATOM     14  C   UNL     1       2.461   5.478   2.374  1.00  0.00     0.024 C 
ATOM     15  C   UNL     1       1.338   6.495   2.161  1.00  0.00     0.037 C 
BRANCH  12  16
ATOM     16  C   UNL     1       0.324   3.384   0.675  1.00  0.00     0.410 C 
ATOM     17  O   UNL     1      -0.893   3.316   0.822  1.00  0.00    -0.224 OA
BRANCH  16  18
ATOM     18  O   UNL     1       1.114   2.383   0.220  1.00  0.00    -0.444 OA
BRANCH  18  19
ATOM     19  C   UNL     1       0.620   1.167  -0.418  1.00  0.00     0.106 C 
ATOM     20  C   UNL     1       1.300   0.002   0.307  1.00  0.00     0.056 C 
ATOM     21  C   UNL     1       1.103   1.197  -1.875  1.00  0.00     0.056 C 
ATOM     22  C   UNL     1      -0.897   0.946  -0.418  1.00  0.00     0.056 C 
ENDBRANCH  18  19
ENDBRANCH  16  18
ENDBRANCH  12  16
ENDBRANCH   8  11
ENDBRANCH   6   7
BRANCH   6  23
ATOM     23  C   UNL     1      -1.791   4.751  -2.506  1.00  0.00     0.070 C 
BRANCH  23  24
ATOM     24  C   UNL     1      -2.238   5.287  -3.840  1.00  0.00    -0.045 A 
ATOM     25  C   UNL     1      -2.989   6.467  -3.928  1.00  0.00     0.004 A 
ATOM     26  C   UNL     1      -1.877   4.618  -5.021  1.00  0.00     0.004 A 
ATOM     27  C   UNL     1      -3.309   7.005  -5.177  1.00  0.00     0.000 A 
ATOM     28  C   UNL     1      -2.200   5.158  -6.268  1.00  0.00     0.000 A 
ATOM     29  C   UNL     1      -2.900   6.361  -6.345  1.00  0.00     0.000 A 
ENDBRANCH  23  24
ENDBRANCH   6  23
ENDBRANCH   3   6
ENDBRANCH   1   2
BRANCH   1  30
ATOM     30  C   UNL     1       1.128   8.198  -4.806  1.00  0.00     0.042 C 
BRANCH  30  31
ATOM     31  C   UNL     1       2.065   7.845  -5.948  1.00  0.00     0.118 C 
BRANCH  31  32
ATOM     32  N   UNL     1       1.369   7.342  -7.135  1.00  0.00    -0.352 N 
ATOM     33  C   UNL     1       1.191   7.926  -8.368  1.00  0.00     0.251 C 
ATOM     34  H   UNL     1       0.967   6.449  -7.035  1.00  0.00     0.163 HD
ATOM     35  O   UNL     1       0.414   7.437  -9.182  1.00  0.00    -0.269 OA
BRANCH  33  36
ATOM     36  C   UNL     1       1.926   9.166  -8.677  1.00  0.00     0.039 A 
ATOM     37  C   UNL     1       1.258  10.245  -9.257  1.00  0.00     0.014 A 
ATOM     38  C   UNL     1       3.262   9.283  -8.297  1.00  0.00     0.014 A 
ATOM     39  C   UNL     1       1.908  11.477  -9.350  1.00  0.00     0.010 A 
ATOM     40  C   UNL     1       3.845  10.536  -8.246  1.00  0.00     0.010 A 
ATOM     41  C   UNL     1       3.184  11.647  -8.787  1.00  0.00    -0.014 A 
BRANCH  41  42
ATOM     42  C   UNL     1       3.869  12.962  -8.764  1.00  0.00     0.031 A 
ATOM     43  C   UNL     1       5.229  13.098  -9.400  1.00  0.00     0.074 A 
ATOM     44  C   UNL     1       3.317  13.998  -8.102  1.00  0.00     0.049 A 
ATOM     45  N   UNL     1       6.040  14.124  -9.401  1.00  0.00    -0.248 NA
ATOM     46  C   UNL     1       5.769  11.911 -10.088  1.00  0.00     0.031 C 
ATOM     47  C   UNL     1       2.033  13.973  -7.395  1.00  0.00     0.029 A 
ATOM     48  N   UNL     1       3.771  15.279  -7.909  1.00  0.00    -0.354 N 
ATOM     49  C   UNL     1       7.185  13.696 -10.063  1.00  0.00     0.074 A 
ATOM     50  C   UNL     1       7.000  12.300 -10.379  1.00  0.00     0.031 C 
ATOM     51  C   UNL     1       1.783  15.191  -6.888  1.00  0.00     0.029 A 
ATOM     52  C   UNL     1       2.909  16.069  -7.184  1.00  0.00     0.049 A 
ATOM     53  H   UNL     1       4.632  15.603  -8.258  1.00  0.00     0.167 HD
ATOM     54  C   UNL     1       8.280  14.410 -10.412  1.00  0.00     0.031 A 
ATOM     55  C   UNL     1       3.017  17.355  -6.797  1.00  0.00     0.031 A 
ATOM     56  C   UNL     1       8.446  15.806 -10.117  1.00  0.00     0.049 A 
ATOM     57  C   UNL     1       4.248  18.127  -7.189  1.00  0.00     0.074 A 
ATOM     58  C   UNL     1       9.488  16.642 -10.474  1.00  0.00     0.029 A 
ATOM     59  N   UNL     1       7.542  16.573  -9.398  1.00  0.00    -0.354 N 
ATOM     60  N   UNL     1       5.290  17.724  -7.879  1.00  0.00    -0.248 NA
ATOM     61  C   UNL     1       4.314  19.531  -6.762  1.00  0.00     0.031 C 
ATOM     62  C   UNL     1       9.241  17.902  -9.920  1.00  0.00     0.029 A 
ATOM     63  C   UNL     1       8.012  17.868  -9.278  1.00  0.00     0.049 A 
ATOM     64  H   UNL     1       6.691  16.244  -9.026  1.00  0.00     0.167 HD
ATOM     65  C   UNL     1       6.119  18.834  -7.996  1.00  0.00     0.074 A 
ATOM     66  C   UNL     1       5.449  19.927  -7.320  1.00  0.00     0.031 C 
ATOM     67  C   UNL     1       7.325  18.942  -8.607  1.00  0.00     0.031 A 
BRANCH  54  68
ATOM     68  C   UNL     1       9.372  13.690 -11.159  1.00  0.00    -0.014 A 
ATOM     69  C   UNL     1       9.167  13.215 -12.468  1.00  0.00     0.010 A 
ATOM     70  C   UNL     1      10.630  13.507 -10.557  1.00  0.00     0.010 A 
ATOM     71  C   UNL     1      10.182  12.532 -13.143  1.00  0.00     0.020 A 
ATOM     72  C   UNL     1      11.660  12.855 -11.242  1.00  0.00     0.020 A 
ATOM     73  C   UNL     1      11.423  12.357 -12.524  1.00  0.00     0.054 A 
BRANCH  73  74
ATOM     74  S   UNL     1      12.730  11.493 -13.437  1.00  0.00     0.124 S 
ATOM     75  O   UNL     1      12.239  10.117 -13.434  1.00  0.00    -0.237 OA
ATOM     76  O   UNL     1      12.710  12.163 -14.734  1.00  0.00    -0.237 OA
ATOM     77  O   UNL     1      13.928  11.727 -12.635  1.00  0.00    -0.744 OA
ENDBRANCH  73  74
ENDBRANCH  54  68
BRANCH  55  78
ATOM     78  C   UNL     1       1.925  18.000  -6.015  1.00  0.00    -0.014 A 
ATOM     79  C   UNL     1       1.142  19.019  -6.587  1.00  0.00     0.010 A 
ATOM     80  C   UNL     1       1.659  17.599  -4.692  1.00  0.00     0.010 A 
ATOM     81  C   UNL     1       0.136  19.645  -5.844  1.00  0.00     0.020 A 
ATOM     82  C   UNL     1       0.632  18.200  -3.957  1.00  0.00     0.020 A 
ATOM     83  C   UNL     1      -0.113  19.230  -4.533  1.00  0.00     0.054 A 
BRANCH  83  84
ATOM     84  S   UNL     1      -1.446  20.035  -3.602  1.00  0.00     0.124 S 
ATOM     85  O   UNL     1      -0.881  21.355  -3.341  1.00  0.00    -0.237 OA
ATOM     86  O   UNL     1      -2.558  19.997  -4.548  1.00  0.00    -0.237 OA
ATOM     87  O   UNL     1      -1.607  19.180  -2.428  1.00  0.00    -0.744 OA
ENDBRANCH  83  84
ENDBRANCH  55  78
BRANCH  67  88
ATOM     88  C   UNL     1       7.980  20.297  -8.614  1.00  0.00    -0.014 A 
ATOM     89  C   UNL     1       8.521  20.855  -7.442  1.00  0.00     0.010 A 
ATOM     90  C   UNL     1       8.112  20.991  -9.831  1.00  0.00     0.010 A 
ATOM     91  C   UNL     1       9.153  22.100  -7.483  1.00  0.00     0.020 A 
ATOM     92  C   UNL     1       8.774  22.220  -9.881  1.00  0.00     0.020 A 
ATOM     93  C   UNL     1       9.278  22.773  -8.703  1.00  0.00     0.054 A 
BRANCH  93  94
ATOM     94  S   UNL     1      10.148  24.363  -8.735  1.00  0.00     0.124 S 
ATOM     95  O   UNL     1       9.194  25.245  -8.069  1.00  0.00    -0.237 OA
ATOM     96  O   UNL     1      11.368  24.075  -7.984  1.00  0.00    -0.237 OA
ATOM     97  O   UNL     1      10.347  24.621 -10.159  1.00  0.00    -0.744 OA
ENDBRANCH  93  94
ENDBRANCH  67  88
ENDBRANCH  41  42
ENDBRANCH  33  36
ENDBRANCH  31  32
ENDBRANCH  30  31
ENDBRANCH   1  30
TORSDOF 20
