REMARK SMILES Cc1cccc(-n2c(C)cc(/C=N\c3ccc(O)c(C(=O)NCCCNC(=O)c4ccc(-c5c6nc(c(-c7ccc(S(=O)(=O)[O-])cc7)c7ccc([nH]7)c(-c7ccc(S(=O)(=O)[O-])cc7)c7nc(c(-c8ccc(S(=O)(=O)[O-])cc8)c8ccc5[nH]8)C=C7)C=C6)cc4)c3)c2C)c1
REMARK SMILES IDX 24 1 23 2 22 3 20 4 21 5 19 7 14 8 15 9 89 10 16 11 17 12
REMARK SMILES IDX 13 13 12 14 11 15 7 16 8 17 90 18 9 19 10 20 91 21 6 22 1 23
REMARK SMILES IDX 2 24 3 25 92 26 4 27 5 28 18 29 25 31 26 32 27 33 28 35
REMARK SMILES IDX 29 36 30 37 88 38 31 39 87 40 32 41 33 42 34 43 81 44 35 45
REMARK SMILES IDX 86 46 80 47 82 48 36 49 85 50 79 51 78 52 37 54 67 55 48 56
REMARK SMILES IDX 66 57 49 58 52 59 65 60 83 61 50 62 51 63 64 65 84 66 53 67
REMARK SMILES IDX 38 68 39 69 47 70 40 71 46 72 41 73 42 74 43 75 44 76 45 77
REMARK SMILES IDX 68 78 69 79 77 80 70 81 76 82 71 83 72 84 73 85 74 86 75 87
REMARK SMILES IDX 54 88 55 89 63 90 56 91 62 92 57 93 58 94 59 95 60 96 61 97
REMARK H PARENT 22 6 18 30 26 34 82 53 52 64
REMARK Flexibility Score: inf
ROOT
ATOM      1  C   UNL     1      -3.333  -1.654   6.590  1.00  0.00     0.042 C 
ENDROOT
BRANCH   1   2
ATOM      2  C   UNL     1      -3.982  -1.959   5.245  1.00  0.00     0.118 C 
BRANCH   2   3
ATOM      3  N   UNL     1      -5.125  -1.100   4.961  1.00  0.00    -0.352 N 
ATOM      4  C   UNL     1      -5.340   0.186   4.544  1.00  0.00     0.255 C 
ATOM      5  O   UNL     1      -6.530   0.466   4.350  1.00  0.00    -0.269 OA
ATOM      6  H   UNL     1      -5.974  -1.575   5.109  1.00  0.00     0.163 HD
BRANCH   4   7
ATOM      7  C   UNL     1      -4.330   1.270   4.292  1.00  0.00     0.083 A 
ATOM      8  C   UNL     1      -4.049   3.502   3.275  1.00  0.00     0.064 A 
ATOM      9  C   UNL     1      -2.709   3.518   3.633  1.00  0.00     0.032 A 
ATOM     10  C   UNL     1      -4.864   2.452   3.727  1.00  0.00     0.046 A 
ATOM     11  C   UNL     1      -2.155   2.392   4.224  1.00  0.00     0.049 A 
ATOM     12  C   UNL     1      -2.943   1.255   4.455  1.00  0.00     0.128 A 
BRANCH   8  13
ATOM     13  N   UNL     1      -4.595   4.482   2.443  1.00  0.00    -0.256 NA
ATOM     14  C   UNL     1      -4.235   4.628   1.199  1.00  0.00     0.121 C 
BRANCH  14  15
ATOM     15  C   UNL     1      -3.255   3.899   0.387  1.00  0.00     0.014 A 
ATOM     16  N   UNL     1      -1.866   2.373  -0.551  1.00  0.00    -0.318 N 
ATOM     17  C   UNL     1      -1.619   3.585  -1.177  1.00  0.00     0.021 A 
ATOM     18  C   UNL     1      -2.990   2.533   0.267  1.00  0.00     0.029 A 
ATOM     19  C   UNL     1      -0.693   3.741  -2.334  1.00  0.00     0.065 C 
ATOM     20  C   UNL     1      -2.430   4.533  -0.588  1.00  0.00     0.033 A 
ATOM     21  C   UNL     1      -3.664   1.373   0.911  1.00  0.00     0.065 C 
BRANCH  16  22
ATOM     22  C   UNL     1      -1.060   1.199  -0.659  1.00  0.00     0.046 A 
ATOM     23  C   UNL     1       2.564   0.189  -0.014  1.00  0.00     0.044 C 
ATOM     24  C   UNL     1       1.101   0.128  -0.341  1.00  0.00    -0.049 A 
ATOM     25  C   UNL     1       0.494  -1.120  -0.530  1.00  0.00     0.003 A 
ATOM     26  C   UNL     1       0.318   1.291  -0.410  1.00  0.00     0.030 A 
ATOM     27  C   UNL     1      -0.864  -1.207  -0.827  1.00  0.00     0.002 A 
ATOM     28  C   UNL     1      -1.637  -0.049  -0.907  1.00  0.00     0.026 A 
ENDBRANCH  16  22
ENDBRANCH  14  15
ENDBRANCH   8  13
BRANCH  12  29
ATOM     29  O   UNL     1      -2.200   0.137   4.659  1.00  0.00    -0.507 OA
ATOM     30  H   UNL     1      -1.271   0.204   4.760  1.00  0.00     0.293 HD
ENDBRANCH  12  29
ENDBRANCH   4   7
ENDBRANCH   2   3
ENDBRANCH   1   2
BRANCH   1  31
ATOM     31  C   UNL     1      -3.615  -2.740   7.613  1.00  0.00     0.118 C 
BRANCH  31  32
ATOM     32  N   UNL     1      -2.624  -3.814   7.653  1.00  0.00    -0.352 N 
ATOM     33  C   UNL     1      -2.621  -4.948   8.450  1.00  0.00     0.251 C 
ATOM     34  H   UNL     1      -1.863  -3.719   7.037  1.00  0.00     0.163 HD
ATOM     35  O   UNL     1      -1.626  -5.660   8.542  1.00  0.00    -0.269 OA
BRANCH  33  36
ATOM     36  C   UNL     1      -3.882  -5.322   9.125  1.00  0.00     0.039 A 
ATOM     37  C   UNL     1      -4.468  -6.552   8.807  1.00  0.00     0.014 A 
ATOM     38  C   UNL     1      -4.601  -4.345   9.801  1.00  0.00     0.014 A 
ATOM     39  C   UNL     1      -5.844  -6.715   8.970  1.00  0.00     0.010 A 
ATOM     40  C   UNL     1      -5.973  -4.445   9.804  1.00  0.00     0.010 A 
ATOM     41  C   UNL     1      -6.604  -5.617   9.364  1.00  0.00    -0.014 A 
BRANCH  41  42
ATOM     42  C   UNL     1      -8.061  -5.547   9.333  1.00  0.00     0.031 A 
ATOM     43  C   UNL     1      -8.804  -5.421  10.610  1.00  0.00     0.074 A 
ATOM     44  C   UNL     1      -8.722  -5.397   8.163  1.00  0.00     0.049 A 
ATOM     45  N   UNL     1     -10.073  -5.612  10.743  1.00  0.00    -0.248 NA
ATOM     46  C   UNL     1      -8.147  -5.100  11.874  1.00  0.00     0.031 C 
ATOM     47  C   UNL     1     -10.090  -4.910   7.990  1.00  0.00     0.029 A 
ATOM     48  N   UNL     1      -8.369  -5.839   6.888  1.00  0.00    -0.354 N 
ATOM     49  C   UNL     1     -10.438  -5.107  11.972  1.00  0.00     0.074 A 
ATOM     50  C   UNL     1      -9.195  -4.899  12.673  1.00  0.00     0.031 C 
ATOM     51  C   UNL     1     -10.557  -5.350   6.813  1.00  0.00     0.029 A 
ATOM     52  C   UNL     1      -9.564  -6.260   6.273  1.00  0.00     0.049 A 
ATOM     53  H   UNL     1      -7.466  -5.853   6.496  1.00  0.00     0.167 HD
ATOM     54  C   UNL     1     -11.744  -4.789  12.203  1.00  0.00     0.031 A 
ATOM     55  C   UNL     1      -9.801  -7.551   5.889  1.00  0.00     0.031 A 
ATOM     56  C   UNL     1     -12.615  -5.218  11.104  1.00  0.00     0.049 A 
ATOM     57  C   UNL     1     -10.988  -8.187   6.595  1.00  0.00     0.074 A 
ATOM     58  C   UNL     1     -13.326  -4.571  10.107  1.00  0.00     0.029 A 
ATOM     59  N   UNL     1     -12.632  -6.562  10.767  1.00  0.00    -0.354 N 
ATOM     60  N   UNL     1     -11.761  -7.572   7.448  1.00  0.00    -0.248 NA
ATOM     61  C   UNL     1     -11.327  -9.608   6.476  1.00  0.00     0.031 C 
ATOM     62  C   UNL     1     -13.760  -5.549   9.163  1.00  0.00     0.029 A 
ATOM     63  C   UNL     1     -13.327  -6.788   9.596  1.00  0.00     0.049 A 
ATOM     64  H   UNL     1     -12.201  -7.270  11.298  1.00  0.00     0.167 HD
ATOM     65  C   UNL     1     -12.594  -8.476   8.050  1.00  0.00     0.074 A 
ATOM     66  C   UNL     1     -12.308  -9.735   7.387  1.00  0.00     0.031 C 
ATOM     67  C   UNL     1     -13.412  -8.149   9.091  1.00  0.00     0.031 A 
BRANCH  54  68
ATOM     68  C   UNL     1     -12.212  -3.893  13.334  1.00  0.00    -0.014 A 
ATOM     69  C   UNL     1     -13.478  -3.276  13.254  1.00  0.00     0.010 A 
ATOM     70  C   UNL     1     -11.448  -3.566  14.470  1.00  0.00     0.010 A 
ATOM     71  C   UNL     1     -13.910  -2.328  14.196  1.00  0.00     0.020 A 
ATOM     72  C   UNL     1     -11.851  -2.602  15.405  1.00  0.00     0.020 A 
ATOM     73  C   UNL     1     -13.079  -1.976  15.255  1.00  0.00     0.054 A 
BRANCH  73  74
ATOM     74  S   UNL     1     -13.613  -0.703  16.426  1.00  0.00     0.124 S 
ATOM     75  O   UNL     1     -13.835   0.450  15.558  1.00  0.00    -0.237 OA
ATOM     76  O   UNL     1     -14.812  -1.297  17.009  1.00  0.00    -0.237 OA
ATOM     77  O   UNL     1     -12.478  -0.575  17.340  1.00  0.00    -0.744 OA
ENDBRANCH  73  74
ENDBRANCH  54  68
BRANCH  55  78
ATOM     78  C   UNL     1      -8.574  -8.275   5.451  1.00  0.00    -0.014 A 
ATOM     79  C   UNL     1      -7.986  -7.855   4.238  1.00  0.00     0.010 A 
ATOM     80  C   UNL     1      -7.786  -8.960   6.392  1.00  0.00     0.010 A 
ATOM     81  C   UNL     1      -6.603  -7.922   4.065  1.00  0.00     0.020 A 
ATOM     82  C   UNL     1      -6.399  -9.037   6.214  1.00  0.00     0.020 A 
ATOM     83  C   UNL     1      -5.815  -8.441   5.091  1.00  0.00     0.054 A 
BRANCH  83  84
ATOM     84  S   UNL     1      -4.028  -8.105   5.045  1.00  0.00     0.124 S 
ATOM     85  O   UNL     1      -3.638  -8.642   3.745  1.00  0.00    -0.237 OA
ATOM     86  O   UNL     1      -4.002  -6.648   5.160  1.00  0.00    -0.237 OA
ATOM     87  O   UNL     1      -3.522  -8.833   6.205  1.00  0.00    -0.744 OA
ENDBRANCH  83  84
ENDBRANCH  55  78
BRANCH  67  88
ATOM     88  C   UNL     1     -14.341  -9.125   9.760  1.00  0.00    -0.014 A 
ATOM     89  C   UNL     1     -15.146 -10.012   9.027  1.00  0.00     0.010 A 
ATOM     90  C   UNL     1     -14.532  -9.082  11.159  1.00  0.00     0.010 A 
ATOM     91  C   UNL     1     -16.063 -10.855   9.670  1.00  0.00     0.020 A 
ATOM     92  C   UNL     1     -15.457  -9.903  11.808  1.00  0.00     0.020 A 
ATOM     93  C   UNL     1     -16.207 -10.800  11.059  1.00  0.00     0.054 A 
BRANCH  93  94
ATOM     94  S   UNL     1     -17.427 -11.865  11.870  1.00  0.00     0.124 S 
ATOM     95  O   UNL     1     -18.582 -11.767  10.980  1.00  0.00    -0.237 OA
ATOM     96  O   UNL     1     -16.745 -13.156  11.871  1.00  0.00    -0.237 OA
ATOM     97  O   UNL     1     -17.607 -11.252  13.184  1.00  0.00    -0.744 OA
ENDBRANCH  93  94
ENDBRANCH  67  88
ENDBRANCH  41  42
ENDBRANCH  33  36
ENDBRANCH  31  32
ENDBRANCH   1  31
TORSDOF 17
