REMARK SMILES O=C(NCCCNC(=O)[C@H](CO)NC(=O)[C@H](Cc1c[nH]c2ccccc12)NC(=O)c1ccc(F)cc1)c1ccc(-c2c3nc(c(-c4ccc(S(=O)(=O)[O-])cc4)c4ccc([nH]4)c(-c4ccc(S(=O)(=O)[O-])cc4)c4nc(c(-c5ccc(S(=O)(=O)[O-])cc5)c5ccc2[nH]5)C=C4)C=C3)cc1
REMARK SMILES IDX 5 1 4 2 3 3 1 4 2 5 37 7 38 8 96 9 39 10 95 11 40 12 41 13
REMARK SMILES IDX 42 14 89 15 43 16 94 17 88 18 90 19 44 20 93 21 87 22 86 23
REMARK SMILES IDX 45 25 75 26 56 27 74 28 57 29 60 30 73 31 91 32 58 33 59 34
REMARK SMILES IDX 72 36 92 37 61 38 46 39 47 40 55 41 48 42 54 43 49 44 50 45
REMARK SMILES IDX 51 46 52 47 53 48 76 49 77 50 85 51 78 52 84 53 79 54 80 55
REMARK SMILES IDX 81 56 82 57 83 58 62 59 63 60 71 61 64 62 70 63 65 64 66 65
REMARK SMILES IDX 67 66 68 67 69 68 6 69 7 70 8 71 9 73 10 74 13 75 14 76
REMARK SMILES IDX 15 78 16 79 27 80 28 81 29 83 30 84 31 85 36 86 32 87 35 88
REMARK SMILES IDX 33 89 34 90 17 91 18 92 19 93 26 94 20 95 21 96 25 97 22 99
REMARK SMILES IDX 24 100 23 101 11 102 12 103
REMARK H PARENT 3 6 90 24 60 35 7 72 13 77 27 82 20 98 12 104
REMARK Flexibility Score: inf
ROOT
ATOM      1  C   UNL     1       5.714  11.930  -5.171  1.00  0.00     0.042 C 
ENDROOT
BRANCH   1   2
ATOM      2  C   UNL     1       5.436  12.898  -6.307  1.00  0.00     0.118 C 
BRANCH   2   3
ATOM      3  N   UNL     1       5.078  14.230  -5.845  1.00  0.00    -0.352 N 
ATOM      4  O   UNL     1       5.355  16.443  -5.516  1.00  0.00    -0.269 OA
ATOM      5  C   UNL     1       5.691  15.430  -6.119  1.00  0.00     0.251 C 
ATOM      6  H   UNL     1       4.290  14.279  -5.256  1.00  0.00     0.163 HD
BRANCH   5   7
ATOM      7  C   UNL     1       6.774  15.469  -7.124  1.00  0.00     0.039 A 
ATOM      8  C   UNL     1       6.638  14.763  -8.320  1.00  0.00     0.014 A 
ATOM      9  C   UNL     1       7.946  16.180  -6.854  1.00  0.00     0.014 A 
ATOM     10  C   UNL     1       7.734  14.609  -9.152  1.00  0.00     0.010 A 
ATOM     11  C   UNL     1       9.002  16.139  -7.769  1.00  0.00     0.010 A 
ATOM     12  C   UNL     1       8.914  15.334  -8.915  1.00  0.00    -0.014 A 
BRANCH  12  13
ATOM     13  C   UNL     1       9.974  15.312  -9.955  1.00  0.00     0.031 A 
ATOM     14  C   UNL     1      11.357  14.798  -9.672  1.00  0.00     0.074 A 
ATOM     15  C   UNL     1       9.642  15.731 -11.194  1.00  0.00     0.049 A 
ATOM     16  N   UNL     1      12.367  14.682 -10.496  1.00  0.00    -0.248 NA
ATOM     17  C   UNL     1      11.654  14.365  -8.297  1.00  0.00     0.031 C 
ATOM     18  C   UNL     1       8.328  16.261 -11.582  1.00  0.00     0.029 A 
ATOM     19  N   UNL     1      10.358  15.752 -12.362  1.00  0.00    -0.354 N 
ATOM     20  C   UNL     1      13.419  14.170  -9.746  1.00  0.00     0.074 A 
ATOM     21  C   UNL     1      12.936  14.033  -8.389  1.00  0.00     0.031 C 
ATOM     22  C   UNL     1       8.312  16.487 -12.901  1.00  0.00     0.029 A 
ATOM     23  C   UNL     1       9.637  16.217 -13.438  1.00  0.00     0.049 A 
ATOM     24  H   UNL     1      11.297  15.464 -12.425  1.00  0.00     0.167 HD
ATOM     25  C   UNL     1      14.668  13.839 -10.158  1.00  0.00     0.031 A 
ATOM     26  C   UNL     1      10.004  16.436 -14.713  1.00  0.00     0.031 A 
ATOM     27  C   UNL     1      15.140  13.995 -11.512  1.00  0.00     0.049 A 
ATOM     28  C   UNL     1      11.415  16.122 -15.117  1.00  0.00     0.074 A 
ATOM     29  C   UNL     1      16.383  13.672 -12.030  1.00  0.00     0.029 A 
ATOM     30  N   UNL     1      14.399  14.520 -12.561  1.00  0.00    -0.354 N 
ATOM     31  N   UNL     1      12.380  15.598 -14.399  1.00  0.00    -0.248 NA
ATOM     32  C   UNL     1      11.784  16.423 -16.504  1.00  0.00     0.031 C 
ATOM     33  C   UNL     1      16.418  14.071 -13.369  1.00  0.00     0.029 A 
ATOM     34  C   UNL     1      15.170  14.562 -13.713  1.00  0.00     0.049 A 
ATOM     35  H   UNL     1      13.463  14.819 -12.497  1.00  0.00     0.167 HD
ATOM     36  C   UNL     1      13.465  15.483 -15.259  1.00  0.00     0.074 A 
ATOM     37  C   UNL     1      13.022  15.954 -16.555  1.00  0.00     0.031 C 
ATOM     38  C   UNL     1      14.719  15.037 -14.998  1.00  0.00     0.031 A 
BRANCH  25  39
ATOM     39  C   UNL     1      15.631  13.287  -9.136  1.00  0.00    -0.014 A 
ATOM     40  C   UNL     1      15.455  12.005  -8.586  1.00  0.00     0.010 A 
ATOM     41  C   UNL     1      16.784  14.021  -8.796  1.00  0.00     0.010 A 
ATOM     42  C   UNL     1      16.402  11.475  -7.704  1.00  0.00     0.020 A 
ATOM     43  C   UNL     1      17.749  13.482  -7.940  1.00  0.00     0.020 A 
ATOM     44  C   UNL     1      17.548  12.214  -7.394  1.00  0.00     0.054 A 
BRANCH  44  45
ATOM     45  S   UNL     1      18.790  11.471  -6.298  1.00  0.00     0.124 S 
ATOM     46  O   UNL     1      18.076  11.418  -5.024  1.00  0.00    -0.237 OA
ATOM     47  O   UNL     1      19.041  10.180  -6.933  1.00  0.00    -0.237 OA
ATOM     48  O   UNL     1      19.905  12.414  -6.345  1.00  0.00    -0.744 OA
ENDBRANCH  44  45
ENDBRANCH  25  39
BRANCH  26  49
ATOM     49  C   UNL     1       9.040  17.029 -15.681  1.00  0.00    -0.014 A 
ATOM     50  C   UNL     1       8.638  16.325 -16.829  1.00  0.00     0.010 A 
ATOM     51  C   UNL     1       8.541  18.329 -15.469  1.00  0.00     0.010 A 
ATOM     52  C   UNL     1       7.796  16.928 -17.768  1.00  0.00     0.020 A 
ATOM     53  C   UNL     1       7.662  18.916 -16.380  1.00  0.00     0.020 A 
ATOM     54  C   UNL     1       7.315  18.220 -17.537  1.00  0.00     0.054 A 
BRANCH  54  55
ATOM     55  S   UNL     1       6.223  18.979 -18.768  1.00  0.00     0.124 S 
ATOM     56  O   UNL     1       7.135  19.202 -19.886  1.00  0.00    -0.237 OA
ATOM     57  O   UNL     1       5.213  17.944 -18.971  1.00  0.00    -0.237 OA
ATOM     58  O   UNL     1       5.744  20.188 -18.102  1.00  0.00    -0.744 OA
ENDBRANCH  54  55
ENDBRANCH  26  49
BRANCH  38  59
ATOM     59  C   UNL     1      15.686  15.001 -16.153  1.00  0.00    -0.014 A 
ATOM     60  C   UNL     1      16.142  16.182 -16.767  1.00  0.00     0.010 A 
ATOM     61  C   UNL     1      16.155  13.761 -16.626  1.00  0.00     0.010 A 
ATOM     62  C   UNL     1      17.003  16.122 -17.866  1.00  0.00     0.020 A 
ATOM     63  C   UNL     1      17.050  13.698 -17.696  1.00  0.00     0.020 A 
ATOM     64  C   UNL     1      17.452  14.879 -18.323  1.00  0.00     0.054 A 
BRANCH  64  65
ATOM     65  S   UNL     1      18.587  14.832 -19.735  1.00  0.00     0.124 S 
ATOM     66  O   UNL     1      17.723  15.255 -20.835  1.00  0.00    -0.237 OA
ATOM     67  O   UNL     1      19.620  15.787 -19.344  1.00  0.00    -0.237 OA
ATOM     68  O   UNL     1      19.021  13.438 -19.787  1.00  0.00    -0.744 OA
ENDBRANCH  64  65
ENDBRANCH  38  59
ENDBRANCH  12  13
ENDBRANCH   5   7
ENDBRANCH   2   3
ENDBRANCH   1   2
BRANCH   1  69
ATOM     69  C   UNL     1       4.474  11.606  -4.349  1.00  0.00     0.117 C 
BRANCH  69  70
ATOM     70  N   UNL     1       3.385  11.127  -5.181  1.00  0.00    -0.354 N 
ATOM     71  C   UNL     1       3.112   9.926  -5.755  1.00  0.00     0.244 C 
ATOM     72  H   UNL     1       2.704  11.814  -5.369  1.00  0.00     0.163 HD
ATOM     73  O   UNL     1       2.103   9.893  -6.472  1.00  0.00    -0.273 OA
BRANCH  71  74
ATOM     74  C   UNL     1       3.810   8.597  -5.364  1.00  0.00     0.197 C 
BRANCH  74  75
ATOM     75  N   UNL     1       5.237   8.731  -5.090  1.00  0.00    -0.340 N 
ATOM     76  C   UNL     1       6.175   7.772  -5.309  1.00  0.00     0.243 C 
ATOM     77  H   UNL     1       5.547   9.587  -4.715  1.00  0.00     0.164 HD
ATOM     78  O   UNL     1       7.279   7.900  -4.783  1.00  0.00    -0.273 OA
BRANCH  76  79
ATOM     79  C   UNL     1       5.778   6.607  -6.215  1.00  0.00     0.176 C 
BRANCH  79  80
ATOM     80  N   UNL     1       7.039   6.049  -6.701  1.00  0.00    -0.340 N 
ATOM     81  C   UNL     1       7.803   6.568  -7.731  1.00  0.00     0.251 C 
ATOM     82  H   UNL     1       7.372   5.235  -6.259  1.00  0.00     0.164 HD
ATOM     83  O   UNL     1       8.922   6.135  -7.970  1.00  0.00    -0.269 OA
BRANCH  81  84
ATOM     84  C   UNL     1       7.203   7.605  -8.607  1.00  0.00     0.040 A 
ATOM     85  C   UNL     1       6.887   8.887  -8.133  1.00  0.00     0.017 A 
ATOM     86  C   UNL     1       6.854   7.227  -9.905  1.00  0.00     0.017 A 
ATOM     87  C   UNL     1       6.094   9.733  -8.907  1.00  0.00     0.040 A 
ATOM     88  C   UNL     1       6.099   8.096 -10.693  1.00  0.00     0.040 A 
ATOM     89  C   UNL     1       5.697   9.323 -10.175  1.00  0.00     0.123 A 
ATOM     90  F   UNL     1       4.908  10.122 -10.905  1.00  0.00    -0.207 F 
ENDBRANCH  81  84
ENDBRANCH  79  80
BRANCH  79  91
ATOM     91  C   UNL     1       4.826   5.632  -5.495  1.00  0.00     0.072 C 
BRANCH  91  92
ATOM     92  C   UNL     1       3.821   6.298  -4.568  1.00  0.00    -0.020 A 
ATOM     93  C   UNL     1       2.020   6.524  -4.722  1.00  0.00     0.087 A 
ATOM     94  C   UNL     1       4.338   7.084  -2.838  1.00  0.00     0.003 A 
ATOM     95  N   UNL     1       1.386   7.255  -3.106  1.00  0.00    -0.361 N 
ATOM     96  C   UNL     1       2.829   7.670  -2.012  1.00  0.00     0.046 A 
ATOM     97  C   UNL     1       5.551   7.327  -2.202  1.00  0.00     0.010 A 
ATOM     98  H   UNL     1       0.439   7.395  -2.876  1.00  0.00     0.166 HD
ATOM     99  C   UNL     1       3.003   8.608  -0.995  1.00  0.00     0.026 A 
ATOM    100  C   UNL     1       5.522   8.293  -1.184  1.00  0.00     0.001 A 
ATOM    101  C   UNL     1       4.347   8.918  -0.663  1.00  0.00     0.002 A 
ENDBRANCH  91  92
ENDBRANCH  79  91
ENDBRANCH  76  79
ENDBRANCH  74  75
BRANCH  74 102
ATOM    102  C   UNL     1       2.994   8.089  -4.017  1.00  0.00     0.191 C 
BRANCH 102 103
ATOM    103  O   UNL     1       2.803   6.224  -3.088  1.00  0.00    -0.394 OA
ATOM    104  H   UNL     1       2.190   5.670  -3.598  1.00  0.00     0.210 HD
ENDBRANCH 102 103
ENDBRANCH  74 102
ENDBRANCH  71  74
ENDBRANCH  69  70
ENDBRANCH   1  69
TORSDOF 21
