REMARK SMILES O=C(NCCCNC(=O)c1cn(C2C[NH+](CCC[C@@H]3CCCO3)C2)nn1)c1ccc(-c2c3nc(c(-c4ccc(S(=O)(=O)[O-])cc4)c4ccc([nH]4)c(-c4ccc(S(=O)(=O)[O-])cc4)c4nc(c(-c5ccc(S(=O)(=O)[O-])cc5)c5ccc2[nH]5)C=C4)C=C3)cc1
REMARK SMILES IDX 6 1 5 2 4 3 3 4 1 5 2 6 27 8 28 9 86 10 29 11 85 12 30 13
REMARK SMILES IDX 31 14 32 15 79 16 33 17 84 18 78 19 80 20 34 21 83 22 77 23
REMARK SMILES IDX 76 24 35 26 65 27 46 28 64 29 47 30 50 31 63 32 81 33 48 34
REMARK SMILES IDX 49 35 62 37 82 38 51 39 36 40 37 41 45 42 38 43 44 44 39 45
REMARK SMILES IDX 40 46 41 47 42 48 43 49 66 50 67 51 75 52 68 53 74 54 69 55
REMARK SMILES IDX 70 56 71 57 72 58 73 59 52 60 53 61 61 62 54 63 60 64 55 65
REMARK SMILES IDX 56 66 57 67 58 68 59 69 7 70 8 71 9 73 10 74 11 75 26 76
REMARK SMILES IDX 12 77 25 78 13 79 14 80 24 81 15 82 16 84 17 85 18 86 19 87
REMARK SMILES IDX 20 88 23 89 21 90 22 91
REMARK H PARENT 3 7 80 25 50 36 7 72 15 83
REMARK Flexibility Score: inf
ROOT
ATOM      1  C   UNL     1       4.423  -0.976  -3.427  1.00  0.00     0.118 C 
ENDROOT
BRANCH   1   2
ATOM      2  C   UNL     1       5.021  -0.957  -2.021  1.00  0.00     0.042 C 
BRANCH   2   3
ATOM      3  C   UNL     1       4.811   0.361  -1.278  1.00  0.00     0.118 C 
BRANCH   3   4
ATOM      4  N   UNL     1       3.426   0.769  -1.149  1.00  0.00    -0.352 N 
ATOM      5  O   UNL     1       1.382   1.113  -0.386  1.00  0.00    -0.269 OA
ATOM      6  C   UNL     1       2.420   0.455  -0.281  1.00  0.00     0.251 C 
ATOM      7  H   UNL     1       3.151   1.414  -1.840  1.00  0.00     0.163 HD
BRANCH   6   8
ATOM      8  C   UNL     1       2.467  -0.675   0.679  1.00  0.00     0.039 A 
ATOM      9  C   UNL     1       3.624  -1.332   1.108  1.00  0.00     0.014 A 
ATOM     10  C   UNL     1       1.216  -1.134   1.122  1.00  0.00     0.014 A 
ATOM     11  C   UNL     1       3.533  -2.514   1.831  1.00  0.00     0.010 A 
ATOM     12  C   UNL     1       1.119  -2.293   1.870  1.00  0.00     0.010 A 
ATOM     13  C   UNL     1       2.277  -3.012   2.163  1.00  0.00    -0.014 A 
BRANCH  13  14
ATOM     14  C   UNL     1       2.186  -4.247   2.931  1.00  0.00     0.031 A 
ATOM     15  C   UNL     1       2.639  -4.137   4.353  1.00  0.00     0.074 A 
ATOM     16  C   UNL     1       1.526  -5.308   2.420  1.00  0.00     0.049 A 
ATOM     17  N   UNL     1       3.456  -4.896   5.009  1.00  0.00    -0.248 NA
ATOM     18  C   UNL     1       2.188  -2.956   5.116  1.00  0.00     0.031 C 
ATOM     19  C   UNL     1       0.806  -5.383   1.142  1.00  0.00     0.029 A 
ATOM     20  N   UNL     1       1.209  -6.491   3.009  1.00  0.00    -0.354 N 
ATOM     21  C   UNL     1       3.478  -4.401   6.315  1.00  0.00     0.074 A 
ATOM     22  C   UNL     1       2.798  -3.133   6.286  1.00  0.00     0.031 C 
ATOM     23  C   UNL     1      -0.078  -6.404   1.190  1.00  0.00     0.029 A 
ATOM     24  C   UNL     1       0.109  -7.125   2.437  1.00  0.00     0.049 A 
ATOM     25  H   UNL     1       1.711  -6.866   3.769  1.00  0.00     0.167 HD
ATOM     26  C   UNL     1       3.856  -5.156   7.384  1.00  0.00     0.031 A 
ATOM     27  C   UNL     1      -0.661  -8.092   3.003  1.00  0.00     0.031 A 
ATOM     28  C   UNL     1       4.615  -6.309   6.995  1.00  0.00     0.049 A 
ATOM     29  C   UNL     1       0.122  -8.664   4.128  1.00  0.00     0.074 A 
ATOM     30  C   UNL     1       5.830  -6.504   6.371  1.00  0.00     0.029 A 
ATOM     31  N   UNL     1       3.948  -7.507   6.901  1.00  0.00    -0.354 N 
ATOM     32  N   UNL     1       1.245  -9.307   3.963  1.00  0.00    -0.248 NA
ATOM     33  C   UNL     1      -0.082  -8.094   5.452  1.00  0.00     0.031 C 
ATOM     34  C   UNL     1       5.618  -7.615   5.504  1.00  0.00     0.029 A 
ATOM     35  C   UNL     1       4.313  -8.071   5.704  1.00  0.00     0.049 A 
ATOM     36  H   UNL     1       3.328  -7.888   7.564  1.00  0.00     0.167 HD
ATOM     37  C   UNL     1       2.063  -8.870   4.996  1.00  0.00     0.074 A 
ATOM     38  C   UNL     1       1.165  -8.182   5.925  1.00  0.00     0.031 C 
ATOM     39  C   UNL     1       3.424  -8.852   4.871  1.00  0.00     0.031 A 
BRANCH  26  40
ATOM     40  C   UNL     1       3.204  -5.041   8.741  1.00  0.00    -0.014 A 
ATOM     41  C   UNL     1       3.719  -5.785   9.821  1.00  0.00     0.010 A 
ATOM     42  C   UNL     1       1.932  -4.454   8.915  1.00  0.00     0.010 A 
ATOM     43  C   UNL     1       2.965  -5.988  10.986  1.00  0.00     0.020 A 
ATOM     44  C   UNL     1       1.191  -4.616  10.086  1.00  0.00     0.020 A 
ATOM     45  C   UNL     1       1.697  -5.415  11.102  1.00  0.00     0.054 A 
BRANCH  45  46
ATOM     46  S   UNL     1       0.678  -5.793  12.549  1.00  0.00     0.124 S 
ATOM     47  O   UNL     1       0.443  -7.225  12.385  1.00  0.00    -0.237 OA
ATOM     48  O   UNL     1       1.556  -5.417  13.653  1.00  0.00    -0.237 OA
ATOM     49  O   UNL     1      -0.496  -4.941  12.374  1.00  0.00    -0.744 OA
ENDBRANCH  45  46
ENDBRANCH  26  40
BRANCH  27  50
ATOM     50  C   UNL     1      -2.142  -8.223   2.893  1.00  0.00    -0.014 A 
ATOM     51  C   UNL     1      -2.816  -9.398   3.275  1.00  0.00     0.010 A 
ATOM     52  C   UNL     1      -2.928  -7.076   2.648  1.00  0.00     0.010 A 
ATOM     53  C   UNL     1      -4.217  -9.412   3.438  1.00  0.00     0.020 A 
ATOM     54  C   UNL     1      -4.319  -7.083   2.802  1.00  0.00     0.020 A 
ATOM     55  C   UNL     1      -4.958  -8.248   3.215  1.00  0.00     0.054 A 
BRANCH  55  56
ATOM     56  S   UNL     1      -6.742  -8.225   3.572  1.00  0.00     0.124 S 
ATOM     57  O   UNL     1      -7.282  -9.080   2.519  1.00  0.00    -0.237 OA
ATOM     58  O   UNL     1      -6.803  -8.773   4.924  1.00  0.00    -0.237 OA
ATOM     59  O   UNL     1      -7.098  -6.811   3.464  1.00  0.00    -0.744 OA
ENDBRANCH  55  56
ENDBRANCH  27  50
BRANCH  39  60
ATOM     60  C   UNL     1       4.045  -9.481   3.641  1.00  0.00    -0.014 A 
ATOM     61  C   UNL     1       3.850  -8.987   2.334  1.00  0.00     0.010 A 
ATOM     62  C   UNL     1       5.005 -10.488   3.835  1.00  0.00     0.010 A 
ATOM     63  C   UNL     1       4.585  -9.499   1.252  1.00  0.00     0.020 A 
ATOM     64  C   UNL     1       5.750 -10.991   2.765  1.00  0.00     0.020 A 
ATOM     65  C   UNL     1       5.535 -10.499   1.477  1.00  0.00     0.054 A 
BRANCH  65  66
ATOM     66  S   UNL     1       6.529 -11.117   0.088  1.00  0.00     0.124 S 
ATOM     67  O   UNL     1       5.545 -11.834  -0.718  1.00  0.00    -0.237 OA
ATOM     68  O   UNL     1       7.057  -9.892  -0.509  1.00  0.00    -0.237 OA
ATOM     69  O   UNL     1       7.535 -11.964   0.729  1.00  0.00    -0.744 OA
ENDBRANCH  65  66
ENDBRANCH  39  60
ENDBRANCH  13  14
ENDBRANCH   6   8
ENDBRANCH   3   4
ENDBRANCH   2   3
ENDBRANCH   1   2
BRANCH   1  70
ATOM     70  N   UNL     1       4.848   0.173  -4.218  1.00  0.00    -0.351 N 
ATOM     71  C   UNL     1       5.746   0.245  -5.246  1.00  0.00     0.273 C 
ATOM     72  H   UNL     1       4.423   1.027  -3.974  1.00  0.00     0.163 HD
ATOM     73  O   UNL     1       6.174   1.361  -5.579  1.00  0.00    -0.267 OA
BRANCH  71  74
ATOM     74  C   UNL     1       6.145  -0.968  -5.916  1.00  0.00     0.170 A 
ATOM     75  C   UNL     1       5.336  -1.996  -6.365  1.00  0.00     0.145 A 
ATOM     76  N   UNL     1       7.445  -1.243  -6.250  1.00  0.00    -0.125 NA
ATOM     77  N   UNL     1       6.216  -2.905  -6.862  1.00  0.00    -0.237 N 
ATOM     78  N   UNL     1       7.479  -2.438  -6.817  1.00  0.00    -0.066 NA
BRANCH  77  79
ATOM     79  C   UNL     1       5.961  -4.225  -7.325  1.00  0.00     0.218 C 
ATOM     80  C   UNL     1       4.896  -5.024  -6.513  1.00  0.00     0.295 C 
ATOM     81  C   UNL     1       4.937  -4.348  -8.471  1.00  0.00     0.295 C 
ATOM     82  N   UNL     1       4.358  -5.524  -7.790  1.00  0.00    -0.331 N 
ATOM     83  H   UNL     1       3.368  -5.746  -7.899  1.00  0.00     0.348 HD
BRANCH  82  84
ATOM     84  C   UNL     1       4.929  -6.822  -8.204  1.00  0.00     0.262 C 
BRANCH  84  85
ATOM     85  C   UNL     1       6.447  -7.156  -8.242  1.00  0.00     0.064 C 
BRANCH  85  86
ATOM     86  C   UNL     1       7.266  -7.231  -6.933  1.00  0.00     0.038 C 
BRANCH  86  87
ATOM     87  C   UNL     1       6.966  -8.397  -5.993  1.00  0.00     0.118 C 
ATOM     88  C   UNL     1       7.701  -9.672  -6.375  1.00  0.00     0.034 C 
ATOM     89  O   UNL     1       5.569  -8.698  -5.974  1.00  0.00    -0.378 OA
ATOM     90  C   UNL     1       6.741 -10.741  -5.923  1.00  0.00     0.031 C 
ATOM     91  C   UNL     1       5.404 -10.101  -6.211  1.00  0.00     0.160 C 
ENDBRANCH  86  87
ENDBRANCH  85  86
ENDBRANCH  84  85
ENDBRANCH  82  84
ENDBRANCH  77  79
ENDBRANCH  71  74
ENDBRANCH   1  70
TORSDOF 18
