REMARK SMILES C[C@@H](C(=O)NCCCNC(=O)c1ccc(-c2c3nc(c(-c4ccc(S(=O)(=O)[O-])cc4)c4ccc([nH]4)c(-c4ccc(S(=O)(=O)[O-])cc4)c4nc(c(-c5ccc(S(=O)(=O)[O-])cc5)c5ccc2[nH]5)C=C4)C=C3)cc1)[N@@H+]1CCc2n[nH]c(C(c3ccccc3)c3ccccc3)c2C1
REMARK SMILES IDX 7 1 6 2 5 3 3 4 4 5 2 7 1 8 72 9 73 10 93 11 74 13 92 14
REMARK SMILES IDX 75 15 78 16 76 17 77 18 79 20 80 21 81 22 85 23 82 24 84 25
REMARK SMILES IDX 83 26 86 27 87 28 91 29 88 30 90 31 89 32 8 33 9 34 10 35
REMARK SMILES IDX 11 37 12 38 13 39 71 40 14 41 70 42 15 43 16 44 17 45 64 46
REMARK SMILES IDX 18 47 69 48 63 49 65 50 19 51 68 52 62 53 61 54 20 56 50 57
REMARK SMILES IDX 31 58 49 59 32 60 35 61 48 62 66 63 33 64 34 65 47 67 67 68
REMARK SMILES IDX 36 69 21 70 22 71 30 72 23 73 29 74 24 75 25 76 26 77 27 78
REMARK SMILES IDX 28 79 51 80 52 81 60 82 53 83 59 84 54 85 55 86 56 87 57 88
REMARK SMILES IDX 58 89 37 90 38 91 46 92 39 93 45 94 40 95 41 96 42 97 43 98
REMARK SMILES IDX 44 99
REMARK H PARENT 5 6 72 12 77 19 9 36 65 55 35 66
REMARK Flexibility Score: inf
ROOT
ATOM      1  C   UNL     1       4.622   0.761   0.639  1.00  0.00     0.042 C 
ENDROOT
BRANCH   1   2
ATOM      2  C   UNL     1       3.851  -0.170  -0.282  1.00  0.00     0.118 C 
BRANCH   2   3
ATOM      3  N   UNL     1       2.543  -0.525   0.220  1.00  0.00    -0.351 N 
ATOM      4  C   UNL     1       1.649  -1.186  -0.604  1.00  0.00     0.278 C 
ATOM      5  O   UNL     1       2.014  -1.900  -1.536  1.00  0.00    -0.268 OA
ATOM      6  H   UNL     1       2.289  -0.299   1.144  1.00  0.00     0.163 HD
BRANCH   4   7
ATOM      7  C   UNL     1       0.169  -0.800  -0.398  1.00  0.00     0.271 C 
ATOM      8  C   UNL     1       0.100   0.735  -0.476  1.00  0.00     0.086 C 
BRANCH   7   9
ATOM      9  N   UNL     1      -0.535  -1.455   0.721  1.00  0.00    -0.321 N 
ATOM     10  C   UNL     1      -1.434  -0.653   1.567  1.00  0.00     0.269 C 
ATOM     11  C   UNL     1       0.117  -2.575   1.415  1.00  0.00     0.303 C 
ATOM     12  H   UNL     1      -1.194  -1.935   0.108  1.00  0.00     0.349 HD
ATOM     13  C   UNL     1      -0.885  -0.196   2.939  1.00  0.00     0.120 C 
ATOM     14  C   UNL     1       0.876  -2.017   2.563  1.00  0.00     0.052 A 
ATOM     15  C   UNL     1       0.387  -0.887   3.267  1.00  0.00     0.077 A 
ATOM     16  C   UNL     1       2.071  -2.328   3.184  1.00  0.00     0.056 A 
ATOM     17  N   UNL     1       1.221  -0.466   4.212  1.00  0.00    -0.180 NA
ATOM     18  N   UNL     1       2.205  -1.374   4.175  1.00  0.00    -0.281 N 
ATOM     19  H   UNL     1       2.963  -1.363   4.804  1.00  0.00     0.190 HD
BRANCH  16  20
ATOM     20  C   UNL     1       3.166  -3.363   3.053  1.00  0.00     0.098 C 
BRANCH  20  21
ATOM     21  C   UNL     1       3.406  -4.075   4.386  1.00  0.00    -0.035 A 
ATOM     22  C   UNL     1       4.671  -4.015   4.994  1.00  0.00     0.005 A 
ATOM     23  C   UNL     1       2.371  -4.766   5.040  1.00  0.00     0.005 A 
ATOM     24  C   UNL     1       4.895  -4.641   6.219  1.00  0.00     0.000 A 
ATOM     25  C   UNL     1       2.607  -5.414   6.250  1.00  0.00     0.000 A 
ATOM     26  C   UNL     1       3.868  -5.349   6.840  1.00  0.00     0.000 A 
ENDBRANCH  20  21
BRANCH  20  27
ATOM     27  C   UNL     1       3.171  -4.285   1.832  1.00  0.00    -0.035 A 
ATOM     28  C   UNL     1       2.759  -5.625   1.849  1.00  0.00     0.005 A 
ATOM     29  C   UNL     1       3.741  -3.817   0.639  1.00  0.00     0.005 A 
ATOM     30  C   UNL     1       2.971  -6.462   0.744  1.00  0.00     0.000 A 
ATOM     31  C   UNL     1       3.957  -4.642  -0.466  1.00  0.00     0.000 A 
ATOM     32  C   UNL     1       3.584  -5.975  -0.407  1.00  0.00     0.000 A 
ENDBRANCH  20  27
ENDBRANCH  16  20
ENDBRANCH   7   9
ENDBRANCH   4   7
ENDBRANCH   2   3
ENDBRANCH   1   2
BRANCH   1  33
ATOM     33  C   UNL     1       5.145   0.147   1.932  1.00  0.00     0.118 C 
BRANCH  33  34
ATOM     34  N   UNL     1       5.994  -1.023   1.760  1.00  0.00    -0.352 N 
ATOM     35  C   UNL     1       7.236  -1.327   2.261  1.00  0.00     0.251 C 
ATOM     36  H   UNL     1       5.609  -1.720   1.181  1.00  0.00     0.163 HD
ATOM     37  O   UNL     1       7.737  -2.416   2.024  1.00  0.00    -0.269 OA
BRANCH  35  38
ATOM     38  C   UNL     1       7.994  -0.317   3.022  1.00  0.00     0.039 A 
ATOM     39  C   UNL     1       9.305  -0.050   2.619  1.00  0.00     0.014 A 
ATOM     40  C   UNL     1       7.417   0.391   4.075  1.00  0.00     0.014 A 
ATOM     41  C   UNL     1      10.003   1.004   3.205  1.00  0.00     0.010 A 
ATOM     42  C   UNL     1       8.085   1.490   4.606  1.00  0.00     0.010 A 
ATOM     43  C   UNL     1       9.377   1.816   4.162  1.00  0.00    -0.014 A 
BRANCH  43  44
ATOM     44  C   UNL     1      10.046   3.031   4.684  1.00  0.00     0.031 A 
ATOM     45  C   UNL     1      10.416   3.122   6.136  1.00  0.00     0.074 A 
ATOM     46  C   UNL     1      10.253   4.075   3.857  1.00  0.00     0.049 A 
ATOM     47  N   UNL     1      10.955   4.120   6.787  1.00  0.00    -0.248 NA
ATOM     48  C   UNL     1      10.114   1.949   6.973  1.00  0.00     0.031 C 
ATOM     49  C   UNL     1       9.891   4.118   2.437  1.00  0.00     0.029 A 
ATOM     50  N   UNL     1      10.814   5.305   4.091  1.00  0.00    -0.354 N 
ATOM     51  C   UNL     1      11.035   3.706   8.111  1.00  0.00     0.074 A 
ATOM     52  C   UNL     1      10.449   2.385   8.178  1.00  0.00     0.031 C 
ATOM     53  C   UNL     1      10.267   5.300   1.921  1.00  0.00     0.029 A 
ATOM     54  C   UNL     1      10.863   6.111   2.977  1.00  0.00     0.049 A 
ATOM     55  H   UNL     1      11.150   5.584   4.973  1.00  0.00     0.167 HD
ATOM     56  C   UNL     1      11.564   4.361   9.171  1.00  0.00     0.031 A 
ATOM     57  C   UNL     1      11.338   7.362   2.825  1.00  0.00     0.031 A 
ATOM     58  C   UNL     1      12.159   5.668   9.091  1.00  0.00     0.049 A 
ATOM     59  C   UNL     1      11.945   8.057   4.011  1.00  0.00     0.074 A 
ATOM     60  C   UNL     1      12.771   6.400  10.093  1.00  0.00     0.029 A 
ATOM     61  N   UNL     1      12.221   6.437   7.938  1.00  0.00    -0.354 N 
ATOM     62  N   UNL     1      12.066   7.626   5.245  1.00  0.00    -0.248 NA
ATOM     63  C   UNL     1      12.497   9.399   3.781  1.00  0.00     0.031 C 
ATOM     64  C   UNL     1      13.170   7.628   9.554  1.00  0.00     0.029 A 
ATOM     65  C   UNL     1      12.853   7.639   8.204  1.00  0.00     0.049 A 
ATOM     66  H   UNL     1      11.868   6.168   7.059  1.00  0.00     0.167 HD
ATOM     67  C   UNL     1      12.742   8.629   5.930  1.00  0.00     0.074 A 
ATOM     68  C   UNL     1      13.008   9.684   4.972  1.00  0.00     0.031 C 
ATOM     69  C   UNL     1      13.115   8.671   7.233  1.00  0.00     0.031 A 
BRANCH  56  70
ATOM     70  C   UNL     1      11.510   3.670  10.508  1.00  0.00    -0.014 A 
ATOM     71  C   UNL     1      12.296   2.533  10.770  1.00  0.00     0.010 A 
ATOM     72  C   UNL     1      10.672   4.170  11.520  1.00  0.00     0.010 A 
ATOM     73  C   UNL     1      12.206   1.877  12.001  1.00  0.00     0.020 A 
ATOM     74  C   UNL     1      10.600   3.534  12.763  1.00  0.00     0.020 A 
ATOM     75  C   UNL     1      11.352   2.379  12.987  1.00  0.00     0.054 A 
BRANCH  75  76
ATOM     76  S   UNL     1      11.254   1.511  14.577  1.00  0.00     0.124 S 
ATOM     77  O   UNL     1      10.459   0.336  14.229  1.00  0.00    -0.237 OA
ATOM     78  O   UNL     1      12.657   1.249  14.887  1.00  0.00    -0.237 OA
ATOM     79  O   UNL     1      10.594   2.473  15.457  1.00  0.00    -0.744 OA
ENDBRANCH  75  76
ENDBRANCH  56  70
BRANCH  57  80
ATOM     80  C   UNL     1      11.296   8.018   1.489  1.00  0.00    -0.014 A 
ATOM     81  C   UNL     1      12.479   8.205   0.753  1.00  0.00     0.010 A 
ATOM     82  C   UNL     1      10.074   8.445   0.939  1.00  0.00     0.010 A 
ATOM     83  C   UNL     1      12.445   8.826  -0.499  1.00  0.00     0.020 A 
ATOM     84  C   UNL     1      10.032   9.044  -0.324  1.00  0.00     0.020 A 
ATOM     85  C   UNL     1      11.221   9.242  -1.030  1.00  0.00     0.054 A 
BRANCH  85  86
ATOM     86  S   UNL     1      11.194  10.003  -2.677  1.00  0.00     0.124 S 
ATOM     87  O   UNL     1      11.727  11.334  -2.405  1.00  0.00    -0.237 OA
ATOM     88  O   UNL     1      12.063   9.117  -3.449  1.00  0.00    -0.237 OA
ATOM     89  O   UNL     1       9.782   9.956  -3.051  1.00  0.00    -0.744 OA
ENDBRANCH  85  86
ENDBRANCH  57  80
BRANCH  69  90
ATOM     90  C   UNL     1      13.898   9.873   7.686  1.00  0.00    -0.014 A 
ATOM     91  C   UNL     1      13.286  11.127   7.852  1.00  0.00     0.010 A 
ATOM     92  C   UNL     1      15.263   9.727   7.994  1.00  0.00     0.010 A 
ATOM     93  C   UNL     1      14.035  12.224   8.285  1.00  0.00     0.020 A 
ATOM     94  C   UNL     1      16.009  10.815   8.453  1.00  0.00     0.020 A 
ATOM     95  C   UNL     1      15.393  12.061   8.580  1.00  0.00     0.054 A 
BRANCH  95  96
ATOM     96  S   UNL     1      16.337  13.490   9.175  1.00  0.00     0.124 S 
ATOM     97  O   UNL     1      16.542  14.252   7.946  1.00  0.00    -0.237 OA
ATOM     98  O   UNL     1      15.429  14.095  10.146  1.00  0.00    -0.237 OA
ATOM     99  O   UNL     1      17.542  12.894   9.748  1.00  0.00    -0.744 OA
ENDBRANCH  95  96
ENDBRANCH  69  90
ENDBRANCH  43  44
ENDBRANCH  35  38
ENDBRANCH  33  34
ENDBRANCH   1  33
TORSDOF 17
