REMARK SMILES COc1cccc(Cn2c(=O)c(=O)n(CC(=O)NCCCNC(=O)c3ccc(-c4c5nc(c(-c6ccc(S(=O)(=O)[O-])cc6)c6ccc([nH]6)c(-c6ccc(S(=O)(=O)[O-])cc6)c6nc(c(-c7ccc(S(=O)(=O)[O-])cc7)c7ccc4[nH]7)C=C6)C=C5)cc3)c3ccccc32)c1
REMARK SMILES IDX 19 1 18 2 16 3 17 4 15 6 14 7 9 8 10 9 90 10 11 11 12 12
REMARK SMILES IDX 85 13 89 14 13 15 86 16 88 17 87 18 8 19 7 20 3 21 4 22
REMARK SMILES IDX 91 23 5 24 6 25 2 26 1 27 20 28 21 29 22 30 23 31 24 33
REMARK SMILES IDX 25 34 26 35 84 36 27 37 83 38 28 39 29 40 30 41 77 42 31 43
REMARK SMILES IDX 82 44 76 45 78 46 32 47 81 48 75 49 74 50 33 52 63 53 44 54
REMARK SMILES IDX 62 55 45 56 48 57 61 58 79 59 46 60 47 61 60 63 80 64 49 65
REMARK SMILES IDX 34 66 35 67 43 68 36 69 42 70 37 71 38 72 39 73 40 74 41 75
REMARK SMILES IDX 64 76 65 77 73 78 66 79 72 80 67 81 68 82 69 83 70 84 71 85
REMARK SMILES IDX 50 86 51 87 59 88 52 89 58 90 53 91 54 92 55 93 56 94 57 95
REMARK H PARENT 18 5 22 32 78 51 48 62
REMARK Flexibility Score: inf
ROOT
ATOM      1  C   UNL     1       1.106   5.588  -3.302  1.00  0.00     0.117 C 
ENDROOT
BRANCH   1   2
ATOM      2  N   UNL     1       1.574   5.840  -4.649  1.00  0.00    -0.354 N 
ATOM      3  C   UNL     1       2.774   5.614  -5.238  1.00  0.00     0.240 C 
ATOM      4  O   UNL     1       2.840   5.872  -6.449  1.00  0.00    -0.273 OA
ATOM      5  H   UNL     1       0.902   6.247  -5.242  1.00  0.00     0.163 HD
BRANCH   3   6
ATOM      6  C   UNL     1       3.940   4.863  -4.585  1.00  0.00     0.226 C 
BRANCH   6   7
ATOM      7  N   UNL     1       4.392   4.994  -3.209  1.00  0.00    -0.293 N 
ATOM      8  N   UNL     1       5.465   4.866  -0.614  1.00  0.00    -0.298 N 
ATOM      9  C   UNL     1       5.186   3.697  -1.290  1.00  0.00     0.317 A 
ATOM     10  C   UNL     1       5.793   5.983  -1.427  1.00  0.00     0.068 A 
ATOM     11  O   UNL     1       5.634   2.587  -1.024  1.00  0.00    -0.263 OA
ATOM     12  C   UNL     1       4.167   3.886  -2.402  1.00  0.00     0.317 A 
ATOM     13  C   UNL     1       5.298   6.018  -2.766  1.00  0.00     0.069 A 
ATOM     14  C   UNL     1       6.734   6.932  -1.004  1.00  0.00     0.028 A 
ATOM     15  O   UNL     1       3.295   3.040  -2.570  1.00  0.00    -0.263 OA
ATOM     16  C   UNL     1       5.726   7.041  -3.620  1.00  0.00     0.028 A 
ATOM     17  C   UNL     1       7.205   7.894  -1.901  1.00  0.00     0.002 A 
ATOM     18  C   UNL     1       6.694   7.957  -3.197  1.00  0.00     0.002 A 
BRANCH   8  19
ATOM     19  C   UNL     1       5.418   4.830   0.845  1.00  0.00     0.162 C 
BRANCH  19  20
ATOM     20  C   UNL     1       3.990   4.448   1.280  1.00  0.00    -0.024 A 
ATOM     21  C   UNL     1       2.114   2.918   0.963  1.00  0.00     0.119 A 
ATOM     22  C   UNL     1       1.233   3.926   1.333  1.00  0.00     0.046 A 
ATOM     23  C   UNL     1       3.488   3.148   1.026  1.00  0.00     0.052 A 
ATOM     24  C   UNL     1       1.720   5.163   1.752  1.00  0.00     0.004 A 
ATOM     25  C   UNL     1       3.089   5.438   1.693  1.00  0.00     0.006 A 
BRANCH  21  26
ATOM     26  O   UNL     1       1.550   1.847   0.327  1.00  0.00    -0.497 OA
ATOM     27  C   UNL     1       1.974   0.568   0.770  1.00  0.00     0.278 C 
ENDBRANCH  21  26
ENDBRANCH  19  20
ENDBRANCH   8  19
ENDBRANCH   6   7
ENDBRANCH   3   6
ENDBRANCH   1   2
BRANCH   1  28
ATOM     28  C   UNL     1       1.404   6.758  -2.371  1.00  0.00     0.042 C 
BRANCH  28  29
ATOM     29  C   UNL     1       0.463   7.944  -2.576  1.00  0.00     0.118 C 
BRANCH  29  30
ATOM     30  N   UNL     1      -0.877   7.674  -2.075  1.00  0.00    -0.352 N 
ATOM     31  C   UNL     1      -1.736   8.488  -1.381  1.00  0.00     0.251 C 
ATOM     32  H   UNL     1      -1.218   6.769  -2.261  1.00  0.00     0.163 HD
ATOM     33  O   UNL     1      -2.748   8.000  -0.883  1.00  0.00    -0.269 OA
BRANCH  31  34
ATOM     34  C   UNL     1      -1.457   9.933  -1.213  1.00  0.00     0.039 A 
ATOM     35  C   UNL     1      -1.819  10.544  -0.007  1.00  0.00     0.014 A 
ATOM     36  C   UNL     1      -0.913  10.703  -2.245  1.00  0.00     0.014 A 
ATOM     37  C   UNL     1      -1.619  11.915   0.171  1.00  0.00     0.010 A 
ATOM     38  C   UNL     1      -0.651  12.057  -2.042  1.00  0.00     0.010 A 
ATOM     39  C   UNL     1      -1.024  12.680  -0.843  1.00  0.00    -0.014 A 
BRANCH  39  40
ATOM     40  C   UNL     1      -0.830  14.143  -0.685  1.00  0.00     0.031 A 
ATOM     41  C   UNL     1      -1.589  15.097  -1.568  1.00  0.00     0.074 A 
ATOM     42  C   UNL     1       0.058  14.606   0.215  1.00  0.00     0.049 A 
ATOM     43  N   UNL     1      -1.514  16.402  -1.630  1.00  0.00    -0.248 NA
ATOM     44  C   UNL     1      -2.539  14.506  -2.526  1.00  0.00     0.031 C 
ATOM     45  C   UNL     1       0.876  13.776   1.103  1.00  0.00     0.029 A 
ATOM     46  N   UNL     1       0.426  15.889   0.529  1.00  0.00    -0.354 N 
ATOM     47  C   UNL     1      -2.384  16.783  -2.646  1.00  0.00     0.074 A 
ATOM     48  C   UNL     1      -2.942  15.571  -3.203  1.00  0.00     0.031 C 
ATOM     49  C   UNL     1       1.631  14.572   1.877  1.00  0.00     0.029 A 
ATOM     50  C   UNL     1       1.378  15.964   1.518  1.00  0.00     0.049 A 
ATOM     51  H   UNL     1       0.043  16.683   0.089  1.00  0.00     0.167 HD
ATOM     52  C   UNL     1      -2.703  18.031  -3.065  1.00  0.00     0.031 A 
ATOM     53  C   UNL     1       1.983  17.034   2.069  1.00  0.00     0.031 A 
ATOM     54  C   UNL     1      -2.163  19.232  -2.488  1.00  0.00     0.049 A 
ATOM     55  C   UNL     1       1.601  18.410   1.599  1.00  0.00     0.074 A 
ATOM     56  C   UNL     1      -2.461  20.547  -2.800  1.00  0.00     0.029 A 
ATOM     57  N   UNL     1      -1.218  19.264  -1.474  1.00  0.00    -0.354 N 
ATOM     58  N   UNL     1       0.738  18.751   0.671  1.00  0.00    -0.248 NA
ATOM     59  C   UNL     1       2.263  19.544   2.256  1.00  0.00     0.031 C 
ATOM     60  C   UNL     1      -1.667  21.375  -1.999  1.00  0.00     0.029 A 
ATOM     61  C   UNL     1      -0.910  20.575  -1.156  1.00  0.00     0.049 A 
ATOM     62  H   UNL     1      -0.825  18.471  -1.043  1.00  0.00     0.167 HD
ATOM     63  C   UNL     1       0.737  20.141   0.650  1.00  0.00     0.074 A 
ATOM     64  C   UNL     1       1.674  20.575   1.667  1.00  0.00     0.031 C 
ATOM     65  C   UNL     1       0.025  20.983  -0.139  1.00  0.00     0.031 A 
BRANCH  52  66
ATOM     66  C   UNL     1      -3.681  18.154  -4.205  1.00  0.00    -0.014 A 
ATOM     67  C   UNL     1      -5.042  17.845  -4.030  1.00  0.00     0.010 A 
ATOM     68  C   UNL     1      -3.240  18.612  -5.459  1.00  0.00     0.010 A 
ATOM     69  C   UNL     1      -5.935  17.949  -5.100  1.00  0.00     0.020 A 
ATOM     70  C   UNL     1      -4.135  18.743  -6.525  1.00  0.00     0.020 A 
ATOM     71  C   UNL     1      -5.475  18.392  -6.343  1.00  0.00     0.054 A 
BRANCH  71  72
ATOM     72  S   UNL     1      -6.658  18.534  -7.710  1.00  0.00     0.124 S 
ATOM     73  O   UNL     1      -6.857  17.135  -8.081  1.00  0.00    -0.237 OA
ATOM     74  O   UNL     1      -7.804  19.184  -7.079  1.00  0.00    -0.237 OA
ATOM     75  O   UNL     1      -5.952  19.346  -8.698  1.00  0.00    -0.744 OA
ENDBRANCH  71  72
ENDBRANCH  52  66
BRANCH  53  76
ATOM     76  C   UNL     1       2.996  16.842   3.141  1.00  0.00    -0.014 A 
ATOM     77  C   UNL     1       2.694  17.171   4.474  1.00  0.00     0.010 A 
ATOM     78  C   UNL     1       4.261  16.307   2.838  1.00  0.00     0.010 A 
ATOM     79  C   UNL     1       3.644  16.985   5.483  1.00  0.00     0.020 A 
ATOM     80  C   UNL     1       5.205  16.096   3.847  1.00  0.00     0.020 A 
ATOM     81  C   UNL     1       4.894  16.447   5.162  1.00  0.00     0.054 A 
BRANCH  81  82
ATOM     82  S   UNL     1       6.093  16.159   6.494  1.00  0.00     0.124 S 
ATOM     83  O   UNL     1       6.577  17.509   6.762  1.00  0.00    -0.237 OA
ATOM     84  O   UNL     1       5.268  15.561   7.541  1.00  0.00    -0.237 OA
ATOM     85  O   UNL     1       7.065  15.253   5.886  1.00  0.00    -0.744 OA
ENDBRANCH  81  82
ENDBRANCH  53  76
BRANCH  65  86
ATOM     86  C   UNL     1       0.208  22.458   0.086  1.00  0.00    -0.014 A 
ATOM     87  C   UNL     1       1.372  23.118  -0.345  1.00  0.00     0.010 A 
ATOM     88  C   UNL     1      -0.826  23.202   0.683  1.00  0.00     0.010 A 
ATOM     89  C   UNL     1       1.510  24.495  -0.159  1.00  0.00     0.020 A 
ATOM     90  C   UNL     1      -0.701  24.583   0.848  1.00  0.00     0.020 A 
ATOM     91  C   UNL     1       0.472  25.219   0.438  1.00  0.00     0.054 A 
BRANCH  91  92
ATOM     92  S   UNL     1       0.653  27.014   0.623  1.00  0.00     0.124 S 
ATOM     93  O   UNL     1       1.575  27.110   1.751  1.00  0.00    -0.237 OA
ATOM     94  O   UNL     1       1.198  27.418  -0.671  1.00  0.00    -0.237 OA
ATOM     95  O   UNL     1      -0.708  27.473   0.889  1.00  0.00    -0.744 OA
ENDBRANCH  91  92
ENDBRANCH  65  86
ENDBRANCH  39  40
ENDBRANCH  31  34
ENDBRANCH  29  30
ENDBRANCH  28  29
ENDBRANCH   1  28
TORSDOF 17
