REMARK SMILES Cc1cc(C(=O)NCCCNC(=O)c2ccc(-c3c4nc(c(-c5ccc(S(=O)(=O)[O-])cc5)c5ccc([nH]5)c(-c5ccc(S(=O)(=O)[O-])cc5)c5nc(c(-c6ccc(S(=O)(=O)[O-])cc6)c6ccc3[nH]6)C=C5)C=C4)cc2)cc(S(=O)(=O)NNC(=O)c2c[nH]c3ccccc23)c1C
REMARK SMILES IDX 8 1 7 2 5 3 6 4 4 6 1 7 2 8 3 9 92 10 75 11 93 12 74 13
REMARK SMILES IDX 76 14 77 15 78 16 79 17 80 19 81 20 82 22 83 23 84 24 91 25
REMARK SMILES IDX 85 26 86 27 90 28 87 30 89 31 88 32 9 33 10 34 11 35 12 36
REMARK SMILES IDX 13 38 14 39 15 40 73 41 16 42 72 43 17 44 18 45 19 46 66 47
REMARK SMILES IDX 20 48 71 49 65 50 67 51 21 52 70 53 64 54 63 55 22 57 52 58
REMARK SMILES IDX 33 59 51 60 34 61 37 62 50 63 68 64 35 65 36 66 49 68 69 69
REMARK SMILES IDX 38 70 23 71 24 72 32 73 25 74 31 75 26 76 27 77 28 78 29 79
REMARK SMILES IDX 30 80 53 81 54 82 62 83 55 84 61 85 56 86 57 87 58 88 59 89
REMARK SMILES IDX 60 90 39 91 40 92 48 93 41 94 47 95 42 96 43 97 44 98 45 99
REMARK SMILES IDX 46 100
REMARK H PARENT 7 5 79 18 80 21 85 29 11 37 67 56 37 67
REMARK Flexibility Score: inf
ROOT
ATOM      1  C   UNL     1      -2.351   3.483   0.655  1.00  0.00     0.118 C 
ENDROOT
BRANCH   1   2
ATOM      2  N   UNL     1      -3.297   2.472   0.209  1.00  0.00    -0.352 N 
ATOM      3  C   UNL     1      -3.184   1.149  -0.138  1.00  0.00     0.251 C 
ATOM      4  O   UNL     1      -4.227   0.550  -0.411  1.00  0.00    -0.269 OA
ATOM      5  H   UNL     1      -4.219   2.810   0.142  1.00  0.00     0.163 HD
BRANCH   3   6
ATOM      6  C   UNL     1      -1.904   0.380  -0.179  1.00  0.00     0.041 A 
ATOM      7  C   UNL     1       1.859   0.912  -0.236  1.00  0.00     0.044 C 
ATOM      8  C   UNL     1       0.537   0.188  -0.239  1.00  0.00    -0.046 A 
ATOM      9  C   UNL     1      -0.639   0.961  -0.264  1.00  0.00     0.017 A 
ATOM     10  C   UNL     1       0.446  -1.219  -0.229  1.00  0.00    -0.028 A 
ATOM     11  C   UNL     1      -0.842  -1.812  -0.271  1.00  0.00     0.088 A 
ATOM     12  C   UNL     1       1.692  -2.072  -0.192  1.00  0.00     0.046 C 
ATOM     13  C   UNL     1      -1.995  -1.023  -0.201  1.00  0.00     0.036 A 
BRANCH  11  14
ATOM     14  S   UNL     1      -0.968  -3.565  -0.575  1.00  0.00     0.257 S 
ATOM     15  O   UNL     1      -0.442  -3.781  -1.920  1.00  0.00    -0.205 OA
ATOM     16  O   UNL     1      -0.418  -4.247   0.559  1.00  0.00    -0.205 OA
BRANCH  14  17
ATOM     17  N   UNL     1      -2.616  -4.003  -0.590  1.00  0.00    -0.123 NA
ATOM     18  H   UNL     1      -3.061  -3.493   0.173  1.00  0.00     0.167 HD
BRANCH  17  19
ATOM     19  N   UNL     1      -3.436  -3.770  -1.789  1.00  0.00    -0.273 N 
ATOM     20  C   UNL     1      -4.376  -4.714  -2.180  1.00  0.00     0.268 C 
ATOM     21  H   UNL     1      -3.319  -2.946  -2.314  1.00  0.00     0.186 HD
ATOM     22  O   UNL     1      -5.577  -4.548  -1.995  1.00  0.00    -0.268 OA
BRANCH  20  23
ATOM     23  C   UNL     1      -3.839  -5.724  -3.093  1.00  0.00     0.066 A 
ATOM     24  C   UNL     1      -2.504  -5.890  -3.423  1.00  0.00     0.097 A 
ATOM     25  C   UNL     1      -4.553  -6.602  -3.975  1.00  0.00     0.012 A 
ATOM     26  N   UNL     1      -2.475  -6.325  -4.719  1.00  0.00    -0.360 N 
ATOM     27  C   UNL     1      -3.719  -6.774  -5.082  1.00  0.00     0.046 A 
ATOM     28  C   UNL     1      -5.852  -7.146  -4.032  1.00  0.00     0.011 A 
ATOM     29  H   UNL     1      -1.682  -6.318  -5.302  1.00  0.00     0.166 HD
ATOM     30  C   UNL     1      -4.168  -7.286  -6.301  1.00  0.00     0.027 A 
ATOM     31  C   UNL     1      -6.273  -7.793  -5.204  1.00  0.00     0.001 A 
ATOM     32  C   UNL     1      -5.463  -7.806  -6.338  1.00  0.00     0.002 A 
ENDBRANCH  20  23
ENDBRANCH  17  19
ENDBRANCH  14  17
ENDBRANCH  11  14
ENDBRANCH   3   6
ENDBRANCH   1   2
BRANCH   1  33
ATOM     33  C   UNL     1      -1.910   4.396  -0.493  1.00  0.00     0.042 C 
BRANCH  33  34
ATOM     34  C   UNL     1      -2.944   5.463  -0.862  1.00  0.00     0.118 C 
BRANCH  34  35
ATOM     35  N   UNL     1      -3.067   6.486   0.167  1.00  0.00    -0.352 N 
ATOM     36  C   UNL     1      -3.000   7.855   0.075  1.00  0.00     0.251 C 
ATOM     37  H   UNL     1      -3.222   6.141   1.076  1.00  0.00     0.163 HD
ATOM     38  O   UNL     1      -2.935   8.516   1.109  1.00  0.00    -0.269 OA
BRANCH  36  39
ATOM     39  C   UNL     1      -2.993   8.540  -1.239  1.00  0.00     0.039 A 
ATOM     40  C   UNL     1      -2.172   9.661  -1.405  1.00  0.00     0.014 A 
ATOM     41  C   UNL     1      -3.827   8.132  -2.283  1.00  0.00     0.014 A 
ATOM     42  C   UNL     1      -2.147  10.338  -2.628  1.00  0.00     0.010 A 
ATOM     43  C   UNL     1      -3.758   8.772  -3.522  1.00  0.00     0.010 A 
ATOM     44  C   UNL     1      -2.920   9.882  -3.708  1.00  0.00    -0.014 A 
BRANCH  44  45
ATOM     45  C   UNL     1      -2.858  10.547  -5.036  1.00  0.00     0.031 A 
ATOM     46  C   UNL     1      -4.071  11.241  -5.598  1.00  0.00     0.074 A 
ATOM     47  C   UNL     1      -1.729  10.469  -5.768  1.00  0.00     0.049 A 
ATOM     48  N   UNL     1      -4.230  11.805  -6.769  1.00  0.00    -0.248 NA
ATOM     49  C   UNL     1      -5.266  11.290  -4.741  1.00  0.00     0.031 C 
ATOM     50  C   UNL     1      -0.495   9.798  -5.351  1.00  0.00     0.029 A 
ATOM     51  N   UNL     1      -1.439  10.947  -7.022  1.00  0.00    -0.354 N 
ATOM     52  C   UNL     1      -5.545  12.255  -6.799  1.00  0.00     0.074 A 
ATOM     53  C   UNL     1      -6.151  11.865  -5.544  1.00  0.00     0.031 C 
ATOM     54  C   UNL     1       0.423   9.923  -6.323  1.00  0.00     0.029 A 
ATOM     55  C   UNL     1      -0.166  10.645  -7.447  1.00  0.00     0.049 A 
ATOM     56  H   UNL     1      -2.081  11.458  -7.565  1.00  0.00     0.167 HD
ATOM     57  C   UNL     1      -6.187  12.942  -7.775  1.00  0.00     0.031 A 
ATOM     58  C   UNL     1       0.456  10.908  -8.612  1.00  0.00     0.031 A 
ATOM     59  C   UNL     1      -5.579  13.339  -9.018  1.00  0.00     0.049 A 
ATOM     60  C   UNL     1      -0.277  11.668  -9.683  1.00  0.00     0.074 A 
ATOM     61  C   UNL     1      -6.131  14.082 -10.047  1.00  0.00     0.029 A 
ATOM     62  N   UNL     1      -4.283  13.028  -9.401  1.00  0.00    -0.354 N 
ATOM     63  N   UNL     1      -1.505  12.130  -9.669  1.00  0.00    -0.248 NA
ATOM     64  C   UNL     1       0.462  11.951 -10.921  1.00  0.00     0.031 C 
ATOM     65  C   UNL     1      -5.184  14.182 -11.072  1.00  0.00     0.029 A 
ATOM     66  C   UNL     1      -4.023  13.547 -10.659  1.00  0.00     0.049 A 
ATOM     67  H   UNL     1      -3.642  12.513  -8.859  1.00  0.00     0.167 HD
ATOM     68  C   UNL     1      -1.676  12.782 -10.886  1.00  0.00     0.074 A 
ATOM     69  C   UNL     1      -0.424  12.664 -11.604  1.00  0.00     0.031 C 
ATOM     70  C   UNL     1      -2.772  13.422 -11.362  1.00  0.00     0.031 A 
BRANCH  57  71
ATOM     71  C   UNL     1      -7.631  13.301  -7.539  1.00  0.00    -0.014 A 
ATOM     72  C   UNL     1      -7.992  14.277  -6.592  1.00  0.00     0.010 A 
ATOM     73  C   UNL     1      -8.639  12.683  -8.301  1.00  0.00     0.010 A 
ATOM     74  C   UNL     1      -9.335  14.594  -6.378  1.00  0.00     0.020 A 
ATOM     75  C   UNL     1      -9.984  13.018  -8.110  1.00  0.00     0.020 A 
ATOM     76  C   UNL     1     -10.324  13.958  -7.136  1.00  0.00     0.054 A 
BRANCH  76  77
ATOM     77  S   UNL     1     -12.060  14.400  -6.848  1.00  0.00     0.124 S 
ATOM     78  O   UNL     1     -12.331  13.736  -5.575  1.00  0.00    -0.237 OA
ATOM     79  O   UNL     1     -12.017  15.859  -6.797  1.00  0.00    -0.237 OA
ATOM     80  O   UNL     1     -12.757  13.839  -8.003  1.00  0.00    -0.744 OA
ENDBRANCH  76  77
ENDBRANCH  57  71
BRANCH  58  81
ATOM     81  C   UNL     1       1.859  10.458  -8.821  1.00  0.00    -0.014 A 
ATOM     82  C   UNL     1       2.912  11.390  -8.834  1.00  0.00     0.010 A 
ATOM     83  C   UNL     1       2.152   9.092  -8.986  1.00  0.00     0.010 A 
ATOM     84  C   UNL     1       4.230  10.967  -9.024  1.00  0.00     0.020 A 
ATOM     85  C   UNL     1       3.472   8.662  -9.150  1.00  0.00     0.020 A 
ATOM     86  C   UNL     1       4.503   9.605  -9.178  1.00  0.00     0.054 A 
BRANCH  86  87
ATOM     87  S   UNL     1       6.227   9.071  -9.363  1.00  0.00     0.124 S 
ATOM     88  O   UNL     1       6.518   9.455 -10.740  1.00  0.00    -0.237 OA
ATOM     89  O   UNL     1       6.910   9.847  -8.331  1.00  0.00    -0.237 OA
ATOM     90  O   UNL     1       6.167   7.633  -9.111  1.00  0.00    -0.744 OA
ENDBRANCH  86  87
ENDBRANCH  58  81
BRANCH  70  91
ATOM     91  C   UNL     1      -2.658  14.077 -12.712  1.00  0.00    -0.014 A 
ATOM     92  C   UNL     1      -2.633  13.315 -13.893  1.00  0.00     0.010 A 
ATOM     93  C   UNL     1      -2.631  15.481 -12.801  1.00  0.00     0.010 A 
ATOM     94  C   UNL     1      -2.553  13.945 -15.138  1.00  0.00     0.020 A 
ATOM     95  C   UNL     1      -2.577  16.115 -14.044  1.00  0.00     0.020 A 
ATOM     96  C   UNL     1      -2.525  15.342 -15.206  1.00  0.00     0.054 A 
BRANCH  96  97
ATOM     97  S   UNL     1      -2.467  16.138 -16.835  1.00  0.00     0.124 S 
ATOM     98  O   UNL     1      -1.078  15.920 -17.230  1.00  0.00    -0.237 OA
ATOM     99  O   UNL     1      -3.462  15.386 -17.596  1.00  0.00    -0.237 OA
ATOM    100  O   UNL     1      -2.825  17.526 -16.554  1.00  0.00    -0.744 OA
ENDBRANCH  96  97
ENDBRANCH  70  91
ENDBRANCH  44  45
ENDBRANCH  36  39
ENDBRANCH  34  35
ENDBRANCH  33  34
ENDBRANCH   1  33
TORSDOF 17
