REMARK SMILES Cc1cc([C@@H]([NH3+])C[C@H](C)CC(=O)NCCCNC(=O)c2ccc(-c3c4nc(c(-c5ccc(S(=O)(=O)[O-])cc5)c5ccc([nH]5)c(-c5ccc(S(=O)(=O)[O-])cc5)c5nc(c(-c6ccc(S(=O)(=O)[O-])cc6)c6ccc3[nH]6)C=C5)C=C4)cc2)ccc1F
REMARK SMILES IDX 14 1 13 2 11 3 12 4 10 6 8 7 9 8 7 9 5 10 4 11 1 12 2 13
REMARK SMILES IDX 3 14 82 15 81 16 83 17 80 18 6 19 15 23 16 24 17 25 18 26
REMARK SMILES IDX 19 28 20 29 21 30 79 31 22 32 78 33 23 34 24 35 25 36 72 37
REMARK SMILES IDX 26 38 77 39 71 40 73 41 27 42 76 43 70 44 69 45 28 47 58 48
REMARK SMILES IDX 39 49 57 50 40 51 43 52 56 53 74 54 41 55 42 56 55 58 75 59
REMARK SMILES IDX 44 60 29 61 30 62 38 63 31 64 37 65 32 66 33 67 34 68 35 69
REMARK SMILES IDX 36 70 59 71 60 72 68 73 61 74 67 75 62 76 63 77 64 78 65 79
REMARK SMILES IDX 66 80 45 81 46 82 54 83 47 84 53 85 48 86 49 87 50 88 51 89
REMARK SMILES IDX 52 90
REMARK H PARENT 13 5 6 20 6 21 6 22 17 27 73 46 43 57
REMARK Flexibility Score: inf
ROOT
ATOM      1  C   UNL     1      -6.066  -1.463   2.075  1.00  0.00     0.117 C 
ENDROOT
BRANCH   1   2
ATOM      2  N   UNL     1      -5.069  -1.672   3.113  1.00  0.00    -0.356 N 
ATOM      3  C   UNL     1      -4.342  -0.762   3.825  1.00  0.00     0.220 C 
ATOM      4  O   UNL     1      -3.547  -1.180   4.668  1.00  0.00    -0.275 OA
ATOM      5  H   UNL     1      -4.891  -2.614   3.336  1.00  0.00     0.163 HD
BRANCH   3   6
ATOM      6  C   UNL     1      -4.520   0.733   3.592  1.00  0.00     0.103 C 
BRANCH   6   7
ATOM      7  C   UNL     1      -3.923   1.196   2.246  1.00  0.00     0.001 C 
ATOM      8  C   UNL     1      -5.032   1.729   1.314  1.00  0.00     0.008 C 
BRANCH   7   9
ATOM      9  C   UNL     1      -2.804   2.260   2.415  1.00  0.00     0.074 C 
BRANCH   9  10
ATOM     10  C   UNL     1      -1.689   2.216   1.331  1.00  0.00     0.212 C 
BRANCH  10  11
ATOM     11  C   UNL     1      -2.198   2.057  -0.091  1.00  0.00     0.010 A 
ATOM     12  C   UNL     1      -2.903  -0.825  -2.508  1.00  0.00     0.047 C 
ATOM     13  C   UNL     1      -2.820   0.550  -1.918  1.00  0.00    -0.015 A 
ATOM     14  C   UNL     1      -2.214   0.774  -0.676  1.00  0.00     0.016 A 
ATOM     15  C   UNL     1      -3.368   1.638  -2.597  1.00  0.00     0.126 A 
ATOM     16  C   UNL     1      -3.320   2.922  -2.064  1.00  0.00     0.040 A 
ATOM     17  F   UNL     1      -3.981   1.446  -3.774  1.00  0.00    -0.207 F 
ATOM     18  C   UNL     1      -2.739   3.133  -0.812  1.00  0.00     0.013 A 
ENDBRANCH  10  11
BRANCH  10  19
ATOM     19  N   UNL     1      -0.845   3.409   1.468  1.00  0.00    -0.351 N 
ATOM     20  H   UNL     1      -1.405   4.243   1.297  1.00  0.00     0.345 HD
ATOM     21  H   UNL     1      -0.084   3.366   0.790  1.00  0.00     0.345 HD
ATOM     22  H   UNL     1      -0.459   3.445   2.411  1.00  0.00     0.345 HD
ENDBRANCH  10  19
ENDBRANCH   9  10
ENDBRANCH   7   9
ENDBRANCH   6   7
ENDBRANCH   3   6
ENDBRANCH   1   2
BRANCH   1  23
ATOM     23  C   UNL     1      -5.488  -1.642   0.671  1.00  0.00     0.042 C 
BRANCH  23  24
ATOM     24  C   UNL     1      -5.395  -3.096   0.220  1.00  0.00     0.118 C 
BRANCH  24  25
ATOM     25  N   UNL     1      -6.691  -3.630  -0.167  1.00  0.00    -0.352 N 
ATOM     26  C   UNL     1      -7.149  -4.077  -1.384  1.00  0.00     0.251 C 
ATOM     27  H   UNL     1      -7.350  -3.681   0.564  1.00  0.00     0.163 HD
ATOM     28  O   UNL     1      -8.354  -4.274  -1.524  1.00  0.00    -0.269 OA
BRANCH  26  29
ATOM     29  C   UNL     1      -6.229  -4.316  -2.524  1.00  0.00     0.039 A 
ATOM     30  C   UNL     1      -6.679  -4.034  -3.819  1.00  0.00     0.014 A 
ATOM     31  C   UNL     1      -4.963  -4.883  -2.348  1.00  0.00     0.014 A 
ATOM     32  C   UNL     1      -5.851  -4.273  -4.921  1.00  0.00     0.010 A 
ATOM     33  C   UNL     1      -4.110  -5.052  -3.440  1.00  0.00     0.010 A 
ATOM     34  C   UNL     1      -4.548  -4.761  -4.741  1.00  0.00    -0.014 A 
BRANCH  34  35
ATOM     35  C   UNL     1      -3.638  -4.989  -5.896  1.00  0.00     0.031 A 
ATOM     36  C   UNL     1      -3.155  -6.380  -6.223  1.00  0.00     0.074 A 
ATOM     37  C   UNL     1      -3.196  -3.941  -6.619  1.00  0.00     0.049 A 
ATOM     38  N   UNL     1      -2.301  -6.764  -7.137  1.00  0.00    -0.248 NA
ATOM     39  C   UNL     1      -3.683  -7.478  -5.398  1.00  0.00     0.031 C 
ATOM     40  C   UNL     1      -3.561  -2.540  -6.393  1.00  0.00     0.029 A 
ATOM     41  N   UNL     1      -2.337  -3.890  -7.689  1.00  0.00    -0.354 N 
ATOM     42  C   UNL     1      -2.171  -8.140  -6.983  1.00  0.00     0.074 A 
ATOM     43  C   UNL     1      -3.003  -8.517  -5.861  1.00  0.00     0.031 C 
ATOM     44  C   UNL     1      -2.949  -1.772  -7.309  1.00  0.00     0.029 A 
ATOM     45  C   UNL     1      -2.118  -2.617  -8.162  1.00  0.00     0.049 A 
ATOM     46  H   UNL     1      -1.917  -4.689  -8.081  1.00  0.00     0.167 HD
ATOM     47  C   UNL     1      -1.439  -9.014  -7.715  1.00  0.00     0.031 A 
ATOM     48  C   UNL     1      -1.332  -2.175  -9.163  1.00  0.00     0.031 A 
ATOM     49  C   UNL     1      -0.627  -8.644  -8.845  1.00  0.00     0.049 A 
ATOM     50  C   UNL     1      -0.528  -3.163  -9.963  1.00  0.00     0.074 A 
ATOM     51  C   UNL     1       0.107  -9.465  -9.683  1.00  0.00     0.029 A 
ATOM     52  N   UNL     1      -0.445  -7.346  -9.297  1.00  0.00    -0.354 N 
ATOM     53  N   UNL     1      -0.459  -4.466  -9.831  1.00  0.00    -0.248 NA
ATOM     54  C   UNL     1       0.297  -2.622 -11.052  1.00  0.00     0.031 C 
ATOM     55  C   UNL     1       0.768  -8.659 -10.617  1.00  0.00     0.029 A 
ATOM     56  C   UNL     1       0.405  -7.341 -10.390  1.00  0.00     0.049 A 
ATOM     57  H   UNL     1      -0.859  -6.546  -8.900  1.00  0.00     0.167 HD
ATOM     58  C   UNL     1       0.400  -4.903 -10.834  1.00  0.00     0.074 A 
ATOM     59  C   UNL     1       0.813  -3.728 -11.573  1.00  0.00     0.031 C 
ATOM     60  C   UNL     1       0.808  -6.164 -11.117  1.00  0.00     0.031 A 
BRANCH  47  61
ATOM     61  C   UNL     1      -1.477 -10.465  -7.311  1.00  0.00    -0.014 A 
ATOM     62  C   UNL     1      -2.630 -11.246  -7.513  1.00  0.00     0.010 A 
ATOM     63  C   UNL     1      -0.334 -11.067  -6.753  1.00  0.00     0.010 A 
ATOM     64  C   UNL     1      -2.655 -12.587  -7.122  1.00  0.00     0.020 A 
ATOM     65  C   UNL     1      -0.346 -12.416  -6.386  1.00  0.00     0.020 A 
ATOM     66  C   UNL     1      -1.514 -13.162  -6.555  1.00  0.00     0.054 A 
BRANCH  66  67
ATOM     67  S   UNL     1      -1.569 -14.909  -6.067  1.00  0.00     0.124 S 
ATOM     68  O   UNL     1      -2.372 -14.854  -4.848  1.00  0.00    -0.237 OA
ATOM     69  O   UNL     1      -2.213 -15.544  -7.214  1.00  0.00    -0.237 OA
ATOM     70  O   UNL     1      -0.164 -15.259  -5.873  1.00  0.00    -0.744 OA
ENDBRANCH  66  67
ENDBRANCH  47  61
BRANCH  48  71
ATOM     71  C   UNL     1      -1.277  -0.720  -9.475  1.00  0.00    -0.014 A 
ATOM     72  C   UNL     1      -1.879  -0.219 -10.642  1.00  0.00     0.010 A 
ATOM     73  C   UNL     1      -0.638   0.174  -8.597  1.00  0.00     0.010 A 
ATOM     74  C   UNL     1      -1.830   1.147 -10.935  1.00  0.00     0.020 A 
ATOM     75  C   UNL     1      -0.609   1.544  -8.873  1.00  0.00     0.020 A 
ATOM     76  C   UNL     1      -1.196   2.021 -10.047  1.00  0.00     0.054 A 
BRANCH  76  77
ATOM     77  S   UNL     1      -1.190   3.797 -10.420  1.00  0.00     0.124 S 
ATOM     78  O   UNL     1      -0.188   3.881 -11.477  1.00  0.00    -0.237 OA
ATOM     79  O   UNL     1      -2.570   4.039 -10.835  1.00  0.00    -0.237 OA
ATOM     80  O   UNL     1      -0.813   4.411  -9.149  1.00  0.00    -0.744 OA
ENDBRANCH  76  77
ENDBRANCH  48  71
BRANCH  60  81
ATOM     81  C   UNL     1       1.729  -6.348 -12.293  1.00  0.00    -0.014 A 
ATOM     82  C   UNL     1       3.082  -5.976 -12.222  1.00  0.00     0.010 A 
ATOM     83  C   UNL     1       1.245  -6.958 -13.465  1.00  0.00     0.010 A 
ATOM     84  C   UNL     1       3.930  -6.187 -13.313  1.00  0.00     0.020 A 
ATOM     85  C   UNL     1       2.095  -7.193 -14.548  1.00  0.00     0.020 A 
ATOM     86  C   UNL     1       3.431  -6.795 -14.470  1.00  0.00     0.054 A 
BRANCH  86  87
ATOM     87  S   UNL     1       4.563  -7.105 -15.853  1.00  0.00     0.124 S 
ATOM     88  O   UNL     1       4.717  -5.771 -16.425  1.00  0.00    -0.237 OA
ATOM     89  O   UNL     1       5.747  -7.644 -15.186  1.00  0.00    -0.237 OA
ATOM     90  O   UNL     1       3.837  -8.061 -16.686  1.00  0.00    -0.744 OA
ENDBRANCH  86  87
ENDBRANCH  60  81
ENDBRANCH  34  35
ENDBRANCH  26  29
ENDBRANCH  24  25
ENDBRANCH  23  24
ENDBRANCH   1  23
TORSDOF 18
