REMARK SMILES O=C(NCCCNC(=O)c1ccc2nc(Cl)sc2c1)c1ccc(-c2c3nc(c(-c4ccc(S(=O)(=O)[O-])cc4)c4ccc([nH]4)c(-c4ccc(S(=O)(=O)[O-])cc4)c4nc(c(-c5ccc(S(=O)(=O)[O-])cc5)c5ccc2[nH]5)C=C4)C=C3)cc1
REMARK SMILES IDX 1 1 2 2 3 3 20 5 21 6 79 7 22 8 78 9 23 10 24 11 25 12 72 13
REMARK SMILES IDX 26 14 77 15 71 16 73 17 27 18 76 19 70 20 69 21 28 23 58 24
REMARK SMILES IDX 39 25 57 26 40 27 43 28 56 29 74 30 41 31 42 32 55 34 75 35
REMARK SMILES IDX 44 36 29 37 30 38 38 39 31 40 37 41 32 42 33 43 34 44 35 45
REMARK SMILES IDX 36 46 59 47 60 48 68 49 61 50 67 51 62 52 63 53 64 54 65 55
REMARK SMILES IDX 66 56 45 57 46 58 54 59 47 60 53 61 48 62 49 63 50 64 51 65
REMARK SMILES IDX 52 66 4 67 5 68 6 69 7 70 8 71 9 73 10 74 11 75 19 76 12 77
REMARK SMILES IDX 18 78 13 79 17 80 14 81 15 82 16 83
REMARK H PARENT 3 4 73 22 43 33 7 72
REMARK Flexibility Score: inf
ROOT
ATOM      1  O   UNL     1       1.030  -0.488  -0.352  1.00  0.00    -0.269 OA
ATOM      2  C   UNL     1       2.148  -0.309   0.134  1.00  0.00     0.251 C 
ATOM      3  N   UNL     1       2.971   0.580  -0.502  1.00  0.00    -0.352 N 
ATOM      4  H   UNL     1       2.510   1.149  -1.161  1.00  0.00     0.163 HD
ENDROOT
BRANCH   2   5
ATOM      5  C   UNL     1       2.530  -1.048   1.363  1.00  0.00     0.039 A 
ATOM      6  C   UNL     1       1.925  -2.296   1.572  1.00  0.00     0.014 A 
ATOM      7  C   UNL     1       3.336  -0.503   2.366  1.00  0.00     0.014 A 
ATOM      8  C   UNL     1       2.142  -3.004   2.755  1.00  0.00     0.010 A 
ATOM      9  C   UNL     1       3.561  -1.219   3.550  1.00  0.00     0.010 A 
ATOM     10  C   UNL     1       2.971  -2.475   3.751  1.00  0.00    -0.014 A 
BRANCH  10  11
ATOM     11  C   UNL     1       3.244  -3.305   4.945  1.00  0.00     0.031 A 
ATOM     12  C   UNL     1       4.679  -3.437   5.331  1.00  0.00     0.074 A 
ATOM     13  C   UNL     1       2.323  -3.509   5.912  1.00  0.00     0.049 A 
ATOM     14  N   UNL     1       5.320  -2.483   5.942  1.00  0.00    -0.248 NA
ATOM     15  C   UNL     1       5.537  -4.531   4.879  1.00  0.00     0.031 C 
ATOM     16  C   UNL     1       1.235  -2.568   6.212  1.00  0.00     0.029 A 
ATOM     17  N   UNL     1       2.285  -4.407   6.952  1.00  0.00    -0.354 N 
ATOM     18  C   UNL     1       6.660  -2.816   5.935  1.00  0.00     0.074 A 
ATOM     19  C   UNL     1       6.747  -4.098   5.268  1.00  0.00     0.031 C 
ATOM     20  C   UNL     1       0.771  -2.825   7.453  1.00  0.00     0.029 A 
ATOM     21  C   UNL     1       1.397  -4.041   7.962  1.00  0.00     0.049 A 
ATOM     22  H   UNL     1       2.831  -5.226   6.981  1.00  0.00     0.167 HD
ATOM     23  C   UNL     1       7.618  -2.021   6.481  1.00  0.00     0.031 A 
ATOM     24  C   UNL     1       1.537  -4.345   9.283  1.00  0.00     0.031 A 
ATOM     25  C   UNL     1       7.135  -0.828   7.115  1.00  0.00     0.049 A 
ATOM     26  C   UNL     1       2.752  -3.524   9.641  1.00  0.00     0.074 A 
ATOM     27  C   UNL     1       6.890   0.481   6.758  1.00  0.00     0.029 A 
ATOM     28  N   UNL     1       6.665  -0.923   8.405  1.00  0.00    -0.354 N 
ATOM     29  N   UNL     1       2.772  -2.240   9.880  1.00  0.00    -0.248 NA
ATOM     30  C   UNL     1       4.067  -4.114   9.380  1.00  0.00     0.031 C 
ATOM     31  C   UNL     1       5.890   0.947   7.670  1.00  0.00     0.029 A 
ATOM     32  C   UNL     1       5.546  -0.130   8.485  1.00  0.00     0.049 A 
ATOM     33  H   UNL     1       7.057  -1.459   9.132  1.00  0.00     0.167 HD
ATOM     34  C   UNL     1       4.045  -1.810   9.503  1.00  0.00     0.074 A 
ATOM     35  C   UNL     1       4.798  -3.018   9.227  1.00  0.00     0.031 C 
ATOM     36  C   UNL     1       4.372  -0.507   9.250  1.00  0.00     0.031 A 
BRANCH  23  37
ATOM     37  C   UNL     1       9.046  -2.395   6.569  1.00  0.00    -0.014 A 
ATOM     38  C   UNL     1       9.926  -2.230   5.490  1.00  0.00     0.010 A 
ATOM     39  C   UNL     1       9.554  -2.792   7.818  1.00  0.00     0.010 A 
ATOM     40  C   UNL     1      11.300  -2.433   5.670  1.00  0.00     0.020 A 
ATOM     41  C   UNL     1      10.921  -2.989   8.005  1.00  0.00     0.020 A 
ATOM     42  C   UNL     1      11.789  -2.800   6.930  1.00  0.00     0.054 A 
BRANCH  42  43
ATOM     43  S   UNL     1      13.579  -2.977   7.165  1.00  0.00     0.124 S 
ATOM     44  O   UNL     1      13.883  -4.131   6.324  1.00  0.00    -0.237 OA
ATOM     45  O   UNL     1      14.087  -1.695   6.683  1.00  0.00    -0.237 OA
ATOM     46  O   UNL     1      13.720  -3.199   8.602  1.00  0.00    -0.744 OA
ENDBRANCH  42  43
ENDBRANCH  23  37
BRANCH  24  47
ATOM     47  C   UNL     1       1.421  -5.808   9.606  1.00  0.00    -0.014 A 
ATOM     48  C   UNL     1       2.356  -6.546  10.351  1.00  0.00     0.010 A 
ATOM     49  C   UNL     1       0.304  -6.506   9.094  1.00  0.00     0.010 A 
ATOM     50  C   UNL     1       2.296  -7.947  10.393  1.00  0.00     0.020 A 
ATOM     51  C   UNL     1       0.217  -7.900   9.159  1.00  0.00     0.020 A 
ATOM     52  C   UNL     1       1.252  -8.615   9.753  1.00  0.00     0.054 A 
BRANCH  52  53
ATOM     53  S   UNL     1       1.301 -10.424   9.646  1.00  0.00     0.124 S 
ATOM     54  O   UNL     1       2.432 -10.637   8.745  1.00  0.00    -0.237 OA
ATOM     55  O   UNL     1       1.515 -10.820  11.034  1.00  0.00    -0.237 OA
ATOM     56  O   UNL     1      -0.006 -10.774   9.094  1.00  0.00    -0.744 OA
ENDBRANCH  52  53
ENDBRANCH  24  47
BRANCH  36  57
ATOM     57  C   UNL     1       3.344   0.531   9.589  1.00  0.00    -0.014 A 
ATOM     58  C   UNL     1       2.782   1.347   8.589  1.00  0.00     0.010 A 
ATOM     59  C   UNL     1       3.002   0.774  10.930  1.00  0.00     0.010 A 
ATOM     60  C   UNL     1       1.979   2.439   8.926  1.00  0.00     0.020 A 
ATOM     61  C   UNL     1       2.179   1.851  11.273  1.00  0.00     0.020 A 
ATOM     62  C   UNL     1       1.704   2.700  10.271  1.00  0.00     0.054 A 
BRANCH  62  63
ATOM     63  S   UNL     1       0.756   4.186  10.691  1.00  0.00     0.124 S 
ATOM     64  O   UNL     1       1.676   5.257  10.311  1.00  0.00    -0.237 OA
ATOM     65  O   UNL     1      -0.434   4.058   9.852  1.00  0.00    -0.237 OA
ATOM     66  O   UNL     1       0.517   4.057  12.127  1.00  0.00    -0.744 OA
ENDBRANCH  62  63
ENDBRANCH  36  57
ENDBRANCH  10  11
ENDBRANCH   2   5
BRANCH   3  67
ATOM     67  C   UNL     1       4.395   0.846  -0.389  1.00  0.00     0.118 C 
BRANCH  67  68
ATOM     68  C   UNL     1       5.050   0.990  -1.769  1.00  0.00     0.042 C 
BRANCH  68  69
ATOM     69  C   UNL     1       4.537   2.154  -2.624  1.00  0.00     0.118 C 
BRANCH  69  70
ATOM     70  N   UNL     1       4.984   3.454  -2.150  1.00  0.00    -0.352 N 
ATOM     71  C   UNL     1       5.727   4.411  -2.790  1.00  0.00     0.251 C 
ATOM     72  H   UNL     1       4.711   3.681  -1.231  1.00  0.00     0.163 HD
ATOM     73  O   UNL     1       6.103   5.417  -2.186  1.00  0.00    -0.269 OA
BRANCH  71  74
ATOM     74  C   UNL     1       6.112   4.253  -4.207  1.00  0.00     0.041 A 
ATOM     75  C   UNL     1       5.150   4.053  -5.198  1.00  0.00     0.016 A 
ATOM     76  C   UNL     1       7.469   4.389  -4.535  1.00  0.00     0.035 A 
ATOM     77  C   UNL     1       5.535   3.920  -6.538  1.00  0.00     0.031 A 
ATOM     78  C   UNL     1       7.839   4.254  -5.882  1.00  0.00     0.057 A 
ATOM     79  C   UNL     1       6.898   4.013  -6.890  1.00  0.00     0.083 A 
ATOM     80  S   UNL     1       9.409   4.342  -6.593  1.00  0.00    -0.102 S 
ATOM     81  N   UNL     1       7.415   3.891  -8.170  1.00  0.00    -0.225 NA
ATOM     82  C   UNL     1       8.713   4.041  -8.109  1.00  0.00     0.184 A 
ATOM     83  Cl  UNL     1       9.711   3.944  -9.503  1.00  0.00    -0.050 Cl
ENDBRANCH  71  74
ENDBRANCH  69  70
ENDBRANCH  68  69
ENDBRANCH  67  68
ENDBRANCH   3  67
TORSDOF 13
