REMARK SMILES COc1cccc(-c2c(C(=O)NCCCNC(=O)c3ccc(-c4c5nc(c(-c6ccc(S(=O)(=O)[O-])cc6)c6ccc([nH]6)c(-c6ccc(S(=O)(=O)[O-])cc6)c6nc(c(-c7ccc(S(=O)(=O)[O-])cc7)c7ccc4[nH]7)C=C6)C=C5)cc3)nnn2-c2ccc(OC(F)(F)F)cc2)c1
REMARK SMILES IDX 14 1 13 2 12 3 10 4 11 5 9 7 8 8 81 9 79 10 80 11 7 12 3 13
REMARK SMILES IDX 4 14 93 15 5 16 6 17 2 18 1 19 82 20 83 21 92 22 84 23 91 24
REMARK SMILES IDX 85 25 86 26 87 27 88 28 89 29 90 30 15 31 16 32 17 33 18 35
REMARK SMILES IDX 19 36 20 37 78 38 21 39 77 40 22 41 23 42 24 43 71 44 25 45
REMARK SMILES IDX 76 46 70 47 72 48 26 49 75 50 69 51 68 52 27 54 57 55 38 56
REMARK SMILES IDX 56 57 39 58 42 59 55 60 73 61 40 62 41 63 54 65 74 66 43 67
REMARK SMILES IDX 28 68 29 69 37 70 30 71 36 72 31 73 32 74 33 75 34 76 35 77
REMARK SMILES IDX 58 78 59 79 67 80 60 81 66 82 61 83 62 84 63 85 64 86 65 87
REMARK SMILES IDX 44 88 45 89 53 90 46 91 52 92 47 93 48 94 49 95 50 96 51 97
REMARK H PARENT 12 6 16 34 72 53 42 64
REMARK Flexibility Score: inf
ROOT
ATOM      1  C   UNL     1       1.274   4.753   0.589  1.00  0.00     0.042 C 
ENDROOT
BRANCH   1   2
ATOM      2  C   UNL     1       1.869   5.997  -0.067  1.00  0.00     0.118 C 
BRANCH   2   3
ATOM      3  N   UNL     1       3.191   6.317   0.407  1.00  0.00    -0.351 N 
ATOM      4  C   UNL     1       4.453   5.928   0.045  1.00  0.00     0.274 C 
ATOM      5  O   UNL     1       5.343   6.593   0.587  1.00  0.00    -0.267 OA
ATOM      6  H   UNL     1       3.186   6.955   1.157  1.00  0.00     0.163 HD
BRANCH   4   7
ATOM      7  C   UNL     1       4.812   4.839  -0.875  1.00  0.00     0.178 A 
ATOM      8  C   UNL     1       4.159   3.928  -1.712  1.00  0.00     0.108 A 
ATOM      9  N   UNL     1       5.209   3.183  -2.261  1.00  0.00    -0.212 N 
ATOM     10  N   UNL     1       6.171   4.539  -0.917  1.00  0.00    -0.124 NA
ATOM     11  N   UNL     1       6.371   3.475  -1.667  1.00  0.00    -0.061 NA
BRANCH   8  12
ATOM     12  C   UNL     1       2.774   3.513  -1.952  1.00  0.00     0.006 A 
ATOM     13  C   UNL     1       1.006   1.862  -1.616  1.00  0.00     0.119 A 
ATOM     14  C   UNL     1       0.163   2.620  -2.433  1.00  0.00     0.046 A 
ATOM     15  C   UNL     1       2.309   2.308  -1.381  1.00  0.00     0.056 A 
ATOM     16  C   UNL     1       0.620   3.796  -3.031  1.00  0.00     0.005 A 
ATOM     17  C   UNL     1       1.932   4.224  -2.818  1.00  0.00     0.011 A 
BRANCH  13  18
ATOM     18  O   UNL     1       0.447   0.719  -1.119  1.00  0.00    -0.497 OA
ATOM     19  C   UNL     1       1.046   0.161   0.045  1.00  0.00     0.278 C 
ENDBRANCH  13  18
ENDBRANCH   8  12
BRANCH   9  20
ATOM     20  C   UNL     1       5.130   2.163  -3.234  1.00  0.00     0.067 A 
ATOM     21  C   UNL     1       5.809   0.961  -3.033  1.00  0.00     0.032 A 
ATOM     22  C   UNL     1       4.313   2.334  -4.355  1.00  0.00     0.032 A 
ATOM     23  C   UNL     1       5.577  -0.102  -3.910  1.00  0.00     0.049 A 
ATOM     24  C   UNL     1       4.108   1.278  -5.238  1.00  0.00     0.049 A 
ATOM     25  C   UNL     1       4.714   0.044  -5.004  1.00  0.00     0.129 A 
BRANCH  25  26
ATOM     26  O   UNL     1       4.546  -1.083  -5.757  1.00  0.00    -0.406 OA
BRANCH  26  27
ATOM     27  C   UNL     1       3.630  -1.009  -6.837  1.00  0.00     0.573 C 
ATOM     28  F   UNL     1       2.391  -0.675  -6.415  1.00  0.00    -0.132 F 
ATOM     29  F   UNL     1       4.045  -0.118  -7.764  1.00  0.00    -0.132 F 
ATOM     30  F   UNL     1       3.556  -2.222  -7.429  1.00  0.00    -0.132 F 
ENDBRANCH  26  27
ENDBRANCH  25  26
ENDBRANCH   9  20
ENDBRANCH   4   7
ENDBRANCH   2   3
ENDBRANCH   1   2
BRANCH   1  31
ATOM     31  C   UNL     1       0.088   5.051   1.480  1.00  0.00     0.118 C 
BRANCH  31  32
ATOM     32  N   UNL     1      -1.066   5.561   0.709  1.00  0.00    -0.352 N 
ATOM     33  C   UNL     1      -2.180   6.257   1.152  1.00  0.00     0.251 C 
ATOM     34  H   UNL     1      -1.040   5.379  -0.258  1.00  0.00     0.163 HD
ATOM     35  O   UNL     1      -3.200   6.323   0.471  1.00  0.00    -0.269 OA
BRANCH  33  36
ATOM     36  C   UNL     1      -2.095   6.918   2.462  1.00  0.00     0.039 A 
ATOM     37  C   UNL     1      -3.098   6.850   3.432  1.00  0.00     0.014 A 
ATOM     38  C   UNL     1      -0.860   7.465   2.752  1.00  0.00     0.014 A 
ATOM     39  C   UNL     1      -2.779   7.237   4.734  1.00  0.00     0.010 A 
ATOM     40  C   UNL     1      -0.473   7.479   4.054  1.00  0.00     0.010 A 
ATOM     41  C   UNL     1      -1.440   7.517   5.042  1.00  0.00    -0.014 A 
BRANCH  41  42
ATOM     42  C   UNL     1      -0.948   7.782   6.384  1.00  0.00     0.031 A 
ATOM     43  C   UNL     1      -1.312   6.759   7.389  1.00  0.00     0.074 A 
ATOM     44  C   UNL     1      -0.014   8.727   6.642  1.00  0.00     0.049 A 
ATOM     45  N   UNL     1      -2.273   6.822   8.247  1.00  0.00    -0.248 NA
ATOM     46  C   UNL     1      -0.659   5.442   7.317  1.00  0.00     0.031 C 
ATOM     47  C   UNL     1       0.718   9.590   5.697  1.00  0.00     0.029 A 
ATOM     48  N   UNL     1       0.577   9.034   7.823  1.00  0.00    -0.354 N 
ATOM     49  C   UNL     1      -2.158   5.671   9.015  1.00  0.00     0.074 A 
ATOM     50  C   UNL     1      -1.343   4.766   8.244  1.00  0.00     0.031 C 
ATOM     51  C   UNL     1       1.799  10.125   6.305  1.00  0.00     0.029 A 
ATOM     52  C   UNL     1       1.718   9.821   7.718  1.00  0.00     0.049 A 
ATOM     53  H   UNL     1       0.224   8.724   8.688  1.00  0.00     0.167 HD
ATOM     54  C   UNL     1      -2.470   5.679  10.343  1.00  0.00     0.031 A 
ATOM     55  C   UNL     1       2.540  10.196   8.729  1.00  0.00     0.031 A 
ATOM     56  C   UNL     1      -3.115   6.918  10.720  1.00  0.00     0.049 A 
ATOM     57  C   UNL     1       1.749  10.074   9.979  1.00  0.00     0.074 A 
ATOM     58  C   UNL     1      -4.245   7.597  10.309  1.00  0.00     0.029 A 
ATOM     59  N   UNL     1      -2.326   7.848  11.363  1.00  0.00    -0.354 N 
ATOM     60  N   UNL     1       0.697  10.805  10.231  1.00  0.00    -0.248 NA
ATOM     61  C   UNL     1       1.833   8.829  10.724  1.00  0.00     0.031 C 
ATOM     62  C   UNL     1      -3.864   8.973  10.302  1.00  0.00     0.029 A 
ATOM     63  C   UNL     1      -2.558   9.071  10.788  1.00  0.00     0.049 A 
ATOM     64  H   UNL     1      -1.705   7.666  12.105  1.00  0.00     0.167 HD
ATOM     65  C   UNL     1      -0.213   9.931  10.809  1.00  0.00     0.074 A 
ATOM     66  C   UNL     1       0.579   8.760  11.185  1.00  0.00     0.031 C 
ATOM     67  C   UNL     1      -1.561  10.118  10.668  1.00  0.00     0.031 A 
BRANCH  54  68
ATOM     68  C   UNL     1      -1.806   4.801  11.379  1.00  0.00    -0.014 A 
ATOM     69  C   UNL     1      -2.240   4.904  12.717  1.00  0.00     0.010 A 
ATOM     70  C   UNL     1      -0.608   4.095  11.151  1.00  0.00     0.010 A 
ATOM     71  C   UNL     1      -1.462   4.417  13.774  1.00  0.00     0.020 A 
ATOM     72  C   UNL     1       0.152   3.565  12.194  1.00  0.00     0.020 A 
ATOM     73  C   UNL     1      -0.260   3.767  13.503  1.00  0.00     0.054 A 
BRANCH  73  74
ATOM     74  S   UNL     1       0.798   3.254  14.876  1.00  0.00     0.124 S 
ATOM     75  O   UNL     1       1.202   4.540  15.436  1.00  0.00    -0.237 OA
ATOM     76  O   UNL     1      -0.119   2.464  15.693  1.00  0.00    -0.237 OA
ATOM     77  O   UNL     1       1.859   2.492  14.222  1.00  0.00    -0.744 OA
ENDBRANCH  73  74
ENDBRANCH  54  68
BRANCH  55  78
ATOM     78  C   UNL     1       4.014  10.356   8.708  1.00  0.00    -0.014 A 
ATOM     79  C   UNL     1       4.688  10.982   9.773  1.00  0.00     0.010 A 
ATOM     80  C   UNL     1       4.789   9.630   7.780  1.00  0.00     0.010 A 
ATOM     81  C   UNL     1       6.074  10.822   9.947  1.00  0.00     0.020 A 
ATOM     82  C   UNL     1       6.171   9.470   7.944  1.00  0.00     0.020 A 
ATOM     83  C   UNL     1       6.803  10.044   9.044  1.00  0.00     0.054 A 
BRANCH  83  84
ATOM     84  S   UNL     1       8.551   9.678   9.389  1.00  0.00     0.124 S 
ATOM     85  O   UNL     1       9.193  10.966   9.146  1.00  0.00    -0.237 OA
ATOM     86  O   UNL     1       8.517   9.242  10.782  1.00  0.00    -0.237 OA
ATOM     87  O   UNL     1       8.879   8.629   8.424  1.00  0.00    -0.744 OA
ENDBRANCH  83  84
ENDBRANCH  55  78
BRANCH  67  88
ATOM     88  C   UNL     1      -2.053  11.450  10.144  1.00  0.00    -0.014 A 
ATOM     89  C   UNL     1      -1.753  11.957   8.863  1.00  0.00     0.010 A 
ATOM     90  C   UNL     1      -2.986  12.145  10.934  1.00  0.00     0.010 A 
ATOM     91  C   UNL     1      -2.353  13.141   8.401  1.00  0.00     0.020 A 
ATOM     92  C   UNL     1      -3.599  13.312  10.473  1.00  0.00     0.020 A 
ATOM     93  C   UNL     1      -3.274  13.811   9.212  1.00  0.00     0.054 A 
BRANCH  93  94
ATOM     94  S   UNL     1      -4.079  15.319   8.600  1.00  0.00     0.124 S 
ATOM     95  O   UNL     1      -2.976  16.275   8.560  1.00  0.00    -0.237 OA
ATOM     96  O   UNL     1      -4.600  14.905   7.299  1.00  0.00    -0.237 OA
ATOM     97  O   UNL     1      -5.104  15.600   9.606  1.00  0.00    -0.744 OA
ENDBRANCH  93  94
ENDBRANCH  67  88
ENDBRANCH  41  42
ENDBRANCH  33  36
ENDBRANCH  31  32
ENDBRANCH   1  31
TORSDOF 18
