REMARK SMILES Cc1cc2c(c(C)c1Br)C=C(C(=O)NCCCNC(=O)c1ccc(-c3c4nc(c(-c5ccc(S(=O)(=O)[O-])cc5)c5ccc([nH]5)c(-c5ccc(S(=O)(=O)[O-])cc5)c5nc(c(-c6ccc(S(=O)(=O)[O-])cc6)c6ccc3[nH]6)C=C5)C=C4)cc1)[C@@H](C(F)(F)F)O2
REMARK SMILES IDX 17 1 16 2 15 3 14 4 12 5 13 6 11 8 1 9 2 10 3 11 8 12 4 13
REMARK SMILES IDX 6 14 9 15 5 16 86 17 7 18 10 19 81 20 82 21 83 22 84 23
REMARK SMILES IDX 85 24 18 25 19 26 20 28 21 29 22 30 80 31 23 32 79 33 24 34
REMARK SMILES IDX 25 35 26 36 73 37 27 38 78 39 72 40 74 41 28 42 77 43 71 44
REMARK SMILES IDX 70 45 29 47 59 48 40 49 58 50 41 51 44 52 57 53 75 54 42 55
REMARK SMILES IDX 43 56 56 58 76 59 45 60 30 61 31 62 39 63 32 64 38 65 33 66
REMARK SMILES IDX 34 67 35 68 36 69 37 70 60 71 61 72 69 73 62 74 68 75 63 76
REMARK SMILES IDX 64 77 65 78 66 79 67 80 46 81 47 82 55 83 48 84 54 85 49 86
REMARK SMILES IDX 50 87 51 88 52 89 53 90
REMARK H PARENT 14 7 18 27 74 46 44 57
REMARK Flexibility Score: inf
ROOT
ATOM      1  C   UNL     1       2.386 -10.980   1.485  1.00  0.00     0.118 C 
ENDROOT
BRANCH   1   2
ATOM      2  C   UNL     1       2.501  -9.569   0.923  1.00  0.00     0.042 C 
BRANCH   2   3
ATOM      3  C   UNL     1       1.180  -9.067   0.361  1.00  0.00     0.118 C 
BRANCH   3   4
ATOM      4  N   UNL     1       0.265  -8.647   1.413  1.00  0.00    -0.352 N 
ATOM      5  C   UNL     1      -0.237  -7.484   1.888  1.00  0.00     0.251 C 
ATOM      6  O   UNL     1      -1.030  -7.598   2.828  1.00  0.00    -0.270 OA
ATOM      7  H   UNL     1      -0.082  -9.419   1.916  1.00  0.00     0.163 HD
BRANCH   5   8
ATOM      8  C   UNL     1       0.092  -6.128   1.359  1.00  0.00     0.067 C 
ATOM      9  C   UNL     1       0.962   0.181   0.067  1.00  0.00     0.046 C 
ATOM     10  C   UNL     1       0.526  -1.139   0.645  1.00  0.00    -0.033 A 
ATOM     11  C   UNL     1       1.172  -2.280   0.158  1.00  0.00     0.051 A 
ATOM     12  C   UNL     1      -0.516  -1.298   1.584  1.00  0.00     0.024 A 
ATOM     13  C   UNL     1       0.815  -3.544   0.606  1.00  0.00     0.128 A 
ATOM     14  C   UNL     1      -0.871  -2.584   2.072  1.00  0.00    -0.026 A 
ATOM     15  Br  UNL     1      -1.454   0.262   2.180  1.00  0.00    -0.050 Br
ATOM     16  C   UNL     1      -0.183  -3.717   1.569  1.00  0.00     0.021 A 
ATOM     17  O   UNL     1       1.533  -4.573   0.070  1.00  0.00    -0.475 OA
ATOM     18  C   UNL     1      -1.951  -2.791   3.110  1.00  0.00     0.046 C 
ATOM     19  C   UNL     1      -0.434  -5.087   2.032  1.00  0.00     0.026 C 
ATOM     20  C   UNL     1       0.928  -5.887   0.140  1.00  0.00     0.314 C 
BRANCH  20  21
ATOM     21  C   UNL     1       0.164  -6.174  -1.167  1.00  0.00     0.429 C 
ATOM     22  F   UNL     1       1.028  -6.317  -2.202  1.00  0.00    -0.167 F 
ATOM     23  F   UNL     1      -0.557  -7.320  -1.110  1.00  0.00    -0.167 F 
ATOM     24  F   UNL     1      -0.702  -5.188  -1.494  1.00  0.00    -0.167 F 
ENDBRANCH  20  21
ENDBRANCH   5   8
ENDBRANCH   3   4
ENDBRANCH   2   3
ENDBRANCH   1   2
BRANCH   1  25
ATOM     25  N   UNL     1       2.055 -11.951   0.445  1.00  0.00    -0.352 N 
ATOM     26  C   UNL     1       2.846 -12.888  -0.172  1.00  0.00     0.251 C 
ATOM     27  H   UNL     1       1.120 -11.931   0.139  1.00  0.00     0.163 HD
ATOM     28  O   UNL     1       2.467 -13.409  -1.219  1.00  0.00    -0.269 OA
BRANCH  26  29
ATOM     29  C   UNL     1       4.143 -13.262   0.422  1.00  0.00     0.039 A 
ATOM     30  C   UNL     1       5.247 -13.469  -0.408  1.00  0.00     0.014 A 
ATOM     31  C   UNL     1       4.260 -13.427   1.804  1.00  0.00     0.014 A 
ATOM     32  C   UNL     1       6.485 -13.775   0.161  1.00  0.00     0.010 A 
ATOM     33  C   UNL     1       5.508 -13.630   2.373  1.00  0.00     0.010 A 
ATOM     34  C   UNL     1       6.631 -13.822   1.557  1.00  0.00    -0.014 A 
BRANCH  34  35
ATOM     35  C   UNL     1       7.939 -14.110   2.192  1.00  0.00     0.031 A 
ATOM     36  C   UNL     1       8.101 -15.351   3.029  1.00  0.00     0.074 A 
ATOM     37  C   UNL     1       8.958 -13.240   2.050  1.00  0.00     0.049 A 
ATOM     38  N   UNL     1       9.138 -15.748   3.719  1.00  0.00    -0.248 NA
ATOM     39  C   UNL     1       6.940 -16.254   3.120  1.00  0.00     0.031 C 
ATOM     40  C   UNL     1       8.912 -11.995   1.278  1.00  0.00     0.029 A 
ATOM     41  N   UNL     1      10.238 -13.274   2.542  1.00  0.00    -0.354 N 
ATOM     42  C   UNL     1       8.755 -16.940   4.321  1.00  0.00     0.074 A 
ATOM     43  C   UNL     1       7.370 -17.167   3.978  1.00  0.00     0.031 C 
ATOM     44  C   UNL     1      10.123 -11.414   1.306  1.00  0.00     0.029 A 
ATOM     45  C   UNL     1      11.016 -12.216   2.134  1.00  0.00     0.049 A 
ATOM     46  H   UNL     1      10.569 -13.989   3.133  1.00  0.00     0.167 HD
ATOM     47  C   UNL     1       9.500 -17.793   5.061  1.00  0.00     0.031 A 
ATOM     48  C   UNL     1      12.306 -11.931   2.395  1.00  0.00     0.031 A 
ATOM     49  C   UNL     1      10.883 -17.574   5.385  1.00  0.00     0.049 A 
ATOM     50  C   UNL     1      13.094 -12.867   3.272  1.00  0.00     0.074 A 
ATOM     51  C   UNL     1      11.732 -18.382   6.119  1.00  0.00     0.029 A 
ATOM     52  N   UNL     1      11.622 -16.472   4.982  1.00  0.00    -0.354 N 
ATOM     53  N   UNL     1      12.718 -14.000   3.816  1.00  0.00    -0.248 NA
ATOM     54  C   UNL     1      14.483 -12.486   3.568  1.00  0.00     0.031 C 
ATOM     55  C   UNL     1      12.976 -17.749   6.194  1.00  0.00     0.029 A 
ATOM     56  C   UNL     1      12.915 -16.574   5.462  1.00  0.00     0.049 A 
ATOM     57  H   UNL     1      11.277 -15.729   4.437  1.00  0.00     0.167 HD
ATOM     58  C   UNL     1      13.833 -14.482   4.492  1.00  0.00     0.074 A 
ATOM     59  C   UNL     1      14.900 -13.527   4.277  1.00  0.00     0.031 C 
ATOM     60  C   UNL     1      13.963 -15.615   5.226  1.00  0.00     0.031 A 
BRANCH  47  61
ATOM     61  C   UNL     1       8.845 -19.061   5.539  1.00  0.00    -0.014 A 
ATOM     62  C   UNL     1       8.532 -20.088   4.630  1.00  0.00     0.010 A 
ATOM     63  C   UNL     1       8.599 -19.259   6.909  1.00  0.00     0.010 A 
ATOM     64  C   UNL     1       7.967 -21.282   5.079  1.00  0.00     0.020 A 
ATOM     65  C   UNL     1       8.058 -20.465   7.366  1.00  0.00     0.020 A 
ATOM     66  C   UNL     1       7.738 -21.466   6.445  1.00  0.00     0.054 A 
BRANCH  66  67
ATOM     67  S   UNL     1       7.054 -23.052   6.999  1.00  0.00     0.124 S 
ATOM     68  O   UNL     1       5.693 -22.994   6.472  1.00  0.00    -0.237 OA
ATOM     69  O   UNL     1       7.937 -24.020   6.354  1.00  0.00    -0.237 OA
ATOM     70  O   UNL     1       7.161 -22.987   8.454  1.00  0.00    -0.744 OA
ENDBRANCH  66  67
ENDBRANCH  47  61
BRANCH  48  71
ATOM     71  C   UNL     1      12.950 -10.728   1.798  1.00  0.00    -0.014 A 
ATOM     72  C   UNL     1      13.951 -10.877   0.821  1.00  0.00     0.010 A 
ATOM     73  C   UNL     1      12.581  -9.434   2.205  1.00  0.00     0.010 A 
ATOM     74  C   UNL     1      14.592  -9.756   0.285  1.00  0.00     0.020 A 
ATOM     75  C   UNL     1      13.199  -8.309   1.651  1.00  0.00     0.020 A 
ATOM     76  C   UNL     1      14.213  -8.479   0.705  1.00  0.00     0.054 A 
BRANCH  76  77
ATOM     77  S   UNL     1      15.047  -7.040  -0.021  1.00  0.00     0.124 S 
ATOM     78  O   UNL     1      16.377  -7.129   0.573  1.00  0.00    -0.237 OA
ATOM     79  O   UNL     1      14.971  -7.322  -1.452  1.00  0.00    -0.237 OA
ATOM     80  O   UNL     1      14.234  -5.911   0.429  1.00  0.00    -0.744 OA
ENDBRANCH  76  77
ENDBRANCH  48  71
BRANCH  60  81
ATOM     81  C   UNL     1      15.311 -15.904   5.827  1.00  0.00    -0.014 A 
ATOM     82  C   UNL     1      15.780 -15.175   6.934  1.00  0.00     0.010 A 
ATOM     83  C   UNL     1      16.076 -16.976   5.332  1.00  0.00     0.010 A 
ATOM     84  C   UNL     1      17.002 -15.504   7.524  1.00  0.00     0.020 A 
ATOM     85  C   UNL     1      17.285 -17.325   5.938  1.00  0.00     0.020 A 
ATOM     86  C   UNL     1      17.744 -16.580   7.026  1.00  0.00     0.054 A 
BRANCH  86  87
ATOM     87  S   UNL     1      19.293 -17.024   7.857  1.00  0.00     0.124 S 
ATOM     88  O   UNL     1      20.164 -15.911   7.491  1.00  0.00    -0.237 OA
ATOM     89  O   UNL     1      18.896 -17.076   9.262  1.00  0.00    -0.237 OA
ATOM     90  O   UNL     1      19.647 -18.313   7.267  1.00  0.00    -0.744 OA
ENDBRANCH  86  87
ENDBRANCH  60  81
ENDBRANCH  34  35
ENDBRANCH  26  29
ENDBRANCH   1  25
TORSDOF 14
