REMARK SMILES COc1cccc(C(=O)/C=C(/Nc2cc(C)c(C)cc2[N+](=O)[O-])C(=O)NCCCNC(=O)c2ccc(-c3c4nc(c(-c5ccc(S(=O)(=O)[O-])cc5)c5ccc([nH]5)c(-c5ccc(S(=O)(=O)[O-])cc5)c5nc(c(-c6ccc(S(=O)(=O)[O-])cc6)c6ccc3[nH]6)C=C5)C=C4)cc2)c1
REMARK SMILES IDX 28 1 27 2 26 3 24 4 25 5 11 7 10 8 8 9 9 10 7 11 3 12 4 13
REMARK SMILES IDX 93 14 5 15 6 16 2 17 1 18 12 19 13 21 14 22 20 23 15 24
REMARK SMILES IDX 19 25 16 26 17 27 18 28 21 29 22 30 23 31 29 32 30 33 31 34
REMARK SMILES IDX 32 36 33 37 34 38 92 39 35 40 91 41 36 42 37 43 38 44 85 45
REMARK SMILES IDX 39 46 90 47 84 48 86 49 40 50 89 51 83 52 82 53 41 55 71 56
REMARK SMILES IDX 52 57 70 58 53 59 56 60 69 61 87 62 54 63 55 64 68 66 88 67
REMARK SMILES IDX 57 68 42 69 43 70 51 71 44 72 50 73 45 74 46 75 47 76 48 77
REMARK SMILES IDX 49 78 72 79 73 80 81 81 74 82 80 83 75 84 76 85 77 86 78 87
REMARK SMILES IDX 79 88 58 89 59 90 67 91 60 92 66 93 61 94 62 95 63 96 64 97
REMARK SMILES IDX 65 98
REMARK H PARENT 26 6 12 20 30 35 86 54 56 65
REMARK Flexibility Score: inf
ROOT
ATOM      1  C   UNL     1       2.275  -1.800   1.580  1.00  0.00     0.042 C 
ENDROOT
BRANCH   1   2
ATOM      2  C   UNL     1       3.267  -1.098   0.693  1.00  0.00     0.118 C 
BRANCH   2   3
ATOM      3  N   UNL     1       2.807   0.026  -0.090  1.00  0.00    -0.351 N 
ATOM      4  C   UNL     1       3.527   1.154  -0.402  1.00  0.00     0.267 C 
ATOM      5  O   UNL     1       3.109   1.954  -1.233  1.00  0.00    -0.268 OA
ATOM      6  H   UNL     1       1.886  -0.021  -0.435  1.00  0.00     0.163 HD
BRANCH   4   7
ATOM      7  C   UNL     1       4.817   1.406   0.321  1.00  0.00     0.108 C 
ATOM      8  C   UNL     1       4.816   2.384   1.250  1.00  0.00     0.084 C 
BRANCH   8   9
ATOM      9  C   UNL     1       3.851   3.399   1.789  1.00  0.00     0.188 C 
ATOM     10  O   UNL     1       4.281   4.175   2.648  1.00  0.00    -0.289 OA
BRANCH   9  11
ATOM     11  C   UNL     1       2.455   3.595   1.343  1.00  0.00     0.026 A 
ATOM     12  C   UNL     1       0.213   2.817   0.847  1.00  0.00     0.119 A 
ATOM     13  C   UNL     1      -0.137   4.117   0.470  1.00  0.00     0.046 A 
ATOM     14  C   UNL     1       1.499   2.570   1.340  1.00  0.00     0.058 A 
ATOM     15  C   UNL     1       0.771   5.164   0.585  1.00  0.00     0.005 A 
ATOM     16  C   UNL     1       2.069   4.903   1.016  1.00  0.00     0.012 A 
BRANCH  12  17
ATOM     17  O   UNL     1      -0.800   1.925   0.660  1.00  0.00    -0.497 OA
ATOM     18  C   UNL     1      -0.656   0.572   1.039  1.00  0.00     0.278 C 
ENDBRANCH  12  17
ENDBRANCH   9  11
ENDBRANCH   8   9
BRANCH   7  19
ATOM     19  N   UNL     1       5.956   0.614   0.063  1.00  0.00    -0.345 N 
ATOM     20  H   UNL     1       6.806   0.953   0.424  1.00  0.00     0.167 HD
BRANCH  19  21
ATOM     21  C   UNL     1       6.028  -0.609  -0.653  1.00  0.00     0.118 A 
ATOM     22  C   UNL     1       6.369  -1.757   0.098  1.00  0.00     0.037 A 
ATOM     23  C   UNL     1       5.524  -0.826  -1.944  1.00  0.00     0.292 A 
ATOM     24  C   UNL     1       6.027  -3.061  -0.325  1.00  0.00    -0.046 A 
ATOM     25  C   UNL     1       5.193  -2.118  -2.394  1.00  0.00     0.091 A 
ATOM     26  C   UNL     1       6.239  -4.196   0.645  1.00  0.00     0.045 C 
ATOM     27  C   UNL     1       5.368  -3.232  -1.558  1.00  0.00    -0.041 A 
ATOM     28  C   UNL     1       4.780  -4.555  -1.975  1.00  0.00     0.045 C 
BRANCH  23  29
ATOM     29  N   UNL     1       5.356   0.283  -2.878  1.00  0.00     0.064 N 
ATOM     30  O   UNL     1       4.397   0.224  -3.662  1.00  0.00    -0.258 OA
ATOM     31  O   UNL     1       6.223   1.169  -2.879  1.00  0.00    -0.258 OA
ENDBRANCH  23  29
ENDBRANCH  19  21
ENDBRANCH   7  19
ENDBRANCH   4   7
ENDBRANCH   2   3
ENDBRANCH   1   2
BRANCH   1  32
ATOM     32  C   UNL     1       1.163  -2.586   0.905  1.00  0.00     0.118 C 
BRANCH  32  33
ATOM     33  N   UNL     1       1.384  -3.041  -0.457  1.00  0.00    -0.352 N 
ATOM     34  C   UNL     1       1.034  -4.239  -1.050  1.00  0.00     0.251 C 
ATOM     35  H   UNL     1       1.852  -2.403  -1.043  1.00  0.00     0.163 HD
ATOM     36  O   UNL     1       1.297  -4.428  -2.228  1.00  0.00    -0.269 OA
BRANCH  34  37
ATOM     37  C   UNL     1       0.408  -5.316  -0.242  1.00  0.00     0.039 A 
ATOM     38  C   UNL     1       0.805  -6.639  -0.456  1.00  0.00     0.014 A 
ATOM     39  C   UNL     1      -0.530  -5.032   0.750  1.00  0.00     0.014 A 
ATOM     40  C   UNL     1       0.322  -7.655   0.376  1.00  0.00     0.010 A 
ATOM     41  C   UNL     1      -0.895  -6.011   1.661  1.00  0.00     0.010 A 
ATOM     42  C   UNL     1      -0.503  -7.342   1.466  1.00  0.00    -0.014 A 
BRANCH  42  43
ATOM     43  C   UNL     1      -1.057  -8.384   2.368  1.00  0.00     0.031 A 
ATOM     44  C   UNL     1      -2.555  -8.527   2.489  1.00  0.00     0.074 A 
ATOM     45  C   UNL     1      -0.240  -9.138   3.130  1.00  0.00     0.049 A 
ATOM     46  N   UNL     1      -3.253  -9.270   3.307  1.00  0.00    -0.248 NA
ATOM     47  C   UNL     1      -3.376  -7.678   1.606  1.00  0.00     0.031 C 
ATOM     48  C   UNL     1       1.223  -9.063   3.150  1.00  0.00     0.029 A 
ATOM     49  N   UNL     1      -0.532 -10.118   4.046  1.00  0.00    -0.354 N 
ATOM     50  C   UNL     1      -4.584  -8.943   3.067  1.00  0.00     0.074 A 
ATOM     51  C   UNL     1      -4.593  -7.887   2.082  1.00  0.00     0.031 C 
ATOM     52  C   UNL     1       1.700  -9.983   4.005  1.00  0.00     0.029 A 
ATOM     53  C   UNL     1       0.580 -10.688   4.620  1.00  0.00     0.049 A 
ATOM     54  H   UNL     1      -1.452 -10.388   4.270  1.00  0.00     0.167 HD
ATOM     55  C   UNL     1      -5.705  -9.495   3.589  1.00  0.00     0.031 A 
ATOM     56  C   UNL     1       0.681 -11.674   5.533  1.00  0.00     0.031 A 
ATOM     57  C   UNL     1      -5.694 -10.588   4.520  1.00  0.00     0.049 A 
ATOM     58  C   UNL     1      -0.575 -12.320   6.051  1.00  0.00     0.074 A 
ATOM     59  C   UNL     1      -6.768 -11.268   5.065  1.00  0.00     0.029 A 
ATOM     60  N   UNL     1      -4.545 -11.180   5.023  1.00  0.00    -0.354 N 
ATOM     61  N   UNL     1      -1.825 -12.024   5.782  1.00  0.00    -0.248 NA
ATOM     62  C   UNL     1      -0.407 -13.451   6.973  1.00  0.00     0.031 C 
ATOM     63  C   UNL     1      -6.268 -12.258   5.918  1.00  0.00     0.029 A 
ATOM     64  C   UNL     1      -4.883 -12.223   5.866  1.00  0.00     0.049 A 
ATOM     65  H   UNL     1      -3.626 -10.900   4.811  1.00  0.00     0.167 HD
ATOM     66  C   UNL     1      -2.591 -12.958   6.473  1.00  0.00     0.074 A 
ATOM     67  C   UNL     1      -1.663 -13.831   7.162  1.00  0.00     0.031 C 
ATOM     68  C   UNL     1      -3.940 -13.086   6.528  1.00  0.00     0.031 A 
BRANCH  55  69
ATOM     69  C   UNL     1      -7.027  -8.929   3.143  1.00  0.00    -0.014 A 
ATOM     70  C   UNL     1      -7.482  -9.100   1.822  1.00  0.00     0.010 A 
ATOM     71  C   UNL     1      -7.828  -8.218   4.054  1.00  0.00     0.010 A 
ATOM     72  C   UNL     1      -8.683  -8.523   1.405  1.00  0.00     0.020 A 
ATOM     73  C   UNL     1      -9.048  -7.668   3.650  1.00  0.00     0.020 A 
ATOM     74  C   UNL     1      -9.456  -7.805   2.321  1.00  0.00     0.054 A 
BRANCH  74  75
ATOM     75  S   UNL     1     -11.017  -7.074   1.758  1.00  0.00     0.124 S 
ATOM     76  O   UNL     1     -10.548  -5.921   0.992  1.00  0.00    -0.237 OA
ATOM     77  O   UNL     1     -11.611  -8.151   0.970  1.00  0.00    -0.237 OA
ATOM     78  O   UNL     1     -11.718  -6.755   2.999  1.00  0.00    -0.744 OA
ENDBRANCH  74  75
ENDBRANCH  55  69
BRANCH  56  79
ATOM     79  C   UNL     1       2.022 -12.148   5.975  1.00  0.00    -0.014 A 
ATOM     80  C   UNL     1       2.507 -13.398   5.550  1.00  0.00     0.010 A 
ATOM     81  C   UNL     1       2.823 -11.354   6.814  1.00  0.00     0.010 A 
ATOM     82  C   UNL     1       3.757 -13.857   5.975  1.00  0.00     0.020 A 
ATOM     83  C   UNL     1       4.086 -11.798   7.220  1.00  0.00     0.020 A 
ATOM     84  C   UNL     1       4.540 -13.053   6.807  1.00  0.00     0.054 A 
BRANCH  84  85
ATOM     85  S   UNL     1       6.182 -13.644   7.305  1.00  0.00     0.124 S 
ATOM     86  O   UNL     1       5.851 -14.648   8.311  1.00  0.00    -0.237 OA
ATOM     87  O   UNL     1       6.726 -14.159   6.050  1.00  0.00    -0.237 OA
ATOM     88  O   UNL     1       6.838 -12.440   7.811  1.00  0.00    -0.744 OA
ENDBRANCH  84  85
ENDBRANCH  56  79
BRANCH  68  89
ATOM     89  C   UNL     1      -4.490 -14.248   7.308  1.00  0.00    -0.014 A 
ATOM     90  C   UNL     1      -4.460 -14.270   8.713  1.00  0.00     0.010 A 
ATOM     91  C   UNL     1      -5.086 -15.319   6.615  1.00  0.00     0.010 A 
ATOM     92  C   UNL     1      -4.976 -15.364   9.410  1.00  0.00     0.020 A 
ATOM     93  C   UNL     1      -5.627 -16.401   7.310  1.00  0.00     0.020 A 
ATOM     94  C   UNL     1      -5.551 -16.426   8.704  1.00  0.00     0.054 A 
BRANCH  94  95
ATOM     95  S   UNL     1      -6.235 -17.826   9.631  1.00  0.00     0.124 S 
ATOM     96  O   UNL     1      -5.027 -18.550  10.018  1.00  0.00    -0.237 OA
ATOM     97  O   UNL     1      -6.953 -17.171  10.722  1.00  0.00    -0.237 OA
ATOM     98  O   UNL     1      -7.084 -18.505   8.654  1.00  0.00    -0.744 OA
ENDBRANCH  94  95
ENDBRANCH  68  89
ENDBRANCH  42  43
ENDBRANCH  34  37
ENDBRANCH  32  33
ENDBRANCH   1  32
TORSDOF 19
