REMARK SMILES COc1ccc([C@H](C(=O)NCCCNC(=O)c2ccc(-c3c4nc(c(-c5ccc(S(=O)(=O)[O-])cc5)c5ccc([nH]5)c(-c5ccc(S(=O)(=O)[O-])cc5)c5nc(c(-c6ccc(S(=O)(=O)[O-])cc6)c6ccc3[nH]6)C=C5)C=C4)cc2)c2ccc(O)nn2)cc1
REMARK SMILES IDX 12 1 11 2 10 3 8 4 9 5 7 7 6 8 3 9 4 10 85 11 5 12 84 13
REMARK SMILES IDX 2 14 1 15 77 16 78 17 83 18 79 19 82 20 80 21 81 22 13 24
REMARK SMILES IDX 14 25 15 26 16 28 17 29 18 30 76 31 19 32 75 33 20 34 21 35
REMARK SMILES IDX 22 36 69 37 23 38 74 39 68 40 70 41 24 42 73 43 67 44 66 45
REMARK SMILES IDX 25 47 55 48 36 49 54 50 37 51 40 52 53 53 71 54 38 55 39 56
REMARK SMILES IDX 52 58 72 59 41 60 26 61 27 62 35 63 28 64 34 65 29 66 30 67
REMARK SMILES IDX 31 68 32 69 33 70 56 71 57 72 65 73 58 74 64 75 59 76 60 77
REMARK SMILES IDX 61 78 62 79 63 80 42 81 43 82 51 83 44 84 50 85 45 86 46 87
REMARK SMILES IDX 47 88 48 89 49 90
REMARK H PARENT 10 6 81 23 14 27 70 46 40 57
REMARK Flexibility Score: inf
ROOT
ATOM      1  C   UNL     1      -1.094   6.432  -3.126  1.00  0.00     0.042 C 
ENDROOT
BRANCH   1   2
ATOM      2  C   UNL     1      -0.635   6.408  -1.685  1.00  0.00     0.117 C 
BRANCH   2   3
ATOM      3  N   UNL     1       0.231   5.289  -1.372  1.00  0.00    -0.355 N 
ATOM      4  C   UNL     1       1.538   5.334  -0.937  1.00  0.00     0.233 C 
ATOM      5  O   UNL     1       2.120   4.266  -0.734  1.00  0.00    -0.274 OA
ATOM      6  H   UNL     1      -0.159   4.392  -1.483  1.00  0.00     0.163 HD
BRANCH   4   7
ATOM      7  C   UNL     1       2.256   6.715  -0.779  1.00  0.00     0.159 C 
BRANCH   7   8
ATOM      8  C   UNL     1       2.392   7.390  -2.165  1.00  0.00    -0.029 A 
ATOM      9  C   UNL     1       2.049   8.555  -4.710  1.00  0.00     0.118 A 
ATOM     10  C   UNL     1       2.321   9.352  -3.600  1.00  0.00     0.047 A 
ATOM     11  C   UNL     1       2.152   7.178  -4.597  1.00  0.00     0.047 A 
ATOM     12  C   UNL     1       2.526   8.772  -2.340  1.00  0.00     0.009 A 
ATOM     13  C   UNL     1       2.345   6.604  -3.339  1.00  0.00     0.009 A 
BRANCH   9  14
ATOM     14  O   UNL     1       1.750   9.184  -5.885  1.00  0.00    -0.497 OA
ATOM     15  C   UNL     1       0.555   8.686  -6.496  1.00  0.00     0.278 C 
ENDBRANCH   9  14
ENDBRANCH   7   8
BRANCH   7  16
ATOM     16  C   UNL     1       1.538   7.415   0.393  1.00  0.00     0.080 A 
ATOM     17  C   UNL     1       0.749   8.564   0.289  1.00  0.00     0.032 A 
ATOM     18  N   UNL     1       1.486   6.688   1.542  1.00  0.00    -0.151 NA
ATOM     19  C   UNL     1      -0.177   8.867   1.283  1.00  0.00     0.072 A 
ATOM     20  N   UNL     1       0.580   6.984   2.529  1.00  0.00    -0.112 NA
ATOM     21  C   UNL     1      -0.241   8.029   2.363  1.00  0.00     0.230 A 
BRANCH  21  22
ATOM     22  O   UNL     1      -1.209   8.183   3.304  1.00  0.00    -0.492 OA
ATOM     23  H   UNL     1      -1.813   8.896   3.241  1.00  0.00     0.295 HD
ENDBRANCH  21  22
ENDBRANCH   7  16
ENDBRANCH   4   7
ENDBRANCH   2   3
ENDBRANCH   1   2
BRANCH   1  24
ATOM     24  C   UNL     1      -2.546   6.028  -3.223  1.00  0.00     0.118 C 
BRANCH  24  25
ATOM     25  N   UNL     1      -3.432   7.021  -2.606  1.00  0.00    -0.352 N 
ATOM     26  C   UNL     1      -4.184   8.027  -3.168  1.00  0.00     0.251 C 
ATOM     27  H   UNL     1      -3.500   6.957  -1.626  1.00  0.00     0.163 HD
ATOM     28  O   UNL     1      -4.655   8.910  -2.454  1.00  0.00    -0.269 OA
BRANCH  26  29
ATOM     29  C   UNL     1      -4.398   8.050  -4.628  1.00  0.00     0.039 A 
ATOM     30  C   UNL     1      -4.441   9.261  -5.324  1.00  0.00     0.014 A 
ATOM     31  C   UNL     1      -4.537   6.850  -5.316  1.00  0.00     0.014 A 
ATOM     32  C   UNL     1      -4.537   9.247  -6.719  1.00  0.00     0.010 A 
ATOM     33  C   UNL     1      -4.434   6.833  -6.692  1.00  0.00     0.010 A 
ATOM     34  C   UNL     1      -4.487   8.030  -7.416  1.00  0.00    -0.014 A 
BRANCH  34  35
ATOM     35  C   UNL     1      -4.584   7.927  -8.893  1.00  0.00     0.031 A 
ATOM     36  C   UNL     1      -5.659   7.043  -9.484  1.00  0.00     0.074 A 
ATOM     37  C   UNL     1      -3.666   8.514  -9.685  1.00  0.00     0.049 A 
ATOM     38  N   UNL     1      -5.794   6.614 -10.710  1.00  0.00    -0.248 NA
ATOM     39  C   UNL     1      -6.681   6.521  -8.555  1.00  0.00     0.031 C 
ATOM     40  C   UNL     1      -2.557   9.357  -9.232  1.00  0.00     0.029 A 
ATOM     41  N   UNL     1      -3.511   8.471 -11.047  1.00  0.00    -0.354 N 
ATOM     42  C   UNL     1      -6.883   5.749 -10.684  1.00  0.00     0.074 A 
ATOM     43  C   UNL     1      -7.315   5.641  -9.312  1.00  0.00     0.031 C 
ATOM     44  C   UNL     1      -1.852   9.771 -10.298  1.00  0.00     0.029 A 
ATOM     45  C   UNL     1      -2.424   9.180 -11.504  1.00  0.00     0.049 A 
ATOM     46  H   UNL     1      -4.121   7.979 -11.643  1.00  0.00     0.167 HD
ATOM     47  C   UNL     1      -7.504   5.135 -11.717  1.00  0.00     0.031 A 
ATOM     48  C   UNL     1      -1.938   9.322 -12.752  1.00  0.00     0.031 A 
ATOM     49  C   UNL     1      -7.109   5.299 -13.086  1.00  0.00     0.049 A 
ATOM     50  C   UNL     1      -2.650   8.636 -13.889  1.00  0.00     0.074 A 
ATOM     51  C   UNL     1      -7.698   4.771 -14.220  1.00  0.00     0.029 A 
ATOM     52  N   UNL     1      -6.039   6.073 -13.507  1.00  0.00    -0.354 N 
ATOM     53  N   UNL     1      -3.704   7.853 -13.848  1.00  0.00    -0.248 NA
ATOM     54  C   UNL     1      -2.121   8.863 -15.241  1.00  0.00     0.031 C 
ATOM     55  C   UNL     1      -6.958   5.195 -15.327  1.00  0.00     0.029 A 
ATOM     56  C   UNL     1      -5.949   6.037 -14.884  1.00  0.00     0.049 A 
ATOM     57  H   UNL     1      -5.434   6.574 -12.912  1.00  0.00     0.167 HD
ATOM     58  C   UNL     1      -3.989   7.535 -15.172  1.00  0.00     0.074 A 
ATOM     59  C   UNL     1      -3.003   8.212 -15.987  1.00  0.00     0.031 C 
ATOM     60  C   UNL     1      -4.978   6.754 -15.671  1.00  0.00     0.031 A 
BRANCH  47  61
ATOM     61  C   UNL     1      -8.697   4.270 -11.406  1.00  0.00    -0.014 A 
ATOM     62  C   UNL     1      -9.895   4.838 -10.933  1.00  0.00     0.010 A 
ATOM     63  C   UNL     1      -8.642   2.884 -11.638  1.00  0.00     0.010 A 
ATOM     64  C   UNL     1     -11.004   4.033 -10.666  1.00  0.00     0.020 A 
ATOM     65  C   UNL     1      -9.761   2.079 -11.405  1.00  0.00     0.020 A 
ATOM     66  C   UNL     1     -10.932   2.659 -10.909  1.00  0.00     0.054 A 
BRANCH  66  67
ATOM     67  S   UNL     1     -12.408   1.651 -10.607  1.00  0.00     0.124 S 
ATOM     68  O   UNL     1     -12.485   1.659  -9.149  1.00  0.00    -0.237 OA
ATOM     69  O   UNL     1     -13.453   2.404 -11.296  1.00  0.00    -0.237 OA
ATOM     70  O   UNL     1     -12.076   0.360 -11.206  1.00  0.00    -0.744 OA
ENDBRANCH  66  67
ENDBRANCH  47  61
BRANCH  48  71
ATOM     71  C   UNL     1      -0.722  10.147 -13.000  1.00  0.00    -0.014 A 
ATOM     72  C   UNL     1      -0.806  11.349 -13.726  1.00  0.00     0.010 A 
ATOM     73  C   UNL     1       0.535   9.722 -12.532  1.00  0.00     0.010 A 
ATOM     74  C   UNL     1       0.346  12.082 -14.023  1.00  0.00     0.020 A 
ATOM     75  C   UNL     1       1.686  10.471 -12.797  1.00  0.00     0.020 A 
ATOM     76  C   UNL     1       1.587  11.635 -13.561  1.00  0.00     0.054 A 
BRANCH  76  77
ATOM     77  S   UNL     1       3.070  12.600 -13.963  1.00  0.00     0.124 S 
ATOM     78  O   UNL     1       3.232  12.325 -15.386  1.00  0.00    -0.237 OA
ATOM     79  O   UNL     1       2.661  13.961 -13.623  1.00  0.00    -0.237 OA
ATOM     80  O   UNL     1       4.095  12.029 -13.092  1.00  0.00    -0.744 OA
ENDBRANCH  76  77
ENDBRANCH  48  71
BRANCH  60  81
ATOM     81  C   UNL     1      -5.102   6.647 -17.165  1.00  0.00    -0.014 A 
ATOM     82  C   UNL     1      -4.190   5.897 -17.925  1.00  0.00     0.010 A 
ATOM     83  C   UNL     1      -6.215   7.230 -17.800  1.00  0.00     0.010 A 
ATOM     84  C   UNL     1      -4.381   5.744 -19.301  1.00  0.00     0.020 A 
ATOM     85  C   UNL     1      -6.426   7.053 -19.168  1.00  0.00     0.020 A 
ATOM     86  C   UNL     1      -5.502   6.317 -19.911  1.00  0.00     0.054 A 
BRANCH  86  87
ATOM     87  S   UNL     1      -5.767   6.037 -21.683  1.00  0.00     0.124 S 
ATOM     88  O   UNL     1      -4.722   6.863 -22.281  1.00  0.00    -0.237 OA
ATOM     89  O   UNL     1      -5.577   4.594 -21.808  1.00  0.00    -0.237 OA
ATOM     90  O   UNL     1      -7.134   6.502 -21.907  1.00  0.00    -0.744 OA
ENDBRANCH  86  87
ENDBRANCH  60  81
ENDBRANCH  34  35
ENDBRANCH  26  29
ENDBRANCH  24  25
ENDBRANCH   1  24
TORSDOF 17
