REMARK SMILES Cc1n[nH]c2c1[C@@]1(C(=O)N([C@@H](C)C(=O)NCCCNC(=O)c3ccc(-c4c5nc(c(-c6ccc(S(=O)(=O)[O-])cc6)c6ccc([nH]6)c(-c6ccc(S(=O)(=O)[O-])cc6)c6nc(c(-c7ccc(S(=O)(=O)[O-])cc7)c7ccc4[nH]7)C=C6)C=C5)cc3)c3ccccc31)C(C#N)=C(N)O2
REMARK SMILES IDX 17 1 16 2 15 3 13 4 14 5 11 7 12 8 10 9 1 10 2 11 3 12 6 13
REMARK SMILES IDX 4 14 5 15 7 16 93 18 8 19 87 20 88 21 91 22 9 23 82 24 86 25
REMARK SMILES IDX 83 26 85 27 84 28 89 29 90 30 92 31 18 34 19 35 20 36 21 38
REMARK SMILES IDX 22 39 23 40 81 41 24 42 80 43 25 44 26 45 27 46 74 47 28 48
REMARK SMILES IDX 79 49 73 50 75 51 29 52 78 53 72 54 71 55 30 57 60 58 41 59
REMARK SMILES IDX 59 60 42 61 45 62 58 63 76 64 43 65 44 66 57 68 77 69 46 70
REMARK SMILES IDX 31 71 32 72 40 73 33 74 39 75 34 76 35 77 36 78 37 79 38 80
REMARK SMILES IDX 61 81 62 82 70 83 63 84 69 85 64 86 65 87 66 88 67 89 68 90
REMARK SMILES IDX 47 91 48 92 56 93 49 94 55 95 50 96 51 97 52 98 53 99 54 100
REMARK H PARENT 15 6 4 17 92 32 92 33 19 37 75 56 45 67
REMARK Flexibility Score: inf
ROOT
ATOM      1  C   UNL     1      -0.065   4.660  -3.089  1.00  0.00     0.042 C 
ENDROOT
BRANCH   1   2
ATOM      2  C   UNL     1       0.282   3.635  -4.177  1.00  0.00     0.117 C 
BRANCH   2   3
ATOM      3  N   UNL     1       1.692   3.638  -4.546  1.00  0.00    -0.354 N 
ATOM      4  C   UNL     1       2.738   2.805  -4.296  1.00  0.00     0.242 C 
ATOM      5  O   UNL     1       3.799   3.102  -4.867  1.00  0.00    -0.273 OA
ATOM      6  H   UNL     1       1.943   4.413  -5.099  1.00  0.00     0.163 HD
BRANCH   4   7
ATOM      7  C   UNL     1       2.729   1.580  -3.344  1.00  0.00     0.176 C 
ATOM      8  C   UNL     1       1.727   0.479  -3.673  1.00  0.00     0.042 C 
BRANCH   7   9
ATOM      9  N   UNL     1       2.759   1.970  -1.942  1.00  0.00    -0.298 N 
ATOM     10  C   UNL     1       1.058  -0.365   0.476  1.00  0.00     0.069 C 
ATOM     11  C   UNL     1       0.831   0.826   1.331  1.00  0.00     0.068 A 
ATOM     12  N   UNL     1       0.034   0.719   2.396  1.00  0.00    -0.177 NA
ATOM     13  C   UNL     1       1.287   2.154   1.169  1.00  0.00     0.063 A 
ATOM     14  N   UNL     1      -0.137   1.983   2.837  1.00  0.00    -0.246 N 
ATOM     15  C   UNL     1       0.613   2.874   2.122  1.00  0.00     0.222 A 
ATOM     16  C   UNL     1       2.109   2.860   0.153  1.00  0.00     0.149 C 
ATOM     17  H   UNL     1      -0.730   2.232   3.583  1.00  0.00     0.193 HD
ATOM     18  O   UNL     1       0.606   4.194   2.276  1.00  0.00    -0.422 OA
ATOM     19  C   UNL     1       1.645   2.425  -1.240  1.00  0.00     0.248 C 
ATOM     20  C   UNL     1       3.503   2.297   0.210  1.00  0.00     0.002 A 
ATOM     21  C   UNL     1       2.044   4.380   0.318  1.00  0.00     0.114 C 
ATOM     22  C   UNL     1       1.332   4.954   1.332  1.00  0.00     0.208 C 
ATOM     23  O   UNL     1       0.483   2.412  -1.631  1.00  0.00    -0.273 OA
ATOM     24  C   UNL     1       3.856   1.827  -1.064  1.00  0.00     0.050 A 
ATOM     25  C   UNL     1       4.375   2.207   1.287  1.00  0.00     0.008 A 
ATOM     26  C   UNL     1       5.097   1.259  -1.285  1.00  0.00     0.027 A 
ATOM     27  C   UNL     1       5.618   1.615   1.076  1.00  0.00     0.001 A 
ATOM     28  C   UNL     1       5.977   1.149  -0.199  1.00  0.00     0.002 A 
BRANCH  21  29
ATOM     29  C   UNL     1       2.802   5.285  -0.640  1.00  0.00     0.102 C 
ATOM     30  N   UNL     1       3.431   6.036  -1.434  1.00  0.00    -0.193 NA
ENDBRANCH  21  29
BRANCH  22  31
ATOM     31  N   UNL     1       1.239   6.295   1.567  1.00  0.00    -0.369 N 
ATOM     32  H   UNL     1       1.702   6.932   0.976  1.00  0.00     0.159 HD
ATOM     33  H   UNL     1       0.708   6.625   2.327  1.00  0.00     0.159 HD
ENDBRANCH  22  31
ENDBRANCH   7   9
ENDBRANCH   4   7
ENDBRANCH   2   3
ENDBRANCH   1   2
BRANCH   1  34
ATOM     34  C   UNL     1      -0.181   6.103  -3.555  1.00  0.00     0.118 C 
BRANCH  34  35
ATOM     35  N   UNL     1      -1.283   6.317  -4.465  1.00  0.00    -0.352 N 
ATOM     36  C   UNL     1      -2.631   6.498  -4.328  1.00  0.00     0.251 C 
ATOM     37  H   UNL     1      -0.995   6.338  -5.406  1.00  0.00     0.163 HD
ATOM     38  O   UNL     1      -3.240   6.673  -5.389  1.00  0.00    -0.269 OA
BRANCH  36  39
ATOM     39  C   UNL     1      -3.408   6.489  -3.049  1.00  0.00     0.039 A 
ATOM     40  C   UNL     1      -2.897   6.362  -1.756  1.00  0.00     0.014 A 
ATOM     41  C   UNL     1      -4.804   6.625  -3.192  1.00  0.00     0.014 A 
ATOM     42  C   UNL     1      -3.756   6.340  -0.648  1.00  0.00     0.010 A 
ATOM     43  C   UNL     1      -5.662   6.617  -2.091  1.00  0.00     0.010 A 
ATOM     44  C   UNL     1      -5.143   6.450  -0.811  1.00  0.00    -0.014 A 
BRANCH  44  45
ATOM     45  C   UNL     1      -6.003   6.455   0.380  1.00  0.00     0.031 A 
ATOM     46  C   UNL     1      -5.833   7.592   1.335  1.00  0.00     0.074 A 
ATOM     47  C   UNL     1      -7.038   5.611   0.581  1.00  0.00     0.049 A 
ATOM     48  N   UNL     1      -5.513   7.553   2.590  1.00  0.00    -0.248 NA
ATOM     49  C   UNL     1      -6.020   8.953   0.812  1.00  0.00     0.031 C 
ATOM     50  C   UNL     1      -7.620   4.658  -0.368  1.00  0.00     0.029 A 
ATOM     51  N   UNL     1      -7.868   5.518   1.664  1.00  0.00    -0.354 N 
ATOM     52  C   UNL     1      -5.606   8.863   3.063  1.00  0.00     0.074 A 
ATOM     53  C   UNL     1      -5.825   9.693   1.904  1.00  0.00     0.031 C 
ATOM     54  C   UNL     1      -8.830   4.260   0.088  1.00  0.00     0.029 A 
ATOM     55  C   UNL     1      -9.032   4.802   1.421  1.00  0.00     0.049 A 
ATOM     56  H   UNL     1      -7.659   5.921   2.537  1.00  0.00     0.167 HD
ATOM     57  C   UNL     1      -5.644   9.170   4.392  1.00  0.00     0.031 A 
ATOM     58  C   UNL     1     -10.114   4.709   2.230  1.00  0.00     0.031 A 
ATOM     59  C   UNL     1      -5.257   8.061   5.218  1.00  0.00     0.049 A 
ATOM     60  C   UNL     1      -9.695   5.050   3.608  1.00  0.00     0.074 A 
ATOM     61  C   UNL     1      -4.108   7.318   5.390  1.00  0.00     0.029 A 
ATOM     62  N   UNL     1      -6.261   7.367   5.846  1.00  0.00    -0.354 N 
ATOM     63  N   UNL     1      -8.890   4.322   4.328  1.00  0.00    -0.248 NA
ATOM     64  C   UNL     1      -9.939   6.393   4.110  1.00  0.00     0.031 C 
ATOM     65  C   UNL     1      -4.558   6.009   5.726  1.00  0.00     0.029 A 
ATOM     66  C   UNL     1      -5.955   6.034   5.762  1.00  0.00     0.049 A 
ATOM     67  H   UNL     1      -7.056   7.756   6.278  1.00  0.00     0.167 HD
ATOM     68  C   UNL     1      -8.213   5.228   5.126  1.00  0.00     0.074 A 
ATOM     69  C   UNL     1      -9.000   6.453   5.056  1.00  0.00     0.031 C 
ATOM     70  C   UNL     1      -6.934   4.988   5.536  1.00  0.00     0.031 A 
BRANCH  57  71
ATOM     71  C   UNL     1      -6.314  10.391   4.984  1.00  0.00    -0.014 A 
ATOM     72  C   UNL     1      -7.260  11.164   4.285  1.00  0.00     0.010 A 
ATOM     73  C   UNL     1      -6.196  10.635   6.372  1.00  0.00     0.010 A 
ATOM     74  C   UNL     1      -8.047  12.128   4.923  1.00  0.00     0.020 A 
ATOM     75  C   UNL     1      -7.014  11.566   7.031  1.00  0.00     0.020 A 
ATOM     76  C   UNL     1      -7.936  12.308   6.298  1.00  0.00     0.054 A 
BRANCH  76  77
ATOM     77  S   UNL     1      -9.091  13.441   7.113  1.00  0.00     0.124 S 
ATOM     78  O   UNL     1      -8.590  14.743   6.683  1.00  0.00    -0.237 OA
ATOM     79  O   UNL     1     -10.376  13.040   6.546  1.00  0.00    -0.237 OA
ATOM     80  O   UNL     1      -8.920  13.142   8.533  1.00  0.00    -0.744 OA
ENDBRANCH  76  77
ENDBRANCH  57  71
BRANCH  58  81
ATOM     81  C   UNL     1     -11.543   4.677   1.835  1.00  0.00    -0.014 A 
ATOM     82  C   UNL     1     -11.950   5.300   0.638  1.00  0.00     0.010 A 
ATOM     83  C   UNL     1     -12.537   4.327   2.769  1.00  0.00     0.010 A 
ATOM     84  C   UNL     1     -13.286   5.644   0.418  1.00  0.00     0.020 A 
ATOM     85  C   UNL     1     -13.880   4.675   2.557  1.00  0.00     0.020 A 
ATOM     86  C   UNL     1     -14.237   5.367   1.399  1.00  0.00     0.054 A 
BRANCH  86  87
ATOM     87  S   UNL     1     -15.914   6.024   1.174  1.00  0.00     0.124 S 
ATOM     88  O   UNL     1     -15.688   7.465   1.256  1.00  0.00    -0.237 OA
ATOM     89  O   UNL     1     -16.273   5.522  -0.150  1.00  0.00    -0.237 OA
ATOM     90  O   UNL     1     -16.667   5.445   2.283  1.00  0.00    -0.744 OA
ENDBRANCH  86  87
ENDBRANCH  58  81
BRANCH  70  91
ATOM     91  C   UNL     1      -6.392   3.580   5.448  1.00  0.00    -0.014 A 
ATOM     92  C   UNL     1      -5.777   3.047   6.596  1.00  0.00     0.010 A 
ATOM     93  C   UNL     1      -6.298   2.862   4.239  1.00  0.00     0.010 A 
ATOM     94  C   UNL     1      -5.050   1.859   6.533  1.00  0.00     0.020 A 
ATOM     95  C   UNL     1      -5.593   1.653   4.176  1.00  0.00     0.020 A 
ATOM     96  C   UNL     1      -4.945   1.180   5.318  1.00  0.00     0.054 A 
BRANCH  96  97
ATOM     97  S   UNL     1      -3.882  -0.283   5.245  1.00  0.00     0.124 S 
ATOM     98  O   UNL     1      -2.553   0.329   5.221  1.00  0.00    -0.237 OA
ATOM     99  O   UNL     1      -4.221  -0.996   6.475  1.00  0.00    -0.237 OA
ATOM    100  O   UNL     1      -4.291  -0.953   4.013  1.00  0.00    -0.744 OA
ENDBRANCH  96  97
ENDBRANCH  70  91
ENDBRANCH  44  45
ENDBRANCH  36  39
ENDBRANCH  34  35
ENDBRANCH   1  34
TORSDOF 16
