REMARK SMILES COc1cc([C@@H]2CC[NH2+][C@@H]2C(=O)NCCCNC(=O)c2ccc(-c3c4nc(c(-c5ccc(S(=O)(=O)[O-])cc5)c5ccc([nH]5)c(-c5ccc(S(=O)(=O)[O-])cc5)c5nc(c(-c6ccc(S(=O)(=O)[O-])cc6)c6ccc3[nH]6)C=C5)C=C4)cc2)cc(OC)c1OC
REMARK SMILES IDX 15 1 14 2 13 3 11 4 12 5 10 7 6 8 7 9 8 10 9 11 5 14 3 15
REMARK SMILES IDX 4 16 84 17 81 18 80 19 2 20 1 21 85 22 86 23 82 24 83 25
REMARK SMILES IDX 16 26 17 27 18 28 19 30 20 31 21 32 79 33 22 34 78 35 23 36
REMARK SMILES IDX 24 37 25 38 72 39 26 40 77 41 71 42 73 43 27 44 76 45 70 46
REMARK SMILES IDX 69 47 28 49 58 50 39 51 57 52 40 53 43 54 56 55 74 56 41 57
REMARK SMILES IDX 42 58 55 60 75 61 44 62 29 63 30 64 38 65 31 66 37 67 32 68
REMARK SMILES IDX 33 69 34 70 35 71 36 72 59 73 60 74 68 75 61 76 67 77 62 78
REMARK SMILES IDX 63 79 64 80 65 81 66 82 45 83 46 84 54 85 47 86 53 87 48 88
REMARK SMILES IDX 49 89 50 90 51 91 52 92
REMARK H PARENT 13 6 9 12 9 13 17 29 73 48 43 59
REMARK Flexibility Score: inf
ROOT
ATOM      1  C   UNL     1       1.141  -3.316   0.240  1.00  0.00     0.042 C 
ENDROOT
BRANCH   1   2
ATOM      2  C   UNL     1       0.376  -3.904  -1.717  1.00  0.00     0.118 C 
BRANCH   2   3
ATOM      3  N   UNL     1       0.696  -5.113  -2.663  1.00  0.00    -0.351 N 
ATOM      4  C   UNL     1       0.107  -6.345  -2.738  1.00  0.00     0.278 C 
ATOM      5  O   UNL     1       0.420  -7.051  -3.702  1.00  0.00    -0.268 OA
ATOM      6  H   UNL     1       1.433  -4.963  -3.298  1.00  0.00     0.163 HD
BRANCH   4   7
ATOM      7  C   UNL     1      -0.966  -6.788  -1.690  1.00  0.00     0.280 C 
ATOM      8  C   UNL     1      -0.928  -6.273  -0.230  1.00  0.00     0.093 C 
ATOM      9  C   UNL     1      -0.645  -7.482   0.644  1.00  0.00     0.076 C 
ATOM     10  C   UNL     1      -0.159  -8.533  -0.328  1.00  0.00     0.262 C 
ATOM     11  N   UNL     1      -0.922  -8.274  -1.549  1.00  0.00    -0.335 N 
ATOM     12  H   UNL     1      -1.865  -8.652  -1.466  1.00  0.00     0.346 HD
ATOM     13  H   UNL     1      -0.493  -8.716  -2.362  1.00  0.00     0.346 HD
BRANCH   8  14
ATOM     14  C   UNL     1      -0.034  -5.063  -0.036  1.00  0.00    -0.031 A 
ATOM     15  C   UNL     1      -0.173  -2.063  -0.848  1.00  0.00     0.164 A 
ATOM     16  C   UNL     1      -0.953  -3.504  -0.100  1.00  0.00     0.055 A 
ATOM     17  C   UNL     1       1.515  -2.151  -1.497  1.00  0.00     0.203 A 
ATOM     18  C   UNL     1       2.440  -3.696  -1.369  1.00  0.00     0.164 A 
ATOM     19  C   UNL     1       1.697  -5.151  -0.605  1.00  0.00     0.055 A 
BRANCH  15  20
ATOM     20  O   UNL     1      -1.029  -1.039  -1.168  1.00  0.00    -0.493 OA
ATOM     21  C   UNL     1      -0.710   0.172  -0.492  1.00  0.00     0.278 C 
ENDBRANCH  15  20
BRANCH  17  22
ATOM     22  O   UNL     1       1.916  -1.076  -2.246  1.00  0.00    -0.490 OA
ATOM     23  C   UNL     1       3.323  -0.934  -2.388  1.00  0.00     0.278 C 
ENDBRANCH  17  22
BRANCH  18  24
ATOM     24  O   UNL     1       3.538  -3.865  -2.178  1.00  0.00    -0.493 OA
ATOM     25  C   UNL     1       4.732  -4.124  -1.446  1.00  0.00     0.278 C 
ENDBRANCH  18  24
ENDBRANCH   8  14
ENDBRANCH   4   7
ENDBRANCH   2   3
ENDBRANCH   1   2
BRANCH   1  26
ATOM     26  C   UNL     1       2.425  -2.317   0.841  1.00  0.00     0.118 C 
BRANCH  26  27
ATOM     27  N   UNL     1       2.192  -0.881   0.695  1.00  0.00    -0.352 N 
ATOM     28  C   UNL     1       2.913   0.258   0.855  1.00  0.00     0.251 C 
ATOM     29  H   UNL     1       1.270  -0.690   0.405  1.00  0.00     0.163 HD
ATOM     30  O   UNL     1       2.420   1.330   0.513  1.00  0.00    -0.269 OA
BRANCH  28  31
ATOM     31  C   UNL     1       4.205   0.229   1.529  1.00  0.00     0.039 A 
ATOM     32  C   UNL     1       4.428   1.234   2.474  1.00  0.00     0.014 A 
ATOM     33  C   UNL     1       5.135  -0.786   1.314  1.00  0.00     0.014 A 
ATOM     34  C   UNL     1       5.540   1.153   3.287  1.00  0.00     0.010 A 
ATOM     35  C   UNL     1       6.197  -0.920   2.183  1.00  0.00     0.010 A 
ATOM     36  C   UNL     1       6.383   0.038   3.183  1.00  0.00    -0.014 A 
BRANCH  36  37
ATOM     37  C   UNL     1       7.424  -0.158   4.193  1.00  0.00     0.031 A 
ATOM     38  C   UNL     1       8.853   0.028   3.814  1.00  0.00     0.074 A 
ATOM     39  C   UNL     1       7.015  -0.480   5.434  1.00  0.00     0.049 A 
ATOM     40  N   UNL     1       9.898   0.072   4.590  1.00  0.00    -0.248 NA
ATOM     41  C   UNL     1       9.156   0.165   2.378  1.00  0.00     0.031 C 
ATOM     42  C   UNL     1       5.621  -0.748   5.819  1.00  0.00     0.029 A 
ATOM     43  N   UNL     1       7.707  -0.594   6.603  1.00  0.00    -0.354 N 
ATOM     44  C   UNL     1      10.979   0.263   3.742  1.00  0.00     0.074 A 
ATOM     45  C   UNL     1      10.478   0.250   2.388  1.00  0.00     0.031 C 
ATOM     46  C   UNL     1       5.555  -0.918   7.148  1.00  0.00     0.029 A 
ATOM     47  C   UNL     1       6.897  -0.792   7.697  1.00  0.00     0.049 A 
ATOM     48  H   UNL     1       8.689  -0.541   6.659  1.00  0.00     0.167 HD
ATOM     49  C   UNL     1      12.270   0.464   4.086  1.00  0.00     0.031 A 
ATOM     50  C   UNL     1       7.217  -0.824   9.003  1.00  0.00     0.031 A 
ATOM     51  C   UNL     1      12.712   0.455   5.454  1.00  0.00     0.049 A 
ATOM     52  C   UNL     1       8.655  -0.568   9.355  1.00  0.00     0.074 A 
ATOM     53  C   UNL     1      13.982   0.652   5.957  1.00  0.00     0.029 A 
ATOM     54  N   UNL     1      11.873   0.236   6.542  1.00  0.00    -0.354 N 
ATOM     55  N   UNL     1       9.664  -0.317   8.550  1.00  0.00    -0.248 NA
ATOM     56  C   UNL     1       8.996  -0.572  10.778  1.00  0.00     0.031 C 
ATOM     57  C   UNL     1      13.918   0.509   7.348  1.00  0.00     0.029 A 
ATOM     58  C   UNL     1      12.599   0.279   7.716  1.00  0.00     0.049 A 
ATOM     59  H   UNL     1      10.904   0.074   6.484  1.00  0.00     0.167 HD
ATOM     60  C   UNL     1      10.764  -0.121   9.372  1.00  0.00     0.074 A 
ATOM     61  C   UNL     1      10.280  -0.244  10.737  1.00  0.00     0.031 C 
ATOM     62  C   UNL     1      12.057   0.127   9.044  1.00  0.00     0.031 A 
BRANCH  49  63
ATOM     63  C   UNL     1      13.256   0.704   2.976  1.00  0.00    -0.014 A 
ATOM     64  C   UNL     1      13.212   1.887   2.213  1.00  0.00     0.010 A 
ATOM     65  C   UNL     1      14.246  -0.253   2.692  1.00  0.00     0.010 A 
ATOM     66  C   UNL     1      14.119   2.095   1.170  1.00  0.00     0.020 A 
ATOM     67  C   UNL     1      15.172  -0.037   1.667  1.00  0.00     0.020 A 
ATOM     68  C   UNL     1      15.095   1.131   0.905  1.00  0.00     0.054 A 
BRANCH  68  69
ATOM     69  S   UNL     1      16.285   1.447  -0.428  1.00  0.00     0.124 S 
ATOM     70  O   UNL     1      15.452   1.298  -1.618  1.00  0.00    -0.237 OA
ATOM     71  O   UNL     1      16.732   2.808  -0.140  1.00  0.00    -0.237 OA
ATOM     72  O   UNL     1      17.297   0.410  -0.243  1.00  0.00    -0.744 OA
ENDBRANCH  68  69
ENDBRANCH  49  63
BRANCH  50  73
ATOM     73  C   UNL     1       6.168  -1.052  10.034  1.00  0.00    -0.014 A 
ATOM     74  C   UNL     1       5.807  -0.037  10.939  1.00  0.00     0.010 A 
ATOM     75  C   UNL     1       5.502  -2.290  10.105  1.00  0.00     0.010 A 
ATOM     76  C   UNL     1       4.831  -0.268  11.916  1.00  0.00     0.020 A 
ATOM     77  C   UNL     1       4.505  -2.516  11.059  1.00  0.00     0.020 A 
ATOM     78  C   UNL     1       4.189  -1.509  11.972  1.00  0.00     0.054 A 
BRANCH  78  79
ATOM     79  S   UNL     1       2.916  -1.785  13.236  1.00  0.00     0.124 S 
ATOM     80  O   UNL     1       3.717  -1.914  14.449  1.00  0.00    -0.237 OA
ATOM     81  O   UNL     1       2.104  -0.575  13.138  1.00  0.00    -0.237 OA
ATOM     82  O   UNL     1       2.252  -3.008  12.790  1.00  0.00    -0.744 OA
ENDBRANCH  78  79
ENDBRANCH  50  73
BRANCH  62  83
ATOM     83  C   UNL     1      13.010   0.276  10.194  1.00  0.00    -0.014 A 
ATOM     84  C   UNL     1      13.384  -0.838  10.966  1.00  0.00     0.010 A 
ATOM     85  C   UNL     1      13.548   1.540  10.488  1.00  0.00     0.010 A 
ATOM     86  C   UNL     1      14.239  -0.677  12.055  1.00  0.00     0.020 A 
ATOM     87  C   UNL     1      14.431   1.698  11.556  1.00  0.00     0.020 A 
ATOM     88  C   UNL     1      14.751   0.591  12.346  1.00  0.00     0.054 A 
BRANCH  88  89
ATOM     89  S   UNL     1      15.867   0.773  13.761  1.00  0.00     0.124 S 
ATOM     90  O   UNL     1      14.939   0.700  14.886  1.00  0.00    -0.237 OA
ATOM     91  O   UNL     1      16.765  -0.370  13.610  1.00  0.00    -0.237 OA
ATOM     92  O   UNL     1      16.487   2.078  13.546  1.00  0.00    -0.744 OA
ENDBRANCH  88  89
ENDBRANCH  62  83
ENDBRANCH  36  37
ENDBRANCH  28  31
ENDBRANCH  26  27
ENDBRANCH   1  26
TORSDOF 17
