REMARK SMILES COc1ccc(C(=O)/C=C(\Nc2cccc(C(F)(F)F)c2)C(=O)NCCCNC(=O)c2ccc(-c3c4nc(c(-c5ccc(S(=O)(=O)[O-])cc5)c5ccc([nH]5)c(-c5ccc(S(=O)(=O)[O-])cc5)c5nc(c(-c6ccc(S(=O)(=O)[O-])cc6)c6ccc3[nH]6)C=C5)C=C4)cc2)cc1
REMARK SMILES IDX 26 1 25 2 24 3 22 4 23 5 10 7 9 8 7 9 8 10 6 11 3 12 4 13
REMARK SMILES IDX 92 14 5 15 91 16 2 17 1 18 11 19 12 21 13 22 21 23 14 24
REMARK SMILES IDX 16 25 15 26 17 27 18 28 19 29 20 30 27 31 28 32 29 33 30 35
REMARK SMILES IDX 31 36 32 37 90 38 33 39 89 40 34 41 35 42 36 43 83 44 37 45
REMARK SMILES IDX 88 46 82 47 84 48 38 49 87 50 81 51 80 52 39 54 69 55 50 56
REMARK SMILES IDX 68 57 51 58 54 59 67 60 85 61 52 62 53 63 66 65 86 66 55 67
REMARK SMILES IDX 40 68 41 69 49 70 42 71 48 72 43 73 44 74 45 75 46 76 47 77
REMARK SMILES IDX 70 78 71 79 79 80 72 81 78 82 73 83 74 84 75 85 76 86 77 87
REMARK SMILES IDX 56 88 57 89 65 90 58 91 64 92 59 93 60 94 61 95 62 96 63 97
REMARK H PARENT 24 6 11 20 28 34 84 53 54 64
REMARK Flexibility Score: inf
ROOT
ATOM      1  C   UNL     1       8.230  -2.665   2.981  1.00  0.00     0.042 C 
ENDROOT
BRANCH   1   2
ATOM      2  C   UNL     1       6.934  -3.336   2.574  1.00  0.00     0.118 C 
BRANCH   2   3
ATOM      3  N   UNL     1       6.758  -4.712   2.967  1.00  0.00    -0.351 N 
ATOM      4  C   UNL     1       5.599  -5.438   2.966  1.00  0.00     0.267 C 
ATOM      5  O   UNL     1       5.669  -6.649   3.188  1.00  0.00    -0.268 OA
ATOM      6  H   UNL     1       7.566  -5.184   3.273  1.00  0.00     0.163 HD
BRANCH   4   7
ATOM      7  C   UNL     1       4.239  -4.771   2.817  1.00  0.00     0.108 C 
ATOM      8  C   UNL     1       3.508  -4.973   3.936  1.00  0.00     0.084 C 
BRANCH   8   9
ATOM      9  C   UNL     1       2.099  -4.585   4.228  1.00  0.00     0.188 C 
ATOM     10  O   UNL     1       1.419  -5.285   4.973  1.00  0.00    -0.289 OA
BRANCH   9  11
ATOM     11  C   UNL     1       1.503  -3.370   3.626  1.00  0.00     0.022 A 
ATOM     12  C   UNL     1       0.421  -1.226   2.212  1.00  0.00     0.118 A 
ATOM     13  C   UNL     1      -0.369  -2.339   2.490  1.00  0.00     0.047 A 
ATOM     14  C   UNL     1       1.705  -1.128   2.745  1.00  0.00     0.047 A 
ATOM     15  C   UNL     1       0.172  -3.417   3.195  1.00  0.00     0.016 A 
ATOM     16  C   UNL     1       2.246  -2.198   3.461  1.00  0.00     0.016 A 
BRANCH  12  17
ATOM     17  O   UNL     1      -0.129  -0.224   1.461  1.00  0.00    -0.497 OA
ATOM     18  C   UNL     1       0.622   0.023   0.269  1.00  0.00     0.278 C 
ENDBRANCH  12  17
ENDBRANCH   9  11
ENDBRANCH   8   9
BRANCH   7  19
ATOM     19  N   UNL     1       3.801  -4.202   1.624  1.00  0.00    -0.351 N 
ATOM     20  H   UNL     1       2.839  -4.293   1.434  1.00  0.00     0.167 HD
BRANCH  19  21
ATOM     21  C   UNL     1       4.550  -3.517   0.657  1.00  0.00     0.039 A 
ATOM     22  C   UNL     1       4.649  -2.117   0.713  1.00  0.00     0.026 A 
ATOM     23  C   UNL     1       5.229  -4.196  -0.355  1.00  0.00     0.039 A 
ATOM     24  C   UNL     1       5.484  -1.415  -0.156  1.00  0.00     0.003 A 
ATOM     25  C   UNL     1       6.063  -3.499  -1.251  1.00  0.00     0.058 A 
ATOM     26  C   UNL     1       6.198  -2.106  -1.128  1.00  0.00     0.013 A 
BRANCH  25  27
ATOM     27  C   UNL     1       6.887  -4.253  -2.264  1.00  0.00     0.416 C 
ATOM     28  F   UNL     1       7.142  -3.542  -3.395  1.00  0.00    -0.166 F 
ATOM     29  F   UNL     1       8.090  -4.638  -1.756  1.00  0.00    -0.166 F 
ATOM     30  F   UNL     1       6.281  -5.402  -2.680  1.00  0.00    -0.166 F 
ENDBRANCH  25  27
ENDBRANCH  19  21
ENDBRANCH   7  19
ENDBRANCH   4   7
ENDBRANCH   2   3
ENDBRANCH   1   2
BRANCH   1  31
ATOM     31  C   UNL     1       9.464  -3.177   2.239  1.00  0.00     0.118 C 
BRANCH  31  32
ATOM     32  N   UNL     1       9.418  -3.031   0.783  1.00  0.00    -0.352 N 
ATOM     33  C   UNL     1       9.962  -2.125  -0.104  1.00  0.00     0.251 C 
ATOM     34  H   UNL     1       8.883  -3.729   0.341  1.00  0.00     0.163 HD
ATOM     35  O   UNL     1       9.633  -2.183  -1.283  1.00  0.00    -0.269 OA
BRANCH  33  36
ATOM     36  C   UNL     1      10.882  -1.048   0.336  1.00  0.00     0.039 A 
ATOM     37  C   UNL     1      10.859   0.182  -0.335  1.00  0.00     0.014 A 
ATOM     38  C   UNL     1      11.771  -1.224   1.390  1.00  0.00     0.014 A 
ATOM     39  C   UNL     1      11.617   1.257   0.142  1.00  0.00     0.010 A 
ATOM     40  C   UNL     1      12.411  -0.126   1.949  1.00  0.00     0.010 A 
ATOM     41  C   UNL     1      12.336   1.134   1.340  1.00  0.00    -0.014 A 
BRANCH  41  42
ATOM     42  C   UNL     1      13.015   2.286   1.992  1.00  0.00     0.031 A 
ATOM     43  C   UNL     1      14.483   2.197   2.325  1.00  0.00     0.074 A 
ATOM     44  C   UNL     1      12.292   3.352   2.392  1.00  0.00     0.049 A 
ATOM     45  N   UNL     1      15.210   2.986   3.074  1.00  0.00    -0.248 NA
ATOM     46  C   UNL     1      15.220   1.042   1.783  1.00  0.00     0.031 C 
ATOM     47  C   UNL     1      10.856   3.544   2.169  1.00  0.00     0.029 A 
ATOM     48  N   UNL     1      12.665   4.475   3.090  1.00  0.00    -0.354 N 
ATOM     49  C   UNL     1      16.472   2.403   3.122  1.00  0.00     0.074 A 
ATOM     50  C   UNL     1      16.395   1.165   2.379  1.00  0.00     0.031 C 
ATOM     51  C   UNL     1      10.479   4.724   2.686  1.00  0.00     0.029 A 
ATOM     52  C   UNL     1      11.628   5.347   3.332  1.00  0.00     0.049 A 
ATOM     53  H   UNL     1      13.588   4.640   3.390  1.00  0.00     0.167 HD
ATOM     54  C   UNL     1      17.602   2.869   3.704  1.00  0.00     0.031 A 
ATOM     55  C   UNL     1      11.601   6.510   4.011  1.00  0.00     0.031 A 
ATOM     56  C   UNL     1      17.682   4.121   4.407  1.00  0.00     0.049 A 
ATOM     57  C   UNL     1      12.869   7.006   4.650  1.00  0.00     0.074 A 
ATOM     58  C   UNL     1      18.787   4.710   4.997  1.00  0.00     0.029 A 
ATOM     59  N   UNL     1      16.616   4.986   4.598  1.00  0.00    -0.354 N 
ATOM     60  N   UNL     1      14.058   6.452   4.660  1.00  0.00    -0.248 NA
ATOM     61  C   UNL     1      12.792   8.286   5.367  1.00  0.00     0.031 C 
ATOM     62  C   UNL     1      18.380   5.917   5.574  1.00  0.00     0.029 A 
ATOM     63  C   UNL     1      17.034   6.103   5.300  1.00  0.00     0.049 A 
ATOM     64  H   UNL     1      15.697   4.830   4.281  1.00  0.00     0.167 HD
ATOM     65  C   UNL     1      14.878   7.332   5.356  1.00  0.00     0.074 A 
ATOM     66  C   UNL     1      14.053   8.460   5.738  1.00  0.00     0.031 C 
ATOM     67  C   UNL     1      16.195   7.218   5.657  1.00  0.00     0.031 A 
BRANCH  54  68
ATOM     68  C   UNL     1      18.846   2.026   3.584  1.00  0.00    -0.014 A 
ATOM     69  C   UNL     1      19.486   1.860   2.342  1.00  0.00     0.010 A 
ATOM     70  C   UNL     1      19.400   1.416   4.724  1.00  0.00     0.010 A 
ATOM     71  C   UNL     1      20.628   1.062   2.233  1.00  0.00     0.020 A 
ATOM     72  C   UNL     1      20.561   0.643   4.625  1.00  0.00     0.020 A 
ATOM     73  C   UNL     1      21.157   0.456   3.376  1.00  0.00     0.054 A 
BRANCH  73  74
ATOM     74  S   UNL     1      22.653  -0.554   3.206  1.00  0.00     0.124 S 
ATOM     75  O   UNL     1      22.135  -1.749   2.543  1.00  0.00    -0.237 OA
ATOM     76  O   UNL     1      23.519   0.291   2.388  1.00  0.00    -0.237 OA
ATOM     77  O   UNL     1      23.098  -0.749   4.583  1.00  0.00    -0.744 OA
ENDBRANCH  73  74
ENDBRANCH  54  68
BRANCH  55  78
ATOM     78  C   UNL     1      10.339   7.295   4.114  1.00  0.00    -0.014 A 
ATOM     79  C   UNL     1      10.214   8.525   3.443  1.00  0.00     0.010 A 
ATOM     80  C   UNL     1       9.262   6.829   4.890  1.00  0.00     0.010 A 
ATOM     81  C   UNL     1       9.050   9.289   3.572  1.00  0.00     0.020 A 
ATOM     82  C   UNL     1       8.084   7.576   4.996  1.00  0.00     0.020 A 
ATOM     83  C   UNL     1       7.993   8.811   4.350  1.00  0.00     0.054 A 
BRANCH  83  84
ATOM     84  S   UNL     1       6.481   9.806   4.481  1.00  0.00     0.124 S 
ATOM     85  O   UNL     1       6.899  10.874   5.383  1.00  0.00    -0.237 OA
ATOM     86  O   UNL     1       6.243  10.203   3.095  1.00  0.00    -0.237 OA
ATOM     87  O   UNL     1       5.503   8.868   5.028  1.00  0.00    -0.744 OA
ENDBRANCH  83  84
ENDBRANCH  55  78
BRANCH  67  88
ATOM     88  C   UNL     1      16.834   8.361   6.395  1.00  0.00    -0.014 A 
ATOM     89  C   UNL     1      16.572   8.585   7.758  1.00  0.00     0.010 A 
ATOM     90  C   UNL     1      17.752   9.190   5.724  1.00  0.00     0.010 A 
ATOM     91  C   UNL     1      17.197   9.637   8.431  1.00  0.00     0.020 A 
ATOM     92  C   UNL     1      18.399  10.226   6.401  1.00  0.00     0.020 A 
ATOM     93  C   UNL     1      18.106  10.451   7.748  1.00  0.00     0.054 A 
BRANCH  93  94
ATOM     94  S   UNL     1      18.940  11.780   8.656  1.00  0.00     0.124 S 
ATOM     95  O   UNL     1      17.873  12.767   8.797  1.00  0.00    -0.237 OA
ATOM     96  O   UNL     1      19.350  11.116   9.892  1.00  0.00    -0.237 OA
ATOM     97  O   UNL     1      20.037  12.169   7.772  1.00  0.00    -0.744 OA
ENDBRANCH  93  94
ENDBRANCH  67  88
ENDBRANCH  41  42
ENDBRANCH  33  36
ENDBRANCH  31  32
ENDBRANCH   1  31
TORSDOF 19
