REMARK SMILES O=C(N/N=C/c1ccc(C(=O)NCCCNC(=O)c2ccc(-c3c4nc(c(-c5ccc(S(=O)(=O)[O-])cc5)c5ccc([nH]5)c(-c5ccc(S(=O)(=O)[O-])cc5)c5nc(c(-c6ccc(S(=O)(=O)[O-])cc6)c6ccc3[nH]6)C=C5)C=C4)cc2)cc1)C(=O)Nc1cccc(Br)c1
REMARK SMILES IDX 13 1 12 2 10 3 11 4 9 6 6 7 7 8 80 9 8 10 79 11 5 12 4 13
REMARK SMILES IDX 3 14 1 15 2 16 81 18 82 19 83 20 84 22 85 23 90 24 86 25
REMARK SMILES IDX 88 26 87 27 89 28 14 29 15 30 16 31 17 32 18 34 19 35 20 36
REMARK SMILES IDX 78 37 21 38 77 39 22 40 23 41 24 42 71 43 25 44 76 45 70 46
REMARK SMILES IDX 72 47 26 48 75 49 69 50 68 51 27 53 57 54 38 55 56 56 39 57
REMARK SMILES IDX 42 58 55 59 73 60 40 61 41 62 54 64 74 65 43 66 28 67 29 68
REMARK SMILES IDX 37 69 30 70 36 71 31 72 32 73 33 74 34 75 35 76 58 77 59 78
REMARK SMILES IDX 67 79 60 80 66 81 61 82 62 83 63 84 64 85 65 86 44 87 45 88
REMARK SMILES IDX 53 89 46 90 52 91 47 92 48 93 49 94 50 95 51 96
REMARK H PARENT 12 5 3 17 83 21 16 33 72 52 42 63
REMARK Flexibility Score: inf
ROOT
ATOM      1  C   UNL     1      11.074   0.596   2.822  1.00  0.00     0.118 C 
ENDROOT
BRANCH   1   2
ATOM      2  N   UNL     1      11.698   0.225   1.560  1.00  0.00    -0.352 N 
ATOM      3  C   UNL     1      11.159  -0.337   0.430  1.00  0.00     0.251 C 
ATOM      4  O   UNL     1      11.880  -0.559  -0.539  1.00  0.00    -0.269 OA
ATOM      5  H   UNL     1      12.664   0.407   1.510  1.00  0.00     0.163 HD
BRANCH   3   6
ATOM      6  C   UNL     1       9.698  -0.517   0.316  1.00  0.00     0.039 A 
ATOM      7  C   UNL     1       6.682   0.018   0.274  1.00  0.00    -0.005 A 
ATOM      8  C   UNL     1       7.688   0.130  -0.852  1.00  0.00     0.010 A 
ATOM      9  C   UNL     1       7.474  -0.861   1.215  1.00  0.00     0.010 A 
ATOM     10  C   UNL     1       9.088  -0.086  -0.832  1.00  0.00     0.014 A 
ATOM     11  C   UNL     1       8.881  -1.063   1.273  1.00  0.00     0.014 A 
BRANCH   7  12
ATOM     12  C   UNL     1       4.759   0.912   0.475  1.00  0.00     0.141 C 
ATOM     13  N   UNL     1       3.590   0.629   1.146  1.00  0.00    -0.180 NA
BRANCH  13  14
ATOM     14  N   UNL     1       2.465   1.020   0.511  1.00  0.00    -0.239 N 
ATOM     15  O   UNL     1       0.589   0.436  -0.562  1.00  0.00    -0.262 OA
ATOM     16  C   UNL     1       1.794   0.209  -0.402  1.00  0.00     0.329 C 
ATOM     17  H   UNL     1       2.104   1.915   0.700  1.00  0.00     0.194 HD
BRANCH  16  18
ATOM     18  C   UNL     1       2.429  -0.923  -1.270  1.00  0.00     0.315 C 
ATOM     19  O   UNL     1       1.657  -1.566  -1.992  1.00  0.00    -0.263 OA
ATOM     20  N   UNL     1       3.777  -1.212  -1.431  1.00  0.00    -0.318 N 
ATOM     21  H   UNL     1       3.993  -1.873  -2.128  1.00  0.00     0.170 HD
BRANCH  20  22
ATOM     22  C   UNL     1       4.860  -0.689  -0.736  1.00  0.00     0.042 A 
ATOM     23  C   UNL     1       5.484   0.888  -1.399  1.00  0.00     0.026 A 
ATOM     24  C   UNL     1       4.958  -1.059   1.046  1.00  0.00     0.041 A 
ATOM     25  C   UNL     1       6.266   2.103  -0.256  1.00  0.00     0.003 A 
ATOM     26  C   UNL     1       5.612   0.231   2.191  1.00  0.00     0.020 A 
ATOM     27  C   UNL     1       6.297   1.772   1.527  1.00  0.00     0.016 A 
ATOM     28  Br  UNL     1       5.435   0.020   4.067  1.00  0.00    -0.051 Br
ENDBRANCH  20  22
ENDBRANCH  16  18
ENDBRANCH  13  14
ENDBRANCH   7  12
ENDBRANCH   3   6
ENDBRANCH   1   2
BRANCH   1  29
ATOM     29  C   UNL     1      11.241  -0.515   3.850  1.00  0.00     0.042 C 
BRANCH  29  30
ATOM     30  C   UNL     1      12.689  -0.704   4.279  1.00  0.00     0.118 C 
BRANCH  30  31
ATOM     31  N   UNL     1      13.130   0.345   5.185  1.00  0.00    -0.352 N 
ATOM     32  C   UNL     1      13.583   0.225   6.477  1.00  0.00     0.251 C 
ATOM     33  H   UNL     1      13.101   1.261   4.826  1.00  0.00     0.163 HD
ATOM     34  O   UNL     1      13.706   1.223   7.180  1.00  0.00    -0.269 OA
BRANCH  32  35
ATOM     35  C   UNL     1      13.898  -1.116   7.014  1.00  0.00     0.039 A 
ATOM     36  C   UNL     1      13.441  -1.469   8.286  1.00  0.00     0.014 A 
ATOM     37  C   UNL     1      14.627  -2.030   6.249  1.00  0.00     0.014 A 
ATOM     38  C   UNL     1      13.662  -2.763   8.765  1.00  0.00     0.010 A 
ATOM     39  C   UNL     1      14.771  -3.339   6.690  1.00  0.00     0.010 A 
ATOM     40  C   UNL     1      14.299  -3.718   7.957  1.00  0.00    -0.014 A 
BRANCH  40  41
ATOM     41  C   UNL     1      14.515  -5.116   8.408  1.00  0.00     0.031 A 
ATOM     42  C   UNL     1      15.920  -5.642   8.536  1.00  0.00     0.074 A 
ATOM     43  C   UNL     1      13.460  -5.935   8.597  1.00  0.00     0.049 A 
ATOM     44  N   UNL     1      16.325  -6.865   8.754  1.00  0.00    -0.248 NA
ATOM     45  C   UNL     1      17.013  -4.670   8.360  1.00  0.00     0.031 C 
ATOM     46  C   UNL     1      12.052  -5.552   8.466  1.00  0.00     0.029 A 
ATOM     47  N   UNL     1      13.411  -7.270   8.912  1.00  0.00    -0.354 N 
ATOM     48  C   UNL     1      17.714  -6.817   8.701  1.00  0.00     0.074 A 
ATOM     49  C   UNL     1      18.082  -5.453   8.398  1.00  0.00     0.031 C 
ATOM     50  C   UNL     1      11.280  -6.625   8.703  1.00  0.00     0.029 A 
ATOM     51  C   UNL     1      12.134  -7.782   8.953  1.00  0.00     0.049 A 
ATOM     52  H   UNL     1      14.214  -7.811   9.093  1.00  0.00     0.167 HD
ATOM     53  C   UNL     1      18.602  -7.819   8.899  1.00  0.00     0.031 A 
ATOM     54  C   UNL     1      11.700  -9.043   9.143  1.00  0.00     0.031 A 
ATOM     55  C   UNL     1      18.229  -9.165   9.237  1.00  0.00     0.049 A 
ATOM     56  C   UNL     1      12.709 -10.137   9.373  1.00  0.00     0.074 A 
ATOM     57  C   UNL     1      19.055 -10.233   9.540  1.00  0.00     0.029 A 
ATOM     58  N   UNL     1      16.925  -9.629   9.317  1.00  0.00    -0.354 N 
ATOM     59  N   UNL     1      14.018 -10.057   9.394  1.00  0.00    -0.248 NA
ATOM     60  C   UNL     1      12.185 -11.490   9.612  1.00  0.00     0.031 C 
ATOM     61  C   UNL     1      18.252 -11.357   9.749  1.00  0.00     0.029 A 
ATOM     62  C   UNL     1      16.924 -10.975   9.638  1.00  0.00     0.049 A 
ATOM     63  H   UNL     1      16.120  -9.083   9.167  1.00  0.00     0.167 HD
ATOM     64  C   UNL     1      14.472 -11.340   9.681  1.00  0.00     0.074 A 
ATOM     65  C   UNL     1      13.299 -12.175   9.834  1.00  0.00     0.031 C 
ATOM     66  C   UNL     1      15.745 -11.786   9.806  1.00  0.00     0.031 A 
BRANCH  53  67
ATOM     67  C   UNL     1      20.067  -7.506   8.749  1.00  0.00    -0.014 A 
ATOM     68  C   UNL     1      20.745  -6.715   9.693  1.00  0.00     0.010 A 
ATOM     69  C   UNL     1      20.791  -8.073   7.685  1.00  0.00     0.010 A 
ATOM     70  C   UNL     1      22.115  -6.474   9.560  1.00  0.00     0.020 A 
ATOM     71  C   UNL     1      22.167  -7.859   7.563  1.00  0.00     0.020 A 
ATOM     72  C   UNL     1      22.818  -7.050   8.497  1.00  0.00     0.054 A 
BRANCH  72  73
ATOM     73  S   UNL     1      24.605  -6.762   8.379  1.00  0.00     0.124 S 
ATOM     74  O   UNL     1      24.657  -5.362   7.965  1.00  0.00    -0.237 OA
ATOM     75  O   UNL     1      25.062  -7.031   9.740  1.00  0.00    -0.237 OA
ATOM     76  O   UNL     1      25.047  -7.725   7.374  1.00  0.00    -0.744 OA
ENDBRANCH  72  73
ENDBRANCH  53  67
BRANCH  54  77
ATOM     77  C   UNL     1      10.242  -9.347   9.108  1.00  0.00    -0.014 A 
ATOM     78  C   UNL     1       9.558  -9.723  10.277  1.00  0.00     0.010 A 
ATOM     79  C   UNL     1       9.530  -9.266   7.897  1.00  0.00     0.010 A 
ATOM     80  C   UNL     1       8.197 -10.040  10.232  1.00  0.00     0.020 A 
ATOM     81  C   UNL     1       8.163  -9.552   7.853  1.00  0.00     0.020 A 
ATOM     82  C   UNL     1       7.508  -9.954   9.018  1.00  0.00     0.054 A 
BRANCH  82  83
ATOM     83  S   UNL     1       5.735 -10.340   8.987  1.00  0.00     0.124 S 
ATOM     84  O   UNL     1       5.740 -11.794   9.108  1.00  0.00    -0.237 OA
ATOM     85  O   UNL     1       5.233  -9.609  10.148  1.00  0.00    -0.237 OA
ATOM     86  O   UNL     1       5.296  -9.818   7.695  1.00  0.00    -0.744 OA
ENDBRANCH  82  83
ENDBRANCH  54  77
BRANCH  66  87
ATOM     87  C   UNL     1      15.951 -13.229  10.177  1.00  0.00    -0.014 A 
ATOM     88  C   UNL     1      15.746 -14.259   9.243  1.00  0.00     0.010 A 
ATOM     89  C   UNL     1      16.457 -13.546  11.451  1.00  0.00     0.010 A 
ATOM     90  C   UNL     1      16.032 -15.584   9.583  1.00  0.00     0.020 A 
ATOM     91  C   UNL     1      16.769 -14.865  11.785  1.00  0.00     0.020 A 
ATOM     92  C   UNL     1      16.548 -15.878  10.849  1.00  0.00     0.054 A 
BRANCH  92  93
ATOM     93  S   UNL     1      16.987 -17.594  11.236  1.00  0.00     0.124 S 
ATOM     94  O   UNL     1      15.675 -18.216  11.393  1.00  0.00    -0.237 OA
ATOM     95  O   UNL     1      17.740 -18.006  10.053  1.00  0.00    -0.237 OA
ATOM     96  O   UNL     1      17.775 -17.483  12.461  1.00  0.00    -0.744 OA
ENDBRANCH  92  93
ENDBRANCH  66  87
ENDBRANCH  40  41
ENDBRANCH  32  35
ENDBRANCH  30  31
ENDBRANCH  29  30
ENDBRANCH   1  29
TORSDOF 17
