REMARK SMILES Cc1ccc(C(=O)N2C[C@@H](C(=O)NCCCNC(=O)c3ccc(-c4c5nc(c(-c6ccc(S(=O)(=O)[O-])cc6)c6ccc([nH]6)c(-c6ccc(S(=O)(=O)[O-])cc6)c6nc(c(-c7ccc(S(=O)(=O)[O-])cc7)c7ccc4[nH]7)C=C6)C=C5)cc3)C[C@H](C(=O)N3CCOCC3)C2)cc1F
REMARK SMILES IDX 15 1 14 2 13 3 11 4 12 5 10 7 8 8 9 9 90 10 81 11 80 12 6 13
REMARK SMILES IDX 7 14 5 15 1 16 2 17 3 18 92 19 4 20 91 21 93 22 82 23 83 24
REMARK SMILES IDX 84 25 85 26 89 27 86 28 88 29 87 30 16 31 17 32 18 33 19 35
REMARK SMILES IDX 20 36 21 37 79 38 22 39 78 40 23 41 24 42 25 43 72 44 26 45
REMARK SMILES IDX 77 46 71 47 73 48 27 49 76 50 70 51 69 52 28 54 58 55 39 56
REMARK SMILES IDX 57 57 40 58 43 59 56 60 74 61 41 62 42 63 55 65 75 66 44 67
REMARK SMILES IDX 29 68 30 69 38 70 31 71 37 72 32 73 33 74 34 75 35 76 36 77
REMARK SMILES IDX 59 78 60 79 68 80 61 81 67 82 62 83 63 84 64 85 65 86 66 87
REMARK SMILES IDX 45 88 46 89 54 90 47 91 53 92 48 93 49 94 50 95 51 96 52 97
REMARK H PARENT 13 6 17 34 73 53 43 64
REMARK Flexibility Score: inf
ROOT
ATOM      1  C   UNL     1      -8.990   1.484   1.277  1.00  0.00     0.042 C 
ENDROOT
BRANCH   1   2
ATOM      2  C   UNL     1      -7.773   0.788   1.853  1.00  0.00     0.117 C 
BRANCH   2   3
ATOM      3  N   UNL     1      -8.100  -0.547   2.321  1.00  0.00    -0.356 N 
ATOM      4  C   UNL     1      -7.682  -1.760   1.893  1.00  0.00     0.224 C 
ATOM      5  O   UNL     1      -8.228  -2.762   2.360  1.00  0.00    -0.275 OA
ATOM      6  H   UNL     1      -8.731  -0.573   3.076  1.00  0.00     0.163 HD
BRANCH   4   7
ATOM      7  C   UNL     1      -6.570  -1.896   0.879  1.00  0.00     0.099 C 
ATOM      8  N   UNL     1      -4.251  -1.154   0.357  1.00  0.00    -0.337 N 
ATOM      9  C   UNL     1      -5.290  -1.242   1.367  1.00  0.00     0.133 C 
ATOM     10  C   UNL     1      -4.640  -0.684  -0.974  1.00  0.00     0.133 C 
ATOM     11  C   UNL     1      -5.848  -1.447  -1.550  1.00  0.00     0.099 C 
ATOM     12  C   UNL     1      -7.000  -1.565  -0.551  1.00  0.00     0.030 C 
BRANCH   8  13
ATOM     13  C   UNL     1      -2.949  -1.326   0.808  1.00  0.00     0.254 C 
ATOM     14  O   UNL     1      -2.675  -2.039   1.774  1.00  0.00    -0.269 OA
BRANCH  13  15
ATOM     15  C   UNL     1      -1.837  -0.545   0.229  1.00  0.00     0.042 A 
ATOM     16  C   UNL     1       1.717   1.819  -0.237  1.00  0.00     0.047 C 
ATOM     17  C   UNL     1       0.460   1.006  -0.174  1.00  0.00    -0.015 A 
ATOM     18  C   UNL     1      -0.800   1.616  -0.125  1.00  0.00     0.007 A 
ATOM     19  C   UNL     1       0.542  -0.387  -0.078  1.00  0.00     0.126 A 
ATOM     20  C   UNL     1      -1.947   0.844   0.083  1.00  0.00     0.014 A 
ATOM     21  C   UNL     1      -0.590  -1.165   0.127  1.00  0.00     0.053 A 
ATOM     22  F   UNL     1       1.740  -0.987  -0.114  1.00  0.00    -0.207 F 
ENDBRANCH  13  15
ENDBRANCH   8  13
BRANCH  11  23
ATOM     23  C   UNL     1      -5.350  -2.685  -2.315  1.00  0.00     0.227 C 
ATOM     24  O   UNL     1      -5.117  -2.571  -3.524  1.00  0.00    -0.275 OA
ATOM     25  N   UNL     1      -4.895  -3.784  -1.628  1.00  0.00    -0.338 N 
ATOM     26  C   UNL     1      -5.681  -4.658  -0.759  1.00  0.00     0.148 C 
ATOM     27  C   UNL     1      -3.640  -4.407  -2.043  1.00  0.00     0.148 C 
ATOM     28  C   UNL     1      -4.839  -5.047   0.466  1.00  0.00     0.181 C 
ATOM     29  C   UNL     1      -2.848  -4.821  -0.797  1.00  0.00     0.181 C 
ATOM     30  O   UNL     1      -3.622  -5.694   0.047  1.00  0.00    -0.378 OA
ENDBRANCH  11  23
ENDBRANCH   4   7
ENDBRANCH   2   3
ENDBRANCH   1   2
BRANCH   1  31
ATOM     31  C   UNL     1     -10.138   1.583   2.266  1.00  0.00     0.118 C 
BRANCH  31  32
ATOM     32  N   UNL     1      -9.754   2.281   3.488  1.00  0.00    -0.352 N 
ATOM     33  C   UNL     1     -10.129   3.524   3.932  1.00  0.00     0.251 C 
ATOM     34  H   UNL     1      -9.138   1.790   4.079  1.00  0.00     0.163 HD
ATOM     35  O   UNL     1      -9.510   4.064   4.846  1.00  0.00    -0.269 OA
BRANCH  33  36
ATOM     36  C   UNL     1     -11.263   4.206   3.283  1.00  0.00     0.039 A 
ATOM     37  C   UNL     1     -11.159   5.559   2.960  1.00  0.00     0.014 A 
ATOM     38  C   UNL     1     -12.415   3.486   2.957  1.00  0.00     0.014 A 
ATOM     39  C   UNL     1     -12.183   6.168   2.234  1.00  0.00     0.010 A 
ATOM     40  C   UNL     1     -13.374   4.061   2.138  1.00  0.00     0.010 A 
ATOM     41  C   UNL     1     -13.274   5.411   1.776  1.00  0.00    -0.014 A 
BRANCH  41  42
ATOM     42  C   UNL     1     -14.327   6.004   0.918  1.00  0.00     0.031 A 
ATOM     43  C   UNL     1     -15.756   6.023   1.391  1.00  0.00     0.074 A 
ATOM     44  C   UNL     1     -14.009   6.450  -0.313  1.00  0.00     0.049 A 
ATOM     45  N   UNL     1     -16.826   6.430   0.760  1.00  0.00    -0.248 NA
ATOM     46  C   UNL     1     -16.022   5.485   2.737  1.00  0.00     0.031 C 
ATOM     47  C   UNL     1     -12.667   6.435  -0.901  1.00  0.00     0.029 A 
ATOM     48  N   UNL     1     -14.794   6.996  -1.297  1.00  0.00    -0.354 N 
ATOM     49  C   UNL     1     -17.888   6.180   1.620  1.00  0.00     0.074 A 
ATOM     50  C   UNL     1     -17.344   5.532   2.791  1.00  0.00     0.031 C 
ATOM     51  C   UNL     1     -12.717   6.980  -2.127  1.00  0.00     0.029 A 
ATOM     52  C   UNL     1     -14.098   7.335  -2.433  1.00  0.00     0.049 A 
ATOM     53  H   UNL     1     -15.764   7.133  -1.198  1.00  0.00     0.167 HD
ATOM     54  C   UNL     1     -19.197   6.485   1.460  1.00  0.00     0.031 A 
ATOM     55  C   UNL     1     -14.526   7.864  -3.596  1.00  0.00     0.031 A 
ATOM     56  C   UNL     1     -19.729   7.140   0.295  1.00  0.00     0.049 A 
ATOM     57  C   UNL     1     -15.987   8.180  -3.758  1.00  0.00     0.074 A 
ATOM     58  C   UNL     1     -21.028   7.551   0.059  1.00  0.00     0.029 A 
ATOM     59  N   UNL     1     -18.990   7.473  -0.831  1.00  0.00    -0.354 N 
ATOM     60  N   UNL     1     -16.965   8.009  -2.901  1.00  0.00    -0.248 NA
ATOM     61  C   UNL     1     -16.401   8.767  -5.039  1.00  0.00     0.031 C 
ATOM     62  C   UNL     1     -21.088   8.075  -1.236  1.00  0.00     0.029 A 
ATOM     63  C   UNL     1     -19.813   8.054  -1.780  1.00  0.00     0.049 A 
ATOM     64  H   UNL     1     -18.024   7.319  -0.939  1.00  0.00     0.167 HD
ATOM     65  C   UNL     1     -18.108   8.489  -3.530  1.00  0.00     0.074 A 
ATOM     66  C   UNL     1     -17.694   8.975  -4.832  1.00  0.00     0.031 C 
ATOM     67  C   UNL     1     -19.384   8.525  -3.073  1.00  0.00     0.031 A 
BRANCH  54  68
ATOM     68  C   UNL     1     -20.143   6.104   2.569  1.00  0.00    -0.014 A 
ATOM     69  C   UNL     1     -20.087   6.736   3.826  1.00  0.00     0.010 A 
ATOM     70  C   UNL     1     -21.125   5.122   2.343  1.00  0.00     0.010 A 
ATOM     71  C   UNL     1     -20.962   6.361   4.848  1.00  0.00     0.020 A 
ATOM     72  C   UNL     1     -22.024   4.768   3.353  1.00  0.00     0.020 A 
ATOM     73  C   UNL     1     -21.925   5.378   4.605  1.00  0.00     0.054 A 
BRANCH  73  74
ATOM     74  S   UNL     1     -23.062   4.928   5.944  1.00  0.00     0.124 S 
ATOM     75  O   UNL     1     -22.180   4.204   6.856  1.00  0.00    -0.237 OA
ATOM     76  O   UNL     1     -23.526   6.229   6.419  1.00  0.00    -0.237 OA
ATOM     77  O   UNL     1     -24.076   4.112   5.280  1.00  0.00    -0.744 OA
ENDBRANCH  73  74
ENDBRANCH  54  68
BRANCH  55  78
ATOM     78  C   UNL     1     -13.552   8.135  -4.690  1.00  0.00    -0.014 A 
ATOM     79  C   UNL     1     -13.222   9.455  -5.042  1.00  0.00     0.010 A 
ATOM     80  C   UNL     1     -12.929   7.071  -5.369  1.00  0.00     0.010 A 
ATOM     81  C   UNL     1     -12.297   9.707  -6.060  1.00  0.00     0.020 A 
ATOM     82  C   UNL     1     -11.982   7.319  -6.366  1.00  0.00     0.020 A 
ATOM     83  C   UNL     1     -11.679   8.636  -6.712  1.00  0.00     0.054 A 
BRANCH  83  84
ATOM     84  S   UNL     1     -10.436   8.989  -7.986  1.00  0.00     0.124 S 
ATOM     85  O   UNL     1     -11.258   9.491  -9.082  1.00  0.00    -0.237 OA
ATOM     86  O   UNL     1      -9.584   9.975  -7.327  1.00  0.00    -0.237 OA
ATOM     87  O   UNL     1      -9.807   7.690  -8.217  1.00  0.00    -0.744 OA
ENDBRANCH  83  84
ENDBRANCH  55  78
BRANCH  67  88
ATOM     88  C   UNL     1     -20.427   9.131  -3.975  1.00  0.00    -0.014 A 
ATOM     89  C   UNL     1     -20.862   8.467  -5.134  1.00  0.00     0.010 A 
ATOM     90  C   UNL     1     -21.026  10.353  -3.617  1.00  0.00     0.010 A 
ATOM     91  C   UNL     1     -21.860   9.027  -5.935  1.00  0.00     0.020 A 
ATOM     92  C   UNL     1     -22.047  10.900  -4.398  1.00  0.00     0.020 A 
ATOM     93  C   UNL     1     -22.449  10.239  -5.559  1.00  0.00     0.054 A 
BRANCH  93  94
ATOM     94  S   UNL     1     -23.781  10.915  -6.587  1.00  0.00     0.124 S 
ATOM     95  O   UNL     1     -23.054  11.357  -7.774  1.00  0.00    -0.237 OA
ATOM     96  O   UNL     1     -24.654   9.760  -6.778  1.00  0.00    -0.237 OA
ATOM     97  O   UNL     1     -24.343  11.986  -5.767  1.00  0.00    -0.744 OA
ENDBRANCH  93  94
ENDBRANCH  67  88
ENDBRANCH  41  42
ENDBRANCH  33  36
ENDBRANCH  31  32
ENDBRANCH   1  31
TORSDOF 16
