REMARK SMILES CCCC[C@@H](C(=O)NCCCNC(=O)c1ccc(-c2c3nc(c(-c4ccc(S(=O)(=O)[O-])cc4)c4ccc([nH]4)c(-c4ccc(S(=O)(=O)[O-])cc4)c4nc(c(-c5ccc(S(=O)(=O)[O-])cc5)c5ccc2[nH]5)C=C4)C=C3)cc1)[C@]1(O)CCC[C@H](C(C)(C)C)CC1
REMARK SMILES IDX 9 1 8 2 6 3 7 4 5 6 4 7 3 8 2 9 1 10 75 11 76 12 77 14 78 15
REMARK SMILES IDX 86 17 85 18 80 19 79 20 81 22 82 23 83 24 84 25 10 26 11 27
REMARK SMILES IDX 12 28 13 29 14 31 15 32 16 33 74 34 17 35 73 36 18 37 19 38
REMARK SMILES IDX 20 39 67 40 21 41 72 42 66 43 68 44 22 45 71 46 65 47 64 48
REMARK SMILES IDX 23 50 53 51 34 52 52 53 35 54 38 55 51 56 69 57 36 58 37 59
REMARK SMILES IDX 50 61 70 62 39 63 24 64 25 65 33 66 26 67 32 68 27 69 28 70
REMARK SMILES IDX 29 71 30 72 31 73 54 74 55 75 63 76 56 77 62 78 57 79 58 80
REMARK SMILES IDX 59 81 60 82 61 83 40 84 41 85 49 86 42 87 48 88 43 89 44 90
REMARK SMILES IDX 45 91 46 92 47 93
REMARK H PARENT 8 5 76 13 12 30 68 49 38 60
REMARK Flexibility Score: 90.00
ROOT
ATOM      1  C   UNL     1      -1.032   0.770   3.651  1.00  0.00     0.117 C 
ENDROOT
BRANCH   1   2
ATOM      2  N   UNL     1      -1.285   2.199   3.695  1.00  0.00    -0.356 N 
ATOM      3  C   UNL     1      -1.029   3.168   2.764  1.00  0.00     0.226 C 
ATOM      4  O   UNL     1      -0.964   4.324   3.185  1.00  0.00    -0.275 OA
ATOM      5  H   UNL     1      -1.707   2.521   4.524  1.00  0.00     0.163 HD
BRANCH   3   6
ATOM      6  C   UNL     1      -0.893   2.804   1.275  1.00  0.00     0.110 C 
BRANCH   6   7
ATOM      7  C   UNL     1       0.601   2.800   0.844  1.00  0.00     0.016 C 
BRANCH   7   8
ATOM      8  C   UNL     1       1.454   1.575   1.187  1.00  0.00     0.001 C 
BRANCH   8   9
ATOM      9  C   UNL     1       0.982   0.234   0.625  1.00  0.00    -0.003 C 
ATOM     10  C   UNL     1       1.371   0.029  -0.828  1.00  0.00     0.004 C 
ENDBRANCH   8   9
ENDBRANCH   7   8
ENDBRANCH   6   7
BRANCH   6  11
ATOM     11  C   UNL     1      -1.724   3.792   0.359  1.00  0.00     0.076 C 
BRANCH  11  12
ATOM     12  O   UNL     1      -0.912   4.968   0.137  1.00  0.00    -0.389 OA
ATOM     13  H   UNL     1      -0.714   5.390   0.988  1.00  0.00     0.211 HD
ENDBRANCH  11  12
BRANCH  11  14
ATOM     14  C   UNL     1      -3.050   4.302   0.962  1.00  0.00     0.036 C 
BRANCH  14  15
ATOM     15  C   UNL     1      -4.131   3.257   1.180  1.00  0.00     0.003 CG0
ATOM     16  G   UNL     1      -4.750   2.816  -0.135  1.00  0.00     0.000 G0
ENDBRANCH  14  15
ENDBRANCH  11  14
BRANCH  11  17
ATOM     17  C   UNL     1      -1.972   3.211  -1.069  1.00  0.00     0.036 C 
BRANCH  17  18
ATOM     18  C   UNL     1      -2.589   1.810  -1.192  1.00  0.00     0.007 C 
BRANCH  18  19
ATOM     19  C   UNL     1      -4.088   1.617  -0.839  1.00  0.00    -0.006 C 
BRANCH  19  20
ATOM     20  C   UNL     1      -4.750   2.816  -0.135  1.00  0.00     0.004 CG0
ATOM     21  G   UNL     1      -4.131   3.257   1.180  1.00  0.00     0.000 G0
ENDBRANCH  19  20
BRANCH  19  22
ATOM     22  C   UNL     1      -4.441   0.178  -0.254  1.00  0.00    -0.035 C 
ATOM     23  C   UNL     1      -5.827   0.146   0.428  1.00  0.00     0.011 C 
ATOM     24  C   UNL     1      -4.488  -0.827  -1.429  1.00  0.00     0.011 C 
ATOM     25  C   UNL     1      -3.426  -0.365   0.771  1.00  0.00     0.011 C 
ENDBRANCH  19  22
ENDBRANCH  18  19
ENDBRANCH  17  18
ENDBRANCH  11  17
ENDBRANCH   6  11
ENDBRANCH   3   6
ENDBRANCH   1   2
BRANCH   1  26
ATOM     26  C   UNL     1       0.292   0.449   4.335  1.00  0.00     0.042 C 
BRANCH  26  27
ATOM     27  C   UNL     1       0.190   0.377   5.846  1.00  0.00     0.118 C 
BRANCH  27  28
ATOM     28  N   UNL     1      -0.391  -0.876   6.298  1.00  0.00    -0.352 N 
ATOM     29  C   UNL     1       0.156  -1.851   7.099  1.00  0.00     0.251 C 
ATOM     30  H   UNL     1      -1.308  -1.052   5.986  1.00  0.00     0.163 HD
ATOM     31  O   UNL     1      -0.410  -2.934   7.199  1.00  0.00    -0.269 OA
BRANCH  29  32
ATOM     32  C   UNL     1       1.431  -1.605   7.815  1.00  0.00     0.039 A 
ATOM     33  C   UNL     1       2.359  -2.645   7.921  1.00  0.00     0.014 A 
ATOM     34  C   UNL     1       1.713  -0.365   8.393  1.00  0.00     0.014 A 
ATOM     35  C   UNL     1       3.581  -2.424   8.561  1.00  0.00     0.010 A 
ATOM     36  C   UNL     1       2.972  -0.114   8.929  1.00  0.00     0.010 A 
ATOM     37  C   UNL     1       3.912  -1.147   9.044  1.00  0.00    -0.014 A 
BRANCH  37  38
ATOM     38  C   UNL     1       5.214  -0.881   9.708  1.00  0.00     0.031 A 
ATOM     39  C   UNL     1       5.247  -0.420  11.143  1.00  0.00     0.074 A 
ATOM     40  C   UNL     1       6.361  -1.004   9.011  1.00  0.00     0.049 A 
ATOM     41  N   UNL     1       6.277  -0.099  11.884  1.00  0.00    -0.248 NA
ATOM     42  C   UNL     1       3.951  -0.272  11.827  1.00  0.00     0.031 C 
ATOM     43  C   UNL     1       6.460  -1.400   7.604  1.00  0.00     0.029 A 
ATOM     44  N   UNL     1       7.665  -0.807   9.391  1.00  0.00    -0.354 N 
ATOM     45  C   UNL     1       5.752   0.307  13.106  1.00  0.00     0.074 A 
ATOM     46  C   UNL     1       4.313   0.253  12.987  1.00  0.00     0.031 C 
ATOM     47  C   UNL     1       7.755  -1.457   7.253  1.00  0.00     0.029 A 
ATOM     48  C   UNL     1       8.576  -1.058   8.391  1.00  0.00     0.049 A 
ATOM     49  H   UNL     1       7.925  -0.515  10.295  1.00  0.00     0.167 HD
ATOM     50  C   UNL     1       6.406   0.668  14.236  1.00  0.00     0.031 A 
ATOM     51  C   UNL     1       9.921  -0.975   8.390  1.00  0.00     0.031 A 
ATOM     52  C   UNL     1       7.839   0.708  14.353  1.00  0.00     0.049 A 
ATOM     53  C   UNL     1      10.628  -0.562   9.652  1.00  0.00     0.074 A 
ATOM     54  C   UNL     1       8.604   1.006  15.466  1.00  0.00     0.029 A 
ATOM     55  N   UNL     1       8.724   0.446  13.317  1.00  0.00    -0.354 N 
ATOM     56  N   UNL     1      10.115  -0.247  10.818  1.00  0.00    -0.248 NA
ATOM     57  C   UNL     1      12.095  -0.507   9.602  1.00  0.00     0.031 C 
ATOM     58  C   UNL     1       9.950   0.980  15.089  1.00  0.00     0.029 A 
ATOM     59  C   UNL     1      10.027   0.600  13.758  1.00  0.00     0.049 A 
ATOM     60  H   UNL     1       8.464   0.188  12.403  1.00  0.00     0.167 HD
ATOM     61  C   UNL     1      11.199   0.017  11.649  1.00  0.00     0.074 A 
ATOM     62  C   UNL     1      12.393  -0.191  10.855  1.00  0.00     0.031 C 
ATOM     63  C   UNL     1      11.205   0.393  12.952  1.00  0.00     0.031 A 
BRANCH  50  64
ATOM     64  C   UNL     1       5.570   1.054  15.430  1.00  0.00    -0.014 A 
ATOM     65  C   UNL     1       4.779   0.106  16.105  1.00  0.00     0.010 A 
ATOM     66  C   UNL     1       5.587   2.381  15.896  1.00  0.00     0.010 A 
ATOM     67  C   UNL     1       3.980   0.488  17.186  1.00  0.00     0.020 A 
ATOM     68  C   UNL     1       4.816   2.761  16.999  1.00  0.00     0.020 A 
ATOM     69  C   UNL     1       4.000   1.815  17.624  1.00  0.00     0.054 A 
BRANCH  69  70
ATOM     70  S   UNL     1       2.958   2.280  19.033  1.00  0.00     0.124 S 
ATOM     71  O   UNL     1       1.621   2.240  18.445  1.00  0.00    -0.237 OA
ATOM     72  O   UNL     1       3.247   1.230  20.006  1.00  0.00    -0.237 OA
ATOM     73  O   UNL     1       3.438   3.611  19.396  1.00  0.00    -0.744 OA
ENDBRANCH  69  70
ENDBRANCH  50  64
BRANCH  51  74
ATOM     74  C   UNL     1      10.683  -1.317   7.157  1.00  0.00    -0.014 A 
ATOM     75  C   UNL     1      11.459  -2.489   7.101  1.00  0.00     0.010 A 
ATOM     76  C   UNL     1      10.614  -0.490   6.021  1.00  0.00     0.010 A 
ATOM     77  C   UNL     1      12.160  -2.821   5.938  1.00  0.00     0.020 A 
ATOM     78  C   UNL     1      11.289  -0.834   4.846  1.00  0.00     0.020 A 
ATOM     79  C   UNL     1      12.066  -1.993   4.815  1.00  0.00     0.054 A 
BRANCH  79  80
ATOM     80  S   UNL     1      12.931  -2.480   3.296  1.00  0.00     0.124 S 
ATOM     81  O   UNL     1      14.326  -2.242   3.651  1.00  0.00    -0.237 OA
ATOM     82  O   UNL     1      12.545  -3.881   3.150  1.00  0.00    -0.237 OA
ATOM     83  O   UNL     1      12.379  -1.582   2.284  1.00  0.00    -0.744 OA
ENDBRANCH  79  80
ENDBRANCH  51  74
BRANCH  63  84
ATOM     84  C   UNL     1      12.545   0.573  13.616  1.00  0.00    -0.014 A 
ATOM     85  C   UNL     1      13.380   1.659  13.297  1.00  0.00     0.010 A 
ATOM     86  C   UNL     1      12.947  -0.331  14.616  1.00  0.00     0.010 A 
ATOM     87  C   UNL     1      14.608   1.817  13.944  1.00  0.00     0.020 A 
ATOM     88  C   UNL     1      14.159  -0.157  15.288  1.00  0.00     0.020 A 
ATOM     89  C   UNL     1      14.990   0.908  14.936  1.00  0.00     0.054 A 
BRANCH  89  90
ATOM     90  S   UNL     1      16.569   1.162  15.791  1.00  0.00     0.124 S 
ATOM     91  O   UNL     1      17.535   0.790  14.761  1.00  0.00    -0.237 OA
ATOM     92  O   UNL     1      16.525   2.582  16.129  1.00  0.00    -0.237 OA
ATOM     93  O   UNL     1      16.496   0.253  16.933  1.00  0.00    -0.744 OA
ENDBRANCH  89  90
ENDBRANCH  63  84
ENDBRANCH  37  38
ENDBRANCH  29  32
ENDBRANCH  27  28
ENDBRANCH  26  27
ENDBRANCH   1  26
TORSDOF 19
