REMARK SMILES CC(=O)N[C@@H](Cc1c(OCC(C)C)ccc2ccccc12)C(=O)NCCCNC(=O)c1ccc(-c2c3nc(c(-c4ccc(S(=O)(=O)[O-])cc4)c4ccc([nH]4)c(-c4ccc(S(=O)(=O)[O-])cc4)c4nc(c(-c5ccc(S(=O)(=O)[O-])cc5)c5ccc2[nH]5)C=C4)C=C3)cc1
REMARK SMILES IDX 25 1 24 2 22 3 23 4 5 6 4 7 1 8 2 9 3 10 6 12 7 13 8 14
REMARK SMILES IDX 21 15 14 16 16 17 20 18 15 19 17 20 19 21 18 22 9 23 10 24
REMARK SMILES IDX 11 25 12 26 13 27 26 28 27 29 28 30 29 31 30 33 31 34 32 35
REMARK SMILES IDX 90 36 33 37 89 38 34 39 35 40 36 41 83 42 37 43 88 44 82 45
REMARK SMILES IDX 84 46 38 47 87 48 81 49 80 50 39 52 69 53 50 54 68 55 51 56
REMARK SMILES IDX 54 57 67 58 85 59 52 60 53 61 66 63 86 64 55 65 40 66 41 67
REMARK SMILES IDX 49 68 42 69 48 70 43 71 44 72 45 73 46 74 47 75 70 76 71 77
REMARK SMILES IDX 79 78 72 79 78 80 73 81 74 82 75 83 76 84 77 85 56 86 57 87
REMARK SMILES IDX 65 88 58 89 64 90 59 91 60 92 61 93 62 94 63 95
REMARK H PARENT 24 5 4 11 28 32 84 51 54 62
REMARK Flexibility Score: inf
ROOT
ATOM      1  C   UNL     1       0.148   5.278   0.547  1.00  0.00     0.117 C 
ENDROOT
BRANCH   1   2
ATOM      2  N   UNL     1       0.281   4.428   1.700  1.00  0.00    -0.354 N 
ATOM      3  C   UNL     1       1.251   3.474   1.883  1.00  0.00     0.242 C 
ATOM      4  O   UNL     1       1.552   3.186   3.047  1.00  0.00    -0.273 OA
ATOM      5  H   UNL     1      -0.381   4.539   2.420  1.00  0.00     0.163 HD
BRANCH   3   6
ATOM      6  C   UNL     1       1.970   2.779   0.690  1.00  0.00     0.175 C 
BRANCH   6   7
ATOM      7  N   UNL     1       0.992   2.268  -0.281  1.00  0.00    -0.344 N 
ATOM      8  C   UNL     1       1.240  -0.132   0.231  1.00  0.00     0.114 C 
ATOM      9  C   UNL     1       0.574   0.994  -0.505  1.00  0.00     0.217 C 
ATOM     10  O   UNL     1      -0.327   0.791  -1.316  1.00  0.00    -0.275 OA
ATOM     11  H   UNL     1       0.576   2.952  -0.856  1.00  0.00     0.164 HD
ENDBRANCH   6   7
BRANCH   6  12
ATOM     12  C   UNL     1       3.210   3.496   0.061  1.00  0.00     0.075 C 
BRANCH  12  13
ATOM     13  C   UNL     1       3.025   4.822  -0.683  1.00  0.00     0.005 A 
ATOM     14  C   UNL     1       3.397   6.034  -0.046  1.00  0.00     0.123 A 
ATOM     15  C   UNL     1       2.356   4.875  -1.953  1.00  0.00    -0.011 A 
ATOM     16  C   UNL     1       2.919   7.247  -0.545  1.00  0.00     0.047 A 
ATOM     17  C   UNL     1       1.897   6.130  -2.433  1.00  0.00    -0.018 A 
ATOM     18  C   UNL     1       2.048   3.745  -2.747  1.00  0.00     0.009 A 
ATOM     19  C   UNL     1       2.166   7.293  -1.714  1.00  0.00     0.012 A 
ATOM     20  C   UNL     1       1.120   6.215  -3.597  1.00  0.00     0.009 A 
ATOM     21  C   UNL     1       1.259   3.838  -3.897  1.00  0.00     0.001 A 
ATOM     22  C   UNL     1       0.787   5.073  -4.317  1.00  0.00     0.001 A 
BRANCH  14  23
ATOM     23  O   UNL     1       4.224   5.934   1.040  1.00  0.00    -0.493 OA
BRANCH  23  24
ATOM     24  C   UNL     1       4.722   7.113   1.681  1.00  0.00     0.232 C 
BRANCH  24  25
ATOM     25  C   UNL     1       6.037   7.659   1.079  1.00  0.00     0.020 C 
ATOM     26  C   UNL     1       5.919   8.200  -0.347  1.00  0.00     0.011 C 
ATOM     27  C   UNL     1       6.586   8.771   1.978  1.00  0.00     0.011 C 
ENDBRANCH  24  25
ENDBRANCH  23  24
ENDBRANCH  14  23
ENDBRANCH  12  13
ENDBRANCH   6  12
ENDBRANCH   3   6
ENDBRANCH   1   2
BRANCH   1  28
ATOM     28  C   UNL     1      -1.249   5.631   0.096  1.00  0.00     0.042 C 
BRANCH  28  29
ATOM     29  C   UNL     1      -1.821   6.860   0.777  1.00  0.00     0.118 C 
BRANCH  29  30
ATOM     30  N   UNL     1      -1.017   8.070   0.589  1.00  0.00    -0.352 N 
ATOM     31  C   UNL     1      -1.252   9.246  -0.089  1.00  0.00     0.251 C 
ATOM     32  H   UNL     1      -0.139   8.037   1.032  1.00  0.00     0.163 HD
ATOM     33  O   UNL     1      -0.337  10.053  -0.211  1.00  0.00    -0.269 OA
BRANCH  31  34
ATOM     34  C   UNL     1      -2.573   9.523  -0.700  1.00  0.00     0.039 A 
ATOM     35  C   UNL     1      -2.636  10.234  -1.904  1.00  0.00     0.014 A 
ATOM     36  C   UNL     1      -3.750   9.081  -0.105  1.00  0.00     0.014 A 
ATOM     37  C   UNL     1      -3.864  10.392  -2.555  1.00  0.00     0.010 A 
ATOM     38  C   UNL     1      -4.940   9.109  -0.818  1.00  0.00     0.010 A 
ATOM     39  C   UNL     1      -5.017   9.773  -2.049  1.00  0.00    -0.014 A 
BRANCH  39  40
ATOM     40  C   UNL     1      -6.319   9.802  -2.764  1.00  0.00     0.031 A 
ATOM     41  C   UNL     1      -7.545  10.340  -2.071  1.00  0.00     0.074 A 
ATOM     42  C   UNL     1      -6.427   9.245  -3.987  1.00  0.00     0.049 A 
ATOM     43  N   UNL     1      -8.793  10.319  -2.463  1.00  0.00    -0.248 NA
ATOM     44  C   UNL     1      -7.347  10.936  -0.739  1.00  0.00     0.031 C 
ATOM     45  C   UNL     1      -5.332   8.636  -4.747  1.00  0.00     0.029 A 
ATOM     46  N   UNL     1      -7.519   9.093  -4.806  1.00  0.00    -0.354 N 
ATOM     47  C   UNL     1      -9.528  10.853  -1.409  1.00  0.00     0.074 A 
ATOM     48  C   UNL     1      -8.594  11.131  -0.341  1.00  0.00     0.031 C 
ATOM     49  C   UNL     1      -5.796   8.222  -5.936  1.00  0.00     0.029 A 
ATOM     50  C   UNL     1      -7.229   8.486  -6.005  1.00  0.00     0.049 A 
ATOM     51  H   UNL     1      -8.423   9.391  -4.558  1.00  0.00     0.167 HD
ATOM     52  C   UNL     1     -10.855  11.116  -1.342  1.00  0.00     0.031 A 
ATOM     53  C   UNL     1      -8.027   8.175  -7.044  1.00  0.00     0.031 A 
ATOM     54  C   UNL     1     -11.773  10.878  -2.421  1.00  0.00     0.049 A 
ATOM     55  C   UNL     1      -9.491   8.502  -6.965  1.00  0.00     0.074 A 
ATOM     56  C   UNL     1     -13.123  11.175  -2.487  1.00  0.00     0.029 A 
ATOM     57  N   UNL     1     -11.431  10.291  -3.631  1.00  0.00    -0.354 N 
ATOM     58  N   UNL     1     -10.159   9.057  -5.981  1.00  0.00    -0.248 NA
ATOM     59  C   UNL     1     -10.308   8.170  -8.140  1.00  0.00     0.031 C 
ATOM     60  C   UNL     1     -13.605  10.736  -3.725  1.00  0.00     0.029 A 
ATOM     61  C   UNL     1     -12.546  10.206  -4.447  1.00  0.00     0.049 A 
ATOM     62  H   UNL     1     -10.529   9.980  -3.873  1.00  0.00     0.167 HD
ATOM     63  C   UNL     1     -11.471   9.163  -6.427  1.00  0.00     0.074 A 
ATOM     64  C   UNL     1     -11.499   8.624  -7.773  1.00  0.00     0.031 C 
ATOM     65  C   UNL     1     -12.553   9.664  -5.782  1.00  0.00     0.031 A 
BRANCH  52  66
ATOM     66  C   UNL     1     -11.375  11.690  -0.049  1.00  0.00    -0.014 A 
ATOM     67  C   UNL     1     -11.023  12.989   0.363  1.00  0.00     0.010 A 
ATOM     68  C   UNL     1     -12.207  10.914   0.777  1.00  0.00     0.010 A 
ATOM     69  C   UNL     1     -11.429  13.472   1.609  1.00  0.00     0.020 A 
ATOM     70  C   UNL     1     -12.644  11.406   2.011  1.00  0.00     0.020 A 
ATOM     71  C   UNL     1     -12.226  12.671   2.432  1.00  0.00     0.054 A 
BRANCH  71  72
ATOM     72  S   UNL     1     -12.716  13.308   4.058  1.00  0.00     0.124 S 
ATOM     73  O   UNL     1     -11.490  13.128   4.831  1.00  0.00    -0.237 OA
ATOM     74  O   UNL     1     -13.077  14.694   3.767  1.00  0.00    -0.237 OA
ATOM     75  O   UNL     1     -13.830  12.446   4.445  1.00  0.00    -0.744 OA
ENDBRANCH  71  72
ENDBRANCH  52  66
BRANCH  53  76
ATOM     76  C   UNL     1      -7.439   7.566  -8.267  1.00  0.00    -0.014 A 
ATOM     77  C   UNL     1      -7.269   8.345  -9.425  1.00  0.00     0.010 A 
ATOM     78  C   UNL     1      -6.998   6.230  -8.270  1.00  0.00     0.010 A 
ATOM     79  C   UNL     1      -6.670   7.801 -10.564  1.00  0.00     0.020 A 
ATOM     80  C   UNL     1      -6.378   5.689  -9.400  1.00  0.00     0.020 A 
ATOM     81  C   UNL     1      -6.222   6.477 -10.543  1.00  0.00     0.054 A 
BRANCH  81  82
ATOM     82  S   UNL     1      -5.372   5.821 -12.006  1.00  0.00     0.124 S 
ATOM     83  O   UNL     1      -6.478   5.623 -12.937  1.00  0.00    -0.237 OA
ATOM     84  O   UNL     1      -4.445   6.899 -12.342  1.00  0.00    -0.237 OA
ATOM     85  O   UNL     1      -4.740   4.599 -11.513  1.00  0.00    -0.744 OA
ENDBRANCH  81  82
ENDBRANCH  53  76
BRANCH  65  86
ATOM     86  C   UNL     1     -13.855   9.682  -6.534  1.00  0.00    -0.014 A 
ATOM     87  C   UNL     1     -14.589   8.502  -6.746  1.00  0.00     0.010 A 
ATOM     88  C   UNL     1     -14.378  10.908  -6.983  1.00  0.00     0.010 A 
ATOM     89  C   UNL     1     -15.812   8.545  -7.419  1.00  0.00     0.020 A 
ATOM     90  C   UNL     1     -15.612  10.958  -7.635  1.00  0.00     0.020 A 
ATOM     91  C   UNL     1     -16.316   9.773  -7.859  1.00  0.00     0.054 A 
BRANCH  91  92
ATOM     92  S   UNL     1     -17.930   9.811  -8.686  1.00  0.00     0.124 S 
ATOM     93  O   UNL     1     -17.603   9.293 -10.012  1.00  0.00    -0.237 OA
ATOM     94  O   UNL     1     -18.741   8.931  -7.849  1.00  0.00    -0.237 OA
ATOM     95  O   UNL     1     -18.307  11.222  -8.643  1.00  0.00    -0.744 OA
ENDBRANCH  91  92
ENDBRANCH  65  86
ENDBRANCH  39  40
ENDBRANCH  31  34
ENDBRANCH  29  30
ENDBRANCH  28  29
ENDBRANCH   1  28
TORSDOF 19
