REMARK SMILES Cc1c(NS(=O)(=O)c2ccc3c(c2)COC3)cccc1C(=O)NCCCNC(=O)c1ccc(-c2c3nc(c(-c4ccc(S(=O)(=O)[O-])cc4)c4ccc([nH]4)c(-c4ccc(S(=O)(=O)[O-])cc4)c4nc(c(-c5ccc(S(=O)(=O)[O-])cc5)c5ccc2[nH]5)C=C4)C=C3)cc1
REMARK SMILES IDX 25 1 24 2 23 3 21 4 22 5 20 7 1 8 2 9 3 10 17 11 19 12 18 13
REMARK SMILES IDX 4 14 5 16 6 17 7 18 8 19 9 20 13 21 10 22 12 23 11 24 14 25
REMARK SMILES IDX 16 26 15 27 26 28 27 29 28 30 29 32 30 33 31 34 89 35 32 36
REMARK SMILES IDX 88 37 33 38 34 39 35 40 82 41 36 42 87 43 81 44 83 45 37 46
REMARK SMILES IDX 86 47 80 48 79 49 38 51 68 52 49 53 67 54 50 55 53 56 66 57
REMARK SMILES IDX 84 58 51 59 52 60 65 62 85 63 54 64 39 65 40 66 48 67 41 68
REMARK SMILES IDX 47 69 42 70 43 71 44 72 45 73 46 74 69 75 70 76 78 77 71 78
REMARK SMILES IDX 77 79 72 80 73 81 74 82 75 83 76 84 55 85 56 86 64 87 57 88
REMARK SMILES IDX 63 89 58 90 59 91 60 92 61 93 62 94
REMARK H PARENT 23 6 4 15 27 31 83 50 53 61
REMARK Flexibility Score: inf
ROOT
ATOM      1  C   UNL     1       4.399  -0.089   0.296  1.00  0.00     0.042 C 
ENDROOT
BRANCH   1   2
ATOM      2  C   UNL     1       3.117   0.659   0.982  1.00  0.00     0.118 C 
BRANCH   2   3
ATOM      3  N   UNL     1       2.380   1.670   0.182  1.00  0.00    -0.352 N 
ATOM      4  C   UNL     1       1.093   1.808  -0.291  1.00  0.00     0.251 C 
ATOM      5  O   UNL     1       0.670   2.815  -0.852  1.00  0.00    -0.269 OA
ATOM      6  H   UNL     1       2.953   2.429  -0.074  1.00  0.00     0.163 HD
BRANCH   4   7
ATOM      7  C   UNL     1       0.137   0.724  -0.031  1.00  0.00     0.044 A 
ATOM      8  C   UNL     1       1.482  -0.960  -1.353  1.00  0.00     0.047 C 
ATOM      9  C   UNL     1       0.467  -0.613  -0.299  1.00  0.00    -0.014 A 
ATOM     10  C   UNL     1      -0.173  -1.577   0.481  1.00  0.00     0.053 A 
ATOM     11  C   UNL     1      -1.256  -1.221   1.303  1.00  0.00     0.027 A 
ATOM     12  C   UNL     1      -1.022   1.075   0.674  1.00  0.00     0.014 A 
ATOM     13  C   UNL     1      -1.738   0.087   1.327  1.00  0.00     0.003 A 
BRANCH  10  14
ATOM     14  N   UNL     1       0.312  -2.925   0.551  1.00  0.00    -0.279 N 
ATOM     15  H   UNL     1       1.069  -3.128   1.147  1.00  0.00     0.180 HD
BRANCH  14  16
ATOM     16  S   UNL     1      -0.374  -4.181  -0.362  1.00  0.00     0.261 S 
ATOM     17  O   UNL     1       0.141  -4.074  -1.726  1.00  0.00    -0.201 OA
ATOM     18  O   UNL     1      -0.138  -5.371   0.405  1.00  0.00    -0.201 OA
BRANCH  16  19
ATOM     19  C   UNL     1      -2.126  -3.907  -0.433  1.00  0.00     0.088 A 
ATOM     20  C   UNL     1      -2.972  -4.855   0.174  1.00  0.00     0.022 A 
ATOM     21  C   UNL     1      -2.635  -2.717  -0.960  1.00  0.00     0.028 A 
ATOM     22  C   UNL     1      -4.309  -4.542   0.411  1.00  0.00     0.008 A 
ATOM     23  C   UNL     1      -3.931  -2.383  -0.616  1.00  0.00    -0.015 A 
ATOM     24  C   UNL     1      -4.741  -3.270   0.081  1.00  0.00    -0.017 A 
ATOM     25  C   UNL     1      -4.648  -1.093  -0.780  1.00  0.00     0.196 C 
ATOM     26  C   UNL     1      -6.013  -2.589   0.428  1.00  0.00     0.196 C 
ATOM     27  O   UNL     1      -5.740  -1.192   0.168  1.00  0.00    -0.372 OA
ENDBRANCH  16  19
ENDBRANCH  14  16
ENDBRANCH  10  14
ENDBRANCH   4   7
ENDBRANCH   2   3
ENDBRANCH   1   2
BRANCH   1  28
ATOM     28  C   UNL     1       5.808   0.563   0.660  1.00  0.00     0.118 C 
BRANCH  28  29
ATOM     29  N   UNL     1       7.290   0.310   0.098  1.00  0.00    -0.352 N 
ATOM     30  C   UNL     1       8.552   1.037  -0.241  1.00  0.00     0.251 C 
ATOM     31  H   UNL     1       7.409  -0.650  -0.085  1.00  0.00     0.163 HD
ATOM     32  O   UNL     1       9.520   0.591   0.410  1.00  0.00    -0.269 OA
BRANCH  30  33
ATOM     33  C   UNL     1       9.018   2.218  -1.267  1.00  0.00     0.039 A 
ATOM     34  C   UNL     1       9.939   3.254  -0.873  1.00  0.00     0.014 A 
ATOM     35  C   UNL     1       8.556   2.443  -2.559  1.00  0.00     0.014 A 
ATOM     36  C   UNL     1       9.832   4.617  -1.409  1.00  0.00     0.010 A 
ATOM     37  C   UNL     1       8.423   3.779  -3.074  1.00  0.00     0.010 A 
ATOM     38  C   UNL     1       8.819   4.907  -2.342  1.00  0.00    -0.014 A 
BRANCH  38  39
ATOM     39  C   UNL     1       7.928   6.178  -2.340  1.00  0.00     0.031 A 
ATOM     40  C   UNL     1       8.128   7.152  -3.401  1.00  0.00     0.074 A 
ATOM     41  C   UNL     1       6.837   6.538  -1.576  1.00  0.00     0.049 A 
ATOM     42  N   UNL     1       8.450   8.392  -3.241  1.00  0.00    -0.248 NA
ATOM     43  C   UNL     1       7.926   6.734  -4.777  1.00  0.00     0.031 C 
ATOM     44  C   UNL     1       5.909   7.691  -1.576  1.00  0.00     0.029 A 
ATOM     45  N   UNL     1       6.264   5.853  -0.526  1.00  0.00    -0.354 N 
ATOM     46  C   UNL     1       8.166   8.974  -4.458  1.00  0.00     0.074 A 
ATOM     47  C   UNL     1       8.150   7.883  -5.411  1.00  0.00     0.031 C 
ATOM     48  C   UNL     1       5.272   7.768  -0.375  1.00  0.00     0.029 A 
ATOM     49  C   UNL     1       5.780   6.697   0.463  1.00  0.00     0.049 A 
ATOM     50  H   UNL     1       6.205   4.871  -0.482  1.00  0.00     0.167 HD
ATOM     51  C   UNL     1       7.595  10.214  -4.545  1.00  0.00     0.031 A 
ATOM     52  C   UNL     1       6.430   6.751   1.674  1.00  0.00     0.031 A 
ATOM     53  C   UNL     1       7.156  10.718  -3.229  1.00  0.00     0.049 A 
ATOM     54  C   UNL     1       7.159   8.060   1.798  1.00  0.00     0.074 A 
ATOM     55  C   UNL     1       5.901  10.959  -2.684  1.00  0.00     0.029 A 
ATOM     56  N   UNL     1       8.037  10.733  -2.151  1.00  0.00    -0.354 N 
ATOM     57  N   UNL     1       7.209   8.933   0.838  1.00  0.00    -0.248 NA
ATOM     58  C   UNL     1       7.913   8.487   2.967  1.00  0.00     0.031 C 
ATOM     59  C   UNL     1       6.037  11.072  -1.268  1.00  0.00     0.029 A 
ATOM     60  C   UNL     1       7.378  10.944  -0.950  1.00  0.00     0.049 A 
ATOM     61  H   UNL     1       9.010  10.608  -2.232  1.00  0.00     0.167 HD
ATOM     62  C   UNL     1       7.956  10.007   1.194  1.00  0.00     0.074 A 
ATOM     63  C   UNL     1       8.369   9.685   2.554  1.00  0.00     0.031 C 
ATOM     64  C   UNL     1       8.143  11.027   0.304  1.00  0.00     0.031 A 
BRANCH  51  65
ATOM     65  C   UNL     1       7.138  10.803  -5.875  1.00  0.00    -0.014 A 
ATOM     66  C   UNL     1       6.239  11.885  -5.922  1.00  0.00     0.010 A 
ATOM     67  C   UNL     1       7.617  10.360  -7.127  1.00  0.00     0.010 A 
ATOM     68  C   UNL     1       5.800  12.438  -7.141  1.00  0.00     0.020 A 
ATOM     69  C   UNL     1       7.141  10.850  -8.350  1.00  0.00     0.020 A 
ATOM     70  C   UNL     1       6.244  11.905  -8.350  1.00  0.00     0.054 A 
BRANCH  70  71
ATOM     71  S   UNL     1       5.718  12.652  -9.915  1.00  0.00     0.124 S 
ATOM     72  O   UNL     1       4.263  12.553  -9.844  1.00  0.00    -0.237 OA
ATOM     73  O   UNL     1       6.265  14.002  -9.814  1.00  0.00    -0.237 OA
ATOM     74  O   UNL     1       6.343  11.808 -10.932  1.00  0.00    -0.744 OA
ENDBRANCH  70  71
ENDBRANCH  51  65
BRANCH  52  75
ATOM     75  C   UNL     1       6.997   5.420   2.229  1.00  0.00    -0.014 A 
ATOM     76  C   UNL     1       6.026   4.462   2.584  1.00  0.00     0.010 A 
ATOM     77  C   UNL     1       8.019   4.923   1.445  1.00  0.00     0.010 A 
ATOM     78  C   UNL     1       5.633   3.486   1.651  1.00  0.00     0.020 A 
ATOM     79  C   UNL     1       7.574   4.000   0.487  1.00  0.00     0.020 A 
ATOM     80  C   UNL     1       6.347   3.391   0.467  1.00  0.00     0.054 A 
BRANCH  80  81
ATOM     81  S   UNL     1       5.502   2.930  -1.365  1.00  0.00     0.124 S 
ATOM     82  O   UNL     1       4.114   2.825  -0.969  1.00  0.00    -0.237 OA
ATOM     83  O   UNL     1       5.734   4.068  -2.230  1.00  0.00    -0.237 OA
ATOM     84  O   UNL     1       6.091   1.683  -1.826  1.00  0.00    -0.744 OA
ENDBRANCH  80  81
ENDBRANCH  52  75
BRANCH  64  85
ATOM     85  C   UNL     1       9.028  12.234   0.496  1.00  0.00    -0.014 A 
ATOM     86  C   UNL     1       9.780  12.507   1.643  1.00  0.00     0.010 A 
ATOM     87  C   UNL     1       9.142  13.165  -0.567  1.00  0.00     0.010 A 
ATOM     88  C   UNL     1      10.605  13.632   1.726  1.00  0.00     0.020 A 
ATOM     89  C   UNL     1       9.986  14.271  -0.515  1.00  0.00     0.020 A 
ATOM     90  C   UNL     1      10.711  14.500   0.642  1.00  0.00     0.054 A 
BRANCH  90  91
ATOM     91  S   UNL     1      11.812  15.918   0.779  1.00  0.00     0.124 S 
ATOM     92  O   UNL     1      11.170  16.699   1.834  1.00  0.00    -0.237 OA
ATOM     93  O   UNL     1      13.080  15.292   1.146  1.00  0.00    -0.237 OA
ATOM     94  O   UNL     1      11.778  16.520  -0.551  1.00  0.00    -0.744 OA
ENDBRANCH  90  91
ENDBRANCH  64  85
ENDBRANCH  38  39
ENDBRANCH  30  33
ENDBRANCH  28  29
ENDBRANCH   1  28
TORSDOF 16
