REMARK SMILES Cc1oc2c(c1C(=O)NCCCNC(=O)c1ccc(-c3c4nc(c(-c5ccc(S(=O)(=O)[O-])cc5)c5ccc([nH]5)c(-c5ccc(S(=O)(=O)[O-])cc5)c5nc(c(-c6ccc(S(=O)(=O)[O-])cc6)c6ccc3[nH]6)C=C5)C=C4)cc1)C(=O)C[C@H](c1ccco1)C2
REMARK SMILES IDX 12 1 11 2 10 3 9 4 7 5 8 6 6 8 1 9 2 10 3 11 4 12 5 13 85 14
REMARK SMILES IDX 76 15 79 16 77 17 78 18 80 19 81 20 84 21 82 22 83 23 13 24
REMARK SMILES IDX 14 25 15 27 16 28 17 29 75 30 18 31 74 32 19 33 20 34 21 35
REMARK SMILES IDX 68 36 22 37 73 38 67 39 69 40 23 41 72 42 66 43 65 44 24 46
REMARK SMILES IDX 54 47 35 48 53 49 36 50 39 51 52 52 70 53 37 54 38 55 51 57
REMARK SMILES IDX 71 58 40 59 25 60 26 61 34 62 27 63 33 64 28 65 29 66 30 67
REMARK SMILES IDX 31 68 32 69 55 70 56 71 64 72 57 73 63 74 58 75 59 76 60 77
REMARK SMILES IDX 61 78 62 79 41 80 42 81 50 82 43 83 49 84 44 85 45 86 46 87
REMARK SMILES IDX 47 88 48 89
REMARK H PARENT 9 7 13 26 69 45 39 56
REMARK Flexibility Score: inf
ROOT
ATOM      1  C   UNL     1       5.093  -0.297   0.525  1.00  0.00     0.118 C 
ENDROOT
BRANCH   1   2
ATOM      2  C   UNL     1       3.599  -0.096   0.356  1.00  0.00     0.042 C 
BRANCH   2   3
ATOM      3  C   UNL     1       3.005   0.849   1.406  1.00  0.00     0.118 C 
BRANCH   3   4
ATOM      4  N   UNL     1       3.124   2.228   0.997  1.00  0.00    -0.352 N 
ATOM      5  C   UNL     1       2.325   3.108   0.320  1.00  0.00     0.255 C 
ATOM      6  O   UNL     1       2.845   4.212   0.158  1.00  0.00    -0.269 OA
ATOM      7  H   UNL     1       3.982   2.629   1.268  1.00  0.00     0.163 HD
BRANCH   5   8
ATOM      8  C   UNL     1       0.970   2.832  -0.175  1.00  0.00     0.092 A 
ATOM      9  C   UNL     1       0.550   0.182  -0.503  1.00  0.00     0.088 C 
ATOM     10  C   UNL     1       0.300   1.638  -0.483  1.00  0.00     0.114 A 
ATOM     11  O   UNL     1      -0.950   1.893  -0.960  1.00  0.00    -0.465 OA
ATOM     12  C   UNL     1      -1.095   3.216  -1.012  1.00  0.00     0.116 A 
ATOM     13  C   UNL     1       0.013   3.870  -0.539  1.00  0.00     0.072 A 
ATOM     14  C   UNL     1      -2.354   3.759  -1.544  1.00  0.00     0.088 C 
ATOM     15  C   UNL     1      -0.015   5.333  -0.515  1.00  0.00     0.167 C 
ATOM     16  C   UNL     1      -2.111   5.211  -1.997  1.00  0.00     0.071 C 
ATOM     17  O   UNL     1       0.906   6.035  -0.109  1.00  0.00    -0.294 OA
ATOM     18  C   UNL     1      -1.342   5.997  -0.915  1.00  0.00     0.093 C 
BRANCH  16  19
ATOM     19  C   UNL     1      -3.397   5.886  -2.367  1.00  0.00     0.107 A 
ATOM     20  C   UNL     1      -3.702   7.121  -2.901  1.00  0.00     0.046 A 
ATOM     21  O   UNL     1      -4.546   5.167  -2.196  1.00  0.00    -0.469 OA
ATOM     22  C   UNL     1      -5.109   7.153  -3.064  1.00  0.00     0.042 A 
ATOM     23  C   UNL     1      -5.575   5.938  -2.623  1.00  0.00     0.195 A 
ENDBRANCH  16  19
ENDBRANCH   5   8
ENDBRANCH   3   4
ENDBRANCH   2   3
ENDBRANCH   1   2
BRANCH   1  24
ATOM     24  N   UNL     1       5.407  -1.130   1.680  1.00  0.00    -0.352 N 
ATOM     25  C   UNL     1       6.648  -1.548   2.119  1.00  0.00     0.251 C 
ATOM     26  H   UNL     1       4.637  -1.434   2.214  1.00  0.00     0.163 HD
ATOM     27  O   UNL     1       6.741  -2.503   2.873  1.00  0.00    -0.269 OA
BRANCH  25  28
ATOM     28  C   UNL     1       7.850  -0.839   1.637  1.00  0.00     0.039 A 
ATOM     29  C   UNL     1       9.000  -1.554   1.302  1.00  0.00     0.014 A 
ATOM     30  C   UNL     1       7.810   0.545   1.486  1.00  0.00     0.014 A 
ATOM     31  C   UNL     1      10.069  -0.873   0.727  1.00  0.00     0.010 A 
ATOM     32  C   UNL     1       8.804   1.192   0.787  1.00  0.00     0.010 A 
ATOM     33  C   UNL     1       9.955   0.498   0.434  1.00  0.00    -0.014 A 
BRANCH  33  34
ATOM     34  C   UNL     1      10.991   1.162  -0.356  1.00  0.00     0.031 A 
ATOM     35  C   UNL     1      11.390   0.430  -1.591  1.00  0.00     0.074 A 
ATOM     36  C   UNL     1      11.458   2.410  -0.137  1.00  0.00     0.049 A 
ATOM     37  N   UNL     1      12.503  -0.188  -1.808  1.00  0.00    -0.248 NA
ATOM     38  C   UNL     1      10.385   0.240  -2.649  1.00  0.00     0.031 C 
ATOM     39  C   UNL     1      10.988   3.419   0.817  1.00  0.00     0.029 A 
ATOM     40  N   UNL     1      12.420   3.083  -0.827  1.00  0.00    -0.354 N 
ATOM     41  C   UNL     1      12.431  -0.666  -3.112  1.00  0.00     0.074 A 
ATOM     42  C   UNL     1      11.054  -0.525  -3.515  1.00  0.00     0.031 C 
ATOM     43  C   UNL     1      11.485   4.630   0.477  1.00  0.00     0.029 A 
ATOM     44  C   UNL     1      12.448   4.452  -0.594  1.00  0.00     0.049 A 
ATOM     45  H   UNL     1      13.045   2.635  -1.442  1.00  0.00     0.167 HD
ATOM     46  C   UNL     1      13.554  -0.931  -3.838  1.00  0.00     0.031 A 
ATOM     47  C   UNL     1      13.192   5.375  -1.255  1.00  0.00     0.031 A 
ATOM     48  C   UNL     1      14.729  -0.988  -3.005  1.00  0.00     0.049 A 
ATOM     49  C   UNL     1      14.324   4.645  -1.880  1.00  0.00     0.074 A 
ATOM     50  C   UNL     1      15.095  -1.730  -1.898  1.00  0.00     0.029 A 
ATOM     51  N   UNL     1      15.567   0.105  -3.015  1.00  0.00    -0.354 N 
ATOM     52  N   UNL     1      15.272   4.068  -1.194  1.00  0.00    -0.248 NA
ATOM     53  C   UNL     1      14.160   4.169  -3.244  1.00  0.00     0.031 C 
ATOM     54  C   UNL     1      15.749  -0.799  -1.038  1.00  0.00     0.029 A 
ATOM     55  C   UNL     1      15.821   0.425  -1.706  1.00  0.00     0.049 A 
ATOM     56  H   UNL     1      15.917   0.568  -3.811  1.00  0.00     0.167 HD
ATOM     57  C   UNL     1      15.525   2.883  -1.869  1.00  0.00     0.074 A 
ATOM     58  C   UNL     1      14.874   3.043  -3.169  1.00  0.00     0.031 C 
ATOM     59  C   UNL     1      15.999   1.778  -1.220  1.00  0.00     0.031 A 
BRANCH  46  60
ATOM     60  C   UNL     1      13.642  -0.756  -5.333  1.00  0.00    -0.014 A 
ATOM     61  C   UNL     1      14.830  -1.122  -5.998  1.00  0.00     0.010 A 
ATOM     62  C   UNL     1      12.706   0.001  -6.068  1.00  0.00     0.010 A 
ATOM     63  C   UNL     1      15.092  -0.698  -7.307  1.00  0.00     0.020 A 
ATOM     64  C   UNL     1      12.937   0.391  -7.388  1.00  0.00     0.020 A 
ATOM     65  C   UNL     1      14.145   0.066  -7.989  1.00  0.00     0.054 A 
BRANCH  65  66
ATOM     66  S   UNL     1      14.526   0.678  -9.649  1.00  0.00     0.124 S 
ATOM     67  O   UNL     1      15.607   1.621  -9.380  1.00  0.00    -0.237 OA
ATOM     68  O   UNL     1      14.909  -0.545 -10.348  1.00  0.00    -0.237 OA
ATOM     69  O   UNL     1      13.267   1.273 -10.091  1.00  0.00    -0.744 OA
ENDBRANCH  65  66
ENDBRANCH  46  60
BRANCH  47  70
ATOM     70  C   UNL     1      12.823   6.762  -1.638  1.00  0.00    -0.014 A 
ATOM     71  C   UNL     1      13.778   7.625  -2.210  1.00  0.00     0.010 A 
ATOM     72  C   UNL     1      11.467   7.141  -1.724  1.00  0.00     0.010 A 
ATOM     73  C   UNL     1      13.386   8.773  -2.920  1.00  0.00     0.020 A 
ATOM     74  C   UNL     1      11.070   8.290  -2.421  1.00  0.00     0.020 A 
ATOM     75  C   UNL     1      12.030   9.083  -3.045  1.00  0.00     0.054 A 
BRANCH  75  76
ATOM     76  S   UNL     1      11.521  10.438  -4.145  1.00  0.00     0.124 S 
ATOM     77  O   UNL     1      11.953  11.620  -3.405  1.00  0.00    -0.237 OA
ATOM     78  O   UNL     1      12.267  10.152  -5.368  1.00  0.00    -0.237 OA
ATOM     79  O   UNL     1      10.073  10.269  -4.254  1.00  0.00    -0.744 OA
ENDBRANCH  75  76
ENDBRANCH  47  70
BRANCH  59  80
ATOM     80  C   UNL     1      16.532   1.917   0.190  1.00  0.00    -0.014 A 
ATOM     81  C   UNL     1      15.783   2.412   1.276  1.00  0.00     0.010 A 
ATOM     82  C   UNL     1      17.799   1.366   0.451  1.00  0.00     0.010 A 
ATOM     83  C   UNL     1      16.302   2.373   2.582  1.00  0.00     0.020 A 
ATOM     84  C   UNL     1      18.313   1.306   1.748  1.00  0.00     0.020 A 
ATOM     85  C   UNL     1      17.566   1.817   2.808  1.00  0.00     0.054 A 
BRANCH  85  86
ATOM     86  S   UNL     1      18.216   1.721   4.501  1.00  0.00     0.124 S 
ATOM     87  O   UNL     1      18.450   3.124   4.832  1.00  0.00    -0.237 OA
ATOM     88  O   UNL     1      17.128   1.075   5.232  1.00  0.00    -0.237 OA
ATOM     89  O   UNL     1      19.425   0.909   4.365  1.00  0.00    -0.744 OA
ENDBRANCH  85  86
ENDBRANCH  59  80
ENDBRANCH  33  34
ENDBRANCH  25  28
ENDBRANCH   1  24
TORSDOF 14
