REMARK SMILES Cc1cc(Br)cc([N+](=O)[O-])c1OCCC[C@@](C)([NH3+])C(=O)NCCCNC(=O)c1ccc(-c2c3nc(c(-c4ccc(S(=O)(=O)[O-])cc4)c4ccc([nH]4)c(-c4ccc(S(=O)(=O)[O-])cc4)c4nc(c(-c5ccc(S(=O)(=O)[O-])cc5)c5ccc2[nH]5)C=C4)C=C3)cc1
REMARK SMILES IDX 19 1 20 2 21 3 16 5 17 6 15 7 14 8 13 9 12 10 11 11 1 12
REMARK SMILES IDX 2 13 3 14 4 15 7 16 5 17 6 18 8 19 9 20 10 21 18 22 22 26
REMARK SMILES IDX 23 27 24 28 25 29 26 30 27 32 28 33 29 34 87 35 30 36 86 37
REMARK SMILES IDX 31 38 32 39 33 40 80 41 34 42 85 43 79 44 81 45 35 46 84 47
REMARK SMILES IDX 78 48 77 49 36 51 66 52 47 53 65 54 48 55 51 56 64 57 82 58
REMARK SMILES IDX 49 59 50 60 63 62 83 63 52 64 37 65 38 66 46 67 39 68 45 69
REMARK SMILES IDX 40 70 41 71 42 72 43 73 44 74 67 75 68 76 76 77 69 78 75 79
REMARK SMILES IDX 70 80 71 81 72 82 73 83 74 84 53 85 54 86 62 87 55 88 61 89
REMARK SMILES IDX 56 90 57 91 58 92 59 93 60 94
REMARK H PARENT 21 4 18 23 18 24 18 25 25 31 81 50 51 61
REMARK Flexibility Score: inf
ROOT
ATOM      1  C   UNL     1      -4.576  -2.626   1.383  1.00  0.00     0.280 C 
ATOM      2  O   UNL     1      -5.371  -1.700   1.584  1.00  0.00    -0.268 OA
ATOM      3  N   UNL     1      -3.949  -3.072   2.502  1.00  0.00    -0.351 N 
ATOM      4  H   UNL     1      -3.978  -2.429   3.247  1.00  0.00     0.163 HD
ENDROOT
BRANCH   1   5
ATOM      5  C   UNL     1      -4.396  -3.231  -0.045  1.00  0.00     0.171 C 
ATOM      6  C   UNL     1      -5.568  -4.206  -0.234  1.00  0.00     0.090 C 
BRANCH   5   7
ATOM      7  C   UNL     1      -4.357  -2.174  -1.210  1.00  0.00     0.082 C 
BRANCH   7   8
ATOM      8  C   UNL     1      -5.087  -0.818  -1.083  1.00  0.00     0.049 C 
BRANCH   8   9
ATOM      9  C   UNL     1      -4.355   0.335  -0.342  1.00  0.00     0.230 C 
BRANCH   9  10
ATOM     10  O   UNL     1      -3.192   0.752  -1.077  1.00  0.00    -0.487 OA
BRANCH  10  11
ATOM     11  C   UNL     1      -2.075   1.128  -0.357  1.00  0.00     0.200 A 
ATOM     12  C   UNL     1      -1.524  -1.281   0.284  1.00  0.00     0.049 C 
ATOM     13  C   UNL     1      -1.157   0.139   0.046  1.00  0.00    -0.001 A 
ATOM     14  C   UNL     1       0.201   0.452   0.219  1.00  0.00     0.023 A 
ATOM     15  C   UNL     1       0.645   1.756   0.091  1.00  0.00     0.025 A 
ATOM     16  C   UNL     1      -1.624   2.461  -0.365  1.00  0.00     0.312 A 
ATOM     17  Br  UNL     1       2.490   2.124   0.247  1.00  0.00    -0.051 Br
ATOM     18  C   UNL     1      -0.266   2.776  -0.141  1.00  0.00     0.105 A 
BRANCH  16  19
ATOM     19  N   UNL     1      -2.550   3.582  -0.530  1.00  0.00     0.066 N 
ATOM     20  O   UNL     1      -2.073   4.666  -0.901  1.00  0.00    -0.258 OA
ATOM     21  O   UNL     1      -3.736   3.416  -0.218  1.00  0.00    -0.258 OA
ENDBRANCH  16  19
ENDBRANCH  10  11
ENDBRANCH   9  10
ENDBRANCH   8   9
ENDBRANCH   7   8
ENDBRANCH   5   7
BRANCH   5  22
ATOM     22  N   UNL     1      -3.179  -4.072  -0.169  1.00  0.00    -0.345 N 
ATOM     23  H   UNL     1      -3.115  -4.439  -1.119  1.00  0.00     0.345 HD
ATOM     24  H   UNL     1      -3.233  -4.848   0.491  1.00  0.00     0.345 HD
ATOM     25  H   UNL     1      -2.354  -3.509   0.035  1.00  0.00     0.345 HD
ENDBRANCH   5  22
ENDBRANCH   1   5
BRANCH   3  26
ATOM     26  C   UNL     1      -3.243  -4.300   2.832  1.00  0.00     0.118 C 
BRANCH  26  27
ATOM     27  C   UNL     1      -1.880  -4.034   3.470  1.00  0.00     0.042 C 
BRANCH  27  28
ATOM     28  C   UNL     1      -1.919  -3.164   4.729  1.00  0.00     0.118 C 
BRANCH  28  29
ATOM     29  N   UNL     1      -2.839  -3.672   5.739  1.00  0.00    -0.352 N 
ATOM     30  C   UNL     1      -2.602  -4.266   6.949  1.00  0.00     0.251 C 
ATOM     31  H   UNL     1      -3.792  -3.570   5.512  1.00  0.00     0.163 HD
ATOM     32  O   UNL     1      -3.533  -4.832   7.531  1.00  0.00    -0.269 OA
BRANCH  30  33
ATOM     33  C   UNL     1      -1.258  -4.249   7.561  1.00  0.00     0.039 A 
ATOM     34  C   UNL     1      -0.789  -5.402   8.198  1.00  0.00     0.014 A 
ATOM     35  C   UNL     1      -0.478  -3.090   7.556  1.00  0.00     0.014 A 
ATOM     36  C   UNL     1       0.485  -5.412   8.771  1.00  0.00     0.010 A 
ATOM     37  C   UNL     1       0.821  -3.124   8.059  1.00  0.00     0.010 A 
ATOM     38  C   UNL     1       1.316  -4.284   8.675  1.00  0.00    -0.014 A 
BRANCH  38  39
ATOM     39  C   UNL     1       2.706  -4.300   9.201  1.00  0.00     0.031 A 
ATOM     40  C   UNL     1       3.111  -3.376  10.318  1.00  0.00     0.074 A 
ATOM     41  C   UNL     1       3.623  -5.103   8.627  1.00  0.00     0.049 A 
ATOM     42  N   UNL     1       4.285  -3.220  10.876  1.00  0.00    -0.248 NA
ATOM     43  C   UNL     1       2.066  -2.493  10.860  1.00  0.00     0.031 C 
ATOM     44  C   UNL     1       3.365  -6.026   7.519  1.00  0.00     0.029 A 
ATOM     45  N   UNL     1       4.958  -5.272   8.895  1.00  0.00    -0.354 N 
ATOM     46  C   UNL     1       4.125  -2.210  11.818  1.00  0.00     0.074 A 
ATOM     47  C   UNL     1       2.756  -1.754  11.716  1.00  0.00     0.031 C 
ATOM     48  C   UNL     1       4.493  -6.695   7.233  1.00  0.00     0.029 A 
ATOM     49  C   UNL     1       5.565  -6.216   8.100  1.00  0.00     0.049 A 
ATOM     50  H   UNL     1       5.437  -4.766   9.591  1.00  0.00     0.167 HD
ATOM     51  C   UNL     1       5.030  -1.717  12.700  1.00  0.00     0.031 A 
ATOM     52  C   UNL     1       6.840  -6.650   8.070  1.00  0.00     0.031 A 
ATOM     53  C   UNL     1       6.393  -2.170  12.792  1.00  0.00     0.049 A 
ATOM     54  C   UNL     1       7.837  -6.065   9.031  1.00  0.00     0.074 A 
ATOM     55  C   UNL     1       7.374  -1.776  13.686  1.00  0.00     0.029 A 
ATOM     56  N   UNL     1       6.974  -3.110  11.952  1.00  0.00    -0.354 N 
ATOM     57  N   UNL     1       7.651  -5.158   9.961  1.00  0.00    -0.248 NA
ATOM     58  C   UNL     1       9.213  -6.569   8.944  1.00  0.00     0.031 C 
ATOM     59  C   UNL     1       8.564  -2.429  13.345  1.00  0.00     0.029 A 
ATOM     60  C   UNL     1       8.308  -3.283  12.283  1.00  0.00     0.049 A 
ATOM     61  H   UNL     1       6.506  -3.584  11.227  1.00  0.00     0.167 HD
ATOM     62  C   UNL     1       8.881  -5.005  10.591  1.00  0.00     0.074 A 
ATOM     63  C   UNL     1       9.799  -5.920   9.941  1.00  0.00     0.031 C 
ATOM     64  C   UNL     1       9.216  -4.187  11.620  1.00  0.00     0.031 A 
BRANCH  51  65
ATOM     65  C   UNL     1       4.569  -0.604  13.610  1.00  0.00    -0.014 A 
ATOM     66  C   UNL     1       3.590  -0.822  14.598  1.00  0.00     0.010 A 
ATOM     67  C   UNL     1       5.117   0.684  13.468  1.00  0.00     0.010 A 
ATOM     68  C   UNL     1       3.112   0.241  15.370  1.00  0.00     0.020 A 
ATOM     69  C   UNL     1       4.668   1.743  14.264  1.00  0.00     0.020 A 
ATOM     70  C   UNL     1       3.646   1.520  15.188  1.00  0.00     0.054 A 
BRANCH  70  71
ATOM     71  S   UNL     1       2.983   2.887  16.178  1.00  0.00     0.124 S 
ATOM     72  O   UNL     1       1.676   3.098  15.559  1.00  0.00    -0.237 OA
ATOM     73  O   UNL     1       2.956   2.325  17.526  1.00  0.00    -0.237 OA
ATOM     74  O   UNL     1       3.949   3.964  15.974  1.00  0.00    -0.744 OA
ENDBRANCH  70  71
ENDBRANCH  51  65
BRANCH  52  75
ATOM     75  C   UNL     1       7.227  -7.731   7.124  1.00  0.00    -0.014 A 
ATOM     76  C   UNL     1       7.503  -9.023   7.606  1.00  0.00     0.010 A 
ATOM     77  C   UNL     1       7.274  -7.494   5.738  1.00  0.00     0.010 A 
ATOM     78  C   UNL     1       7.818 -10.057   6.721  1.00  0.00     0.020 A 
ATOM     79  C   UNL     1       7.562  -8.532   4.848  1.00  0.00     0.020 A 
ATOM     80  C   UNL     1       7.836  -9.808   5.346  1.00  0.00     0.054 A 
BRANCH  80  81
ATOM     81  S   UNL     1       8.162 -11.188   4.215  1.00  0.00     0.124 S 
ATOM     82  O   UNL     1       9.580 -11.443   4.445  1.00  0.00    -0.237 OA
ATOM     83  O   UNL     1       7.245 -12.216   4.702  1.00  0.00    -0.237 OA
ATOM     84  O   UNL     1       7.828 -10.640   2.901  1.00  0.00    -0.744 OA
ENDBRANCH  80  81
ENDBRANCH  52  75
BRANCH  64  85
ATOM     85  C   UNL     1      10.632  -4.262  12.132  1.00  0.00    -0.014 A 
ATOM     86  C   UNL     1      11.711  -3.766  11.381  1.00  0.00     0.010 A 
ATOM     87  C   UNL     1      10.876  -4.793  13.413  1.00  0.00     0.010 A 
ATOM     88  C   UNL     1      13.013  -3.828  11.887  1.00  0.00     0.020 A 
ATOM     89  C   UNL     1      12.171  -4.828  13.935  1.00  0.00     0.020 A 
ATOM     90  C   UNL     1      13.234  -4.357  13.162  1.00  0.00     0.054 A 
BRANCH  90  91
ATOM     91  S   UNL     1      14.926  -4.383  13.815  1.00  0.00     0.124 S 
ATOM     92  O   UNL     1      15.543  -5.440  13.018  1.00  0.00    -0.237 OA
ATOM     93  O   UNL     1      15.397  -3.029  13.535  1.00  0.00    -0.237 OA
ATOM     94  O   UNL     1      14.748  -4.694  15.231  1.00  0.00    -0.744 OA
ENDBRANCH  90  91
ENDBRANCH  64  85
ENDBRANCH  38  39
ENDBRANCH  30  33
ENDBRANCH  28  29
ENDBRANCH  27  28
ENDBRANCH  26  27
ENDBRANCH   3  26
TORSDOF 20
