REMARK SMILES O=C(NCCCNC(=O)c1[nH]nc2ncc(F)cc12)c1ccc(-c2c3nc(c(-c4ccc(S(=O)(=O)[O-])cc4)c4ccc([nH]4)c(-c4ccc(S(=O)(=O)[O-])cc4)c4nc(c(-c5ccc(S(=O)(=O)[O-])cc5)c5ccc2[nH]5)C=C4)C=C3)cc1
REMARK SMILES IDX 1 1 2 2 3 3 20 5 21 6 79 7 22 8 78 9 23 10 24 11 25 12 72 13
REMARK SMILES IDX 26 14 77 15 71 16 73 17 27 18 76 19 70 20 69 21 28 23 58 24
REMARK SMILES IDX 39 25 57 26 40 27 43 28 56 29 74 30 41 31 42 32 55 34 75 35
REMARK SMILES IDX 44 36 29 37 30 38 38 39 31 40 37 41 32 42 33 43 34 44 35 45
REMARK SMILES IDX 36 46 59 47 60 48 68 49 61 50 67 51 62 52 63 53 64 54 65 55
REMARK SMILES IDX 66 56 45 57 46 58 54 59 47 60 53 61 48 62 49 63 50 64 51 65
REMARK SMILES IDX 52 66 4 67 5 68 6 69 7 70 8 71 9 73 10 74 11 75 19 76 12 77
REMARK SMILES IDX 13 79 18 80 14 81 16 82 15 83 17 84
REMARK H PARENT 3 4 73 22 43 33 7 72 11 78
REMARK Flexibility Score: inf
ROOT
ATOM      1  O   UNL     1       1.112  -0.909  -0.189  1.00  0.00    -0.269 OA
ATOM      2  C   UNL     1       2.150  -0.304   0.095  1.00  0.00     0.251 C 
ATOM      3  N   UNL     1       3.195  -1.091   0.497  1.00  0.00    -0.352 N 
ATOM      4  H   UNL     1       2.938  -2.037   0.586  1.00  0.00     0.163 HD
ENDROOT
BRANCH   2   5
ATOM      5  C   UNL     1       2.161   1.186   0.007  1.00  0.00     0.039 A 
ATOM      6  C   UNL     1       3.269   2.004   0.217  1.00  0.00     0.014 A 
ATOM      7  C   UNL     1       0.932   1.804  -0.304  1.00  0.00     0.014 A 
ATOM      8  C   UNL     1       3.145   3.393   0.173  1.00  0.00     0.010 A 
ATOM      9  C   UNL     1       0.808   3.193  -0.370  1.00  0.00     0.010 A 
ATOM     10  C   UNL     1       1.915   3.994  -0.109  1.00  0.00    -0.014 A 
BRANCH  10  11
ATOM     11  C   UNL     1       1.882   5.456  -0.185  1.00  0.00     0.031 A 
ATOM     12  C   UNL     1       2.697   6.092  -1.260  1.00  0.00     0.074 A 
ATOM     13  C   UNL     1       1.097   6.260   0.557  1.00  0.00     0.049 A 
ATOM     14  N   UNL     1       3.731   6.862  -1.139  1.00  0.00    -0.248 NA
ATOM     15  C   UNL     1       2.321   5.804  -2.651  1.00  0.00     0.031 C 
ATOM     16  C   UNL     1      -0.029   5.888   1.413  1.00  0.00     0.029 A 
ATOM     17  N   UNL     1       1.104   7.626   0.615  1.00  0.00    -0.354 N 
ATOM     18  C   UNL     1       4.038   7.304  -2.426  1.00  0.00     0.074 A 
ATOM     19  C   UNL     1       3.204   6.541  -3.324  1.00  0.00     0.031 C 
ATOM     20  C   UNL     1      -0.724   7.004   1.734  1.00  0.00     0.029 A 
ATOM     21  C   UNL     1      -0.010   8.168   1.232  1.00  0.00     0.049 A 
ATOM     22  H   UNL     1       1.835   8.175   0.250  1.00  0.00     0.167 HD
ATOM     23  C   UNL     1       4.830   8.387  -2.669  1.00  0.00     0.031 A 
ATOM     24  C   UNL     1      -0.352   9.477   1.284  1.00  0.00     0.031 A 
ATOM     25  C   UNL     1       5.566   8.808  -1.508  1.00  0.00     0.049 A 
ATOM     26  C   UNL     1       0.862  10.291   1.040  1.00  0.00     0.074 A 
ATOM     27  C   UNL     1       6.510   8.243  -0.676  1.00  0.00     0.029 A 
ATOM     28  N   UNL     1       5.141   9.951  -0.875  1.00  0.00    -0.354 N 
ATOM     29  N   UNL     1       1.868  10.366   1.865  1.00  0.00    -0.248 NA
ATOM     30  C   UNL     1       1.107  10.828  -0.289  1.00  0.00     0.031 C 
ATOM     31  C   UNL     1       6.285   8.830   0.604  1.00  0.00     0.029 A 
ATOM     32  C   UNL     1       5.216   9.720   0.474  1.00  0.00     0.049 A 
ATOM     33  H   UNL     1       4.839  10.781  -1.309  1.00  0.00     0.167 HD
ATOM     34  C   UNL     1       2.974  10.595   1.063  1.00  0.00     0.074 A 
ATOM     35  C   UNL     1       2.427  11.014  -0.221  1.00  0.00     0.031 C 
ATOM     36  C   UNL     1       4.215  10.156   1.427  1.00  0.00     0.031 A 
BRANCH  23  37
ATOM     37  C   UNL     1       4.691   9.289  -3.875  1.00  0.00    -0.014 A 
ATOM     38  C   UNL     1       5.651  10.303  -4.087  1.00  0.00     0.010 A 
ATOM     39  C   UNL     1       3.507   9.363  -4.636  1.00  0.00     0.010 A 
ATOM     40  C   UNL     1       5.401  11.378  -4.951  1.00  0.00     0.020 A 
ATOM     41  C   UNL     1       3.268  10.405  -5.537  1.00  0.00     0.020 A 
ATOM     42  C   UNL     1       4.198  11.431  -5.654  1.00  0.00     0.054 A 
BRANCH  42  43
ATOM     43  S   UNL     1       3.815  12.896  -6.648  1.00  0.00     0.124 S 
ATOM     44  O   UNL     1       3.604  13.907  -5.617  1.00  0.00    -0.237 OA
ATOM     45  O   UNL     1       5.024  13.054  -7.452  1.00  0.00    -0.237 OA
ATOM     46  O   UNL     1       2.623  12.500  -7.395  1.00  0.00    -0.744 OA
ENDBRANCH  42  43
ENDBRANCH  23  37
BRANCH  24  47
ATOM     47  C   UNL     1      -1.714  10.062   1.294  1.00  0.00    -0.014 A 
ATOM     48  C   UNL     1      -1.918  11.415   1.624  1.00  0.00     0.010 A 
ATOM     49  C   UNL     1      -2.788   9.357   0.714  1.00  0.00     0.010 A 
ATOM     50  C   UNL     1      -3.132  12.053   1.325  1.00  0.00     0.020 A 
ATOM     51  C   UNL     1      -4.004   9.982   0.427  1.00  0.00     0.020 A 
ATOM     52  C   UNL     1      -4.161  11.336   0.709  1.00  0.00     0.054 A 
BRANCH  52  53
ATOM     53  S   UNL     1      -5.656  12.211   0.165  1.00  0.00     0.124 S 
ATOM     54  O   UNL     1      -6.293  12.557   1.432  1.00  0.00    -0.237 OA
ATOM     55  O   UNL     1      -5.107  13.331  -0.595  1.00  0.00    -0.237 OA
ATOM     56  O   UNL     1      -6.366  11.214  -0.635  1.00  0.00    -0.744 OA
ENDBRANCH  52  53
ENDBRANCH  24  47
BRANCH  36  57
ATOM     57  C   UNL     1       4.453   9.783   2.871  1.00  0.00    -0.014 A 
ATOM     58  C   UNL     1       3.742   8.759   3.525  1.00  0.00     0.010 A 
ATOM     59  C   UNL     1       5.535  10.383   3.542  1.00  0.00     0.010 A 
ATOM     60  C   UNL     1       4.090   8.360   4.822  1.00  0.00     0.020 A 
ATOM     61  C   UNL     1       5.900   9.976   4.829  1.00  0.00     0.020 A 
ATOM     62  C   UNL     1       5.172   8.969   5.464  1.00  0.00     0.054 A 
BRANCH  62  63
ATOM     63  S   UNL     1       5.666   8.379   7.107  1.00  0.00     0.124 S 
ATOM     64  O   UNL     1       4.571   8.845   7.954  1.00  0.00    -0.237 OA
ATOM     65  O   UNL     1       5.745   6.932   6.919  1.00  0.00    -0.237 OA
ATOM     66  O   UNL     1       6.952   9.036   7.341  1.00  0.00    -0.744 OA
ENDBRANCH  62  63
ENDBRANCH  36  57
ENDBRANCH  10  11
ENDBRANCH   2   5
BRANCH   3  67
ATOM     67  C   UNL     1       4.591  -0.866   0.824  1.00  0.00     0.118 C 
BRANCH  67  68
ATOM     68  C   UNL     1       4.843  -0.365   2.248  1.00  0.00     0.042 C 
BRANCH  68  69
ATOM     69  C   UNL     1       4.239  -1.232   3.353  1.00  0.00     0.118 C 
BRANCH  69  70
ATOM     70  N   UNL     1       4.768  -2.588   3.354  1.00  0.00    -0.351 N 
ATOM     71  C   UNL     1       5.754  -3.170   4.108  1.00  0.00     0.270 C 
ATOM     72  H   UNL     1       4.344  -3.191   2.702  1.00  0.00     0.163 HD
ATOM     73  O   UNL     1       6.195  -4.249   3.724  1.00  0.00    -0.268 OA
BRANCH  71  74
ATOM     74  C   UNL     1       6.226  -2.517   5.295  1.00  0.00     0.132 A 
ATOM     75  N   UNL     1       5.426  -1.958   6.263  1.00  0.00    -0.270 N 
ATOM     76  C   UNL     1       7.497  -2.400   5.815  1.00  0.00     0.055 A 
ATOM     77  N   UNL     1       6.077  -1.460   7.329  1.00  0.00    -0.154 NA
ATOM     78  H   UNL     1       4.445  -1.925   6.182  1.00  0.00     0.190 HD
ATOM     79  C   UNL     1       7.357  -1.711   7.063  1.00  0.00     0.181 A 
ATOM     80  C   UNL     1       8.675  -2.853   5.228  1.00  0.00     0.055 A 
ATOM     81  N   UNL     1       8.432  -1.407   7.837  1.00  0.00    -0.232 NA
ATOM     82  C   UNL     1       9.761  -2.520   6.039  1.00  0.00     0.142 A 
ATOM     83  C   UNL     1       9.602  -1.828   7.261  1.00  0.00     0.152 A 
ATOM     84  F   UNL     1      10.995  -2.869   5.646  1.00  0.00    -0.205 F 
ENDBRANCH  71  74
ENDBRANCH  69  70
ENDBRANCH  68  69
ENDBRANCH  67  68
ENDBRANCH   3  67
TORSDOF 13
