REMARK SMILES CC[C@](C)([NH3+])C(=O)N1CC[NH+]([C@H](C)C(=O)NCCCNC(=O)c2ccc(-c3c4nc(c(-c5ccc(S(=O)(=O)[O-])cc5)c5ccc([nH]5)c(-c5ccc(S(=O)(=O)[O-])cc5)c5nc(c(-c6ccc(S(=O)(=O)[O-])cc6)c6ccc3[nH]6)C=C5)C=C4)cc2)CC1
REMARK SMILES IDX 18 1 17 2 16 3 14 4 15 5 12 7 13 8 11 9 6 10 7 11 8 12 9 13
REMARK SMILES IDX 84 14 10 15 83 16 3 18 4 19 2 20 1 21 5 22 19 26 20 27 21 28
REMARK SMILES IDX 22 30 23 31 24 32 82 33 25 34 81 35 26 36 27 37 28 38 75 39
REMARK SMILES IDX 29 40 80 41 74 42 76 43 30 44 79 45 73 46 72 47 31 49 61 50
REMARK SMILES IDX 42 51 60 52 43 53 46 54 59 55 77 56 44 57 45 58 58 60 78 61
REMARK SMILES IDX 47 62 32 63 33 64 41 65 34 66 40 67 35 68 36 69 37 70 38 71
REMARK SMILES IDX 39 72 62 73 63 74 71 75 64 76 70 77 65 78 66 79 67 80 68 81
REMARK SMILES IDX 69 82 48 83 49 84 57 85 50 86 56 87 51 88 52 89 53 90 54 91
REMARK SMILES IDX 55 92
REMARK H PARENT 16 6 11 17 5 23 5 24 5 25 20 29 76 48 46 59
REMARK Flexibility Score: inf
ROOT
ATOM      1  C   UNL     1       5.584  -4.893  -1.653  1.00  0.00     0.042 C 
ENDROOT
BRANCH   1   2
ATOM      2  C   UNL     1       5.822  -3.845  -2.710  1.00  0.00     0.118 C 
BRANCH   2   3
ATOM      3  N   UNL     1       6.353  -4.352  -3.958  1.00  0.00    -0.351 N 
ATOM      4  C   UNL     1       6.068  -3.966  -5.238  1.00  0.00     0.278 C 
ATOM      5  O   UNL     1       6.819  -4.381  -6.127  1.00  0.00    -0.268 OA
ATOM      6  H   UNL     1       7.012  -5.078  -3.872  1.00  0.00     0.163 HD
BRANCH   4   7
ATOM      7  C   UNL     1       4.840  -3.088  -5.580  1.00  0.00     0.271 C 
ATOM      8  C   UNL     1       3.530  -3.679  -5.038  1.00  0.00     0.086 C 
BRANCH   7   9
ATOM      9  N   UNL     1       5.071  -1.618  -5.437  1.00  0.00    -0.322 N 
ATOM     10  C   UNL     1       3.899   1.490  -3.126  1.00  0.00     0.283 C 
ATOM     11  O   UNL     1       4.576   1.781  -2.126  1.00  0.00    -0.268 OA
ATOM     12  N   UNL     1       4.546   0.969  -4.234  1.00  0.00    -0.326 N 
ATOM     13  C   UNL     1       5.859   0.359  -4.037  1.00  0.00     0.181 C 
ATOM     14  C   UNL     1       4.040   0.681  -5.571  1.00  0.00     0.181 C 
ATOM     15  C   UNL     1       5.692  -1.169  -4.175  1.00  0.00     0.284 C 
ATOM     16  C   UNL     1       3.850  -0.837  -5.747  1.00  0.00     0.284 C 
ATOM     17  H   UNL     1       5.784  -1.423  -6.139  1.00  0.00     0.348 HD
BRANCH  10  18
ATOM     18  C   UNL     1       2.330   1.519  -2.980  1.00  0.00     0.171 C 
ATOM     19  C   UNL     1       2.003   2.596  -1.920  1.00  0.00     0.090 C 
BRANCH  18  20
ATOM     20  C   UNL     1       1.866   0.087  -2.565  1.00  0.00     0.075 C 
ATOM     21  C   UNL     1       0.866  -0.002  -1.417  1.00  0.00     0.011 C 
ENDBRANCH  18  20
BRANCH  18  22
ATOM     22  N   UNL     1       1.615   1.947  -4.206  1.00  0.00    -0.345 N 
ATOM     23  H   UNL     1       1.924   2.883  -4.470  1.00  0.00     0.345 HD
ATOM     24  H   UNL     1       0.611   1.958  -4.028  1.00  0.00     0.345 HD
ATOM     25  H   UNL     1       1.819   1.295  -4.964  1.00  0.00     0.345 HD
ENDBRANCH  18  22
ENDBRANCH  10  18
ENDBRANCH   7   9
ENDBRANCH   4   7
ENDBRANCH   2   3
ENDBRANCH   1   2
BRANCH   1  26
ATOM     26  C   UNL     1       6.862  -5.520  -1.138  1.00  0.00     0.118 C 
BRANCH  26  27
ATOM     27  N   UNL     1       7.765  -4.560  -0.510  1.00  0.00    -0.352 N 
ATOM     28  C   UNL     1       8.161  -4.422   0.802  1.00  0.00     0.251 C 
ATOM     29  H   UNL     1       8.157  -3.901  -1.128  1.00  0.00     0.163 HD
ATOM     30  O   UNL     1       8.806  -3.439   1.140  1.00  0.00    -0.269 OA
BRANCH  28  31
ATOM     31  C   UNL     1       7.787  -5.450   1.796  1.00  0.00     0.039 A 
ATOM     32  C   UNL     1       7.455  -5.068   3.097  1.00  0.00     0.014 A 
ATOM     33  C   UNL     1       7.755  -6.797   1.440  1.00  0.00     0.014 A 
ATOM     34  C   UNL     1       7.033  -6.036   4.011  1.00  0.00     0.010 A 
ATOM     35  C   UNL     1       7.175  -7.724   2.288  1.00  0.00     0.010 A 
ATOM     36  C   UNL     1       6.858  -7.369   3.603  1.00  0.00    -0.014 A 
BRANCH  36  37
ATOM     37  C   UNL     1       6.435  -8.434   4.545  1.00  0.00     0.031 A 
ATOM     38  C   UNL     1       7.333  -9.627   4.765  1.00  0.00     0.074 A 
ATOM     39  C   UNL     1       5.235  -8.359   5.153  1.00  0.00     0.049 A 
ATOM     40  N   UNL     1       7.130 -10.689   5.502  1.00  0.00    -0.248 NA
ATOM     41  C   UNL     1       8.609  -9.656   4.025  1.00  0.00     0.031 C 
ATOM     42  C   UNL     1       4.252  -7.287   4.971  1.00  0.00     0.029 A 
ATOM     43  N   UNL     1       4.640  -9.203   6.055  1.00  0.00    -0.354 N 
ATOM     44  C   UNL     1       8.232 -11.511   5.290  1.00  0.00     0.074 A 
ATOM     45  C   UNL     1       9.056 -10.872   4.293  1.00  0.00     0.031 C 
ATOM     46  C   UNL     1       3.202  -7.512   5.777  1.00  0.00     0.029 A 
ATOM     47  C   UNL     1       3.417  -8.761   6.500  1.00  0.00     0.049 A 
ATOM     48  H   UNL     1       5.051 -10.046   6.355  1.00  0.00     0.167 HD
ATOM     49  C   UNL     1       8.557 -12.674   5.901  1.00  0.00     0.031 A 
ATOM     50  C   UNL     1       2.571  -9.299   7.399  1.00  0.00     0.031 A 
ATOM     51  C   UNL     1       7.753 -13.285   6.922  1.00  0.00     0.049 A 
ATOM     52  C   UNL     1       2.964 -10.580   8.085  1.00  0.00     0.074 A 
ATOM     53  C   UNL     1       8.013 -14.429   7.654  1.00  0.00     0.029 A 
ATOM     54  N   UNL     1       6.534 -12.793   7.362  1.00  0.00    -0.354 N 
ATOM     55  N   UNL     1       4.043 -11.309   7.919  1.00  0.00    -0.248 NA
ATOM     56  C   UNL     1       2.034 -11.098   9.096  1.00  0.00     0.031 C 
ATOM     57  C   UNL     1       6.925 -14.656   8.503  1.00  0.00     0.029 A 
ATOM     58  C   UNL     1       6.020 -13.618   8.346  1.00  0.00     0.049 A 
ATOM     59  H   UNL     1       6.099 -11.976   7.025  1.00  0.00     0.167 HD
ATOM     60  C   UNL     1       3.936 -12.355   8.829  1.00  0.00     0.074 A 
ATOM     61  C   UNL     1       2.699 -12.148   9.555  1.00  0.00     0.031 C 
ATOM     62  C   UNL     1       4.782 -13.394   9.049  1.00  0.00     0.031 A 
BRANCH  49  63
ATOM     63  C   UNL     1       9.842 -13.344   5.483  1.00  0.00    -0.014 A 
ATOM     64  C   UNL     1      11.092 -12.757   5.756  1.00  0.00     0.010 A 
ATOM     65  C   UNL     1       9.802 -14.585   4.823  1.00  0.00     0.010 A 
ATOM     66  C   UNL     1      12.273 -13.372   5.334  1.00  0.00     0.020 A 
ATOM     67  C   UNL     1      10.983 -15.222   4.430  1.00  0.00     0.020 A 
ATOM     68  C   UNL     1      12.211 -14.602   4.673  1.00  0.00     0.054 A 
BRANCH  68  69
ATOM     69  S   UNL     1      13.761 -15.391   4.161  1.00  0.00     0.124 S 
ATOM     70  O   UNL     1      14.180 -14.540   3.050  1.00  0.00    -0.237 OA
ATOM     71  O   UNL     1      14.580 -15.298   5.367  1.00  0.00    -0.237 OA
ATOM     72  O   UNL     1      13.356 -16.744   3.789  1.00  0.00    -0.744 OA
ENDBRANCH  68  69
ENDBRANCH  49  63
BRANCH  50  73
ATOM     73  C   UNL     1       1.295  -8.609   7.733  1.00  0.00    -0.014 A 
ATOM     74  C   UNL     1       1.110  -8.018   8.997  1.00  0.00     0.010 A 
ATOM     75  C   UNL     1       0.256  -8.534   6.788  1.00  0.00     0.010 A 
ATOM     76  C   UNL     1      -0.098  -7.392   9.319  1.00  0.00     0.020 A 
ATOM     77  C   UNL     1      -0.942  -7.881   7.096  1.00  0.00     0.020 A 
ATOM     78  C   UNL     1      -1.116  -7.327   8.365  1.00  0.00     0.054 A 
BRANCH  78  79
ATOM     79  S   UNL     1      -2.661  -6.476   8.791  1.00  0.00     0.124 S 
ATOM     80  O   UNL     1      -3.278  -7.414   9.723  1.00  0.00    -0.237 OA
ATOM     81  O   UNL     1      -2.181  -5.226   9.375  1.00  0.00    -0.237 OA
ATOM     82  O   UNL     1      -3.339  -6.333   7.505  1.00  0.00    -0.744 OA
ENDBRANCH  78  79
ENDBRANCH  50  73
BRANCH  62  83
ATOM     83  C   UNL     1       4.413 -14.357  10.145  1.00  0.00    -0.014 A 
ATOM     84  C   UNL     1       3.313 -15.224  10.021  1.00  0.00     0.010 A 
ATOM     85  C   UNL     1       5.196 -14.403  11.314  1.00  0.00     0.010 A 
ATOM     86  C   UNL     1       2.965 -16.075  11.072  1.00  0.00     0.020 A 
ATOM     87  C   UNL     1       4.873 -15.279  12.352  1.00  0.00     0.020 A 
ATOM     88  C   UNL     1       3.743 -16.091  12.234  1.00  0.00     0.054 A 
BRANCH  88  89
ATOM     89  S   UNL     1       3.270 -17.203  13.585  1.00  0.00     0.124 S 
ATOM     90  O   UNL     1       2.098 -16.527  14.136  1.00  0.00    -0.237 OA
ATOM     91  O   UNL     1       3.002 -18.459  12.889  1.00  0.00    -0.237 OA
ATOM     92  O   UNL     1       4.447 -17.215  14.452  1.00  0.00    -0.744 OA
ENDBRANCH  88  89
ENDBRANCH  62  83
ENDBRANCH  36  37
ENDBRANCH  28  31
ENDBRANCH  26  27
ENDBRANCH   1  26
TORSDOF 17
