REMARK SMILES C[NH2+][C@]1(C(=O)NCCCNC(=O)c2ccc(-c3c4nc(c(-c5ccc(S(=O)(=O)[O-])cc5)c5ccc([nH]5)c(-c5ccc(S(=O)(=O)[O-])cc5)c5nc(c(-c6ccc(S(=O)(=O)[O-])cc6)c6ccc3[nH]6)C=C5)C=C4)cc2)CC[C@H](SC2CCCCC2)C1
REMARK SMILES IDX 8 1 7 2 6 3 4 4 5 5 3 7 73 8 83 9 74 10 75 11 2 12 1 13
REMARK SMILES IDX 76 16 77 17 78 18 82 19 79 20 81 21 80 22 9 23 10 24 11 25
REMARK SMILES IDX 12 27 13 28 14 29 72 30 15 31 71 32 16 33 17 34 18 35 65 36
REMARK SMILES IDX 19 37 70 38 64 39 66 40 20 41 69 42 63 43 62 44 21 46 51 47
REMARK SMILES IDX 32 48 50 49 33 50 36 51 49 52 67 53 34 54 35 55 48 57 68 58
REMARK SMILES IDX 37 59 22 60 23 61 31 62 24 63 30 64 25 65 26 66 27 67 28 68
REMARK SMILES IDX 29 69 52 70 53 71 61 72 54 73 60 74 55 75 56 76 57 77 58 78
REMARK SMILES IDX 59 79 38 80 39 81 47 82 40 83 46 84 41 85 42 86 43 87 44 88
REMARK SMILES IDX 45 89
REMARK H PARENT 6 6 2 14 2 15 10 26 66 45 36 56
REMARK Flexibility Score: inf
ROOT
ATOM      1  C   UNL     1       1.066   0.408  -2.750  1.00  0.00     0.042 C 
ENDROOT
BRANCH   1   2
ATOM      2  C   UNL     1       0.774  -1.038  -2.356  1.00  0.00     0.118 C 
BRANCH   2   3
ATOM      3  N   UNL     1       1.243  -1.362  -1.017  1.00  0.00    -0.351 N 
ATOM      4  C   UNL     1       0.618  -1.564   0.179  1.00  0.00     0.281 C 
ATOM      5  O   UNL     1       1.382  -1.837   1.113  1.00  0.00    -0.268 OA
ATOM      6  H   UNL     1       2.222  -1.455  -0.963  1.00  0.00     0.163 HD
BRANCH   4   7
ATOM      7  C   UNL     1      -0.940  -1.492   0.356  1.00  0.00     0.176 C 
ATOM      8  C   UNL     1      -1.499  -0.158  -0.159  1.00  0.00     0.080 C 
ATOM      9  C   UNL     1      -1.694  -2.534  -0.493  1.00  0.00     0.093 C 
ATOM     10  C   UNL     1      -2.956  -0.431  -0.493  1.00  0.00     0.022 C 
ATOM     11  C   UNL     1      -3.069  -1.923  -0.823  1.00  0.00     0.054 C 
BRANCH   7  12
ATOM     12  N   UNL     1      -1.318  -1.539   1.800  1.00  0.00    -0.336 N 
ATOM     13  C   UNL     1      -1.179  -2.835   2.449  1.00  0.00     0.331 C 
ATOM     14  H   UNL     1      -0.728  -0.874   2.300  1.00  0.00     0.346 HD
ATOM     15  H   UNL     1      -2.313  -1.317   1.834  1.00  0.00     0.346 HD
ENDBRANCH   7  12
BRANCH  11  16
ATOM     16  S   UNL     1      -4.383  -2.771   0.141  1.00  0.00    -0.155 SA
BRANCH  16  17
ATOM     17  C   UNL     1      -5.947  -2.130  -0.588  1.00  0.00     0.047 C 
ATOM     18  C   UNL     1      -6.149  -0.627  -0.380  1.00  0.00     0.014 C 
ATOM     19  C   UNL     1      -6.133  -2.531  -2.055  1.00  0.00     0.014 C 
ATOM     20  C   UNL     1      -7.505  -0.166  -0.902  1.00  0.00     0.001 C 
ATOM     21  C   UNL     1      -7.485  -2.043  -2.587  1.00  0.00     0.001 C 
ATOM     22  C   UNL     1      -7.673  -0.543  -2.371  1.00  0.00     0.000 C 
ENDBRANCH  16  17
ENDBRANCH  11  16
ENDBRANCH   4   7
ENDBRANCH   2   3
ENDBRANCH   1   2
BRANCH   1  23
ATOM     23  C   UNL     1       2.546   0.726  -2.914  1.00  0.00     0.118 C 
BRANCH  23  24
ATOM     24  N   UNL     1       3.149  -0.001  -4.021  1.00  0.00    -0.352 N 
ATOM     25  C   UNL     1       3.703   0.465  -5.185  1.00  0.00     0.251 C 
ATOM     26  H   UNL     1       3.161  -0.980  -3.918  1.00  0.00     0.163 HD
ATOM     27  O   UNL     1       3.955  -0.337  -6.090  1.00  0.00    -0.269 OA
BRANCH  25  28
ATOM     28  C   UNL     1       3.987   1.904  -5.375  1.00  0.00     0.039 A 
ATOM     29  C   UNL     1       3.758   2.479  -6.628  1.00  0.00     0.014 A 
ATOM     30  C   UNL     1       4.513   2.682  -4.340  1.00  0.00     0.014 A 
ATOM     31  C   UNL     1       4.003   3.841  -6.825  1.00  0.00     0.010 A 
ATOM     32  C   UNL     1       4.677   4.054  -4.512  1.00  0.00     0.010 A 
ATOM     33  C   UNL     1       4.434   4.647  -5.760  1.00  0.00    -0.014 A 
BRANCH  33  34
ATOM     34  C   UNL     1       4.645   6.107  -5.931  1.00  0.00     0.031 A 
ATOM     35  C   UNL     1       6.018   6.701  -5.754  1.00  0.00     0.074 A 
ATOM     36  C   UNL     1       3.591   6.908  -6.185  1.00  0.00     0.049 A 
ATOM     37  N   UNL     1       6.386   7.955  -5.804  1.00  0.00    -0.248 NA
ATOM     38  C   UNL     1       7.115   5.766  -5.456  1.00  0.00     0.031 C 
ATOM     39  C   UNL     1       2.205   6.460  -6.340  1.00  0.00     0.029 A 
ATOM     40  N   UNL     1       3.519   8.268  -6.350  1.00  0.00    -0.354 N 
ATOM     41  C   UNL     1       7.749   7.962  -5.526  1.00  0.00     0.074 A 
ATOM     42  C   UNL     1       8.131   6.593  -5.260  1.00  0.00     0.031 C 
ATOM     43  C   UNL     1       1.426   7.522  -6.604  1.00  0.00     0.029 A 
ATOM     44  C   UNL     1       2.247   8.729  -6.595  1.00  0.00     0.049 A 
ATOM     45  H   UNL     1       4.305   8.859  -6.298  1.00  0.00     0.167 HD
ATOM     46  C   UNL     1       8.608   9.009  -5.511  1.00  0.00     0.031 A 
ATOM     47  C   UNL     1       1.788   9.981  -6.783  1.00  0.00     0.031 A 
ATOM     48  C   UNL     1       8.226  10.369  -5.788  1.00  0.00     0.049 A 
ATOM     49  C   UNL     1       2.759  11.129  -6.754  1.00  0.00     0.074 A 
ATOM     50  C   UNL     1       9.031  11.492  -5.855  1.00  0.00     0.029 A 
ATOM     51  N   UNL     1       6.928  10.791  -6.039  1.00  0.00    -0.354 N 
ATOM     52  N   UNL     1       4.055  11.106  -6.554  1.00  0.00    -0.248 NA
ATOM     53  C   UNL     1       2.207  12.471  -6.986  1.00  0.00     0.031 C 
ATOM     54  C   UNL     1       8.213  12.601  -6.096  1.00  0.00     0.029 A 
ATOM     55  C   UNL     1       6.907  12.161  -6.237  1.00  0.00     0.049 A 
ATOM     56  H   UNL     1       6.139  10.203  -6.072  1.00  0.00     0.167 HD
ATOM     57  C   UNL     1       4.478  12.427  -6.662  1.00  0.00     0.074 A 
ATOM     58  C   UNL     1       3.301  13.219  -6.959  1.00  0.00     0.031 C 
ATOM     59  C   UNL     1       5.727  12.936  -6.528  1.00  0.00     0.031 A 
BRANCH  46  60
ATOM     60  C   UNL     1      10.049   8.723  -5.176  1.00  0.00    -0.014 A 
ATOM     61  C   UNL     1      10.875   8.008  -6.064  1.00  0.00     0.010 A 
ATOM     62  C   UNL     1      10.596   9.201  -3.971  1.00  0.00     0.010 A 
ATOM     63  C   UNL     1      12.204   7.736  -5.732  1.00  0.00     0.020 A 
ATOM     64  C   UNL     1      11.934   8.957  -3.649  1.00  0.00     0.020 A 
ATOM     65  C   UNL     1      12.725   8.209  -4.523  1.00  0.00     0.054 A 
BRANCH  65  66
ATOM     66  S   UNL     1      14.458   7.853  -4.125  1.00  0.00     0.124 S 
ATOM     67  O   UNL     1      14.405   6.430  -3.797  1.00  0.00    -0.237 OA
ATOM     68  O   UNL     1      15.148   8.185  -5.369  1.00  0.00    -0.237 OA
ATOM     69  O   UNL     1      14.745   8.740  -3.000  1.00  0.00    -0.744 OA
ENDBRANCH  65  66
ENDBRANCH  46  60
BRANCH  47  70
ATOM     70  C   UNL     1       0.339  10.209  -7.033  1.00  0.00    -0.014 A 
ATOM     71  C   UNL     1      -0.113  10.598  -8.307  1.00  0.00     0.010 A 
ATOM     72  C   UNL     1      -0.601  10.017  -6.004  1.00  0.00     0.010 A 
ATOM     73  C   UNL     1      -1.475  10.803  -8.543  1.00  0.00     0.020 A 
ATOM     74  C   UNL     1      -1.967  10.195  -6.244  1.00  0.00     0.020 A 
ATOM     75  C   UNL     1      -2.394  10.596  -7.511  1.00  0.00     0.054 A 
BRANCH  75  76
ATOM     76  S   UNL     1      -4.163  10.809  -7.858  1.00  0.00     0.124 S 
ATOM     77  O   UNL     1      -4.284  12.261  -7.941  1.00  0.00    -0.237 OA
ATOM     78  O   UNL     1      -4.326  10.086  -9.116  1.00  0.00    -0.237 OA
ATOM     79  O   UNL     1      -4.813  10.190  -6.705  1.00  0.00    -0.744 OA
ENDBRANCH  75  76
ENDBRANCH  47  70
BRANCH  59  80
ATOM     80  C   UNL     1       5.895  14.418  -6.732  1.00  0.00    -0.014 A 
ATOM     81  C   UNL     1       5.434  15.343  -5.778  1.00  0.00     0.010 A 
ATOM     82  C   UNL     1       6.575  14.889  -7.870  1.00  0.00     0.010 A 
ATOM     83  C   UNL     1       5.622  16.713  -5.975  1.00  0.00     0.020 A 
ATOM     84  C   UNL     1       6.791  16.256  -8.057  1.00  0.00     0.020 A 
ATOM     85  C   UNL     1       6.300  17.161  -7.114  1.00  0.00     0.054 A 
BRANCH  85  86
ATOM     86  S   UNL     1       6.571  18.942  -7.324  1.00  0.00     0.124 S 
ATOM     87  O   UNL     1       5.238  19.411  -7.691  1.00  0.00    -0.237 OA
ATOM     88  O   UNL     1       7.040  19.354  -6.003  1.00  0.00    -0.237 OA
ATOM     89  O   UNL     1       7.572  19.018  -8.385  1.00  0.00    -0.744 OA
ENDBRANCH  85  86
ENDBRANCH  59  80
ENDBRANCH  33  34
ENDBRANCH  25  28
ENDBRANCH  23  24
ENDBRANCH   1  23
TORSDOF 16
