REMARK SMILES Cc1c(CC(=O)N[C@@H](CCO)C(=O)NCCCNC(=O)c2ccc(-c3c4nc(c(-c5ccc(S(=O)(=O)[O-])cc5)c5ccc([nH]5)c(-c5ccc(S(=O)(=O)[O-])cc5)c5nc(c(-c6ccc(S(=O)(=O)[O-])cc6)c6ccc3[nH]6)C=C5)C=C4)cc2)cc(-c2ccc(S(C)(=O)=O)cc2)n1-c1ccc(F)cc1
REMARK SMILES IDX 15 1 14 2 12 3 13 4 8 6 7 7 5 8 6 9 4 11 3 12 1 13 2 14
REMARK SMILES IDX 93 15 81 16 82 17 94 18 95 19 100 20 96 21 99 22 97 23 98 24
REMARK SMILES IDX 83 25 84 26 92 27 85 28 91 29 86 30 87 31 88 32 89 33 90 34
REMARK SMILES IDX 9 35 10 36 11 37 16 39 17 40 18 41 19 42 20 44 21 45 22 46
REMARK SMILES IDX 80 47 23 48 79 49 24 50 25 51 26 52 73 53 27 54 78 55 72 56
REMARK SMILES IDX 74 57 28 58 77 59 71 60 70 61 29 63 59 64 40 65 58 66 41 67
REMARK SMILES IDX 44 68 57 69 75 70 42 71 43 72 56 74 76 75 45 76 30 77 31 78
REMARK SMILES IDX 39 79 32 80 38 81 33 82 34 83 35 84 36 85 37 86 60 87 61 88
REMARK SMILES IDX 69 89 62 90 68 91 63 92 64 93 65 94 66 95 67 96 46 97 47 98
REMARK SMILES IDX 55 99 48 100 54 101 49 102 50 103 51 104 52 105 53 106
REMARK H PARENT 14 5 7 10 11 38 18 43 74 62 44 73
REMARK Flexibility Score: inf
ROOT
ATOM      1  C   UNL     1       4.663  -2.943  -4.746  1.00  0.00     0.117 C 
ENDROOT
BRANCH   1   2
ATOM      2  N   UNL     1       4.580  -4.236  -3.958  1.00  0.00    -0.354 N 
ATOM      3  C   UNL     1       3.768  -4.530  -2.825  1.00  0.00     0.242 C 
ATOM      4  O   UNL     1       3.715  -5.664  -2.343  1.00  0.00    -0.273 OA
ATOM      5  H   UNL     1       5.164  -4.965  -4.268  1.00  0.00     0.163 HD
BRANCH   3   6
ATOM      6  C   UNL     1       2.774  -3.422  -2.348  1.00  0.00     0.173 C 
BRANCH   6   7
ATOM      7  N   UNL     1       3.515  -2.251  -1.889  1.00  0.00    -0.344 N 
ATOM      8  C   UNL     1       3.598  -1.784  -0.607  1.00  0.00     0.225 C 
ATOM      9  O   UNL     1       4.289  -0.794  -0.363  1.00  0.00    -0.275 OA
ATOM     10  H   UNL     1       4.006  -1.743  -2.575  1.00  0.00     0.164 HD
BRANCH   8  11
ATOM     11  C   UNL     1       2.789  -2.487   0.478  1.00  0.00     0.137 C 
BRANCH  11  12
ATOM     12  C   UNL     1       1.332  -2.455   0.174  1.00  0.00    -0.017 A 
ATOM     13  C   UNL     1       1.049   0.076   0.066  1.00  0.00     0.065 C 
ATOM     14  C   UNL     1       0.590  -1.321  -0.046  1.00  0.00     0.024 A 
ATOM     15  N   UNL     1      -0.700  -1.690  -0.324  1.00  0.00    -0.314 N 
ATOM     16  C   UNL     1       0.474  -3.557  -0.022  1.00  0.00     0.033 A 
ATOM     17  C   UNL     1      -0.769  -3.075  -0.368  1.00  0.00     0.053 A 
BRANCH  15  18
ATOM     18  C   UNL     1      -1.755  -0.796  -0.565  1.00  0.00     0.046 A 
ATOM     19  C   UNL     1      -2.909  -0.864   0.200  1.00  0.00     0.029 A 
ATOM     20  C   UNL     1      -1.655   0.085  -1.639  1.00  0.00     0.029 A 
ATOM     21  C   UNL     1      -4.019  -0.141  -0.218  1.00  0.00     0.041 A 
ATOM     22  C   UNL     1      -2.740   0.879  -1.979  1.00  0.00     0.041 A 
ATOM     23  C   UNL     1      -3.908   0.786  -1.244  1.00  0.00     0.123 A 
ATOM     24  F   UNL     1      -4.927   1.616  -1.496  1.00  0.00    -0.207 F 
ENDBRANCH  15  18
BRANCH  17  25
ATOM     25  C   UNL     1      -1.963  -3.844  -0.673  1.00  0.00    -0.001 A 
ATOM     26  C   UNL     1      -2.665  -3.701  -1.866  1.00  0.00     0.011 A 
ATOM     27  C   UNL     1      -2.460  -4.700   0.305  1.00  0.00     0.011 A 
ATOM     28  C   UNL     1      -3.936  -4.282  -1.995  1.00  0.00     0.021 A 
ATOM     29  C   UNL     1      -3.676  -5.364   0.126  1.00  0.00     0.021 A 
ATOM     30  C   UNL     1      -4.410  -5.184  -1.043  1.00  0.00     0.067 A 
BRANCH  30  31
ATOM     31  S   UNL     1      -5.850  -6.212  -1.387  1.00  0.00     0.175 S 
ATOM     32  C   UNL     1      -7.225  -5.085  -1.604  1.00  0.00     0.163 C 
ATOM     33  O   UNL     1      -5.612  -6.882  -2.653  1.00  0.00    -0.224 OA
ATOM     34  O   UNL     1      -6.108  -7.009  -0.201  1.00  0.00    -0.224 OA
ENDBRANCH  30  31
ENDBRANCH  17  25
ENDBRANCH  11  12
ENDBRANCH   8  11
ENDBRANCH   6   7
BRANCH   6  35
ATOM     35  C   UNL     1       1.617  -3.049  -3.317  1.00  0.00     0.063 C 
BRANCH  35  36
ATOM     36  C   UNL     1       2.070  -2.553  -4.642  1.00  0.00     0.158 C 
BRANCH  36  37
ATOM     37  O   UNL     1       2.533  -3.750  -5.260  1.00  0.00    -0.396 OA
ATOM     38  H   UNL     1       3.217  -4.156  -4.706  1.00  0.00     0.210 HD
ENDBRANCH  36  37
ENDBRANCH  35  36
ENDBRANCH   6  35
ENDBRANCH   3   6
ENDBRANCH   1   2
BRANCH   1  39
ATOM     39  C   UNL     1       5.920  -2.252  -4.805  1.00  0.00     0.042 C 
BRANCH  39  40
ATOM     40  C   UNL     1       6.744  -3.205  -5.576  1.00  0.00     0.118 C 
BRANCH  40  41
ATOM     41  N   UNL     1       6.401  -3.348  -6.947  1.00  0.00    -0.352 N 
ATOM     42  C   UNL     1       7.461  -2.965  -7.929  1.00  0.00     0.251 C 
ATOM     43  H   UNL     1       5.520  -3.680  -7.232  1.00  0.00     0.163 HD
ATOM     44  O   UNL     1       6.867  -3.005  -9.047  1.00  0.00    -0.269 OA
BRANCH  42  45
ATOM     45  C   UNL     1       9.276  -2.756  -7.186  1.00  0.00     0.039 A 
ATOM     46  C   UNL     1      10.707  -2.401  -6.790  1.00  0.00     0.014 A 
ATOM     47  C   UNL     1       9.937  -3.516  -6.215  1.00  0.00     0.014 A 
ATOM     48  C   UNL     1      12.131  -3.108  -5.510  1.00  0.00     0.010 A 
ATOM     49  C   UNL     1      11.502  -3.892  -5.113  1.00  0.00     0.010 A 
ATOM     50  C   UNL     1      12.990  -4.276  -4.033  1.00  0.00    -0.014 A 
BRANCH  50  51
ATOM     51  C   UNL     1      14.538  -5.054  -2.531  1.00  0.00     0.031 A 
ATOM     52  C   UNL     1      14.091  -3.401  -3.742  1.00  0.00     0.074 A 
ATOM     53  C   UNL     1      15.565  -6.180  -1.112  1.00  0.00     0.049 A 
ATOM     54  N   UNL     1      14.286  -3.195  -5.279  1.00  0.00    -0.248 NA
ATOM     55  C   UNL     1      13.681  -1.633  -4.175  1.00  0.00     0.031 C 
ATOM     56  C   UNL     1      16.672  -7.286   0.365  1.00  0.00     0.029 A 
ATOM     57  N   UNL     1      17.294  -6.604  -0.082  1.00  0.00    -0.354 N 
ATOM     58  C   UNL     1      15.446  -2.674  -5.113  1.00  0.00     0.074 A 
ATOM     59  C   UNL     1      14.994  -1.504  -4.321  1.00  0.00     0.031 C 
ATOM     60  C   UNL     1      17.824  -8.050   1.524  1.00  0.00     0.029 A 
ATOM     61  C   UNL     1      18.487  -6.940   1.404  1.00  0.00     0.049 A 
ATOM     62  H   UNL     1      17.924  -6.694  -0.833  1.00  0.00     0.167 HD
ATOM     63  C   UNL     1      16.058  -3.865  -4.916  1.00  0.00     0.031 A 
ATOM     64  C   UNL     1      19.700  -6.685   2.540  1.00  0.00     0.031 A 
ATOM     65  C   UNL     1      16.514  -3.854  -3.605  1.00  0.00     0.049 A 
ATOM     66  C   UNL     1      19.545  -5.613   1.675  1.00  0.00     0.074 A 
ATOM     67  C   UNL     1      16.289  -3.044  -2.485  1.00  0.00     0.029 A 
ATOM     68  N   UNL     1      16.975  -5.055  -3.236  1.00  0.00    -0.354 N 
ATOM     69  N   UNL     1      19.899  -5.657   0.418  1.00  0.00    -0.248 NA
ATOM     70  C   UNL     1      18.643  -4.618   2.139  1.00  0.00     0.031 C 
ATOM     71  C   UNL     1      16.841  -3.681  -1.461  1.00  0.00     0.029 A 
ATOM     72  C   UNL     1      17.455  -4.769  -2.016  1.00  0.00     0.049 A 
ATOM     73  H   UNL     1      16.965  -5.910  -3.725  1.00  0.00     0.167 HD
ATOM     74  C   UNL     1      18.832  -5.141  -0.257  1.00  0.00     0.074 A 
ATOM     75  C   UNL     1      18.117  -4.444   0.930  1.00  0.00     0.031 C 
ATOM     76  C   UNL     1      18.336  -5.716  -1.517  1.00  0.00     0.031 A 
BRANCH  63  77
ATOM     77  C   UNL     1      15.287  -5.196  -5.635  1.00  0.00    -0.014 A 
ATOM     78  C   UNL     1      15.463  -5.111  -6.991  1.00  0.00     0.010 A 
ATOM     79  C   UNL     1      14.444  -6.268  -5.161  1.00  0.00     0.010 A 
ATOM     80  C   UNL     1      15.053  -6.148  -7.815  1.00  0.00     0.020 A 
ATOM     81  C   UNL     1      14.101  -7.351  -5.975  1.00  0.00     0.020 A 
ATOM     82  C   UNL     1      14.508  -7.326  -7.295  1.00  0.00     0.054 A 
BRANCH  82  83
ATOM     83  S   UNL     1      14.424  -8.836  -8.347  1.00  0.00     0.124 S 
ATOM     84  O   UNL     1      13.567  -8.405  -9.450  1.00  0.00    -0.237 OA
ATOM     85  O   UNL     1      15.820  -9.059  -8.714  1.00  0.00    -0.237 OA
ATOM     86  O   UNL     1      13.832  -9.851  -7.479  1.00  0.00    -0.744 OA
ENDBRANCH  82  83
ENDBRANCH  63  77
BRANCH  64  87
ATOM     87  C   UNL     1      20.364  -6.159   4.138  1.00  0.00    -0.014 A 
ATOM     88  C   UNL     1      21.715  -6.186   4.715  1.00  0.00     0.010 A 
ATOM     89  C   UNL     1      19.459  -5.623   5.073  1.00  0.00     0.010 A 
ATOM     90  C   UNL     1      22.025  -5.771   6.095  1.00  0.00     0.020 A 
ATOM     91  C   UNL     1      19.765  -5.116   6.384  1.00  0.00     0.020 A 
ATOM     92  C   UNL     1      21.058  -5.150   6.889  1.00  0.00     0.054 A 
BRANCH  92  93
ATOM     93  S   UNL     1      21.487  -4.317   8.508  1.00  0.00     0.124 S 
ATOM     94  O   UNL     1      22.007  -5.414   9.317  1.00  0.00    -0.237 OA
ATOM     95  O   UNL     1      22.478  -3.318   8.113  1.00  0.00    -0.237 OA
ATOM     96  O   UNL     1      20.218  -3.756   8.975  1.00  0.00    -0.744 OA
ENDBRANCH  92  93
ENDBRANCH  64  87
BRANCH  76  97
ATOM     97  C   UNL     1      17.905  -7.494  -2.024  1.00  0.00    -0.014 A 
ATOM     98  C   UNL     1      17.124  -8.788  -1.390  1.00  0.00     0.010 A 
ATOM     99  C   UNL     1      18.565  -7.803  -3.105  1.00  0.00     0.010 A 
ATOM    100  C   UNL     1      17.498 -10.092  -1.546  1.00  0.00     0.020 A 
ATOM    101  C   UNL     1      18.634  -9.143  -3.457  1.00  0.00     0.020 A 
ATOM    102  C   UNL     1      18.135 -10.261  -2.724  1.00  0.00     0.054 A 
BRANCH 102 103
ATOM    103  S   UNL     1      18.178 -11.938  -3.430  1.00  0.00     0.124 S 
ATOM    104  O   UNL     1      18.962 -12.672  -2.439  1.00  0.00    -0.237 OA
ATOM    105  O   UNL     1      16.767 -12.313  -3.486  1.00  0.00    -0.237 OA
ATOM    106  O   UNL     1      18.837 -11.742  -4.716  1.00  0.00    -0.744 OA
ENDBRANCH 102 103
ENDBRANCH  76  97
ENDBRANCH  50  51
ENDBRANCH  42  45
ENDBRANCH  40  41
ENDBRANCH  39  40
ENDBRANCH   1  39
TORSDOF 22
