REMARK SMILES C[NH+]1CCC2(CC1)OC[C@H](C(=O)NCCCNC(=O)c1ccc(-c3c4nc(c(-c5ccc(S(=O)(=O)[O-])cc5)c5ccc([nH]5)c(-c5ccc(S(=O)(=O)[O-])cc5)c5nc(c(-c6ccc(S(=O)(=O)[O-])cc6)c6ccc3[nH]6)C=C5)C=C4)cc1)N2C(=O)c1cc(C(F)(F)F)cc(C(F)(F)F)c1
REMARK SMILES IDX 15 1 14 2 13 3 11 4 12 5 10 7 1 8 2 9 3 10 7 11 4 13 6 14
REMARK SMILES IDX 5 15 8 16 80 17 9 18 81 19 82 20 83 21 84 22 96 23 85 24
REMARK SMILES IDX 91 25 90 26 86 27 87 28 88 29 89 30 92 31 93 32 94 33 95 34
REMARK SMILES IDX 16 35 17 36 18 37 19 39 20 40 21 41 79 42 22 43 78 44 23 45
REMARK SMILES IDX 24 46 25 47 72 48 26 49 77 50 71 51 73 52 27 53 76 54 70 55
REMARK SMILES IDX 69 56 28 58 58 59 39 60 57 61 40 62 43 63 56 64 74 65 41 66
REMARK SMILES IDX 42 67 55 69 75 70 44 71 29 72 30 73 38 74 31 75 37 76 32 77
REMARK SMILES IDX 33 78 34 79 35 80 36 81 59 82 60 83 68 84 61 85 67 86 62 87
REMARK SMILES IDX 63 88 64 89 65 90 66 91 45 92 46 93 54 94 47 95 53 96 48 97
REMARK SMILES IDX 49 98 50 99 51 100 52 101
REMARK H PARENT 13 6 2 12 17 38 73 57 43 68
REMARK Flexibility Score: inf
ROOT
ATOM      1  C   UNL     1      -2.352   7.909  -2.121  1.00  0.00     0.042 C 
ENDROOT
BRANCH   1   2
ATOM      2  C   UNL     1      -2.160   7.077  -3.384  1.00  0.00     0.117 C 
BRANCH   2   3
ATOM      3  N   UNL     1      -0.844   6.470  -3.428  1.00  0.00    -0.354 N 
ATOM      4  C   UNL     1      -0.442   5.216  -3.079  1.00  0.00     0.245 C 
ATOM      5  O   UNL     1       0.776   5.041  -3.005  1.00  0.00    -0.273 OA
ATOM      6  H   UNL     1      -0.128   7.057  -3.763  1.00  0.00     0.163 HD
BRANCH   4   7
ATOM      7  C   UNL     1      -1.466   4.081  -2.888  1.00  0.00     0.203 C 
ATOM      8  C   UNL     1       1.821  -0.694  -0.180  1.00  0.00     0.332 C 
ATOM      9  N   UNL     1       0.937   0.451  -0.011  1.00  0.00    -0.337 N 
ATOM     10  C   UNL     1       1.535   1.683  -0.515  1.00  0.00     0.267 C 
ATOM     11  C   UNL     1      -0.441   0.166  -0.410  1.00  0.00     0.267 C 
ATOM     12  H   UNL     1       0.836   0.636   0.987  1.00  0.00     0.347 HD
ATOM     13  C   UNL     1       1.112   2.105  -1.899  1.00  0.00     0.120 C 
ATOM     14  C   UNL     1      -0.923   0.685  -1.757  1.00  0.00     0.120 C 
ATOM     15  C   UNL     1      -0.401   2.069  -2.138  1.00  0.00     0.155 C 
ATOM     16  O   UNL     1      -0.488   2.075  -3.607  1.00  0.00    -0.352 OA
ATOM     17  N   UNL     1      -1.204   3.249  -1.722  1.00  0.00    -0.295 N 
ATOM     18  C   UNL     1      -1.363   3.117  -4.037  1.00  0.00     0.198 C 
BRANCH  17  19
ATOM     19  C   UNL     1      -1.814   3.699  -0.552  1.00  0.00     0.256 C 
ATOM     20  O   UNL     1      -2.500   4.724  -0.529  1.00  0.00    -0.269 OA
BRANCH  19  21
ATOM     21  C   UNL     1      -1.756   2.985   0.730  1.00  0.00     0.041 A 
ATOM     22  C   UNL     1      -2.892   2.327   1.226  1.00  0.00     0.027 A 
ATOM     23  C   UNL     1      -0.615   3.076   1.520  1.00  0.00     0.027 A 
ATOM     24  C   UNL     1      -2.831   1.632   2.449  1.00  0.00     0.057 A 
ATOM     25  C   UNL     1      -0.483   2.280   2.667  1.00  0.00     0.057 A 
ATOM     26  C   UNL     1      -1.604   1.575   3.134  1.00  0.00     0.026 A 
BRANCH  24  27
ATOM     27  C   UNL     1      -4.054   0.938   3.004  1.00  0.00     0.416 C 
ATOM     28  F   UNL     1      -5.054   1.804   3.313  1.00  0.00    -0.166 F 
ATOM     29  F   UNL     1      -4.584   0.043   2.124  1.00  0.00    -0.166 F 
ATOM     30  F   UNL     1      -3.804   0.230   4.142  1.00  0.00    -0.166 F 
ENDBRANCH  24  27
BRANCH  25  31
ATOM     31  C   UNL     1       0.860   2.106   3.339  1.00  0.00     0.416 C 
ATOM     32  F   UNL     1       0.864   2.547   4.625  1.00  0.00    -0.166 F 
ATOM     33  F   UNL     1       1.240   0.797   3.396  1.00  0.00    -0.166 F 
ATOM     34  F   UNL     1       1.875   2.760   2.710  1.00  0.00    -0.166 F 
ENDBRANCH  25  31
ENDBRANCH  19  21
ENDBRANCH  17  19
ENDBRANCH   4   7
ENDBRANCH   2   3
ENDBRANCH   1   2
BRANCH   1  35
ATOM     35  C   UNL     1      -1.361   9.063  -1.977  1.00  0.00     0.118 C 
BRANCH  35  36
ATOM     36  N   UNL     1      -1.435  10.012  -3.080  1.00  0.00    -0.352 N 
ATOM     37  C   UNL     1      -1.758  11.347  -3.083  1.00  0.00     0.251 C 
ATOM     38  H   UNL     1      -1.220   9.636  -3.964  1.00  0.00     0.163 HD
ATOM     39  O   UNL     1      -1.954  11.915  -4.152  1.00  0.00    -0.269 OA
BRANCH  37  40
ATOM     40  C   UNL     1      -1.884  12.092  -1.811  1.00  0.00     0.039 A 
ATOM     41  C   UNL     1      -2.932  13.004  -1.666  1.00  0.00     0.014 A 
ATOM     42  C   UNL     1      -0.963  11.916  -0.776  1.00  0.00     0.014 A 
ATOM     43  C   UNL     1      -3.095  13.687  -0.458  1.00  0.00     0.010 A 
ATOM     44  C   UNL     1      -1.175  12.534   0.455  1.00  0.00     0.010 A 
ATOM     45  C   UNL     1      -2.240  13.429   0.627  1.00  0.00    -0.014 A 
BRANCH  45  46
ATOM     46  C   UNL     1      -2.449  14.082   1.945  1.00  0.00     0.031 A 
ATOM     47  C   UNL     1      -1.398  14.996   2.518  1.00  0.00     0.074 A 
ATOM     48  C   UNL     1      -3.563  13.808   2.654  1.00  0.00     0.049 A 
ATOM     49  N   UNL     1      -1.385  15.616   3.671  1.00  0.00    -0.248 NA
ATOM     50  C   UNL     1      -0.196  15.226   1.700  1.00  0.00     0.031 C 
ATOM     51  C   UNL     1      -4.639  12.909   2.228  1.00  0.00     0.029 A 
ATOM     52  N   UNL     1      -3.975  14.254   3.886  1.00  0.00    -0.354 N 
ATOM     53  C   UNL     1      -0.173  16.296   3.722  1.00  0.00     0.074 A 
ATOM     54  C   UNL     1       0.545  15.968   2.510  1.00  0.00     0.031 C 
ATOM     55  C   UNL     1      -5.600  12.897   3.166  1.00  0.00     0.029 A 
ATOM     56  C   UNL     1      -5.191  13.745   4.280  1.00  0.00     0.049 A 
ATOM     57  H   UNL     1      -3.449  14.879   4.436  1.00  0.00     0.167 HD
ATOM     58  C   UNL     1       0.293  17.133   4.680  1.00  0.00     0.031 A 
ATOM     59  C   UNL     1      -5.895  13.933   5.413  1.00  0.00     0.031 A 
ATOM     60  C   UNL     1      -0.426  17.458   5.884  1.00  0.00     0.049 A 
ATOM     61  C   UNL     1      -5.346  14.848   6.473  1.00  0.00     0.074 A 
ATOM     62  C   UNL     1      -0.061  18.333   6.893  1.00  0.00     0.029 A 
ATOM     63  N   UNL     1      -1.653  16.922   6.245  1.00  0.00    -0.354 N 
ATOM     64  N   UNL     1      -4.226  15.532   6.473  1.00  0.00    -0.248 NA
ATOM     65  C   UNL     1      -6.162  15.027   7.682  1.00  0.00     0.031 C 
ATOM     66  C   UNL     1      -1.039  18.279   7.892  1.00  0.00     0.029 A 
ATOM     67  C   UNL     1      -2.047  17.426   7.473  1.00  0.00     0.049 A 
ATOM     68  H   UNL     1      -2.168  16.278   5.707  1.00  0.00     0.167 HD
ATOM     69  C   UNL     1      -4.220  16.247   7.666  1.00  0.00     0.074 A 
ATOM     70  C   UNL     1      -5.454  15.924   8.353  1.00  0.00     0.031 C 
ATOM     71  C   UNL     1      -3.278  17.096   8.148  1.00  0.00     0.031 A 
BRANCH  58  72
ATOM     72  C   UNL     1       1.651  17.752   4.467  1.00  0.00    -0.014 A 
ATOM     73  C   UNL     1       1.865  18.707   3.455  1.00  0.00     0.010 A 
ATOM     74  C   UNL     1       2.719  17.408   5.316  1.00  0.00     0.010 A 
ATOM     75  C   UNL     1       3.129  19.272   3.269  1.00  0.00     0.020 A 
ATOM     76  C   UNL     1       3.977  17.996   5.154  1.00  0.00     0.020 A 
ATOM     77  C   UNL     1       4.178  18.912   4.120  1.00  0.00     0.054 A 
BRANCH  77  78
ATOM     78  S   UNL     1       5.802  19.681   3.869  1.00  0.00     0.124 S 
ATOM     79  O   UNL     1       6.246  19.048   2.629  1.00  0.00    -0.237 OA
ATOM     80  O   UNL     1       5.471  21.099   3.766  1.00  0.00    -0.237 OA
ATOM     81  O   UNL     1       6.554  19.304   5.063  1.00  0.00    -0.744 OA
ENDBRANCH  77  78
ENDBRANCH  58  72
BRANCH  59  82
ATOM     82  C   UNL     1      -7.206  13.250   5.597  1.00  0.00    -0.014 A 
ATOM     83  C   UNL     1      -8.403  13.989   5.606  1.00  0.00     0.010 A 
ATOM     84  C   UNL     1      -7.266  11.854   5.760  1.00  0.00     0.010 A 
ATOM     85  C   UNL     1      -9.631  13.349   5.796  1.00  0.00     0.020 A 
ATOM     86  C   UNL     1      -8.495  11.206   5.919  1.00  0.00     0.020 A 
ATOM     87  C   UNL     1      -9.669  11.960   5.949  1.00  0.00     0.054 A 
BRANCH  87  88
ATOM     88  S   UNL     1     -11.279  11.147   6.150  1.00  0.00     0.124 S 
ATOM     89  O   UNL     1     -11.654  11.546   7.503  1.00  0.00    -0.237 OA
ATOM     90  O   UNL     1     -12.067  11.740   5.072  1.00  0.00    -0.237 OA
ATOM     91  O   UNL     1     -10.970   9.729   5.978  1.00  0.00    -0.744 OA
ENDBRANCH  87  88
ENDBRANCH  59  82
BRANCH  71  92
ATOM     92  C   UNL     1      -3.561  17.773   9.464  1.00  0.00    -0.014 A 
ATOM     93  C   UNL     1      -3.553  17.057  10.675  1.00  0.00     0.010 A 
ATOM     94  C   UNL     1      -3.793  19.161   9.492  1.00  0.00     0.010 A 
ATOM     95  C   UNL     1      -3.808  17.710  11.884  1.00  0.00     0.020 A 
ATOM     96  C   UNL     1      -4.015  19.823  10.701  1.00  0.00     0.020 A 
ATOM     97  C   UNL     1      -4.037  19.090  11.889  1.00  0.00     0.054 A 
BRANCH  97  98
ATOM     98  S   UNL     1      -4.328  19.920  13.475  1.00  0.00     0.124 S 
ATOM     99  O   UNL     1      -5.671  19.461  13.817  1.00  0.00    -0.237 OA
ATOM    100  O   UNL     1      -3.252  19.396  14.312  1.00  0.00    -0.237 OA
ATOM    101  O   UNL     1      -4.220  21.340  13.149  1.00  0.00    -0.744 OA
ENDBRANCH  97  98
ENDBRANCH  71  92
ENDBRANCH  45  46
ENDBRANCH  37  40
ENDBRANCH  35  36
ENDBRANCH   1  35
TORSDOF 17
