REMARK SMILES Cc1cc(F)c(C(=O)NCCCNC(=O)c2ccc(-c3c4nc(c(-c5ccc(S(=O)(=O)[O-])cc5)c5ccc([nH]5)c(-c5ccc(S(=O)(=O)[O-])cc5)c5nc(c(-c6ccc(S(=O)(=O)[O-])cc6)c6ccc3[nH]6)C=C5)C=C4)cc2)cc1F
REMARK SMILES IDX 13 1 14 2 15 3 12 5 11 6 10 7 9 8 7 9 8 10 6 12 1 13 2 14
REMARK SMILES IDX 3 15 77 16 4 17 76 18 78 19 5 20 16 21 17 22 75 23 18 24
REMARK SMILES IDX 74 25 19 26 20 27 21 28 68 29 22 30 73 31 67 32 69 33 23 34
REMARK SMILES IDX 72 35 66 36 65 37 24 39 54 40 35 41 53 42 36 43 39 44 52 45
REMARK SMILES IDX 70 46 37 47 38 48 51 50 71 51 40 52 25 53 26 54 34 55 27 56
REMARK SMILES IDX 33 57 28 58 29 59 30 60 31 61 32 62 55 63 56 64 64 65 57 66
REMARK SMILES IDX 63 67 58 68 59 69 60 70 61 71 62 72 41 73 42 74 50 75 43 76
REMARK SMILES IDX 49 77 44 78 45 79 46 80 47 81 48 82
REMARK H PARENT 13 4 9 11 69 38 39 49
REMARK Flexibility Score: inf
ROOT
ATOM      1  N   UNL     1       1.909   9.378   0.462  1.00  0.00    -0.352 N 
ATOM      2  C   UNL     1       2.735  10.266   1.117  1.00  0.00     0.251 C 
ATOM      3  O   UNL     1       2.334  10.799   2.146  1.00  0.00    -0.269 OA
ATOM      4  H   UNL     1       0.996   9.335   0.828  1.00  0.00     0.163 HD
ENDROOT
BRANCH   1   5
ATOM      5  C   UNL     1       2.137   8.489  -0.672  1.00  0.00     0.118 C 
BRANCH   5   6
ATOM      6  C   UNL     1       2.422   7.047  -0.272  1.00  0.00     0.042 C 
BRANCH   6   7
ATOM      7  C   UNL     1       1.252   6.319   0.378  1.00  0.00     0.118 C 
BRANCH   7   8
ATOM      8  N   UNL     1       0.066   6.247  -0.467  1.00  0.00    -0.352 N 
ATOM      9  C   UNL     1      -0.648   5.198  -0.993  1.00  0.00     0.254 C 
ATOM     10  O   UNL     1      -1.629   5.461  -1.687  1.00  0.00    -0.269 OA
ATOM     11  H   UNL     1      -0.296   7.129  -0.711  1.00  0.00     0.163 HD
BRANCH   9  12
ATOM     12  C   UNL     1      -0.289   3.786  -0.745  1.00  0.00     0.078 A 
ATOM     13  C   UNL     1       0.846  -0.339  -0.177  1.00  0.00     0.047 C 
ATOM     14  C   UNL     1       0.389   1.074  -0.372  1.00  0.00    -0.012 A 
ATOM     15  C   UNL     1      -0.099   1.516  -1.605  1.00  0.00     0.046 A 
ATOM     16  C   UNL     1       0.490   1.996   0.672  1.00  0.00     0.127 A 
ATOM     17  C   UNL     1      -0.432   2.860  -1.785  1.00  0.00     0.136 A 
ATOM     18  C   UNL     1       0.122   3.329   0.508  1.00  0.00     0.056 A 
ATOM     19  F   UNL     1       0.951   1.601   1.867  1.00  0.00    -0.207 F 
ATOM     20  F   UNL     1      -0.875   3.234  -2.995  1.00  0.00    -0.206 F 
ENDBRANCH   9  12
ENDBRANCH   7   8
ENDBRANCH   6   7
ENDBRANCH   5   6
ENDBRANCH   1   5
BRANCH   2  21
ATOM     21  C   UNL     1       4.106  10.549   0.630  1.00  0.00     0.039 A 
ATOM     22  C   UNL     1       4.385  10.683  -0.727  1.00  0.00     0.014 A 
ATOM     23  C   UNL     1       5.141  10.705   1.560  1.00  0.00     0.014 A 
ATOM     24  C   UNL     1       5.706  10.739  -1.162  1.00  0.00     0.010 A 
ATOM     25  C   UNL     1       6.460  10.882   1.124  1.00  0.00     0.010 A 
ATOM     26  C   UNL     1       6.764  10.833  -0.244  1.00  0.00    -0.014 A 
BRANCH  26  27
ATOM     27  C   UNL     1       8.166  10.867  -0.746  1.00  0.00     0.031 A 
ATOM     28  C   UNL     1       9.139   9.771  -0.393  1.00  0.00     0.074 A 
ATOM     29  C   UNL     1       8.540  11.838  -1.604  1.00  0.00     0.049 A 
ATOM     30  N   UNL     1      10.375   9.610  -0.792  1.00  0.00    -0.248 NA
ATOM     31  C   UNL     1       8.668   8.719   0.523  1.00  0.00     0.031 C 
ATOM     32  C   UNL     1       7.681  12.938  -2.048  1.00  0.00     0.029 A 
ATOM     33  N   UNL     1       9.710  12.031  -2.294  1.00  0.00    -0.354 N 
ATOM     34  C   UNL     1      10.830   8.451  -0.174  1.00  0.00     0.074 A 
ATOM     35  C   UNL     1       9.753   7.970   0.662  1.00  0.00     0.031 C 
ATOM     36  C   UNL     1       8.317  13.632  -3.001  1.00  0.00     0.029 A 
ATOM     37  C   UNL     1       9.659  13.083  -3.179  1.00  0.00     0.049 A 
ATOM     38  H   UNL     1      10.510  11.470  -2.168  1.00  0.00     0.167 HD
ATOM     39  C   UNL     1      12.028   7.832  -0.303  1.00  0.00     0.031 A 
ATOM     40  C   UNL     1      10.579  13.563  -4.040  1.00  0.00     0.031 A 
ATOM     41  C   UNL     1      13.100   8.313  -1.135  1.00  0.00     0.049 A 
ATOM     42  C   UNL     1      11.921  12.901  -4.124  1.00  0.00     0.074 A 
ATOM     43  C   UNL     1      14.362   7.771  -1.306  1.00  0.00     0.029 A 
ATOM     44  N   UNL     1      13.037   9.440  -1.941  1.00  0.00    -0.354 N 
ATOM     45  N   UNL     1      12.344  11.830  -3.496  1.00  0.00    -0.248 NA
ATOM     46  C   UNL     1      12.913  13.510  -5.019  1.00  0.00     0.031 C 
ATOM     47  C   UNL     1      15.078   8.597  -2.176  1.00  0.00     0.029 A 
ATOM     48  C   UNL     1      14.243   9.619  -2.598  1.00  0.00     0.049 A 
ATOM     49  H   UNL     1      12.251  10.026  -2.032  1.00  0.00     0.167 HD
ATOM     50  C   UNL     1      13.655  11.639  -3.914  1.00  0.00     0.074 A 
ATOM     51  C   UNL     1      13.947  12.690  -4.869  1.00  0.00     0.031 C 
ATOM     52  C   UNL     1      14.533  10.680  -3.533  1.00  0.00     0.031 A 
BRANCH  39  53
ATOM     53  C   UNL     1      12.251   6.562   0.479  1.00  0.00    -0.014 A 
ATOM     54  C   UNL     1      13.174   6.542   1.541  1.00  0.00     0.010 A 
ATOM     55  C   UNL     1      11.596   5.369   0.123  1.00  0.00     0.010 A 
ATOM     56  C   UNL     1      13.443   5.355   2.228  1.00  0.00     0.020 A 
ATOM     57  C   UNL     1      11.841   4.186   0.826  1.00  0.00     0.020 A 
ATOM     58  C   UNL     1      12.775   4.183   1.864  1.00  0.00     0.054 A 
BRANCH  58  59
ATOM     59  S   UNL     1      13.108   2.655   2.786  1.00  0.00     0.124 S 
ATOM     60  O   UNL     1      14.365   2.207   2.196  1.00  0.00    -0.237 OA
ATOM     61  O   UNL     1      13.189   3.124   4.168  1.00  0.00    -0.237 OA
ATOM     62  O   UNL     1      11.944   1.821   2.491  1.00  0.00    -0.744 OA
ENDBRANCH  58  59
ENDBRANCH  39  53
BRANCH  40  63
ATOM     63  C   UNL     1      10.211  14.724  -4.896  1.00  0.00    -0.014 A 
ATOM     64  C   UNL     1       9.988  15.988  -4.318  1.00  0.00     0.010 A 
ATOM     65  C   UNL     1       9.928  14.535  -6.260  1.00  0.00     0.010 A 
ATOM     66  C   UNL     1       9.405  17.015  -5.063  1.00  0.00     0.020 A 
ATOM     67  C   UNL     1       9.372  15.571  -7.017  1.00  0.00     0.020 A 
ATOM     68  C   UNL     1       9.075  16.790  -6.402  1.00  0.00     0.054 A 
BRANCH  68  69
ATOM     69  S   UNL     1       8.207  18.095  -7.316  1.00  0.00     0.124 S 
ATOM     70  O   UNL     1       6.850  17.975  -6.789  1.00  0.00    -0.237 OA
ATOM     71  O   UNL     1       8.932  19.300  -6.920  1.00  0.00    -0.237 OA
ATOM     72  O   UNL     1       8.373  17.701  -8.713  1.00  0.00    -0.744 OA
ENDBRANCH  68  69
ENDBRANCH  40  63
BRANCH  52  73
ATOM     73  C   UNL     1      15.918  10.713  -4.122  1.00  0.00    -0.014 A 
ATOM     74  C   UNL     1      16.322   9.704  -5.016  1.00  0.00     0.010 A 
ATOM     75  C   UNL     1      16.860  11.661  -3.685  1.00  0.00     0.010 A 
ATOM     76  C   UNL     1      17.652   9.618  -5.433  1.00  0.00     0.020 A 
ATOM     77  C   UNL     1      18.187  11.592  -4.120  1.00  0.00     0.020 A 
ATOM     78  C   UNL     1      18.580  10.556  -4.970  1.00  0.00     0.054 A 
BRANCH  78  79
ATOM     79  S   UNL     1      20.312  10.402  -5.486  1.00  0.00     0.124 S 
ATOM     80  O   UNL     1      20.788   9.311  -4.640  1.00  0.00    -0.237 OA
ATOM     81  O   UNL     1      20.199  10.092  -6.909  1.00  0.00    -0.237 OA
ATOM     82  O   UNL     1      20.876  11.717  -5.186  1.00  0.00    -0.744 OA
ENDBRANCH  78  79
ENDBRANCH  52  73
ENDBRANCH  26  27
ENDBRANCH   2  21
TORSDOF 13
