REMARK SMILES C[C@H]1OCC[C@@H]1C(=O)Nc1ccc(Cl)c(C(=O)NCCCNC(=O)c2ccc(-c3c4nc(c(-c5ccc(S(=O)(=O)[O-])cc5)c5ccc([nH]5)c(-c5ccc(S(=O)(=O)[O-])cc5)c5nc(c(-c6ccc(S(=O)(=O)[O-])cc6)c6ccc3[nH]6)C=C5)C=C4)cc2)c1
REMARK SMILES IDX 20 1 19 2 18 3 16 4 17 5 15 7 10 8 11 9 85 10 12 11 13 12
REMARK SMILES IDX 14 13 9 14 7 15 8 16 6 18 1 19 2 20 3 21 4 22 5 23 21 24
REMARK SMILES IDX 22 25 23 26 24 28 25 29 26 30 84 31 27 32 83 33 28 34 29 35
REMARK SMILES IDX 30 36 77 37 31 38 82 39 76 40 78 41 32 42 81 43 75 44 74 45
REMARK SMILES IDX 33 47 63 48 44 49 62 50 45 51 48 52 61 53 79 54 46 55 47 56
REMARK SMILES IDX 60 58 80 59 49 60 34 61 35 62 43 63 36 64 42 65 37 66 38 67
REMARK SMILES IDX 39 68 40 69 41 70 64 71 65 72 73 73 66 74 72 75 67 76 68 77
REMARK SMILES IDX 69 78 70 79 71 80 50 81 51 82 59 83 52 84 58 85 53 86 54 87
REMARK SMILES IDX 55 88 56 89 57 90
REMARK H PARENT 18 6 9 17 22 27 78 46 48 57
REMARK Flexibility Score: inf
ROOT
ATOM      1  C   UNL     1      -2.879   3.855   6.629  1.00  0.00     0.042 C 
ENDROOT
BRANCH   1   2
ATOM      2  C   UNL     1      -1.916   3.594   5.492  1.00  0.00     0.118 C 
BRANCH   2   3
ATOM      3  N   UNL     1      -0.735   2.811   5.825  1.00  0.00    -0.352 N 
ATOM      4  C   UNL     1      -0.124   1.776   5.151  1.00  0.00     0.252 C 
ATOM      5  O   UNL     1       0.933   1.329   5.597  1.00  0.00    -0.269 OA
ATOM      6  H   UNL     1      -0.301   3.062   6.673  1.00  0.00     0.163 HD
BRANCH   4   7
ATOM      7  C   UNL     1      -0.759   1.095   3.993  1.00  0.00     0.060 A 
ATOM      8  C   UNL     1      -1.172  -0.984   2.841  1.00  0.00     0.042 A 
ATOM      9  C   UNL     1      -2.244  -0.402   2.184  1.00  0.00     0.028 A 
ATOM     10  C   UNL     1      -0.545  -0.290   3.873  1.00  0.00     0.041 A 
ATOM     11  C   UNL     1      -2.404   0.974   2.239  1.00  0.00     0.023 A 
ATOM     12  C   UNL     1      -1.524   1.726   3.011  1.00  0.00     0.053 A 
ATOM     13  Cl  UNL     1      -1.259   3.361   2.498  1.00  0.00    -0.083 Cl
BRANCH   8  14
ATOM     14  N   UNL     1      -0.670  -2.216   2.421  1.00  0.00    -0.326 N 
ATOM     15  C   UNL     1      -0.235  -2.567   1.166  1.00  0.00     0.230 C 
ATOM     16  O   UNL     1       0.072  -3.754   0.991  1.00  0.00    -0.274 OA
ATOM     17  H   UNL     1      -0.622  -2.920   3.107  1.00  0.00     0.169 HD
BRANCH  15  18
ATOM     18  C   UNL     1       0.004  -1.571   0.010  1.00  0.00     0.110 C 
ATOM     19  C   UNL     1       2.060  -0.145  -0.458  1.00  0.00     0.039 C 
ATOM     20  C   UNL     1       0.809  -0.331   0.397  1.00  0.00     0.127 C 
ATOM     21  O   UNL     1      -0.040   0.804   0.176  1.00  0.00    -0.378 OA
ATOM     22  C   UNL     1      -1.021   0.454  -0.800  1.00  0.00     0.161 C 
ATOM     23  C   UNL     1      -1.202  -1.051  -0.745  1.00  0.00     0.044 C 
ENDBRANCH  15  18
ENDBRANCH   8  14
ENDBRANCH   4   7
ENDBRANCH   2   3
ENDBRANCH   1   2
BRANCH   1  24
ATOM     24  C   UNL     1      -2.314   4.696   7.755  1.00  0.00     0.118 C 
BRANCH  24  25
ATOM     25  N   UNL     1      -1.952   6.050   7.347  1.00  0.00    -0.352 N 
ATOM     26  C   UNL     1      -2.588   7.256   7.528  1.00  0.00     0.251 C 
ATOM     27  H   UNL     1      -1.102   6.110   6.854  1.00  0.00     0.163 HD
ATOM     28  O   UNL     1      -2.155   8.256   6.957  1.00  0.00    -0.269 OA
BRANCH  26  29
ATOM     29  C   UNL     1      -3.802   7.359   8.368  1.00  0.00     0.039 A 
ATOM     30  C   UNL     1      -4.849   8.195   7.965  1.00  0.00     0.014 A 
ATOM     31  C   UNL     1      -3.915   6.642   9.557  1.00  0.00     0.014 A 
ATOM     32  C   UNL     1      -6.037   8.232   8.705  1.00  0.00     0.010 A 
ATOM     33  C   UNL     1      -5.135   6.578  10.216  1.00  0.00     0.010 A 
ATOM     34  C   UNL     1      -6.208   7.383   9.809  1.00  0.00    -0.014 A 
BRANCH  34  35
ATOM     35  C   UNL     1      -7.471   7.331  10.591  1.00  0.00     0.031 A 
ATOM     36  C   UNL     1      -7.438   7.625  12.070  1.00  0.00     0.074 A 
ATOM     37  C   UNL     1      -8.616   6.922  10.008  1.00  0.00     0.049 A 
ATOM     38  N   UNL     1      -8.378   7.470  12.966  1.00  0.00    -0.248 NA
ATOM     39  C   UNL     1      -6.163   8.120  12.622  1.00  0.00     0.031 C 
ATOM     40  C   UNL     1      -8.776   6.573   8.594  1.00  0.00     0.029 A 
ATOM     41  N   UNL     1      -9.865   6.714  10.541  1.00  0.00    -0.354 N 
ATOM     42  C   UNL     1      -7.799   7.809  14.184  1.00  0.00     0.074 A 
ATOM     43  C   UNL     1      -6.413   8.123  13.922  1.00  0.00     0.031 C 
ATOM     44  C   UNL     1     -10.052   6.220   8.368  1.00  0.00     0.029 A 
ATOM     45  C   UNL     1     -10.789   6.264   9.626  1.00  0.00     0.049 A 
ATOM     46  H   UNL     1     -10.079   6.872  11.489  1.00  0.00     0.167 HD
ATOM     47  C   UNL     1      -8.373   7.878  15.408  1.00  0.00     0.031 A 
ATOM     48  C   UNL     1     -12.081   5.913   9.785  1.00  0.00     0.031 A 
ATOM     49  C   UNL     1      -9.761   7.602  15.657  1.00  0.00     0.049 A 
ATOM     50  C   UNL     1     -12.700   6.002  11.155  1.00  0.00     0.074 A 
ATOM     51  C   UNL     1     -10.457   7.701  16.849  1.00  0.00     0.029 A 
ATOM     52  N   UNL     1     -10.668   7.187  14.694  1.00  0.00    -0.354 N 
ATOM     53  N   UNL     1     -12.146   6.369  12.286  1.00  0.00    -0.248 NA
ATOM     54  C   UNL     1     -14.120   5.639  11.268  1.00  0.00     0.031 C 
ATOM     55  C   UNL     1     -11.775   7.301  16.616  1.00  0.00     0.029 A 
ATOM     56  C   UNL     1     -11.915   7.012  15.268  1.00  0.00     0.049 A 
ATOM     57  H   UNL     1     -10.457   7.038  13.744  1.00  0.00     0.167 HD
ATOM     58  C   UNL     1     -13.160   6.319  13.237  1.00  0.00     0.074 A 
ATOM     59  C   UNL     1     -14.360   5.890  12.549  1.00  0.00     0.031 C 
ATOM     60  C   UNL     1     -13.103   6.606  14.560  1.00  0.00     0.031 A 
BRANCH  47  61
ATOM     61  C   UNL     1      -7.499   8.274  16.569  1.00  0.00    -0.014 A 
ATOM     62  C   UNL     1      -6.989   9.580  16.683  1.00  0.00     0.010 A 
ATOM     63  C   UNL     1      -7.214   7.339  17.581  1.00  0.00     0.010 A 
ATOM     64  C   UNL     1      -6.176   9.932  17.763  1.00  0.00     0.020 A 
ATOM     65  C   UNL     1      -6.427   7.697  18.680  1.00  0.00     0.020 A 
ATOM     66  C   UNL     1      -5.899   8.987  18.754  1.00  0.00     0.054 A 
BRANCH  66  67
ATOM     67  S   UNL     1      -4.864   9.482  20.159  1.00  0.00     0.124 S 
ATOM     68  O   UNL     1      -3.541   9.560  19.544  1.00  0.00    -0.237 OA
ATOM     69  O   UNL     1      -5.450  10.760  20.554  1.00  0.00    -0.237 OA
ATOM     70  O   UNL     1      -5.040   8.395  21.119  1.00  0.00    -0.744 OA
ENDBRANCH  66  67
ENDBRANCH  47  61
BRANCH  48  71
ATOM     71  C   UNL     1     -12.883   5.460   8.614  1.00  0.00    -0.014 A 
ATOM     72  C   UNL     1     -13.912   6.270   8.100  1.00  0.00     0.010 A 
ATOM     73  C   UNL     1     -12.622   4.220   8.004  1.00  0.00     0.010 A 
ATOM     74  C   UNL     1     -14.681   5.837   7.016  1.00  0.00     0.020 A 
ATOM     75  C   UNL     1     -13.369   3.797   6.900  1.00  0.00     0.020 A 
ATOM     76  C   UNL     1     -14.404   4.603   6.422  1.00  0.00     0.054 A 
BRANCH  76  77
ATOM     77  S   UNL     1     -15.390   4.080   4.991  1.00  0.00     0.124 S 
ATOM     78  O   UNL     1     -16.664   3.731   5.611  1.00  0.00    -0.237 OA
ATOM     79  O   UNL     1     -15.397   5.279   4.157  1.00  0.00    -0.237 OA
ATOM     80  O   UNL     1     -14.630   2.957   4.446  1.00  0.00    -0.744 OA
ENDBRANCH  76  77
ENDBRANCH  48  71
BRANCH  60  81
ATOM     81  C   UNL     1     -14.381   6.529  15.350  1.00  0.00    -0.014 A 
ATOM     82  C   UNL     1     -14.956   5.295  15.697  1.00  0.00     0.010 A 
ATOM     83  C   UNL     1     -14.964   7.718  15.828  1.00  0.00     0.010 A 
ATOM     84  C   UNL     1     -16.101   5.252  16.496  1.00  0.00     0.020 A 
ATOM     85  C   UNL     1     -16.092   7.678  16.649  1.00  0.00     0.020 A 
ATOM     86  C   UNL     1     -16.659   6.444  16.971  1.00  0.00     0.054 A 
BRANCH  86  87
ATOM     87  S   UNL     1     -18.102   6.356  18.066  1.00  0.00     0.124 S 
ATOM     88  O   UNL     1     -19.166   5.983  17.138  1.00  0.00    -0.237 OA
ATOM     89  O   UNL     1     -17.714   5.325  19.026  1.00  0.00    -0.237 OA
ATOM     90  O   UNL     1     -18.202   7.706  18.618  1.00  0.00    -0.744 OA
ENDBRANCH  86  87
ENDBRANCH  60  81
ENDBRANCH  34  35
ENDBRANCH  26  29
ENDBRANCH  24  25
ENDBRANCH   1  24
TORSDOF 15
