REMARK SMILES Cc1cc(S(=O)(=O)Nc2ccc(Cl)cc2F)ccc1OCC(=O)NCCCNC(=O)c1ccc(-c2c3nc(c(-c4ccc(S(=O)(=O)[O-])cc4)c4ccc([nH]4)c(-c4ccc(S(=O)(=O)[O-])cc4)c4nc(c(-c5ccc(S(=O)(=O)[O-])cc5)c5ccc2[nH]5)C=C4)C=C3)cc1
REMARK SMILES IDX 25 1 24 2 22 3 23 4 21 6 20 7 19 8 1 9 2 10 3 11 4 12 18 13
REMARK SMILES IDX 17 14 5 15 6 16 7 17 8 18 9 20 10 21 15 22 11 23 14 24 16 25
REMARK SMILES IDX 12 26 13 27 26 28 27 29 28 30 29 31 30 33 31 34 32 35 90 36
REMARK SMILES IDX 33 37 89 38 34 39 35 40 36 41 83 42 37 43 88 44 82 45 84 46
REMARK SMILES IDX 38 47 87 48 81 49 80 50 39 52 69 53 50 54 68 55 51 56 54 57
REMARK SMILES IDX 67 58 85 59 52 60 53 61 66 63 86 64 55 65 40 66 41 67 49 68
REMARK SMILES IDX 42 69 48 70 43 71 44 72 45 73 46 74 47 75 70 76 71 77 79 78
REMARK SMILES IDX 72 79 78 80 73 81 74 82 75 83 76 84 77 85 56 86 57 87 65 88
REMARK SMILES IDX 58 89 64 90 59 91 60 92 61 93 62 94 63 95
REMARK H PARENT 24 5 8 19 28 32 84 51 54 62
REMARK Flexibility Score: inf
ROOT
ATOM      1  C   UNL     1       2.006   4.154   2.633  1.00  0.00     0.117 C 
ENDROOT
BRANCH   1   2
ATOM      2  N   UNL     1       2.825   2.951   2.567  1.00  0.00    -0.353 N 
ATOM      3  C   UNL     1       3.158   2.185   1.485  1.00  0.00     0.257 C 
ATOM      4  O   UNL     1       3.985   1.282   1.624  1.00  0.00    -0.271 OA
ATOM      5  H   UNL     1       3.193   2.645   3.427  1.00  0.00     0.163 HD
BRANCH   3   6
ATOM      6  C   UNL     1       2.553   2.494   0.113  1.00  0.00     0.329 C 
BRANCH   6   7
ATOM      7  O   UNL     1       1.175   2.261  -0.082  1.00  0.00    -0.484 OA
BRANCH   7   8
ATOM      8  C   UNL     1       0.620   1.020   0.030  1.00  0.00     0.123 A 
ATOM      9  C   UNL     1       2.546  -0.515  -0.754  1.00  0.00     0.048 C 
ATOM     10  C   UNL     1       1.137  -0.234  -0.322  1.00  0.00    -0.008 A 
ATOM     11  C   UNL     1       0.270  -1.355  -0.277  1.00  0.00     0.029 A 
ATOM     12  C   UNL     1      -1.063  -1.245   0.137  1.00  0.00     0.088 A 
ATOM     13  C   UNL     1      -0.708   1.099   0.485  1.00  0.00     0.048 A 
ATOM     14  C   UNL     1      -1.524  -0.025   0.603  1.00  0.00     0.026 A 
BRANCH  12  15
ATOM     15  S   UNL     1      -2.106  -2.669  -0.107  1.00  0.00     0.262 S 
ATOM     16  O   UNL     1      -2.039  -3.028  -1.507  1.00  0.00    -0.201 OA
ATOM     17  O   UNL     1      -1.732  -3.625   0.915  1.00  0.00    -0.201 OA
BRANCH  15  18
ATOM     18  N   UNL     1      -3.694  -2.271   0.265  1.00  0.00    -0.277 N 
ATOM     19  H   UNL     1      -4.201  -2.912   0.815  1.00  0.00     0.180 HD
BRANCH  18  20
ATOM     20  C   UNL     1      -4.373  -1.088  -0.145  1.00  0.00     0.085 A 
ATOM     21  C   UNL     1      -5.324  -0.590   0.756  1.00  0.00     0.031 A 
ATOM     22  C   UNL     1      -4.103  -0.355  -1.308  1.00  0.00     0.148 A 
ATOM     23  C   UNL     1      -5.895   0.669   0.559  1.00  0.00     0.023 A 
ATOM     24  C   UNL     1      -4.666   0.904  -1.507  1.00  0.00     0.062 A 
ATOM     25  F   UNL     1      -3.229  -0.794  -2.221  1.00  0.00    -0.205 F 
ATOM     26  C   UNL     1      -5.543   1.421  -0.559  1.00  0.00     0.044 A 
ATOM     27  Cl  UNL     1      -6.178   3.007  -0.753  1.00  0.00    -0.084 Cl
ENDBRANCH  18  20
ENDBRANCH  15  18
ENDBRANCH  12  15
ENDBRANCH   7   8
ENDBRANCH   6   7
ENDBRANCH   3   6
ENDBRANCH   1   2
BRANCH   1  28
ATOM     28  C   UNL     1       0.535   3.856   2.877  1.00  0.00     0.042 C 
BRANCH  28  29
ATOM     29  C   UNL     1       0.246   3.361   4.287  1.00  0.00     0.118 C 
BRANCH  29  30
ATOM     30  N   UNL     1      -0.461   4.343   5.097  1.00  0.00    -0.352 N 
ATOM     31  C   UNL     1      -1.112   4.128   6.299  1.00  0.00     0.251 C 
ATOM     32  H   UNL     1      -0.477   5.264   4.751  1.00  0.00     0.163 HD
ATOM     33  O   UNL     1      -1.892   4.926   6.784  1.00  0.00    -0.269 OA
BRANCH  31  34
ATOM     34  C   UNL     1      -0.706   2.923   7.050  1.00  0.00     0.039 A 
ATOM     35  C   UNL     1       0.116   3.120   8.165  1.00  0.00     0.014 A 
ATOM     36  C   UNL     1      -0.896   1.659   6.501  1.00  0.00     0.014 A 
ATOM     37  C   UNL     1       0.883   2.061   8.641  1.00  0.00     0.010 A 
ATOM     38  C   UNL     1      -0.070   0.633   6.918  1.00  0.00     0.010 A 
ATOM     39  C   UNL     1       0.848   0.845   7.958  1.00  0.00    -0.014 A 
BRANCH  39  40
ATOM     40  C   UNL     1       1.790  -0.238   8.211  1.00  0.00     0.031 A 
ATOM     41  C   UNL     1       1.365  -1.422   8.990  1.00  0.00     0.074 A 
ATOM     42  C   UNL     1       3.034  -0.195   7.686  1.00  0.00     0.049 A 
ATOM     43  N   UNL     1       2.162  -2.180   9.668  1.00  0.00    -0.248 NA
ATOM     44  C   UNL     1      -0.036  -1.811   9.101  1.00  0.00     0.031 C 
ATOM     45  C   UNL     1       3.987  -1.298   7.606  1.00  0.00     0.029 A 
ATOM     46  N   UNL     1       3.780   0.926   7.314  1.00  0.00    -0.354 N 
ATOM     47  C   UNL     1       1.450  -3.306  10.019  1.00  0.00     0.074 A 
ATOM     48  C   UNL     1       0.070  -2.981   9.736  1.00  0.00     0.031 C 
ATOM     49  C   UNL     1       5.225  -0.786   7.520  1.00  0.00     0.029 A 
ATOM     50  C   UNL     1       5.107   0.654   7.683  1.00  0.00     0.049 A 
ATOM     51  H   UNL     1       3.443   1.743   6.880  1.00  0.00     0.167 HD
ATOM     52  C   UNL     1       2.107  -4.455  10.350  1.00  0.00     0.031 A 
ATOM     53  C   UNL     1       5.825   1.411   8.563  1.00  0.00     0.031 A 
ATOM     54  C   UNL     1       3.556  -4.266  10.380  1.00  0.00     0.049 A 
ATOM     55  C   UNL     1       6.336   0.614   9.745  1.00  0.00     0.074 A 
ATOM     56  C   UNL     1       4.562  -4.580   9.480  1.00  0.00     0.029 A 
ATOM     57  N   UNL     1       4.122  -3.415  11.323  1.00  0.00    -0.354 N 
ATOM     58  N   UNL     1       5.893  -0.568  10.070  1.00  0.00    -0.248 NA
ATOM     59  C   UNL     1       7.341   1.106  10.684  1.00  0.00     0.031 C 
ATOM     60  C   UNL     1       5.720  -3.846   9.842  1.00  0.00     0.029 A 
ATOM     61  C   UNL     1       5.424  -3.108  10.975  1.00  0.00     0.049 A 
ATOM     62  H   UNL     1       3.661  -3.079  12.125  1.00  0.00     0.167 HD
ATOM     63  C   UNL     1       6.510  -0.994  11.217  1.00  0.00     0.074 A 
ATOM     64  C   UNL     1       7.418   0.086  11.557  1.00  0.00     0.031 C 
ATOM     65  C   UNL     1       6.214  -2.197  11.792  1.00  0.00     0.031 A 
BRANCH  52  66
ATOM     66  C   UNL     1       1.442  -5.818  10.310  1.00  0.00    -0.014 A 
ATOM     67  C   UNL     1       2.203  -6.956   9.971  1.00  0.00     0.010 A 
ATOM     68  C   UNL     1       0.068  -6.038  10.521  1.00  0.00     0.010 A 
ATOM     69  C   UNL     1       1.613  -8.207   9.730  1.00  0.00     0.020 A 
ATOM     70  C   UNL     1      -0.545  -7.270  10.244  1.00  0.00     0.020 A 
ATOM     71  C   UNL     1       0.232  -8.347   9.833  1.00  0.00     0.054 A 
BRANCH  71  72
ATOM     72  S   UNL     1      -0.530  -9.937   9.415  1.00  0.00     0.124 S 
ATOM     73  O   UNL     1      -0.027 -10.185   8.067  1.00  0.00    -0.237 OA
ATOM     74  O   UNL     1      -0.007 -10.817  10.456  1.00  0.00    -0.237 OA
ATOM     75  O   UNL     1      -1.964  -9.665   9.495  1.00  0.00    -0.744 OA
ENDBRANCH  71  72
ENDBRANCH  52  66
BRANCH  53  76
ATOM     76  C   UNL     1       5.425   2.844   8.615  1.00  0.00    -0.014 A 
ATOM     77  C   UNL     1       5.707   3.641   7.485  1.00  0.00     0.010 A 
ATOM     78  C   UNL     1       4.446   3.276   9.527  1.00  0.00     0.010 A 
ATOM     79  C   UNL     1       4.918   4.754   7.186  1.00  0.00     0.020 A 
ATOM     80  C   UNL     1       3.656   4.396   9.229  1.00  0.00     0.020 A 
ATOM     81  C   UNL     1       3.858   5.087   8.030  1.00  0.00     0.054 A 
BRANCH  81  82
ATOM     82  S   UNL     1       2.645   6.305   7.435  1.00  0.00     0.124 S 
ATOM     83  O   UNL     1       3.455   7.511   7.297  1.00  0.00    -0.237 OA
ATOM     84  O   UNL     1       2.196   5.706   6.177  1.00  0.00    -0.237 OA
ATOM     85  O   UNL     1       1.647   6.333   8.498  1.00  0.00    -0.744 OA
ENDBRANCH  81  82
ENDBRANCH  53  76
BRANCH  65  86
ATOM     86  C   UNL     1       6.703  -2.679  13.136  1.00  0.00    -0.014 A 
ATOM     87  C   UNL     1       7.082  -1.831  14.187  1.00  0.00     0.010 A 
ATOM     88  C   UNL     1       6.664  -4.067  13.414  1.00  0.00     0.010 A 
ATOM     89  C   UNL     1       7.466  -2.344  15.435  1.00  0.00     0.020 A 
ATOM     90  C   UNL     1       7.004  -4.587  14.666  1.00  0.00     0.020 A 
ATOM     91  C   UNL     1       7.429  -3.720  15.665  1.00  0.00     0.054 A 
BRANCH  91  92
ATOM     92  S   UNL     1       7.865  -4.372  17.298  1.00  0.00     0.124 S 
ATOM     93  O   UNL     1       9.308  -4.558  17.172  1.00  0.00    -0.237 OA
ATOM     94  O   UNL     1       7.448  -3.302  18.202  1.00  0.00    -0.237 OA
ATOM     95  O   UNL     1       7.080  -5.600  17.396  1.00  0.00    -0.744 OA
ENDBRANCH  91  92
ENDBRANCH  65  86
ENDBRANCH  39  40
ENDBRANCH  31  34
ENDBRANCH  29  30
ENDBRANCH  28  29
ENDBRANCH   1  28
TORSDOF 18
