REMARK SMILES CCc1ccc2oc(-c3ccccc3)c(OCC(=O)NCCCNC(=O)c3ccc(-c4c5nc(c(-c6ccc(S(=O)(=O)[O-])cc6)c6ccc([nH]6)c(-c6ccc(S(=O)(=O)[O-])cc6)c6nc(c(-c7ccc(S(=O)(=O)[O-])cc7)c7ccc4[nH]7)C=C6)C=C5)cc3)c(=O)c2c1
REMARK SMILES IDX 22 1 21 2 20 3 18 4 19 5 17 7 16 8 15 9 3 10 4 11 90 12 5 13
REMARK SMILES IDX 89 14 6 15 87 16 7 17 88 18 8 19 2 20 1 21 9 22 10 23 14 24
REMARK SMILES IDX 11 25 13 26 12 27 23 28 24 29 25 30 26 32 27 33 28 34 86 35
REMARK SMILES IDX 29 36 85 37 30 38 31 39 32 40 79 41 33 42 84 43 78 44 80 45
REMARK SMILES IDX 34 46 83 47 77 48 76 49 35 51 65 52 46 53 64 54 47 55 50 56
REMARK SMILES IDX 63 57 81 58 48 59 49 60 62 62 82 63 51 64 36 65 37 66 45 67
REMARK SMILES IDX 38 68 44 69 39 70 40 71 41 72 42 73 43 74 66 75 67 76 75 77
REMARK SMILES IDX 68 78 74 79 69 80 70 81 71 82 72 83 73 84 52 85 53 86 61 87
REMARK SMILES IDX 54 88 60 89 55 90 56 91 57 92 58 93 59 94
REMARK H PARENT 20 6 24 31 80 50 50 61
REMARK Flexibility Score: inf
ROOT
ATOM      1  C   UNL     1      -1.880  -7.484   5.928  1.00  0.00     0.042 C 
ENDROOT
BRANCH   1   2
ATOM      2  C   UNL     1      -1.750  -8.660   4.969  1.00  0.00     0.117 C 
BRANCH   2   3
ATOM      3  N   UNL     1      -2.039  -8.297   3.596  1.00  0.00    -0.353 N 
ATOM      4  C   UNL     1      -1.198  -8.273   2.519  1.00  0.00     0.257 C 
ATOM      5  O   UNL     1      -1.702  -8.108   1.407  1.00  0.00    -0.271 OA
ATOM      6  H   UNL     1      -2.969  -8.030   3.414  1.00  0.00     0.163 HD
BRANCH   4   7
ATOM      7  C   UNL     1       0.301  -8.548   2.717  1.00  0.00     0.329 C 
BRANCH   7   8
ATOM      8  O   UNL     1       1.006  -7.806   3.698  1.00  0.00    -0.476 OA
BRANCH   8   9
ATOM      9  C   UNL     1       1.221  -6.444   3.533  1.00  0.00     0.211 A 
ATOM     10  C   UNL     1       0.862  -2.093   1.163  1.00  0.00    -0.047 A 
ATOM     11  C   UNL     1       1.376  -1.488   2.318  1.00  0.00     0.007 A 
ATOM     12  C   UNL     1       0.702  -3.489   1.158  1.00  0.00     0.020 A 
ATOM     13  C   UNL     1       1.735  -2.258   3.430  1.00  0.00     0.048 A 
ATOM     14  C   UNL     1       1.065  -4.253   2.273  1.00  0.00     0.069 A 
ATOM     15  C   UNL     1       1.578  -3.641   3.402  1.00  0.00     0.138 A 
ATOM     16  C   UNL     1       0.943  -5.715   2.258  1.00  0.00     0.235 A 
ATOM     17  O   UNL     1       1.964  -4.343   4.507  1.00  0.00    -0.452 OA
ATOM     18  O   UNL     1       0.673  -6.282   1.201  1.00  0.00    -0.285 OA
ATOM     19  C   UNL     1       1.756  -5.713   4.537  1.00  0.00     0.180 A 
BRANCH  10  20
ATOM     20  C   UNL     1       0.434  -1.324  -0.066  1.00  0.00     0.032 C 
ATOM     21  C   UNL     1       0.908   0.120  -0.168  1.00  0.00     0.009 C 
ENDBRANCH  10  20
BRANCH  19  22
ATOM     22  C   UNL     1       2.241  -6.307   5.803  1.00  0.00     0.021 A 
ATOM     23  C   UNL     1       1.854  -5.761   7.035  1.00  0.00     0.012 A 
ATOM     24  C   UNL     1       3.189  -7.341   5.794  1.00  0.00     0.012 A 
ATOM     25  C   UNL     1       2.399  -6.242   8.229  1.00  0.00     0.001 A 
ATOM     26  C   UNL     1       3.735  -7.821   6.988  1.00  0.00     0.001 A 
ATOM     27  C   UNL     1       3.341  -7.268   8.204  1.00  0.00     0.000 A 
ENDBRANCH  19  22
ENDBRANCH   8   9
ENDBRANCH   7   8
ENDBRANCH   4   7
ENDBRANCH   2   3
ENDBRANCH   1   2
BRANCH   1  28
ATOM     28  C   UNL     1      -3.257  -6.824   5.952  1.00  0.00     0.118 C 
BRANCH  28  29
ATOM     29  N   UNL     1      -4.327  -7.734   6.338  1.00  0.00    -0.352 N 
ATOM     30  C   UNL     1      -5.239  -7.658   7.362  1.00  0.00     0.251 C 
ATOM     31  H   UNL     1      -4.411  -8.534   5.771  1.00  0.00     0.163 HD
ATOM     32  O   UNL     1      -5.968  -8.623   7.586  1.00  0.00    -0.269 OA
BRANCH  30  33
ATOM     33  C   UNL     1      -5.337  -6.450   8.212  1.00  0.00     0.039 A 
ATOM     34  C   UNL     1      -5.510  -6.613   9.590  1.00  0.00     0.014 A 
ATOM     35  C   UNL     1      -5.290  -5.164   7.667  1.00  0.00     0.014 A 
ATOM     36  C   UNL     1      -5.562  -5.493  10.425  1.00  0.00     0.010 A 
ATOM     37  C   UNL     1      -5.265  -4.051   8.508  1.00  0.00     0.010 A 
ATOM     38  C   UNL     1      -5.399  -4.203   9.896  1.00  0.00    -0.014 A 
BRANCH  38  39
ATOM     39  C   UNL     1      -5.350  -3.009  10.782  1.00  0.00     0.031 A 
ATOM     40  C   UNL     1      -6.402  -1.937  10.681  1.00  0.00     0.074 A 
ATOM     41  C   UNL     1      -4.324  -2.864  11.646  1.00  0.00     0.049 A 
ATOM     42  N   UNL     1      -6.494  -0.809  11.340  1.00  0.00    -0.248 NA
ATOM     43  C   UNL     1      -7.477  -2.147   9.698  1.00  0.00     0.031 C 
ATOM     44  C   UNL     1      -3.219  -3.812  11.816  1.00  0.00     0.029 A 
ATOM     45  N   UNL     1      -4.039  -1.862  12.541  1.00  0.00    -0.354 N 
ATOM     46  C   UNL     1      -7.627  -0.172  10.846  1.00  0.00     0.074 A 
ATOM     47  C   UNL     1      -8.159  -1.014   9.797  1.00  0.00     0.031 C 
ATOM     48  C   UNL     1      -2.396  -3.361  12.777  1.00  0.00     0.029 A 
ATOM     49  C   UNL     1      -2.887  -2.075  13.261  1.00  0.00     0.049 A 
ATOM     50  H   UNL     1      -4.607  -1.067  12.656  1.00  0.00     0.167 HD
ATOM     51  C   UNL     1      -8.185   0.998  11.240  1.00  0.00     0.031 A 
ATOM     52  C   UNL     1      -2.286  -1.319  14.201  1.00  0.00     0.031 A 
ATOM     53  C   UNL     1      -7.659   1.832  12.289  1.00  0.00     0.049 A 
ATOM     54  C   UNL     1      -2.916  -0.015  14.609  1.00  0.00     0.074 A 
ATOM     55  C   UNL     1      -8.182   3.011  12.794  1.00  0.00     0.029 A 
ATOM     56  N   UNL     1      -6.492   1.580  12.993  1.00  0.00    -0.354 N 
ATOM     57  N   UNL     1      -4.021   0.539  14.171  1.00  0.00    -0.248 NA
ATOM     58  C   UNL     1      -2.221   0.760  15.647  1.00  0.00     0.031 C 
ATOM     59  C   UNL     1      -7.303   3.498  13.766  1.00  0.00     0.029 A 
ATOM     60  C   UNL     1      -6.264   2.593  13.911  1.00  0.00     0.049 A 
ATOM     61  H   UNL     1      -5.910   0.797  12.860  1.00  0.00     0.167 HD
ATOM     62  C   UNL     1      -4.169   1.714  14.900  1.00  0.00     0.074 A 
ATOM     63  C   UNL     1      -3.050   1.782  15.816  1.00  0.00     0.031 C 
ATOM     64  C   UNL     1      -5.146   2.651  14.818  1.00  0.00     0.031 A 
BRANCH  51  65
ATOM     65  C   UNL     1      -9.435   1.449  10.530  1.00  0.00    -0.014 A 
ATOM     66  C   UNL     1     -10.656   0.772  10.708  1.00  0.00     0.010 A 
ATOM     67  C   UNL     1      -9.402   2.593   9.711  1.00  0.00     0.010 A 
ATOM     68  C   UNL     1     -11.809   1.206  10.049  1.00  0.00     0.020 A 
ATOM     69  C   UNL     1     -10.560   3.047   9.073  1.00  0.00     0.020 A 
ATOM     70  C   UNL     1     -11.754   2.339   9.233  1.00  0.00     0.054 A 
BRANCH  70  71
ATOM     71  S   UNL     1     -13.272   2.892   8.410  1.00  0.00     0.124 S 
ATOM     72  O   UNL     1     -13.443   1.873   7.378  1.00  0.00    -0.237 OA
ATOM     73  O   UNL     1     -14.253   2.860   9.492  1.00  0.00    -0.237 OA
ATOM     74  O   UNL     1     -12.935   4.226   7.918  1.00  0.00    -0.744 OA
ENDBRANCH  70  71
ENDBRANCH  51  65
BRANCH  52  75
ATOM     75  C   UNL     1      -1.020  -1.784  14.833  1.00  0.00    -0.014 A 
ATOM     76  C   UNL     1      -1.001  -2.192  16.179  1.00  0.00     0.010 A 
ATOM     77  C   UNL     1       0.174  -1.823  14.090  1.00  0.00     0.010 A 
ATOM     78  C   UNL     1       0.192  -2.610  16.776  1.00  0.00     0.020 A 
ATOM     79  C   UNL     1       1.362  -2.268  14.675  1.00  0.00     0.020 A 
ATOM     80  C   UNL     1       1.367  -2.646  16.019  1.00  0.00     0.054 A 
BRANCH  80  81
ATOM     81  S   UNL     1       2.894  -3.236  16.800  1.00  0.00     0.124 S 
ATOM     82  O   UNL     1       3.251  -2.109  17.656  1.00  0.00    -0.237 OA
ATOM     83  O   UNL     1       2.450  -4.443  17.492  1.00  0.00    -0.237 OA
ATOM     84  O   UNL     1       3.787  -3.471  15.667  1.00  0.00    -0.744 OA
ENDBRANCH  80  81
ENDBRANCH  52  75
BRANCH  64  85
ATOM     85  C   UNL     1      -5.070   3.817  15.767  1.00  0.00    -0.014 A 
ATOM     86  C   UNL     1      -4.103   4.825  15.610  1.00  0.00     0.010 A 
ATOM     87  C   UNL     1      -6.016   3.931  16.802  1.00  0.00     0.010 A 
ATOM     88  C   UNL     1      -4.063   5.910  16.491  1.00  0.00     0.020 A 
ATOM     89  C   UNL     1      -5.998   5.028  17.667  1.00  0.00     0.020 A 
ATOM     90  C   UNL     1      -5.012   6.004  17.514  1.00  0.00     0.054 A 
BRANCH  90  91
ATOM     91  S   UNL     1      -4.965   7.443  18.617  1.00  0.00     0.124 S 
ATOM     92  O   UNL     1      -3.800   7.152  19.447  1.00  0.00    -0.237 OA
ATOM     93  O   UNL     1      -4.812   8.557  17.685  1.00  0.00    -0.237 OA
ATOM     94  O   UNL     1      -6.251   7.391  19.309  1.00  0.00    -0.744 OA
ENDBRANCH  90  91
ENDBRANCH  64  85
ENDBRANCH  38  39
ENDBRANCH  30  33
ENDBRANCH  28  29
ENDBRANCH   1  28
TORSDOF 17
