REMARK SMILES O=C(CN(CC(F)(F)F)c1nc(-c2ccccc2)cs1)NCCCNC(=O)c1ccc(-c2c3nc(c(-c4ccc(S(=O)(=O)[O-])cc4)c4ccc([nH]4)c(-c4ccc(S(=O)(=O)[O-])cc4)c4nc(c(-c5ccc(S(=O)(=O)[O-])cc5)c5ccc2[nH]5)C=C4)C=C3)cc1
REMARK SMILES IDX 23 1 22 2 21 3 1 4 2 5 3 7 4 8 5 9 6 10 7 11 8 12 9 13 10 14
REMARK SMILES IDX 11 15 20 16 12 17 19 18 13 19 14 20 18 21 15 22 17 23 16 24
REMARK SMILES IDX 24 25 25 26 26 27 27 29 28 30 29 31 87 32 30 33 86 34 31 35
REMARK SMILES IDX 32 36 33 37 80 38 34 39 85 40 79 41 81 42 35 43 84 44 78 45
REMARK SMILES IDX 77 46 36 48 66 49 47 50 65 51 48 52 51 53 64 54 82 55 49 56
REMARK SMILES IDX 50 57 63 59 83 60 52 61 37 62 38 63 46 64 39 65 45 66 40 67
REMARK SMILES IDX 41 68 42 69 43 70 44 71 67 72 68 73 76 74 69 75 75 76 70 77
REMARK SMILES IDX 71 78 72 79 73 80 74 81 53 82 54 83 62 84 55 85 61 86 56 87
REMARK SMILES IDX 57 88 58 89 59 90 60 91
REMARK H PARENT 21 6 25 28 81 47 51 58
REMARK Flexibility Score: inf
ROOT
ATOM      1  C   UNL     1       2.354   1.522   3.006  1.00  0.00     0.042 C 
ENDROOT
BRANCH   1   2
ATOM      2  C   UNL     1       2.061   1.840   1.544  1.00  0.00     0.117 C 
BRANCH   2   3
ATOM      3  N   UNL     1       2.742   0.974   0.608  1.00  0.00    -0.354 N 
ATOM      4  O   UNL     1       1.111  -0.640   0.530  1.00  0.00    -0.273 OA
ATOM      5  C   UNL     1       2.151  -0.158   0.086  1.00  0.00     0.239 C 
ATOM      6  H   UNL     1       3.660   1.200   0.333  1.00  0.00     0.163 HD
BRANCH   5   7
ATOM      7  C   UNL     1       2.944  -0.844  -1.041  1.00  0.00     0.219 C 
BRANCH   7   8
ATOM      8  N   UNL     1       3.828   0.058  -1.812  1.00  0.00    -0.330 N 
BRANCH   8   9
ATOM      9  C   UNL     1       5.276  -0.234  -1.844  1.00  0.00     0.234 C 
BRANCH   9  10
ATOM     10  C   UNL     1       5.789  -1.170  -2.950  1.00  0.00     0.406 C 
ATOM     11  F   UNL     1       6.054  -0.511  -4.099  1.00  0.00    -0.169 F 
ATOM     12  F   UNL     1       6.950  -1.753  -2.563  1.00  0.00    -0.169 F 
ATOM     13  F   UNL     1       4.916  -2.163  -3.227  1.00  0.00    -0.169 F 
ENDBRANCH   9  10
ENDBRANCH   8   9
BRANCH   8  14
ATOM     14  C   UNL     1       3.244   0.987  -2.621  1.00  0.00     0.186 A 
ATOM     15  N   UNL     1       2.268   1.760  -2.204  1.00  0.00    -0.220 NA
ATOM     16  S   UNL     1       3.691   1.267  -4.266  1.00  0.00    -0.105 S 
ATOM     17  C   UNL     1       1.850   2.624  -3.197  1.00  0.00     0.083 A 
ATOM     18  C   UNL     1       2.484   2.467  -4.409  1.00  0.00     0.097 A 
BRANCH  17  19
ATOM     19  C   UNL     1       0.874   3.667  -2.936  1.00  0.00     0.001 A 
ATOM     20  C   UNL     1      -0.212   3.882  -3.793  1.00  0.00     0.010 A 
ATOM     21  C   UNL     1       1.044   4.496  -1.819  1.00  0.00     0.010 A 
ATOM     22  C   UNL     1      -1.106   4.927  -3.543  1.00  0.00     0.001 A 
ATOM     23  C   UNL     1       0.156   5.545  -1.578  1.00  0.00     0.001 A 
ATOM     24  C   UNL     1      -0.916   5.762  -2.442  1.00  0.00     0.000 A 
ENDBRANCH  17  19
ENDBRANCH   8  14
ENDBRANCH   7   8
ENDBRANCH   5   7
ENDBRANCH   2   3
ENDBRANCH   1   2
BRANCH   1  25
ATOM     25  C   UNL     1       3.820   1.647   3.415  1.00  0.00     0.118 C 
BRANCH  25  26
ATOM     26  N   UNL     1       4.365   2.984   3.224  1.00  0.00    -0.352 N 
ATOM     27  C   UNL     1       5.068   3.802   4.071  1.00  0.00     0.251 C 
ATOM     28  H   UNL     1       4.200   3.368   2.332  1.00  0.00     0.163 HD
ATOM     29  O   UNL     1       5.327   4.950   3.699  1.00  0.00    -0.269 OA
BRANCH  27  30
ATOM     30  C   UNL     1       5.501   3.357   5.418  1.00  0.00     0.039 A 
ATOM     31  C   UNL     1       5.468   4.285   6.465  1.00  0.00     0.014 A 
ATOM     32  C   UNL     1       5.988   2.069   5.660  1.00  0.00     0.014 A 
ATOM     33  C   UNL     1       5.864   3.910   7.752  1.00  0.00     0.010 A 
ATOM     34  C   UNL     1       6.317   1.675   6.960  1.00  0.00     0.010 A 
ATOM     35  C   UNL     1       6.262   2.591   8.021  1.00  0.00    -0.014 A 
BRANCH  35  36
ATOM     36  C   UNL     1       6.608   2.167   9.406  1.00  0.00     0.031 A 
ATOM     37  C   UNL     1       8.005   1.721   9.752  1.00  0.00     0.074 A 
ATOM     38  C   UNL     1       5.649   2.149  10.354  1.00  0.00     0.049 A 
ATOM     39  N   UNL     1       8.481   1.323  10.906  1.00  0.00    -0.248 NA
ATOM     40  C   UNL     1       8.990   1.698   8.660  1.00  0.00     0.031 C 
ATOM     41  C   UNL     1       4.244   2.510  10.144  1.00  0.00     0.029 A 
ATOM     42  N   UNL     1       5.708   1.816  11.685  1.00  0.00    -0.354 N 
ATOM     43  C   UNL     1       9.812   0.993  10.677  1.00  0.00     0.074 A 
ATOM     44  C   UNL     1      10.055   1.191   9.264  1.00  0.00     0.031 C 
ATOM     45  C   UNL     1       3.585   2.411  11.310  1.00  0.00     0.029 A 
ATOM     46  C   UNL     1       4.508   1.949  12.342  1.00  0.00     0.049 A 
ATOM     47  H   UNL     1       6.533   1.510  12.127  1.00  0.00     0.167 HD
ATOM     48  C   UNL     1      10.753   0.581  11.562  1.00  0.00     0.031 A 
ATOM     49  C   UNL     1       4.181   1.728  13.630  1.00  0.00     0.031 A 
ATOM     50  C   UNL     1      10.517   0.392  12.970  1.00  0.00     0.049 A 
ATOM     51  C   UNL     1       5.244   1.280  14.595  1.00  0.00     0.074 A 
ATOM     52  C   UNL     1      11.421   0.030  13.953  1.00  0.00     0.029 A 
ATOM     53  N   UNL     1       9.289   0.547  13.596  1.00  0.00    -0.354 N 
ATOM     54  N   UNL     1       6.513   1.040  14.369  1.00  0.00    -0.248 NA
ATOM     55  C   UNL     1       4.832   1.090  15.993  1.00  0.00     0.031 C 
ATOM     56  C   UNL     1      10.732  -0.079  15.166  1.00  0.00     0.029 A 
ATOM     57  C   UNL     1       9.409   0.270  14.948  1.00  0.00     0.049 A 
ATOM     58  H   UNL     1       8.456   0.815  13.146  1.00  0.00     0.167 HD
ATOM     59  C   UNL     1       7.057   0.696  15.602  1.00  0.00     0.074 A 
ATOM     60  C   UNL     1       5.983   0.777  16.571  1.00  0.00     0.031 C 
ATOM     61  C   UNL     1       8.333   0.346  15.903  1.00  0.00     0.031 A 
BRANCH  48  62
ATOM     62  C   UNL     1      12.135   0.303  11.028  1.00  0.00    -0.014 A 
ATOM     63  C   UNL     1      12.968   1.349  10.591  1.00  0.00     0.010 A 
ATOM     64  C   UNL     1      12.624  -1.016  11.001  1.00  0.00     0.010 A 
ATOM     65  C   UNL     1      14.246   1.077  10.095  1.00  0.00     0.020 A 
ATOM     66  C   UNL     1      13.913  -1.289  10.532  1.00  0.00     0.020 A 
ATOM     67  C   UNL     1      14.709  -0.241  10.064  1.00  0.00     0.054 A 
BRANCH  67  68
ATOM     68  S   UNL     1      16.377  -0.564   9.429  1.00  0.00     0.124 S 
ATOM     69  O   UNL     1      16.192  -0.379   7.992  1.00  0.00    -0.237 OA
ATOM     70  O   UNL     1      17.178   0.461  10.095  1.00  0.00    -0.237 OA
ATOM     71  O   UNL     1      16.650  -1.935   9.850  1.00  0.00    -0.744 OA
ENDBRANCH  67  68
ENDBRANCH  48  62
BRANCH  49  72
ATOM     72  C   UNL     1       2.784   1.956  14.091  1.00  0.00    -0.014 A 
ATOM     73  C   UNL     1       2.475   3.050  14.919  1.00  0.00     0.010 A 
ATOM     74  C   UNL     1       1.752   1.088  13.692  1.00  0.00     0.010 A 
ATOM     75  C   UNL     1       1.165   3.260  15.357  1.00  0.00     0.020 A 
ATOM     76  C   UNL     1       0.435   1.310  14.106  1.00  0.00     0.020 A 
ATOM     77  C   UNL     1       0.152   2.389  14.946  1.00  0.00     0.054 A 
BRANCH  77  78
ATOM     78  S   UNL     1      -1.551   2.710  15.483  1.00  0.00     0.124 S 
ATOM     79  O   UNL     1      -1.514   2.284  16.878  1.00  0.00    -0.237 OA
ATOM     80  O   UNL     1      -1.687   4.148  15.262  1.00  0.00    -0.237 OA
ATOM     81  O   UNL     1      -2.353   1.873  14.593  1.00  0.00    -0.744 OA
ENDBRANCH  77  78
ENDBRANCH  49  72
BRANCH  61  82
ATOM     82  C   UNL     1       8.644   0.055  17.348  1.00  0.00    -0.014 A 
ATOM     83  C   UNL     1       8.176  -1.113  17.976  1.00  0.00     0.010 A 
ATOM     84  C   UNL     1       9.443   0.953  18.080  1.00  0.00     0.010 A 
ATOM     85  C   UNL     1       8.463  -1.355  19.322  1.00  0.00     0.020 A 
ATOM     86  C   UNL     1       9.756   0.700  19.418  1.00  0.00     0.020 A 
ATOM     87  C   UNL     1       9.247  -0.444  20.036  1.00  0.00     0.054 A 
BRANCH  87  88
ATOM     88  S   UNL     1       9.624  -0.789  21.777  1.00  0.00     0.124 S 
ATOM     89  O   UNL     1       8.360  -0.465  22.431  1.00  0.00    -0.237 OA
ATOM     90  O   UNL     1       9.976  -2.206  21.756  1.00  0.00    -0.237 OA
ATOM     91  O   UNL     1      10.732   0.117  22.077  1.00  0.00    -0.744 OA
ENDBRANCH  87  88
ENDBRANCH  61  82
ENDBRANCH  35  36
ENDBRANCH  27  30
ENDBRANCH  25  26
ENDBRANCH   1  25
TORSDOF 18
