REMARK SMILES O=C(NCCCNC(=O)[C@]1(CCCCO)CCc2ccccc2C1)c1ccc(-c2c3nc(c(-c4ccc(S(=O)(=O)[O-])cc4)c4ccc([nH]4)c(-c4ccc(S(=O)(=O)[O-])cc4)c4nc(c(-c5ccc(S(=O)(=O)[O-])cc5)c5ccc2[nH]5)C=C4)C=C3)cc1
REMARK SMILES IDX 6 1 5 2 4 3 3 4 1 5 2 6 25 8 26 9 84 10 27 11 83 12 28 13
REMARK SMILES IDX 29 14 30 15 77 16 31 17 82 18 76 19 78 20 32 21 81 22 75 23
REMARK SMILES IDX 74 24 33 26 63 27 44 28 62 29 45 30 48 31 61 32 79 33 46 34
REMARK SMILES IDX 47 35 60 37 80 38 49 39 34 40 35 41 43 42 36 43 42 44 37 45
REMARK SMILES IDX 38 46 39 47 40 48 41 49 64 50 65 51 73 52 66 53 72 54 67 55
REMARK SMILES IDX 68 56 69 57 70 58 71 59 50 60 51 61 59 62 52 63 58 64 53 65
REMARK SMILES IDX 54 66 55 67 56 68 57 69 7 70 8 71 9 73 10 74 16 75 24 76
REMARK SMILES IDX 17 77 23 78 18 79 22 80 19 81 21 82 20 83 11 84 12 85 13 86
REMARK SMILES IDX 14 87 15 88
REMARK H PARENT 3 7 78 25 48 36 7 72 15 89
REMARK Flexibility Score: inf
ROOT
ATOM      1  C   UNL     1       3.360   4.174  -0.934  1.00  0.00     0.117 C 
ENDROOT
BRANCH   1   2
ATOM      2  C   UNL     1       3.716   2.830  -1.659  1.00  0.00     0.042 C 
BRANCH   2   3
ATOM      3  C   UNL     1       3.795   1.454  -0.977  1.00  0.00     0.118 C 
BRANCH   3   4
ATOM      4  N   UNL     1       2.582   1.031  -0.304  1.00  0.00    -0.352 N 
ATOM      5  O   UNL     1       0.987  -0.438   0.319  1.00  0.00    -0.269 OA
ATOM      6  C   UNL     1       2.109  -0.254  -0.121  1.00  0.00     0.251 C 
ATOM      7  H   UNL     1       2.024   1.752   0.069  1.00  0.00     0.163 HD
BRANCH   6   8
ATOM      8  C   UNL     1       2.967  -1.418  -0.460  1.00  0.00     0.039 A 
ATOM      9  C   UNL     1       4.171  -1.633   0.215  1.00  0.00     0.014 A 
ATOM     10  C   UNL     1       2.512  -2.357  -1.391  1.00  0.00     0.014 A 
ATOM     11  C   UNL     1       4.945  -2.761  -0.083  1.00  0.00     0.010 A 
ATOM     12  C   UNL     1       3.278  -3.498  -1.671  1.00  0.00     0.010 A 
ATOM     13  C   UNL     1       4.506  -3.711  -1.024  1.00  0.00    -0.014 A 
BRANCH  13  14
ATOM     14  C   UNL     1       5.289  -4.958  -1.262  1.00  0.00     0.031 A 
ATOM     15  C   UNL     1       5.979  -5.208  -2.579  1.00  0.00     0.074 A 
ATOM     16  C   UNL     1       5.363  -5.882  -0.281  1.00  0.00     0.049 A 
ATOM     17  N   UNL     1       6.676  -6.248  -2.961  1.00  0.00    -0.248 NA
ATOM     18  C   UNL     1       5.867  -4.156  -3.602  1.00  0.00     0.031 C 
ATOM     19  C   UNL     1       4.727  -5.763   1.034  1.00  0.00     0.029 A 
ATOM     20  N   UNL     1       5.999  -7.099  -0.230  1.00  0.00    -0.354 N 
ATOM     21  C   UNL     1       7.074  -5.988  -4.270  1.00  0.00     0.074 A 
ATOM     22  C   UNL     1       6.525  -4.695  -4.622  1.00  0.00     0.031 C 
ATOM     23  C   UNL     1       5.025  -6.847   1.768  1.00  0.00     0.029 A 
ATOM     24  C   UNL     1       5.822  -7.765   0.962  1.00  0.00     0.049 A 
ATOM     25  H   UNL     1       6.531  -7.461  -0.975  1.00  0.00     0.167 HD
ATOM     26  C   UNL     1       7.824  -6.756  -5.098  1.00  0.00     0.031 A 
ATOM     27  C   UNL     1       6.230  -8.987   1.358  1.00  0.00     0.031 A 
ATOM     28  C   UNL     1       8.362  -8.045  -4.739  1.00  0.00     0.049 A 
ATOM     29  C   UNL     1       7.033  -9.830   0.406  1.00  0.00     0.074 A 
ATOM     30  C   UNL     1       9.165  -8.883  -5.495  1.00  0.00     0.029 A 
ATOM     31  N   UNL     1       8.148  -8.688  -3.529  1.00  0.00    -0.354 N 
ATOM     32  N   UNL     1       7.437  -9.541  -0.809  1.00  0.00    -0.248 NA
ATOM     33  C   UNL     1       7.439 -11.161   0.876  1.00  0.00     0.031 C 
ATOM     34  C   UNL     1       9.386 -10.056  -4.766  1.00  0.00     0.029 A 
ATOM     35  C   UNL     1       8.777  -9.922  -3.529  1.00  0.00     0.049 A 
ATOM     36  H   UNL     1       7.625  -8.321  -2.779  1.00  0.00     0.167 HD
ATOM     37  C   UNL     1       8.161 -10.647  -1.239  1.00  0.00     0.074 A 
ATOM     38  C   UNL     1       8.161 -11.598  -0.147  1.00  0.00     0.031 C 
ATOM     39  C   UNL     1       8.767 -10.858  -2.433  1.00  0.00     0.031 A 
BRANCH  26  40
ATOM     40  C   UNL     1       8.099  -6.247  -6.492  1.00  0.00    -0.014 A 
ATOM     41  C   UNL     1       8.993  -5.186  -6.720  1.00  0.00     0.010 A 
ATOM     42  C   UNL     1       7.527  -6.904  -7.599  1.00  0.00     0.010 A 
ATOM     43  C   UNL     1       9.291  -4.777  -8.025  1.00  0.00     0.020 A 
ATOM     44  C   UNL     1       7.841  -6.515  -8.905  1.00  0.00     0.020 A 
ATOM     45  C   UNL     1       8.715  -5.446  -9.110  1.00  0.00     0.054 A 
BRANCH  45  46
ATOM     46  S   UNL     1       9.159  -4.923 -10.790  1.00  0.00     0.124 S 
ATOM     47  O   UNL     1       8.486  -3.631 -10.892  1.00  0.00    -0.237 OA
ATOM     48  O   UNL     1      10.618  -4.867 -10.732  1.00  0.00    -0.237 OA
ATOM     49  O   UNL     1       8.612  -5.979 -11.639  1.00  0.00    -0.744 OA
ENDBRANCH  45  46
ENDBRANCH  26  40
BRANCH  27  50
ATOM     50  C   UNL     1       5.857  -9.502   2.707  1.00  0.00    -0.014 A 
ATOM     51  C   UNL     1       6.835  -9.721   3.693  1.00  0.00     0.010 A 
ATOM     52  C   UNL     1       4.512  -9.784   3.009  1.00  0.00     0.010 A 
ATOM     53  C   UNL     1       6.479 -10.237   4.943  1.00  0.00     0.020 A 
ATOM     54  C   UNL     1       4.147 -10.268   4.268  1.00  0.00     0.020 A 
ATOM     55  C   UNL     1       5.136 -10.508   5.222  1.00  0.00     0.054 A 
BRANCH  55  56
ATOM     56  S   UNL     1       4.692 -11.152   6.859  1.00  0.00     0.124 S 
ATOM     57  O   UNL     1       5.160 -12.531   6.779  1.00  0.00    -0.237 OA
ATOM     58  O   UNL     1       5.444 -10.278   7.757  1.00  0.00    -0.237 OA
ATOM     59  O   UNL     1       3.241 -10.984   6.910  1.00  0.00    -0.744 OA
ENDBRANCH  55  56
ENDBRANCH  27  50
BRANCH  39  60
ATOM     60  C   UNL     1       9.512 -12.155  -2.607  1.00  0.00    -0.014 A 
ATOM     61  C   UNL     1       8.829 -13.377  -2.738  1.00  0.00     0.010 A 
ATOM     62  C   UNL     1      10.917 -12.142  -2.680  1.00  0.00     0.010 A 
ATOM     63  C   UNL     1       9.540 -14.569  -2.902  1.00  0.00     0.020 A 
ATOM     64  C   UNL     1      11.630 -13.327  -2.876  1.00  0.00     0.020 A 
ATOM     65  C   UNL     1      10.937 -14.536  -2.970  1.00  0.00     0.054 A 
BRANCH  65  66
ATOM     66  S   UNL     1      11.835 -16.091  -3.221  1.00  0.00     0.124 S 
ATOM     67  O   UNL     1      11.703 -16.733  -1.916  1.00  0.00    -0.237 OA
ATOM     68  O   UNL     1      11.089 -16.719  -4.309  1.00  0.00    -0.237 OA
ATOM     69  O   UNL     1      13.187 -15.658  -3.569  1.00  0.00    -0.744 OA
ENDBRANCH  65  66
ENDBRANCH  39  60
ENDBRANCH  13  14
ENDBRANCH   6   8
ENDBRANCH   3   4
ENDBRANCH   2   3
ENDBRANCH   1   2
BRANCH   1  70
ATOM     70  N   UNL     1       4.044   4.640   0.295  1.00  0.00    -0.356 N 
ATOM     71  C   UNL     1       5.119   5.408   0.693  1.00  0.00     0.226 C 
ATOM     72  H   UNL     1       3.579   4.285   1.087  1.00  0.00     0.163 HD
ATOM     73  O   UNL     1       5.271   5.637   1.897  1.00  0.00    -0.274 OA
BRANCH  71  74
ATOM     74  C   UNL     1       6.075   6.027  -0.316  1.00  0.00     0.054 C 
ATOM     75  C   UNL     1       7.473   6.529   0.149  1.00  0.00     0.022 C 
ATOM     76  C   UNL     1       5.269   7.312  -0.677  1.00  0.00     0.052 C 
ATOM     77  C   UNL     1       8.195   7.331  -0.982  1.00  0.00     0.037 C 
ATOM     78  C   UNL     1       5.990   8.498  -1.260  1.00  0.00    -0.044 A 
ATOM     79  C   UNL     1       7.360   8.469  -1.514  1.00  0.00    -0.045 A 
ATOM     80  C   UNL     1       5.272   9.685  -1.487  1.00  0.00     0.004 A 
ATOM     81  C   UNL     1       7.939   9.528  -2.232  1.00  0.00     0.004 A 
ATOM     82  C   UNL     1       5.875  10.775  -2.111  1.00  0.00     0.000 A 
ATOM     83  C   UNL     1       7.193  10.671  -2.541  1.00  0.00     0.000 A 
BRANCH  74  84
ATOM     84  C   UNL     1       6.354   4.882  -1.296  1.00  0.00     0.017 C 
BRANCH  84  85
ATOM     85  C   UNL     1       6.843   3.502  -0.688  1.00  0.00     0.003 C 
BRANCH  85  86
ATOM     86  C   UNL     1       6.825   2.911   0.773  1.00  0.00     0.028 C 
BRANCH  86  87
ATOM     87  C   UNL     1       5.751   2.673   1.880  1.00  0.00     0.156 C 
BRANCH  87  88
ATOM     88  O   UNL     1       4.380   2.610   1.546  1.00  0.00    -0.396 OA
ATOM     89  H   UNL     1       4.084   3.478   1.228  1.00  0.00     0.210 HD
ENDBRANCH  87  88
ENDBRANCH  86  87
ENDBRANCH  85  86
ENDBRANCH  84  85
ENDBRANCH  74  84
ENDBRANCH  71  74
ENDBRANCH   1  70
TORSDOF 18
