REMARK SMILES O=C(NCCCNC(=O)c1ccc(-c2c3nc(c(-c4ccc(S(=O)(=O)[O-])cc4)c4ccc([nH]4)c(-c4ccc(S(=O)(=O)[O-])cc4)c4nc(c(-c5ccc(S(=O)(=O)[O-])cc5)c5ccc2[nH]5)C=C4)C=C3)cc1)C1=Cc2cc(Cl)c(Cl)cc2O[C@@H]1C(F)(F)F
REMARK SMILES IDX 6 1 5 2 4 3 3 4 1 5 2 6 70 8 71 9 81 10 72 11 80 12 73 13
REMARK SMILES IDX 79 14 74 15 78 16 75 17 76 18 77 19 82 20 83 21 84 22 85 23
REMARK SMILES IDX 7 24 8 25 9 27 10 28 11 29 69 30 12 31 68 32 13 33 14 34
REMARK SMILES IDX 15 35 62 36 16 37 67 38 61 39 63 40 17 41 66 42 60 43 59 44
REMARK SMILES IDX 18 46 48 47 29 48 47 49 30 50 33 51 46 52 64 53 31 54 32 55
REMARK SMILES IDX 45 57 65 58 34 59 19 60 20 61 28 62 21 63 27 64 22 65 23 66
REMARK SMILES IDX 24 67 25 68 26 69 49 70 50 71 58 72 51 73 57 74 52 75 53 76
REMARK SMILES IDX 54 77 55 78 56 79 35 80 36 81 44 82 37 83 43 84 38 85 39 86
REMARK SMILES IDX 40 87 41 88 42 89
REMARK H PARENT 3 7 7 26 63 45 33 56
REMARK Flexibility Score: inf
ROOT
ATOM      1  C   UNL     1       4.071   3.426   2.135  1.00  0.00     0.118 C 
ENDROOT
BRANCH   1   2
ATOM      2  C   UNL     1       4.213   2.544   0.902  1.00  0.00     0.042 C 
BRANCH   2   3
ATOM      3  C   UNL     1       3.403   1.259   1.022  1.00  0.00     0.118 C 
BRANCH   3   4
ATOM      4  N   UNL     1       2.423   1.093  -0.055  1.00  0.00    -0.352 N 
ATOM      5  O   UNL     1       1.272  -0.046  -1.649  1.00  0.00    -0.270 OA
ATOM      6  C   UNL     1       2.273   0.067  -0.956  1.00  0.00     0.251 C 
ATOM      7  H   UNL     1       1.775   1.829  -0.147  1.00  0.00     0.163 HD
BRANCH   6   8
ATOM      8  C   UNL     1       3.350  -0.938  -0.996  1.00  0.00     0.067 C 
ATOM      9  C   UNL     1       4.548  -0.508  -1.412  1.00  0.00     0.025 C 
ATOM     10  C   UNL     1       3.146  -2.187  -0.197  1.00  0.00     0.314 C 
ATOM     11  C   UNL     1       5.660  -0.966  -0.574  1.00  0.00     0.019 A 
ATOM     12  O   UNL     1       4.197  -2.395   0.781  1.00  0.00    -0.475 OA
ATOM     13  C   UNL     1       6.863  -0.257  -0.656  1.00  0.00     0.034 A 
ATOM     14  C   UNL     1       5.393  -1.759   0.556  1.00  0.00     0.129 A 
ATOM     15  C   UNL     1       7.732  -0.234   0.438  1.00  0.00     0.060 A 
ATOM     16  C   UNL     1       6.281  -1.767   1.630  1.00  0.00     0.069 A 
ATOM     17  Cl  UNL     1       9.093   0.825   0.348  1.00  0.00    -0.083 Cl
ATOM     18  C   UNL     1       7.427  -0.969   1.591  1.00  0.00     0.063 A 
ATOM     19  Cl  UNL     1       8.371  -0.859   3.033  1.00  0.00    -0.083 Cl
BRANCH  10  20
ATOM     20  C   UNL     1       2.986  -3.423  -1.094  1.00  0.00     0.429 C 
ATOM     21  F   UNL     1       2.656  -4.514  -0.358  1.00  0.00    -0.167 F 
ATOM     22  F   UNL     1       2.005  -3.265  -2.012  1.00  0.00    -0.167 F 
ATOM     23  F   UNL     1       4.123  -3.725  -1.764  1.00  0.00    -0.167 F 
ENDBRANCH  10  20
ENDBRANCH   6   8
ENDBRANCH   3   4
ENDBRANCH   2   3
ENDBRANCH   1   2
BRANCH   1  24
ATOM     24  N   UNL     1       4.711   2.880   3.328  1.00  0.00    -0.352 N 
ATOM     25  C   UNL     1       5.599   3.476   4.205  1.00  0.00     0.251 C 
ATOM     26  H   UNL     1       4.476   1.948   3.541  1.00  0.00     0.163 HD
ATOM     27  O   UNL     1       6.087   2.828   5.115  1.00  0.00    -0.269 OA
BRANCH  25  28
ATOM     28  C   UNL     1       5.980   4.894   4.005  1.00  0.00     0.039 A 
ATOM     29  C   UNL     1       7.326   5.265   4.082  1.00  0.00     0.014 A 
ATOM     30  C   UNL     1       5.011   5.844   3.687  1.00  0.00     0.014 A 
ATOM     31  C   UNL     1       7.707   6.566   3.733  1.00  0.00     0.010 A 
ATOM     32  C   UNL     1       5.403   7.092   3.224  1.00  0.00     0.010 A 
ATOM     33  C   UNL     1       6.754   7.474   3.245  1.00  0.00    -0.014 A 
BRANCH  33  34
ATOM     34  C   UNL     1       7.100   8.842   2.773  1.00  0.00     0.031 A 
ATOM     35  C   UNL     1       6.402  10.025   3.395  1.00  0.00     0.074 A 
ATOM     36  C   UNL     1       7.917   9.021   1.716  1.00  0.00     0.049 A 
ATOM     37  N   UNL     1       6.335  11.262   2.978  1.00  0.00    -0.248 NA
ATOM     38  C   UNL     1       5.622   9.759   4.616  1.00  0.00     0.031 C 
ATOM     39  C   UNL     1       8.633   7.963   0.998  1.00  0.00     0.029 A 
ATOM     40  N   UNL     1       8.265  10.167   1.044  1.00  0.00    -0.354 N 
ATOM     41  C   UNL     1       5.455  11.901   3.845  1.00  0.00     0.074 A 
ATOM     42  C   UNL     1       4.977  10.904   4.776  1.00  0.00     0.031 C 
ATOM     43  C   UNL     1       9.356   8.513   0.008  1.00  0.00     0.029 A 
ATOM     44  C   UNL     1       9.112   9.951  -0.018  1.00  0.00     0.049 A 
ATOM     45  H   UNL     1       7.940  11.060   1.300  1.00  0.00     0.167 HD
ATOM     46  C   UNL     1       5.091  13.205   3.877  1.00  0.00     0.031 A 
ATOM     47  C   UNL     1       9.622  10.812  -0.921  1.00  0.00     0.031 A 
ATOM     48  C   UNL     1       5.622  14.204   2.991  1.00  0.00     0.049 A 
ATOM     49  C   UNL     1       9.249  12.267  -0.836  1.00  0.00     0.074 A 
ATOM     50  C   UNL     1       5.378  15.565   2.981  1.00  0.00     0.029 A 
ATOM     51  N   UNL     1       6.529  13.949   1.973  1.00  0.00    -0.354 N 
ATOM     52  N   UNL     1       8.428  12.859  -0.000  1.00  0.00    -0.248 NA
ATOM     53  C   UNL     1       9.876  13.173  -1.810  1.00  0.00     0.031 C 
ATOM     54  C   UNL     1       6.121  16.131   1.938  1.00  0.00     0.029 A 
ATOM     55  C   UNL     1       6.859  15.128   1.330  1.00  0.00     0.049 A 
ATOM     56  H   UNL     1       6.885  13.060   1.743  1.00  0.00     0.167 HD
ATOM     57  C   UNL     1       8.467  14.210  -0.325  1.00  0.00     0.074 A 
ATOM     58  C   UNL     1       9.392  14.349  -1.431  1.00  0.00     0.031 C 
ATOM     59  C   UNL     1       7.800  15.244   0.244  1.00  0.00     0.031 A 
BRANCH  46  60
ATOM     60  C   UNL     1       4.072  13.613   4.910  1.00  0.00    -0.014 A 
ATOM     61  C   UNL     1       4.379  13.595   6.283  1.00  0.00     0.010 A 
ATOM     62  C   UNL     1       2.786  14.011   4.503  1.00  0.00     0.010 A 
ATOM     63  C   UNL     1       3.400  13.898   7.232  1.00  0.00     0.020 A 
ATOM     64  C   UNL     1       1.813  14.349   5.449  1.00  0.00     0.020 A 
ATOM     65  C   UNL     1       2.119  14.263   6.809  1.00  0.00     0.054 A 
BRANCH  65  66
ATOM     66  S   UNL     1       0.862  14.639   8.061  1.00  0.00     0.124 S 
ATOM     67  O   UNL     1       0.490  13.303   8.521  1.00  0.00    -0.237 OA
ATOM     68  O   UNL     1       1.600  15.451   9.025  1.00  0.00    -0.237 OA
ATOM     69  O   UNL     1      -0.170  15.351   7.311  1.00  0.00    -0.744 OA
ENDBRANCH  65  66
ENDBRANCH  46  60
BRANCH  47  70
ATOM     70  C   UNL     1      10.570  10.325  -1.960  1.00  0.00    -0.014 A 
ATOM     71  C   UNL     1      11.940  10.623  -1.858  1.00  0.00     0.010 A 
ATOM     72  C   UNL     1      10.120   9.539  -3.037  1.00  0.00     0.010 A 
ATOM     73  C   UNL     1      12.843  10.155  -2.818  1.00  0.00     0.020 A 
ATOM     74  C   UNL     1      11.024   9.049  -3.986  1.00  0.00     0.020 A 
ATOM     75  C   UNL     1      12.379   9.368  -3.874  1.00  0.00     0.054 A 
BRANCH  75  76
ATOM     76  S   UNL     1      13.579   8.718  -5.072  1.00  0.00     0.124 S 
ATOM     77  O   UNL     1      13.893   9.905  -5.861  1.00  0.00    -0.237 OA
ATOM     78  O   UNL     1      14.651   8.227  -4.210  1.00  0.00    -0.237 OA
ATOM     79  O   UNL     1      12.830   7.678  -5.774  1.00  0.00    -0.744 OA
ENDBRANCH  75  76
ENDBRANCH  47  70
BRANCH  59  80
ATOM     80  C   UNL     1       8.085  16.626  -0.272  1.00  0.00    -0.014 A 
ATOM     81  C   UNL     1       7.558  17.072  -1.496  1.00  0.00     0.010 A 
ATOM     82  C   UNL     1       8.823  17.519   0.527  1.00  0.00     0.010 A 
ATOM     83  C   UNL     1       7.777  18.385  -1.919  1.00  0.00     0.020 A 
ATOM     84  C   UNL     1       9.024  18.838   0.119  1.00  0.00     0.020 A 
ATOM     85  C   UNL     1       8.506  19.261  -1.107  1.00  0.00     0.054 A 
BRANCH  85  86
ATOM     86  S   UNL     1       8.715  20.981  -1.643  1.00  0.00     0.124 S 
ATOM     87  O   UNL     1       9.726  20.852  -2.689  1.00  0.00    -0.237 OA
ATOM     88  O   UNL     1       7.376  21.340  -2.104  1.00  0.00    -0.237 OA
ATOM     89  O   UNL     1       9.155  21.670  -0.432  1.00  0.00    -0.744 OA
ENDBRANCH  85  86
ENDBRANCH  59  80
ENDBRANCH  33  34
ENDBRANCH  25  28
ENDBRANCH   1  24
TORSDOF 14
