REMARK SMILES CCc1cc(OC(F)(F)F)cc2c1O[C@H](C(F)(F)F)C(C(=O)NCCCNC(=O)c1ccc(-c3c4nc(c(-c5ccc(S(=O)(=O)[O-])cc5)c5ccc([nH]5)c(-c5ccc(S(=O)(=O)[O-])cc5)c5nc(c(-c6ccc(S(=O)(=O)[O-])cc6)c6ccc3[nH]6)C=C5)C=C4)cc1)=C2
REMARK SMILES IDX 25 1 24 2 23 3 21 4 22 5 20 7 3 8 4 9 13 10 5 11 12 12 14 13
REMARK SMILES IDX 11 14 90 15 15 16 2 17 1 18 6 19 7 20 8 21 9 22 10 23 16 24
REMARK SMILES IDX 17 25 18 26 19 27 26 28 27 29 28 30 29 32 30 33 31 34 89 35
REMARK SMILES IDX 32 36 88 37 33 38 34 39 35 40 82 41 36 42 87 43 81 44 83 45
REMARK SMILES IDX 37 46 86 47 80 48 79 49 38 51 68 52 49 53 67 54 50 55 53 56
REMARK SMILES IDX 66 57 84 58 51 59 52 60 65 62 85 63 54 64 39 65 40 66 48 67
REMARK SMILES IDX 41 68 47 69 42 70 43 71 44 72 45 73 46 74 69 75 70 76 78 77
REMARK SMILES IDX 71 78 77 79 72 80 73 81 74 82 75 83 76 84 55 85 56 86 64 87
REMARK SMILES IDX 57 88 63 89 58 90 59 91 60 92 61 93 62 94
REMARK H PARENT 23 6 27 31 83 50 53 61
REMARK Flexibility Score: inf
ROOT
ATOM      1  C   UNL     1       0.527   7.521   4.398  1.00  0.00     0.042 C 
ENDROOT
BRANCH   1   2
ATOM      2  C   UNL     1      -0.713   6.841   3.820  1.00  0.00     0.118 C 
BRANCH   2   3
ATOM      3  N   UNL     1      -0.704   6.878   2.369  1.00  0.00    -0.352 N 
ATOM      4  C   UNL     1      -0.298   5.994   1.425  1.00  0.00     0.251 C 
ATOM      5  O   UNL     1      -0.489   6.298   0.248  1.00  0.00    -0.270 OA
ATOM      6  H   UNL     1      -1.066   7.714   1.994  1.00  0.00     0.163 HD
BRANCH   4   7
ATOM      7  C   UNL     1       0.254   4.649   1.744  1.00  0.00     0.067 C 
ATOM      8  C   UNL     1       1.053   0.564   2.336  1.00  0.00    -0.002 A 
ATOM      9  C   UNL     1       1.761   0.174   3.490  1.00  0.00     0.054 A 
ATOM     10  C   UNL     1       0.789   1.927   2.135  1.00  0.00     0.131 A 
ATOM     11  C   UNL     1       2.193   1.119   4.424  1.00  0.00     0.130 A 
ATOM     12  C   UNL     1       1.229   2.881   3.058  1.00  0.00     0.021 A 
ATOM     13  O   UNL     1       0.020   2.279   1.057  1.00  0.00    -0.475 OA
ATOM     14  C   UNL     1       1.930   2.472   4.196  1.00  0.00     0.058 A 
ATOM     15  C   UNL     1       0.861   4.284   2.883  1.00  0.00     0.025 C 
ATOM     16  C   UNL     1       0.148   3.654   0.600  1.00  0.00     0.314 C 
BRANCH   8  17
ATOM     17  C   UNL     1       0.567  -0.499   1.375  1.00  0.00     0.036 C 
ATOM     18  C   UNL     1       1.159  -0.385  -0.023  1.00  0.00     0.009 C 
ENDBRANCH   8  17
BRANCH  11  19
ATOM     19  O   UNL     1       2.852   0.866   5.593  1.00  0.00    -0.406 OA
BRANCH  19  20
ATOM     20  C   UNL     1       3.121  -0.484   5.929  1.00  0.00     0.573 C 
ATOM     21  F   UNL     1       1.979  -1.200   6.025  1.00  0.00    -0.132 F 
ATOM     22  F   UNL     1       3.934  -1.058   5.018  1.00  0.00    -0.132 F 
ATOM     23  F   UNL     1       3.738  -0.521   7.130  1.00  0.00    -0.132 F 
ENDBRANCH  19  20
ENDBRANCH  11  19
BRANCH  16  24
ATOM     24  C   UNL     1       1.312   3.785  -0.407  1.00  0.00     0.429 C 
ATOM     25  F   UNL     1       1.306   2.756  -1.293  1.00  0.00    -0.167 F 
ATOM     26  F   UNL     1       1.252   4.915  -1.143  1.00  0.00    -0.167 F 
ATOM     27  F   UNL     1       2.522   3.769   0.203  1.00  0.00    -0.167 F 
ENDBRANCH  16  24
ENDBRANCH   4   7
ENDBRANCH   2   3
ENDBRANCH   1   2
BRANCH   1  28
ATOM     28  C   UNL     1       0.465   9.044   4.327  1.00  0.00     0.118 C 
BRANCH  28  29
ATOM     29  N   UNL     1      -0.539   9.584   5.233  1.00  0.00    -0.352 N 
ATOM     30  C   UNL     1      -0.402  10.475   6.268  1.00  0.00     0.251 C 
ATOM     31  H   UNL     1      -1.456   9.260   5.080  1.00  0.00     0.163 HD
ATOM     32  O   UNL     1      -1.324  10.609   7.067  1.00  0.00    -0.269 OA
BRANCH  30  33
ATOM     33  C   UNL     1       0.840  11.263   6.428  1.00  0.00     0.039 A 
ATOM     34  C   UNL     1       1.337  11.482   7.716  1.00  0.00     0.014 A 
ATOM     35  C   UNL     1       1.483  11.833   5.325  1.00  0.00     0.014 A 
ATOM     36  C   UNL     1       2.500  12.234   7.894  1.00  0.00     0.010 A 
ATOM     37  C   UNL     1       2.679  12.526   5.498  1.00  0.00     0.010 A 
ATOM     38  C   UNL     1       3.194  12.742   6.785  1.00  0.00    -0.014 A 
BRANCH  38  39
ATOM     39  C   UNL     1       4.452  13.514   6.950  1.00  0.00     0.031 A 
ATOM     40  C   UNL     1       4.502  14.968   6.561  1.00  0.00     0.074 A 
ATOM     41  C   UNL     1       5.559  12.895   7.404  1.00  0.00     0.049 A 
ATOM     42  N   UNL     1       5.522  15.788   6.565  1.00  0.00    -0.248 NA
ATOM     43  C   UNL     1       3.247  15.573   6.086  1.00  0.00     0.031 C 
ATOM     44  C   UNL     1       5.643  11.485   7.793  1.00  0.00     0.029 A 
ATOM     45  N   UNL     1       6.829  13.371   7.611  1.00  0.00    -0.354 N 
ATOM     46  C   UNL     1       5.036  16.999   6.086  1.00  0.00     0.074 A 
ATOM     47  C   UNL     1       3.643  16.794   5.753  1.00  0.00     0.031 C 
ATOM     48  C   UNL     1       6.890  11.218   8.215  1.00  0.00     0.029 A 
ATOM     49  C   UNL     1       7.704  12.423   8.088  1.00  0.00     0.049 A 
ATOM     50  H   UNL     1       7.090  14.304   7.434  1.00  0.00     0.167 HD
ATOM     51  C   UNL     1       5.684  18.182   5.955  1.00  0.00     0.031 A 
ATOM     52  C   UNL     1       9.015  12.512   8.383  1.00  0.00     0.031 A 
ATOM     53  C   UNL     1       7.067  18.385   6.293  1.00  0.00     0.049 A 
ATOM     54  C   UNL     1       9.718  13.830   8.201  1.00  0.00     0.074 A 
ATOM     55  C   UNL     1       7.809  19.551   6.222  1.00  0.00     0.029 A 
ATOM     56  N   UNL     1       7.917  17.399   6.773  1.00  0.00    -0.354 N 
ATOM     57  N   UNL     1       9.230  14.973   7.781  1.00  0.00    -0.248 NA
ATOM     58  C   UNL     1      11.147  13.870   8.541  1.00  0.00     0.031 C 
ATOM     59  C   UNL     1       9.118  19.261   6.622  1.00  0.00     0.029 A 
ATOM     60  C   UNL     1       9.178  17.927   6.990  1.00  0.00     0.049 A 
ATOM     61  H   UNL     1       7.660  16.463   6.934  1.00  0.00     0.167 HD
ATOM     62  C   UNL     1      10.286  15.876   7.837  1.00  0.00     0.074 A 
ATOM     63  C   UNL     1      11.433  15.150   8.343  1.00  0.00     0.031 C 
ATOM     64  C   UNL     1      10.305  17.189   7.502  1.00  0.00     0.031 A 
BRANCH  51  65
ATOM     65  C   UNL     1       4.895  19.351   5.427  1.00  0.00    -0.014 A 
ATOM     66  C   UNL     1       3.896  19.959   6.210  1.00  0.00     0.010 A 
ATOM     67  C   UNL     1       5.178  19.875   4.153  1.00  0.00     0.010 A 
ATOM     68  C   UNL     1       3.166  21.042   5.712  1.00  0.00     0.020 A 
ATOM     69  C   UNL     1       4.469  20.976   3.662  1.00  0.00     0.020 A 
ATOM     70  C   UNL     1       3.455  21.541   4.439  1.00  0.00     0.054 A 
BRANCH  70  71
ATOM     71  S   UNL     1       2.506  22.961   3.827  1.00  0.00     0.124 S 
ATOM     72  O   UNL     1       1.215  22.350   3.522  1.00  0.00    -0.237 OA
ATOM     73  O   UNL     1       2.515  23.870   4.970  1.00  0.00    -0.237 OA
ATOM     74  O   UNL     1       3.270  23.415   2.667  1.00  0.00    -0.744 OA
ENDBRANCH  70  71
ENDBRANCH  51  65
BRANCH  52  75
ATOM     75  C   UNL     1       9.750  11.324   8.896  1.00  0.00    -0.014 A 
ATOM     76  C   UNL     1      10.189  11.281  10.231  1.00  0.00     0.010 A 
ATOM     77  C   UNL     1      10.024  10.234   8.050  1.00  0.00     0.010 A 
ATOM     78  C   UNL     1      10.914  10.183  10.703  1.00  0.00     0.020 A 
ATOM     79  C   UNL     1      10.725   9.122   8.527  1.00  0.00     0.020 A 
ATOM     80  C   UNL     1      11.180   9.112   9.846  1.00  0.00     0.054 A 
BRANCH  80  81
ATOM     81  S   UNL     1      12.099   7.684  10.487  1.00  0.00     0.124 S 
ATOM     82  O   UNL     1      13.464   8.198  10.531  1.00  0.00    -0.237 OA
ATOM     83  O   UNL     1      11.465   7.456  11.784  1.00  0.00    -0.237 OA
ATOM     84  O   UNL     1      11.851   6.645   9.490  1.00  0.00    -0.744 OA
ENDBRANCH  80  81
ENDBRANCH  52  75
BRANCH  64  85
ATOM     85  C   UNL     1      11.594  17.937   7.711  1.00  0.00    -0.014 A 
ATOM     86  C   UNL     1      12.699  17.737   6.865  1.00  0.00     0.010 A 
ATOM     87  C   UNL     1      11.681  18.890   8.742  1.00  0.00     0.010 A 
ATOM     88  C   UNL     1      13.880  18.455   7.067  1.00  0.00     0.020 A 
ATOM     89  C   UNL     1      12.851  19.629   8.930  1.00  0.00     0.020 A 
ATOM     90  C   UNL     1      13.949  19.396   8.099  1.00  0.00     0.054 A 
BRANCH  90  91
ATOM     91  S   UNL     1      15.478  20.349   8.313  1.00  0.00     0.124 S 
ATOM     92  O   UNL     1      16.367  19.363   8.921  1.00  0.00    -0.237 OA
ATOM     93  O   UNL     1      15.810  20.735   6.943  1.00  0.00    -0.237 OA
ATOM     94  O   UNL     1      15.079  21.452   9.185  1.00  0.00    -0.744 OA
ENDBRANCH  90  91
ENDBRANCH  64  85
ENDBRANCH  38  39
ENDBRANCH  30  33
ENDBRANCH  28  29
ENDBRANCH   1  28
TORSDOF 17
