REMARK SMILES CNC(=O)c1cccc(-c2cnc(O)c(C(=O)NCCCNC(=O)c3ccc(-c4c5nc(c(-c6ccc(S(=O)(=O)[O-])cc6)c6ccc([nH]6)c(-c6ccc(S(=O)(=O)[O-])cc6)c6nc(c(-c7ccc(S(=O)(=O)[O-])cc7)c7ccc4[nH]7)C=C6)C=C5)cc3)c2)c1
REMARK SMILES IDX 20 1 19 2 18 3 16 4 17 5 15 7 10 8 11 9 85 10 12 11 13 12
REMARK SMILES IDX 9 13 5 14 6 15 86 16 7 17 8 18 3 19 1 20 2 21 4 23 14 24
REMARK SMILES IDX 21 26 22 27 23 28 24 30 25 31 26 32 84 33 27 34 83 35 28 36
REMARK SMILES IDX 29 37 30 38 77 39 31 40 82 41 76 42 78 43 32 44 81 45 75 46
REMARK SMILES IDX 74 47 33 49 63 50 44 51 62 52 45 53 48 54 61 55 79 56 46 57
REMARK SMILES IDX 47 58 60 60 80 61 49 62 34 63 35 64 43 65 36 66 42 67 37 68
REMARK SMILES IDX 38 69 39 70 40 71 41 72 64 73 65 74 73 75 66 76 72 77 67 78
REMARK SMILES IDX 68 79 69 80 70 81 71 82 50 83 51 84 59 85 52 86 58 87 53 88
REMARK SMILES IDX 54 89 55 90 56 91 57 92
REMARK H PARENT 18 6 2 22 14 25 22 29 78 48 48 59
REMARK Flexibility Score: inf
ROOT
ATOM      1  C   UNL     1      -5.965   0.576  -1.137  1.00  0.00     0.042 C 
ENDROOT
BRANCH   1   2
ATOM      2  C   UNL     1      -5.212  -0.386  -2.057  1.00  0.00     0.118 C 
BRANCH   2   3
ATOM      3  N   UNL     1      -5.599  -0.214  -3.449  1.00  0.00    -0.352 N 
ATOM      4  C   UNL     1      -4.988   0.396  -4.514  1.00  0.00     0.256 C 
ATOM      5  O   UNL     1      -5.504   0.264  -5.627  1.00  0.00    -0.269 OA
ATOM      6  H   UNL     1      -6.471  -0.614  -3.669  1.00  0.00     0.163 HD
BRANCH   4   7
ATOM      7  C   UNL     1      -3.716   1.152  -4.431  1.00  0.00     0.102 A 
ATOM      8  C   UNL     1      -2.005   2.406  -3.240  1.00  0.00     0.001 A 
ATOM      9  C   UNL     1      -1.290   2.444  -4.432  1.00  0.00     0.124 A 
ATOM     10  C   UNL     1      -3.261   1.785  -3.275  1.00  0.00     0.029 A 
ATOM     11  N   UNL     1      -1.720   1.900  -5.592  1.00  0.00    -0.221 NA
ATOM     12  C   UNL     1      -2.915   1.270  -5.571  1.00  0.00     0.223 A 
BRANCH   8  13
ATOM     13  C   UNL     1      -1.462   2.917  -1.981  1.00  0.00    -0.016 A 
ATOM     14  C   UNL     1      -0.651   2.483   0.278  1.00  0.00     0.040 A 
ATOM     15  C   UNL     1      -0.484   3.854   0.486  1.00  0.00     0.014 A 
ATOM     16  C   UNL     1      -1.161   2.021  -0.939  1.00  0.00     0.022 A 
ATOM     17  C   UNL     1      -0.779   4.754  -0.540  1.00  0.00     0.001 A 
ATOM     18  C   UNL     1      -1.255   4.287  -1.769  1.00  0.00     0.009 A 
BRANCH  14  19
ATOM     19  C   UNL     1      -0.369   1.553   1.394  1.00  0.00     0.251 C 
ATOM     20  C   UNL     1       1.100  -0.016   0.024  1.00  0.00     0.143 C 
ATOM     21  N   UNL     1       0.347   0.402   1.183  1.00  0.00    -0.355 N 
ATOM     22  H   UNL     1       0.348  -0.234   1.935  1.00  0.00     0.163 HD
ATOM     23  O   UNL     1      -0.778   1.816   2.519  1.00  0.00    -0.269 OA
ENDBRANCH  14  19
ENDBRANCH   8  13
BRANCH  12  24
ATOM     24  O   UNL     1      -3.264   0.744  -6.784  1.00  0.00    -0.493 OA
ATOM     25  H   UNL     1      -2.695   0.849  -7.521  1.00  0.00     0.295 HD
ENDBRANCH  12  24
ENDBRANCH   4   7
ENDBRANCH   2   3
ENDBRANCH   1   2
BRANCH   1  26
ATOM     26  C   UNL     1      -7.428   0.196  -0.914  1.00  0.00     0.118 C 
BRANCH  26  27
ATOM     27  N   UNL     1      -7.564  -1.022  -0.131  1.00  0.00    -0.352 N 
ATOM     28  C   UNL     1      -8.243  -1.255   1.038  1.00  0.00     0.251 C 
ATOM     29  H   UNL     1      -7.093  -1.805  -0.499  1.00  0.00     0.163 HD
ATOM     30  O   UNL     1      -8.046  -2.309   1.637  1.00  0.00    -0.269 OA
BRANCH  28  31
ATOM     31  C   UNL     1      -9.194  -0.261   1.587  1.00  0.00     0.039 A 
ATOM     32  C   UNL     1      -9.231  -0.066   2.971  1.00  0.00     0.014 A 
ATOM     33  C   UNL     1     -10.091   0.428   0.765  1.00  0.00     0.014 A 
ATOM     34  C   UNL     1     -10.130   0.850   3.525  1.00  0.00     0.010 A 
ATOM     35  C   UNL     1     -10.949   1.384   1.313  1.00  0.00     0.010 A 
ATOM     36  C   UNL     1     -10.980   1.601   2.698  1.00  0.00    -0.014 A 
BRANCH  36  37
ATOM     37  C   UNL     1     -11.891   2.626   3.272  1.00  0.00     0.031 A 
ATOM     38  C   UNL     1     -13.384   2.452   3.202  1.00  0.00     0.074 A 
ATOM     39  C   UNL     1     -11.368   3.744   3.813  1.00  0.00     0.049 A 
ATOM     40  N   UNL     1     -14.328   3.257   3.622  1.00  0.00    -0.248 NA
ATOM     41  C   UNL     1     -13.884   1.226   2.560  1.00  0.00     0.031 C 
ATOM     42  C   UNL     1      -9.939   4.054   3.900  1.00  0.00     0.029 A 
ATOM     43  N   UNL     1     -11.979   4.831   4.387  1.00  0.00    -0.354 N 
ATOM     44  C   UNL     1     -15.529   2.647   3.280  1.00  0.00     0.074 A 
ATOM     45  C   UNL     1     -15.195   1.422   2.586  1.00  0.00     0.031 C 
ATOM     46  C   UNL     1      -9.783   5.240   4.510  1.00  0.00     0.029 A 
ATOM     47  C   UNL     1     -11.097   5.789   4.829  1.00  0.00     0.049 A 
ATOM     48  H   UNL     1     -12.956   4.917   4.474  1.00  0.00     0.167 HD
ATOM     49  C   UNL     1     -16.795   3.060   3.533  1.00  0.00     0.031 A 
ATOM     50  C   UNL     1     -11.318   6.978   5.422  1.00  0.00     0.031 A 
ATOM     51  C   UNL     1     -17.126   4.272   4.237  1.00  0.00     0.049 A 
ATOM     52  C   UNL     1     -12.730   7.406   5.708  1.00  0.00     0.074 A 
ATOM     53  C   UNL     1     -18.377   4.744   4.598  1.00  0.00     0.029 A 
ATOM     54  N   UNL     1     -16.204   5.205   4.685  1.00  0.00    -0.354 N 
ATOM     55  N   UNL     1     -13.850   6.781   5.436  1.00  0.00    -0.248 NA
ATOM     56  C   UNL     1     -12.905   8.694   6.392  1.00  0.00     0.031 C 
ATOM     57  C   UNL     1     -18.213   5.983   5.227  1.00  0.00     0.029 A 
ATOM     58  C   UNL     1     -16.858   6.260   5.300  1.00  0.00     0.049 A 
ATOM     59  H   UNL     1     -15.228   5.129   4.582  1.00  0.00     0.167 HD
ATOM     60  C   UNL     1     -14.864   7.593   5.930  1.00  0.00     0.074 A 
ATOM     61  C   UNL     1     -14.223   8.743   6.535  1.00  0.00     0.031 C 
ATOM     62  C   UNL     1     -16.206   7.404   5.886  1.00  0.00     0.031 A 
BRANCH  49  63
ATOM     63  C   UNL     1     -17.922   2.193   3.038  1.00  0.00    -0.014 A 
ATOM     64  C   UNL     1     -18.207   0.957   3.645  1.00  0.00     0.010 A 
ATOM     65  C   UNL     1     -18.733   2.638   1.977  1.00  0.00     0.010 A 
ATOM     66  C   UNL     1     -19.256   0.162   3.174  1.00  0.00     0.020 A 
ATOM     67  C   UNL     1     -19.798   1.856   1.519  1.00  0.00     0.020 A 
ATOM     68  C   UNL     1     -20.041   0.614   2.109  1.00  0.00     0.054 A 
BRANCH  68  69
ATOM     69  S   UNL     1     -21.407  -0.429   1.528  1.00  0.00     0.124 S 
ATOM     70  O   UNL     1     -20.697  -1.467   0.786  1.00  0.00    -0.237 OA
ATOM     71  O   UNL     1     -22.033  -0.865   2.774  1.00  0.00    -0.237 OA
ATOM     72  O   UNL     1     -22.214   0.478   0.715  1.00  0.00    -0.744 OA
ENDBRANCH  68  69
ENDBRANCH  49  63
BRANCH  50  73
ATOM     73  C   UNL     1     -10.167   7.841   5.798  1.00  0.00    -0.014 A 
ATOM     74  C   UNL     1      -9.794   7.985   7.146  1.00  0.00     0.010 A 
ATOM     75  C   UNL     1      -9.425   8.506   4.806  1.00  0.00     0.010 A 
ATOM     76  C   UNL     1      -8.708   8.791   7.497  1.00  0.00     0.020 A 
ATOM     77  C   UNL     1      -8.324   9.294   5.151  1.00  0.00     0.020 A 
ATOM     78  C   UNL     1      -7.979   9.441   6.496  1.00  0.00     0.054 A 
BRANCH  78  79
ATOM     79  S   UNL     1      -6.536  10.436   6.966  1.00  0.00     0.124 S 
ATOM     80  O   UNL     1      -7.161  11.656   7.468  1.00  0.00    -0.237 OA
ATOM     81  O   UNL     1      -5.884   9.599   7.970  1.00  0.00    -0.237 OA
ATOM     82  O   UNL     1      -5.799  10.579   5.712  1.00  0.00    -0.744 OA
ENDBRANCH  78  79
ENDBRANCH  50  73
BRANCH  62  83
ATOM     83  C   UNL     1     -17.068   8.460   6.523  1.00  0.00    -0.014 A 
ATOM     84  C   UNL     1     -17.248   9.714   5.912  1.00  0.00     0.010 A 
ATOM     85  C   UNL     1     -17.726   8.185   7.735  1.00  0.00     0.010 A 
ATOM     86  C   UNL     1     -18.041  10.689   6.522  1.00  0.00     0.020 A 
ATOM     87  C   UNL     1     -18.539   9.150   8.336  1.00  0.00     0.020 A 
ATOM     88  C   UNL     1     -18.677  10.403   7.734  1.00  0.00     0.054 A 
BRANCH  88  89
ATOM     89  S   UNL     1     -19.720  11.675   8.498  1.00  0.00     0.124 S 
ATOM     90  O   UNL     1     -18.727  12.568   9.086  1.00  0.00    -0.237 OA
ATOM     91  O   UNL     1     -20.457  12.216   7.359  1.00  0.00    -0.237 OA
ATOM     92  O   UNL     1     -20.531  10.926   9.456  1.00  0.00    -0.744 OA
ENDBRANCH  88  89
ENDBRANCH  62  83
ENDBRANCH  36  37
ENDBRANCH  28  31
ENDBRANCH  26  27
ENDBRANCH   1  26
TORSDOF 16
