REMARK SMILES Cc1cc(=O)c(Oc2ccc(C(=O)NCCCNC(=O)c3ccc(-c4c5nc(c(-c6ccc(S(=O)(=O)[O-])cc6)c6ccc([nH]6)c(-c6ccc(S(=O)(=O)[O-])cc6)c6nc(c(-c7ccc(S(=O)(=O)[O-])cc7)c7ccc4[nH]7)C=C6)C=C5)cc3)cc2)c(-c2ccc(S(C)(=O)=O)cc2)o1
REMARK SMILES IDX 15 1 14 2 12 3 13 4 11 6 8 7 9 8 82 9 10 10 81 11 7 12 6 13
REMARK SMILES IDX 1 14 2 15 3 16 94 17 4 18 83 19 5 20 84 21 85 22 93 23 86 24
REMARK SMILES IDX 92 25 87 26 88 27 89 28 90 29 91 30 16 31 17 32 18 33 19 34
REMARK SMILES IDX 20 36 21 37 22 38 80 39 23 40 79 41 24 42 25 43 26 44 73 45
REMARK SMILES IDX 27 46 78 47 72 48 74 49 28 50 77 51 71 52 70 53 29 55 59 56
REMARK SMILES IDX 40 57 58 58 41 59 44 60 57 61 75 62 42 63 43 64 56 66 76 67
REMARK SMILES IDX 45 68 30 69 31 70 39 71 32 72 38 73 33 74 34 75 35 76 36 77
REMARK SMILES IDX 37 78 60 79 61 80 69 81 62 82 68 83 63 84 64 85 65 86 66 87
REMARK SMILES IDX 67 88 46 89 47 90 55 91 48 92 54 93 49 94 50 95 51 96 52 97
REMARK SMILES IDX 53 98
REMARK H PARENT 14 5 18 35 74 54 44 65
REMARK Flexibility Score: inf
ROOT
ATOM      1  C   UNL     1       1.560   6.525   8.428  1.00  0.00     0.118 C 
ENDROOT
BRANCH   1   2
ATOM      2  N   UNL     1       0.521   7.284   7.750  1.00  0.00    -0.352 N 
ATOM      3  C   UNL     1      -0.657   6.910   7.148  1.00  0.00     0.251 C 
ATOM      4  O   UNL     1      -1.438   7.792   6.792  1.00  0.00    -0.269 OA
ATOM      5  H   UNL     1       0.695   8.253   7.715  1.00  0.00     0.163 HD
BRANCH   3   6
ATOM      6  C   UNL     1      -0.969   5.497   6.807  1.00  0.00     0.040 A 
ATOM      7  C   UNL     1      -1.099   2.944   5.708  1.00  0.00     0.127 A 
ATOM      8  C   UNL     1      -1.796   3.979   5.098  1.00  0.00     0.048 A 
ATOM      9  C   UNL     1      -0.552   3.128   6.976  1.00  0.00     0.048 A 
ATOM     10  C   UNL     1      -1.692   5.268   5.625  1.00  0.00     0.017 A 
ATOM     11  C   UNL     1      -0.531   4.400   7.546  1.00  0.00     0.017 A 
BRANCH   7  12
ATOM     12  O   UNL     1      -0.992   1.699   5.166  1.00  0.00    -0.449 OA
BRANCH  12  13
ATOM     13  C   UNL     1      -0.409   1.434   3.934  1.00  0.00     0.217 A 
ATOM     14  C   UNL     1       1.047   0.117   0.082  1.00  0.00     0.088 C 
ATOM     15  C   UNL     1       0.546   0.449   1.450  1.00  0.00     0.105 A 
ATOM     16  C   UNL     1      -0.036  -0.447   2.248  1.00  0.00     0.098 A 
ATOM     17  O   UNL     1       0.727   1.764   1.820  1.00  0.00    -0.457 OA
ATOM     18  C   UNL     1      -0.537  -0.012   3.558  1.00  0.00     0.228 A 
ATOM     19  C   UNL     1       0.258   2.225   3.049  1.00  0.00     0.180 A 
ATOM     20  O   UNL     1      -1.064  -0.839   4.298  1.00  0.00    -0.285 OA
BRANCH  19  21
ATOM     21  C   UNL     1       0.563   3.664   3.176  1.00  0.00     0.021 A 
ATOM     22  C   UNL     1      -0.120   4.584   2.360  1.00  0.00     0.013 A 
ATOM     23  C   UNL     1       1.526   4.138   4.078  1.00  0.00     0.013 A 
ATOM     24  C   UNL     1       0.087   5.959   2.506  1.00  0.00     0.021 A 
ATOM     25  C   UNL     1       1.747   5.514   4.221  1.00  0.00     0.021 A 
ATOM     26  C   UNL     1       1.015   6.417   3.445  1.00  0.00     0.067 A 
BRANCH  26  27
ATOM     27  S   UNL     1       1.171   8.169   3.718  1.00  0.00     0.175 S 
ATOM     28  C   UNL     1       2.155   8.722   2.353  1.00  0.00     0.163 C 
ATOM     29  O   UNL     1      -0.151   8.744   3.568  1.00  0.00    -0.224 OA
ATOM     30  O   UNL     1       1.944   8.365   4.932  1.00  0.00    -0.224 OA
ENDBRANCH  26  27
ENDBRANCH  19  21
ENDBRANCH  12  13
ENDBRANCH   7  12
ENDBRANCH   3   6
ENDBRANCH   1   2
BRANCH   1  31
ATOM     31  C   UNL     1       2.982   7.013   8.203  1.00  0.00     0.042 C 
BRANCH  31  32
ATOM     32  C   UNL     1       3.243   8.470   8.539  1.00  0.00     0.118 C 
BRANCH  32  33
ATOM     33  N   UNL     1       3.070   8.789   9.953  1.00  0.00    -0.352 N 
ATOM     34  C   UNL     1       3.975   8.970  10.974  1.00  0.00     0.251 C 
ATOM     35  H   UNL     1       2.130   8.894  10.227  1.00  0.00     0.163 HD
ATOM     36  O   UNL     1       3.561   9.116  12.122  1.00  0.00    -0.269 OA
BRANCH  34  37
ATOM     37  C   UNL     1       5.435   8.935  10.723  1.00  0.00     0.039 A 
ATOM     38  C   UNL     1       5.990   9.509   9.583  1.00  0.00     0.014 A 
ATOM     39  C   UNL     1       6.275   8.309  11.652  1.00  0.00     0.014 A 
ATOM     40  C   UNL     1       7.312   9.241   9.246  1.00  0.00     0.010 A 
ATOM     41  C   UNL     1       7.639   8.157  11.374  1.00  0.00     0.010 A 
ATOM     42  C   UNL     1       8.158   8.558  10.134  1.00  0.00    -0.014 A 
BRANCH  42  43
ATOM     43  C   UNL     1       9.565   8.274   9.737  1.00  0.00     0.031 A 
ATOM     44  C   UNL     1      10.068   6.855   9.637  1.00  0.00     0.074 A 
ATOM     45  C   UNL     1      10.377   9.297   9.398  1.00  0.00     0.049 A 
ATOM     46  N   UNL     1      11.254   6.428   9.281  1.00  0.00    -0.248 NA
ATOM     47  C   UNL     1       9.128   5.774   9.980  1.00  0.00     0.031 C 
ATOM     48  C   UNL     1       9.999  10.712   9.425  1.00  0.00     0.029 A 
ATOM     49  N   UNL     1      11.668   9.311   8.930  1.00  0.00    -0.354 N 
ATOM     50  C   UNL     1      11.207   5.041   9.375  1.00  0.00     0.074 A 
ATOM     51  C   UNL     1       9.889   4.695   9.857  1.00  0.00     0.031 C 
ATOM     52  C   UNL     1      11.003  11.446   8.927  1.00  0.00     0.029 A 
ATOM     53  C   UNL     1      12.132  10.571   8.629  1.00  0.00     0.049 A 
ATOM     54  H   UNL     1      12.211   8.497   8.820  1.00  0.00     0.167 HD
ATOM     55  C   UNL     1      12.170   4.139   9.070  1.00  0.00     0.031 A 
ATOM     56  C   UNL     1      13.332  10.991   8.180  1.00  0.00     0.031 A 
ATOM     57  C   UNL     1      13.474   4.492   8.568  1.00  0.00     0.049 A 
ATOM     58  C   UNL     1      14.403   9.976   7.905  1.00  0.00     0.074 A 
ATOM     59  C   UNL     1      14.507   3.644   8.208  1.00  0.00     0.029 A 
ATOM     60  N   UNL     1      13.924   5.785   8.348  1.00  0.00    -0.354 N 
ATOM     61  N   UNL     1      14.333   8.669   7.989  1.00  0.00    -0.248 NA
ATOM     62  C   UNL     1      15.713  10.483   7.476  1.00  0.00     0.031 C 
ATOM     63  C   UNL     1      15.607   4.424   7.849  1.00  0.00     0.029 A 
ATOM     64  C   UNL     1      15.232   5.758   7.894  1.00  0.00     0.049 A 
ATOM     65  H   UNL     1      13.393   6.601   8.493  1.00  0.00     0.167 HD
ATOM     66  C   UNL     1      15.584   8.196   7.611  1.00  0.00     0.074 A 
ATOM     67  C   UNL     1      16.384   9.356   7.274  1.00  0.00     0.031 C 
ATOM     68  C   UNL     1      16.026   6.916   7.557  1.00  0.00     0.031 A 
BRANCH  55  69
ATOM     69  C   UNL     1      11.873   2.670   9.257  1.00  0.00    -0.014 A 
ATOM     70  C   UNL     1      12.607   1.925  10.200  1.00  0.00     0.010 A 
ATOM     71  C   UNL     1      10.976   1.996   8.409  1.00  0.00     0.010 A 
ATOM     72  C   UNL     1      12.484   0.533  10.262  1.00  0.00     0.020 A 
ATOM     73  C   UNL     1      10.825   0.608   8.491  1.00  0.00     0.020 A 
ATOM     74  C   UNL     1      11.601  -0.117   9.398  1.00  0.00     0.054 A 
BRANCH  74  75
ATOM     75  S   UNL     1      11.491  -1.927   9.458  1.00  0.00     0.124 S 
ATOM     76  O   UNL     1      12.753  -2.334   8.847  1.00  0.00    -0.237 OA
ATOM     77  O   UNL     1      11.368  -2.191  10.890  1.00  0.00    -0.237 OA
ATOM     78  O   UNL     1      10.293  -2.223   8.675  1.00  0.00    -0.744 OA
ENDBRANCH  74  75
ENDBRANCH  55  69
BRANCH  56  79
ATOM     79  C   UNL     1      13.550  12.449   7.955  1.00  0.00    -0.014 A 
ATOM     80  C   UNL     1      13.498  13.352   9.035  1.00  0.00     0.010 A 
ATOM     81  C   UNL     1      13.702  12.956   6.653  1.00  0.00     0.010 A 
ATOM     82  C   UNL     1      13.510  14.730   8.813  1.00  0.00     0.020 A 
ATOM     83  C   UNL     1      13.754  14.336   6.429  1.00  0.00     0.020 A 
ATOM     84  C   UNL     1      13.620  15.213   7.508  1.00  0.00     0.054 A 
BRANCH  84  85
ATOM     85  S   UNL     1      13.551  17.006   7.237  1.00  0.00     0.124 S 
ATOM     86  O   UNL     1      12.137  17.288   7.468  1.00  0.00    -0.237 OA
ATOM     87  O   UNL     1      14.468  17.516   8.253  1.00  0.00    -0.237 OA
ATOM     88  O   UNL     1      14.003  17.162   5.857  1.00  0.00    -0.744 OA
ENDBRANCH  84  85
ENDBRANCH  56  79
BRANCH  68  89
ATOM     89  C   UNL     1      17.447   6.667   7.118  1.00  0.00    -0.014 A 
ATOM     90  C   UNL     1      17.694   5.957   5.928  1.00  0.00     0.010 A 
ATOM     91  C   UNL     1      18.527   6.996   7.955  1.00  0.00     0.010 A 
ATOM     92  C   UNL     1      18.986   5.534   5.608  1.00  0.00     0.020 A 
ATOM     93  C   UNL     1      19.828   6.606   7.620  1.00  0.00     0.020 A 
ATOM     94  C   UNL     1      20.043   5.850   6.465  1.00  0.00     0.054 A 
BRANCH  94  95
ATOM     95  S   UNL     1      21.703   5.239   6.064  1.00  0.00     0.124 S 
ATOM     96  O   UNL     1      21.588   3.815   6.367  1.00  0.00    -0.237 OA
ATOM     97  O   UNL     1      21.833   5.572   4.648  1.00  0.00    -0.237 OA
ATOM     98  O   UNL     1      22.575   5.998   6.957  1.00  0.00    -0.744 OA
ENDBRANCH  94  95
ENDBRANCH  68  89
ENDBRANCH  42  43
ENDBRANCH  34  37
ENDBRANCH  32  33
ENDBRANCH  31  32
ENDBRANCH   1  31
TORSDOF 17
