REMARK SMILES CCC(CC)(NC(=O)NC[C@H](C)[NH+]1CCCCC1)C(=O)NCCCNC(=O)c1ccc(-c2c3nc(c(-c4ccc(S(=O)(=O)[O-])cc4)c4ccc([nH]4)c(-c4ccc(S(=O)(=O)[O-])cc4)c4nc(c(-c5ccc(S(=O)(=O)[O-])cc5)c5ccc2[nH]5)C=C4)C=C3)cc1
REMARK SMILES IDX 22 1 21 2 19 3 20 4 3 6 2 7 1 8 4 9 5 10 6 11 7 12 8 14 9 15
REMARK SMILES IDX 10 17 11 18 12 19 13 20 14 21 18 22 15 24 17 25 16 26 23 27
REMARK SMILES IDX 24 28 25 29 26 30 27 32 28 33 29 34 87 35 30 36 86 37 31 38
REMARK SMILES IDX 32 39 33 40 80 41 34 42 85 43 79 44 81 45 35 46 84 47 78 48
REMARK SMILES IDX 77 49 36 51 66 52 47 53 65 54 48 55 51 56 64 57 82 58 49 59
REMARK SMILES IDX 50 60 63 62 83 63 52 64 37 65 38 66 46 67 39 68 45 69 40 70
REMARK SMILES IDX 41 71 42 72 43 73 44 74 67 75 68 76 76 77 69 78 75 79 70 80
REMARK SMILES IDX 71 81 72 82 73 83 74 84 53 85 54 86 62 87 55 88 61 89 56 90
REMARK SMILES IDX 57 91 58 92 59 93 60 94
REMARK H PARENT 21 5 6 13 9 16 13 23 25 31 81 50 51 61
REMARK Flexibility Score: inf
ROOT
ATOM      1  C   UNL     1       4.321  -3.207   4.290  1.00  0.00     0.117 C 
ENDROOT
BRANCH   1   2
ATOM      2  N   UNL     1       4.144  -4.165   3.196  1.00  0.00    -0.354 N 
ATOM      3  C   UNL     1       4.727  -5.383   2.893  1.00  0.00     0.245 C 
ATOM      4  O   UNL     1       3.999  -6.183   2.292  1.00  0.00    -0.272 OA
ATOM      5  H   UNL     1       3.467  -3.883   2.539  1.00  0.00     0.163 HD
BRANCH   3   6
ATOM      6  C   UNL     1       6.169  -5.797   3.343  1.00  0.00     0.120 C 
BRANCH   6   7
ATOM      7  C   UNL     1       6.774  -7.058   2.623  1.00  0.00     0.035 C 
ATOM      8  C   UNL     1       6.099  -8.414   2.772  1.00  0.00     0.007 C 
ENDBRANCH   6   7
BRANCH   6   9
ATOM      9  C   UNL     1       6.124  -6.090   4.882  1.00  0.00     0.035 C 
ATOM     10  C   UNL     1       7.459  -6.134   5.622  1.00  0.00     0.007 C 
ENDBRANCH   6   9
BRANCH   6  11
ATOM     11  N   UNL     1       7.056  -4.656   3.017  1.00  0.00    -0.324 N 
ATOM     12  C   UNL     1       7.725  -4.426   1.873  1.00  0.00     0.315 C 
ATOM     13  H   UNL     1       7.169  -3.982   3.725  1.00  0.00     0.166 HD
ATOM     14  O   UNL     1       8.899  -4.059   1.976  1.00  0.00    -0.249 OA
ATOM     15  N   UNL     1       7.213  -4.525   0.640  1.00  0.00    -0.332 N 
ATOM     16  H   UNL     1       7.916  -4.663  -0.035  1.00  0.00     0.165 HD
BRANCH  15  17
ATOM     17  C   UNL     1       5.882  -4.483   0.032  1.00  0.00     0.182 C 
BRANCH  17  18
ATOM     18  C   UNL     1       5.075  -3.136   0.109  1.00  0.00     0.200 C 
ATOM     19  C   UNL     1       3.801  -3.299  -0.759  1.00  0.00     0.077 C 
BRANCH  18  20
ATOM     20  N   UNL     1       5.822  -1.872  -0.162  1.00  0.00    -0.331 N 
ATOM     21  C   UNL     1       6.983  -1.687   0.708  1.00  0.00     0.262 C 
ATOM     22  C   UNL     1       5.016  -0.689  -0.445  1.00  0.00     0.262 C 
ATOM     23  H   UNL     1       6.233  -2.017  -1.085  1.00  0.00     0.348 HD
ATOM     24  C   UNL     1       7.416  -0.317   1.203  1.00  0.00     0.062 C 
ATOM     25  C   UNL     1       5.535   0.669   0.029  1.00  0.00     0.062 C 
ATOM     26  C   UNL     1       7.020   0.776   0.254  1.00  0.00     0.012 C 
ENDBRANCH  18  20
ENDBRANCH  17  18
ENDBRANCH  15  17
ENDBRANCH   6  11
ENDBRANCH   3   6
ENDBRANCH   1   2
BRANCH   1  27
ATOM     27  C   UNL     1       4.793  -1.768   4.019  1.00  0.00     0.042 C 
BRANCH  27  28
ATOM     28  C   UNL     1       4.064  -0.816   3.056  1.00  0.00     0.118 C 
BRANCH  28  29
ATOM     29  N   UNL     1       2.680  -0.473   3.328  1.00  0.00    -0.352 N 
ATOM     30  C   UNL     1       1.926   0.552   2.765  1.00  0.00     0.251 C 
ATOM     31  H   UNL     1       2.218  -1.034   3.992  1.00  0.00     0.163 HD
ATOM     32  O   UNL     1       0.701   0.512   2.860  1.00  0.00    -0.269 OA
BRANCH  30  33
ATOM     33  C   UNL     1       2.547   1.705   2.050  1.00  0.00     0.039 A 
ATOM     34  C   UNL     1       3.009   2.816   2.754  1.00  0.00     0.014 A 
ATOM     35  C   UNL     1       2.562   1.767   0.655  1.00  0.00     0.014 A 
ATOM     36  C   UNL     1       3.589   3.913   2.070  1.00  0.00     0.010 A 
ATOM     37  C   UNL     1       3.226   2.830  -0.013  1.00  0.00     0.010 A 
ATOM     38  C   UNL     1       3.817   3.906   0.676  1.00  0.00    -0.014 A 
BRANCH  38  39
ATOM     39  C   UNL     1       4.725   4.948   0.011  1.00  0.00     0.031 A 
ATOM     40  C   UNL     1       4.405   5.630  -1.323  1.00  0.00     0.074 A 
ATOM     41  C   UNL     1       5.929   5.270   0.557  1.00  0.00     0.049 A 
ATOM     42  N   UNL     1       5.107   6.531  -1.983  1.00  0.00    -0.248 NA
ATOM     43  C   UNL     1       3.177   5.233  -2.022  1.00  0.00     0.031 C 
ATOM     44  C   UNL     1       6.514   4.668   1.758  1.00  0.00     0.029 A 
ATOM     45  N   UNL     1       6.889   6.195   0.177  1.00  0.00    -0.354 N 
ATOM     46  C   UNL     1       4.425   6.775  -3.175  1.00  0.00     0.074 A 
ATOM     47  C   UNL     1       3.290   5.877  -3.177  1.00  0.00     0.031 C 
ATOM     48  C   UNL     1       7.667   5.284   2.060  1.00  0.00     0.029 A 
ATOM     49  C   UNL     1       7.962   6.289   1.044  1.00  0.00     0.049 A 
ATOM     50  H   UNL     1       6.814   6.739  -0.640  1.00  0.00     0.167 HD
ATOM     51  C   UNL     1       4.671   7.675  -4.167  1.00  0.00     0.031 A 
ATOM     52  C   UNL     1       9.065   7.071   1.053  1.00  0.00     0.031 A 
ATOM     53  C   UNL     1       5.759   8.622  -4.195  1.00  0.00     0.049 A 
ATOM     54  C   UNL     1       9.309   8.083  -0.038  1.00  0.00     0.074 A 
ATOM     55  C   UNL     1       5.994   9.632  -5.118  1.00  0.00     0.029 A 
ATOM     56  N   UNL     1       6.794   8.685  -3.279  1.00  0.00    -0.354 N 
ATOM     57  N   UNL     1       8.567   8.368  -1.078  1.00  0.00    -0.248 NA
ATOM     58  C   UNL     1      10.542   8.885   0.055  1.00  0.00     0.031 C 
ATOM     59  C   UNL     1       7.197  10.267  -4.792  1.00  0.00     0.029 A 
ATOM     60  C   UNL     1       7.681   9.694  -3.630  1.00  0.00     0.049 A 
ATOM     61  H   UNL     1       6.887   8.100  -2.492  1.00  0.00     0.167 HD
ATOM     62  C   UNL     1       9.230   9.398  -1.744  1.00  0.00     0.074 A 
ATOM     63  C   UNL     1      10.419   9.702  -0.982  1.00  0.00     0.031 C 
ATOM     64  C   UNL     1       8.872  10.026  -2.890  1.00  0.00     0.031 A 
BRANCH  51  65
ATOM     65  C   UNL     1       3.703   7.715  -5.331  1.00  0.00    -0.014 A 
ATOM     66  C   UNL     1       2.385   8.176  -5.157  1.00  0.00     0.010 A 
ATOM     67  C   UNL     1       4.132   7.358  -6.625  1.00  0.00     0.010 A 
ATOM     68  C   UNL     1       1.497   8.214  -6.235  1.00  0.00     0.020 A 
ATOM     69  C   UNL     1       3.256   7.428  -7.714  1.00  0.00     0.020 A 
ATOM     70  C   UNL     1       1.936   7.832  -7.506  1.00  0.00     0.054 A 
BRANCH  70  71
ATOM     71  S   UNL     1       0.754   7.893  -8.882  1.00  0.00     0.124 S 
ATOM     72  O   UNL     1      -0.113   6.757  -8.581  1.00  0.00    -0.237 OA
ATOM     73  O   UNL     1       0.145   9.207  -8.726  1.00  0.00    -0.237 OA
ATOM     74  O   UNL     1       1.596   7.734 -10.070  1.00  0.00    -0.744 OA
ENDBRANCH  70  71
ENDBRANCH  51  65
BRANCH  52  75
ATOM     75  C   UNL     1      10.055   6.957   2.168  1.00  0.00    -0.014 A 
ATOM     76  C   UNL     1      10.196   8.001   3.103  1.00  0.00     0.010 A 
ATOM     77  C   UNL     1      10.881   5.825   2.284  1.00  0.00     0.010 A 
ATOM     78  C   UNL     1      11.158   7.925   4.115  1.00  0.00     0.020 A 
ATOM     79  C   UNL     1      11.821   5.731   3.316  1.00  0.00     0.020 A 
ATOM     80  C   UNL     1      11.962   6.787   4.218  1.00  0.00     0.054 A 
BRANCH  80  81
ATOM     81  S   UNL     1      13.169   6.690   5.571  1.00  0.00     0.124 S 
ATOM     82  O   UNL     1      14.185   7.643   5.143  1.00  0.00    -0.237 OA
ATOM     83  O   UNL     1      12.373   7.087   6.730  1.00  0.00    -0.237 OA
ATOM     84  O   UNL     1      13.580   5.286   5.561  1.00  0.00    -0.744 OA
ENDBRANCH  80  81
ENDBRANCH  52  75
BRANCH  64  85
ATOM     85  C   UNL     1       9.751  11.144  -3.399  1.00  0.00    -0.014 A 
ATOM     86  C   UNL     1      11.026  10.890  -3.937  1.00  0.00     0.010 A 
ATOM     87  C   UNL     1       9.269  12.467  -3.397  1.00  0.00     0.010 A 
ATOM     88  C   UNL     1      11.809  11.936  -4.439  1.00  0.00     0.020 A 
ATOM     89  C   UNL     1      10.037  13.512  -3.922  1.00  0.00     0.020 A 
ATOM     90  C   UNL     1      11.308  13.241  -4.432  1.00  0.00     0.054 A 
BRANCH  90  91
ATOM     91  S   UNL     1      12.320  14.572  -5.141  1.00  0.00     0.124 S 
ATOM     92  O   UNL     1      13.376  14.719  -4.142  1.00  0.00    -0.237 OA
ATOM     93  O   UNL     1      12.741  14.007  -6.421  1.00  0.00    -0.237 OA
ATOM     94  O   UNL     1      11.396  15.699  -5.238  1.00  0.00    -0.744 OA
ENDBRANCH  90  91
ENDBRANCH  64  85
ENDBRANCH  38  39
ENDBRANCH  30  33
ENDBRANCH  28  29
ENDBRANCH  27  28
ENDBRANCH   1  27
TORSDOF 19
