REMARK SMILES CC(C)[C@@H](CCNC(=O)N1C[C@@H](C)[C@H](C)C1)CCC(=O)NCCCNC(=O)c1ccc(-c2c3nc(c(-c4ccc(S(=O)(=O)[O-])cc4)c4ccc([nH]4)c(-c4ccc(S(=O)(=O)[O-])cc4)c4nc(c(-c5ccc(S(=O)(=O)[O-])cc5)c5ccc2[nH]5)C=C4)C=C3)cc1
REMARK SMILES IDX 22 1 21 2 19 3 20 4 18 6 17 7 4 8 2 9 1 10 3 11 5 12 6 13
REMARK SMILES IDX 7 14 8 15 9 17 10 18 11 19 16 20 12 21 14 22 13 23 15 24
REMARK SMILES IDX 23 25 24 26 25 27 26 28 27 30 28 31 29 32 87 33 30 34 86 35
REMARK SMILES IDX 31 36 32 37 33 38 80 39 34 40 85 41 79 42 81 43 35 44 84 45
REMARK SMILES IDX 78 46 77 47 36 49 66 50 47 51 65 52 48 53 51 54 64 55 82 56
REMARK SMILES IDX 49 57 50 58 63 60 83 61 52 62 37 63 38 64 46 65 39 66 45 67
REMARK SMILES IDX 40 68 41 69 42 70 43 71 44 72 67 73 68 74 76 75 69 76 75 77
REMARK SMILES IDX 70 78 71 79 72 80 73 81 74 82 53 83 54 84 62 85 55 86 61 87
REMARK SMILES IDX 56 88 57 89 58 90 59 91 60 92
REMARK H PARENT 21 5 7 16 25 29 81 48 51 59
REMARK Flexibility Score: inf
ROOT
ATOM      1  C   UNL     1      -0.790  -1.804  -2.549  1.00  0.00     0.117 C 
ENDROOT
BRANCH   1   2
ATOM      2  N   UNL     1      -1.832  -1.334  -3.441  1.00  0.00    -0.356 N 
ATOM      3  C   UNL     1      -2.097  -0.094  -3.937  1.00  0.00     0.220 C 
ATOM      4  O   UNL     1      -3.111   0.033  -4.628  1.00  0.00    -0.275 OA
ATOM      5  H   UNL     1      -2.458  -2.034  -3.740  1.00  0.00     0.163 HD
BRANCH   3   6
ATOM      6  C   UNL     1      -1.143   1.078  -3.740  1.00  0.00     0.100 C 
BRANCH   6   7
ATOM      7  C   UNL     1      -1.280   1.908  -2.449  1.00  0.00     0.014 C 
BRANCH   7   8
ATOM      8  C   UNL     1      -0.585   1.343  -1.191  1.00  0.00    -0.006 C 
BRANCH   8   9
ATOM      9  C   UNL     1       0.968   1.480  -1.079  1.00  0.00    -0.014 C 
ATOM     10  C   UNL     1       1.515   0.524  -0.002  1.00  0.00     0.007 C 
ATOM     11  C   UNL     1       1.773   1.256  -2.359  1.00  0.00     0.007 C 
ENDBRANCH   8   9
BRANCH   8  12
ATOM     12  C   UNL     1      -1.319   1.762   0.112  1.00  0.00     0.025 C 
BRANCH  12  13
ATOM     13  C   UNL     1      -0.877   3.063   0.776  1.00  0.00     0.118 C 
BRANCH  13  14
ATOM     14  N   UNL     1      -1.404   4.221   0.092  1.00  0.00    -0.338 N 
ATOM     15  C   UNL     1      -2.522   4.923   0.406  1.00  0.00     0.317 C 
ATOM     16  H   UNL     1      -0.895   4.536  -0.690  1.00  0.00     0.165 HD
ATOM     17  O   UNL     1      -3.159   5.425  -0.520  1.00  0.00    -0.249 OA
ATOM     18  N   UNL     1      -2.883   5.046   1.715  1.00  0.00    -0.324 N 
ATOM     19  C   UNL     1      -4.194   5.521   2.096  1.00  0.00     0.125 C 
ATOM     20  C   UNL     1      -1.998   5.042   2.869  1.00  0.00     0.125 C 
ATOM     21  C   UNL     1      -3.919   6.507   3.225  1.00  0.00     0.010 C 
ATOM     22  C   UNL     1      -2.634   5.981   3.897  1.00  0.00     0.010 C 
ATOM     23  C   UNL     1      -5.084   6.598   4.200  1.00  0.00     0.010 C 
ATOM     24  C   UNL     1      -1.684   7.108   4.289  1.00  0.00     0.010 C 
ENDBRANCH  13  14
ENDBRANCH  12  13
ENDBRANCH   8  12
ENDBRANCH   7   8
ENDBRANCH   6   7
ENDBRANCH   3   6
ENDBRANCH   1   2
BRANCH   1  25
ATOM     25  C   UNL     1      -1.333  -1.996  -1.132  1.00  0.00     0.042 C 
BRANCH  25  26
ATOM     26  C   UNL     1      -1.690  -3.430  -0.810  1.00  0.00     0.118 C 
BRANCH  26  27
ATOM     27  N   UNL     1      -0.499  -4.256  -0.655  1.00  0.00    -0.352 N 
ATOM     28  C   UNL     1      -0.062  -4.996   0.418  1.00  0.00     0.251 C 
ATOM     29  H   UNL     1       0.086  -4.290  -1.446  1.00  0.00     0.163 HD
ATOM     30  O   UNL     1       1.078  -5.445   0.406  1.00  0.00    -0.269 OA
BRANCH  28  31
ATOM     31  C   UNL     1      -0.944  -5.229   1.587  1.00  0.00     0.039 A 
ATOM     32  C   UNL     1      -0.374  -5.321   2.860  1.00  0.00     0.014 A 
ATOM     33  C   UNL     1      -2.324  -5.373   1.438  1.00  0.00     0.014 A 
ATOM     34  C   UNL     1      -1.194  -5.500   3.977  1.00  0.00     0.010 A 
ATOM     35  C   UNL     1      -3.146  -5.415   2.557  1.00  0.00     0.010 A 
ATOM     36  C   UNL     1      -2.591  -5.511   3.838  1.00  0.00    -0.014 A 
BRANCH  36  37
ATOM     37  C   UNL     1      -3.492  -5.662   5.009  1.00  0.00     0.031 A 
ATOM     38  C   UNL     1      -4.458  -6.820   5.064  1.00  0.00     0.074 A 
ATOM     39  C   UNL     1      -3.494  -4.726   5.979  1.00  0.00     0.049 A 
ATOM     40  N   UNL     1      -5.376  -7.085   5.957  1.00  0.00    -0.248 NA
ATOM     41  C   UNL     1      -4.416  -7.788   3.952  1.00  0.00     0.031 C 
ATOM     42  C   UNL     1      -2.650  -3.526   6.003  1.00  0.00     0.029 A 
ATOM     43  N   UNL     1      -4.236  -4.628   7.128  1.00  0.00    -0.354 N 
ATOM     44  C   UNL     1      -6.039  -8.217   5.496  1.00  0.00     0.074 A 
ATOM     45  C   UNL     1      -5.456  -8.563   4.221  1.00  0.00     0.031 C 
ATOM     46  C   UNL     1      -2.901  -2.833   7.126  1.00  0.00     0.029 A 
ATOM     47  C   UNL     1      -3.954  -3.508   7.876  1.00  0.00     0.049 A 
ATOM     48  H   UNL     1      -4.908  -5.296   7.393  1.00  0.00     0.167 HD
ATOM     49  C   UNL     1      -7.030  -8.919   6.091  1.00  0.00     0.031 A 
ATOM     50  C   UNL     1      -4.491  -3.067   9.030  1.00  0.00     0.031 A 
ATOM     51  C   UNL     1      -7.572  -8.595   7.382  1.00  0.00     0.049 A 
ATOM     52  C   UNL     1      -5.569  -3.888   9.688  1.00  0.00     0.074 A 
ATOM     53  C   UNL     1      -8.508  -9.298   8.120  1.00  0.00     0.029 A 
ATOM     54  N   UNL     1      -7.228  -7.478   8.127  1.00  0.00    -0.354 N 
ATOM     55  N   UNL     1      -6.112  -5.011   9.281  1.00  0.00    -0.248 NA
ATOM     56  C   UNL     1      -6.095  -3.391  10.966  1.00  0.00     0.031 C 
ATOM     57  C   UNL     1      -8.779  -8.570   9.282  1.00  0.00     0.029 A 
ATOM     58  C   UNL     1      -7.958  -7.454   9.301  1.00  0.00     0.049 A 
ATOM     59  H   UNL     1      -6.563  -6.803   7.859  1.00  0.00     0.167 HD
ATOM     60  C   UNL     1      -7.022  -5.369  10.269  1.00  0.00     0.074 A 
ATOM     61  C   UNL     1      -6.940  -4.356  11.301  1.00  0.00     0.031 C 
ATOM     62  C   UNL     1      -7.854  -6.439  10.319  1.00  0.00     0.031 A 
BRANCH  49  63
ATOM     63  C   UNL     1      -7.599 -10.108   5.360  1.00  0.00    -0.014 A 
ATOM     64  C   UNL     1      -6.851 -11.284   5.176  1.00  0.00     0.010 A 
ATOM     65  C   UNL     1      -8.935 -10.072   4.918  1.00  0.00     0.010 A 
ATOM     66  C   UNL     1      -7.419 -12.393   4.543  1.00  0.00     0.020 A 
ATOM     67  C   UNL     1      -9.517 -11.189   4.312  1.00  0.00     0.020 A 
ATOM     68  C   UNL     1      -8.751 -12.340   4.120  1.00  0.00     0.054 A 
BRANCH  68  69
ATOM     69  S   UNL     1      -9.480 -13.818   3.362  1.00  0.00     0.124 S 
ATOM     70  O   UNL     1      -8.800 -13.861   2.071  1.00  0.00    -0.237 OA
ATOM     71  O   UNL     1      -9.111 -14.873   4.302  1.00  0.00    -0.237 OA
ATOM     72  O   UNL     1     -10.907 -13.510   3.304  1.00  0.00    -0.744 OA
ENDBRANCH  68  69
ENDBRANCH  49  63
BRANCH  50  73
ATOM     73  C   UNL     1      -4.027  -1.787   9.636  1.00  0.00    -0.014 A 
ATOM     74  C   UNL     1      -3.329  -1.776  10.856  1.00  0.00     0.010 A 
ATOM     75  C   UNL     1      -4.298  -0.563   8.996  1.00  0.00     0.010 A 
ATOM     76  C   UNL     1      -2.944  -0.565  11.443  1.00  0.00     0.020 A 
ATOM     77  C   UNL     1      -3.885   0.646   9.561  1.00  0.00     0.020 A 
ATOM     78  C   UNL     1      -3.227   0.638  10.792  1.00  0.00     0.054 A 
BRANCH  78  79
ATOM     79  S   UNL     1      -2.702   2.196  11.559  1.00  0.00     0.124 S 
ATOM     80  O   UNL     1      -3.644   2.322  12.666  1.00  0.00    -0.237 OA
ATOM     81  O   UNL     1      -1.318   1.914  11.931  1.00  0.00    -0.237 OA
ATOM     82  O   UNL     1      -2.862   3.175  10.485  1.00  0.00    -0.744 OA
ENDBRANCH  78  79
ENDBRANCH  50  73
BRANCH  62  83
ATOM     83  C   UNL     1      -8.709  -6.596  11.547  1.00  0.00    -0.014 A 
ATOM     84  C   UNL     1      -9.789  -5.735  11.803  1.00  0.00     0.010 A 
ATOM     85  C   UNL     1      -8.458  -7.665  12.428  1.00  0.00     0.010 A 
ATOM     86  C   UNL     1     -10.580  -5.916  12.940  1.00  0.00     0.020 A 
ATOM     87  C   UNL     1      -9.267  -7.869  13.547  1.00  0.00     0.020 A 
ATOM     88  C   UNL     1     -10.314  -6.983  13.804  1.00  0.00     0.054 A 
BRANCH  88  89
ATOM     89  S   UNL     1     -11.380  -7.218  15.252  1.00  0.00     0.124 S 
ATOM     90  O   UNL     1     -10.967  -6.115  16.115  1.00  0.00    -0.237 OA
ATOM     91  O   UNL     1     -12.720  -7.105  14.684  1.00  0.00    -0.237 OA
ATOM     92  O   UNL     1     -11.023  -8.551  15.732  1.00  0.00    -0.744 OA
ENDBRANCH  88  89
ENDBRANCH  62  83
ENDBRANCH  36  37
ENDBRANCH  28  31
ENDBRANCH  26  27
ENDBRANCH  25  26
ENDBRANCH   1  25
TORSDOF 19
