REMARK SMILES O=C(C[C@@H](C(=O)NCCCNC(=O)c1ccc(-c2c3nc(c(-c4ccc(S(=O)(=O)[O-])cc4)c4ccc([nH]4)c(-c4ccc(S(=O)(=O)[O-])cc4)c4nc(c(-c5ccc(S(=O)(=O)[O-])cc5)c5ccc2[nH]5)C=C4)C=C3)cc1)[NH+]1CCN(c2cccc(Cl)c2)CC1)c1ccc(F)cc1
REMARK SMILES IDX 9 1 8 2 7 3 5 4 6 5 4 7 3 8 2 9 1 10 87 11 88 12 93 13 89 14
REMARK SMILES IDX 92 15 90 16 91 17 74 18 75 19 86 20 76 22 85 23 77 24 78 25
REMARK SMILES IDX 79 26 84 27 80 28 82 29 81 30 83 31 10 32 11 33 12 34 13 36
REMARK SMILES IDX 14 37 15 38 73 39 16 40 72 41 17 42 18 43 19 44 66 45 20 46
REMARK SMILES IDX 71 47 65 48 67 49 21 50 70 51 64 52 63 53 22 55 52 56 33 57
REMARK SMILES IDX 51 58 34 59 37 60 50 61 68 62 35 63 36 64 49 66 69 67 38 68
REMARK SMILES IDX 23 69 24 70 32 71 25 72 31 73 26 74 27 75 28 76 29 77 30 78
REMARK SMILES IDX 53 79 54 80 62 81 55 82 61 83 56 84 57 85 58 86 59 87 60 88
REMARK SMILES IDX 39 89 40 90 48 91 41 92 47 93 42 94 43 95 44 96 45 97 46 98
REMARK H PARENT 7 6 74 21 11 35 67 54 37 65
REMARK Flexibility Score: inf
ROOT
ATOM      1  C   UNL     1       1.803  -2.348  -1.730  1.00  0.00     0.042 C 
ENDROOT
BRANCH   1   2
ATOM      2  C   UNL     1       2.531  -2.806  -0.457  1.00  0.00     0.118 C 
BRANCH   2   3
ATOM      3  N   UNL     1       3.886  -2.308  -0.264  1.00  0.00    -0.351 N 
ATOM      4  C   UNL     1       4.441  -1.456   0.648  1.00  0.00     0.278 C 
ATOM      5  O   UNL     1       5.677  -1.493   0.727  1.00  0.00    -0.268 OA
ATOM      6  H   UNL     1       4.531  -2.655  -0.922  1.00  0.00     0.163 HD
BRANCH   4   7
ATOM      7  C   UNL     1       3.601  -0.426   1.465  1.00  0.00     0.282 C 
BRANCH   7   8
ATOM      8  C   UNL     1       3.451   0.904   0.709  1.00  0.00     0.156 C 
BRANCH   8   9
ATOM      9  C   UNL     1       2.944   0.840  -0.705  1.00  0.00     0.169 C 
ATOM     10  O   UNL     1       1.735   0.831  -0.926  1.00  0.00    -0.294 OA
BRANCH   9  11
ATOM     11  C   UNL     1       3.912   0.846  -1.846  1.00  0.00     0.018 A 
ATOM     12  C   UNL     1       5.267   0.518  -1.696  1.00  0.00     0.015 A 
ATOM     13  C   UNL     1       3.421   1.136  -3.124  1.00  0.00     0.015 A 
ATOM     14  C   UNL     1       6.087   0.358  -2.814  1.00  0.00     0.040 A 
ATOM     15  C   UNL     1       4.262   1.041  -4.233  1.00  0.00     0.040 A 
ATOM     16  C   UNL     1       5.574   0.611  -4.075  1.00  0.00     0.123 A 
ATOM     17  F   UNL     1       6.348   0.428  -5.151  1.00  0.00    -0.207 F 
ENDBRANCH   9  11
ENDBRANCH   8   9
ENDBRANCH   7   8
BRANCH   7  18
ATOM     18  N   UNL     1       4.263  -0.281   2.803  1.00  0.00    -0.321 N 
ATOM     19  C   UNL     1       5.152   0.888   3.012  1.00  0.00     0.284 C 
ATOM     20  C   UNL     1       3.375  -0.425   3.968  1.00  0.00     0.284 C 
ATOM     21  H   UNL     1       4.874  -1.096   2.748  1.00  0.00     0.348 HD
ATOM     22  C   UNL     1       4.454   2.218   3.422  1.00  0.00     0.178 C 
ATOM     23  C   UNL     1       2.585   0.845   4.356  1.00  0.00     0.178 C 
ATOM     24  N   UNL     1       3.496   1.988   4.509  1.00  0.00    -0.360 N 
BRANCH  24  25
ATOM     25  C   UNL     1       3.002   3.102   5.176  1.00  0.00     0.038 A 
ATOM     26  C   UNL     1       2.387   4.174   4.518  1.00  0.00     0.026 A 
ATOM     27  C   UNL     1       3.151   3.173   6.566  1.00  0.00     0.046 A 
ATOM     28  C   UNL     1       1.960   5.303   5.225  1.00  0.00     0.004 A 
ATOM     29  C   UNL     1       2.738   4.303   7.270  1.00  0.00     0.043 A 
ATOM     30  C   UNL     1       2.145   5.373   6.605  1.00  0.00     0.020 A 
ATOM     31  Cl  UNL     1       2.983   4.384   8.972  1.00  0.00    -0.084 Cl
ENDBRANCH  24  25
ENDBRANCH   7  18
ENDBRANCH   4   7
ENDBRANCH   2   3
ENDBRANCH   1   2
BRANCH   1  32
ATOM     32  C   UNL     1       2.600  -2.271  -3.038  1.00  0.00     0.118 C 
BRANCH  32  33
ATOM     33  N   UNL     1       2.552  -3.495  -3.820  1.00  0.00    -0.352 N 
ATOM     34  C   UNL     1       2.246  -3.667  -5.152  1.00  0.00     0.251 C 
ATOM     35  H   UNL     1       2.768  -4.319  -3.327  1.00  0.00     0.163 HD
ATOM     36  O   UNL     1       2.154  -4.808  -5.606  1.00  0.00    -0.269 OA
BRANCH  34  37
ATOM     37  C   UNL     1       1.999  -2.511  -6.051  1.00  0.00     0.039 A 
ATOM     38  C   UNL     1       0.791  -2.450  -6.754  1.00  0.00     0.014 A 
ATOM     39  C   UNL     1       2.975  -1.539  -6.284  1.00  0.00     0.014 A 
ATOM     40  C   UNL     1       0.533  -1.383  -7.628  1.00  0.00     0.010 A 
ATOM     41  C   UNL     1       2.706  -0.463  -7.149  1.00  0.00     0.010 A 
ATOM     42  C   UNL     1       1.473  -0.354  -7.813  1.00  0.00    -0.014 A 
BRANCH  42  43
ATOM     43  C   UNL     1       1.141   0.851  -8.636  1.00  0.00     0.031 A 
ATOM     44  C   UNL     1       1.862   1.159  -9.926  1.00  0.00     0.074 A 
ATOM     45  C   UNL     1       0.195   1.713  -8.205  1.00  0.00     0.049 A 
ATOM     46  N   UNL     1       1.691   2.172 -10.743  1.00  0.00    -0.248 NA
ATOM     47  C   UNL     1       2.911   0.221 -10.349  1.00  0.00     0.031 C 
ATOM     48  C   UNL     1      -0.574   1.573  -6.967  1.00  0.00     0.029 A 
ATOM     49  N   UNL     1      -0.282   2.880  -8.758  1.00  0.00    -0.354 N 
ATOM     50  C   UNL     1       2.608   1.996 -11.774  1.00  0.00     0.074 A 
ATOM     51  C   UNL     1       3.358   0.796 -11.459  1.00  0.00     0.031 C 
ATOM     52  C   UNL     1      -1.439   2.596  -6.867  1.00  0.00     0.029 A 
ATOM     53  C   UNL     1      -1.263   3.489  -8.010  1.00  0.00     0.049 A 
ATOM     54  H   UNL     1       0.049   3.244  -9.611  1.00  0.00     0.167 HD
ATOM     55  C   UNL     1       2.803   2.748 -12.886  1.00  0.00     0.031 A 
ATOM     56  C   UNL     1      -1.942   4.638  -8.201  1.00  0.00     0.031 A 
ATOM     57  C   UNL     1       2.065   3.942 -13.218  1.00  0.00     0.049 A 
ATOM     58  C   UNL     1      -1.671   5.483  -9.415  1.00  0.00     0.074 A 
ATOM     59  C   UNL     1       2.161   4.720 -14.361  1.00  0.00     0.029 A 
ATOM     60  N   UNL     1       1.111   4.541 -12.412  1.00  0.00    -0.354 N 
ATOM     61  N   UNL     1      -0.848   5.255 -10.409  1.00  0.00    -0.248 NA
ATOM     62  C   UNL     1      -2.420   6.744  -9.531  1.00  0.00     0.031 C 
ATOM     63  C   UNL     1       1.306   5.819 -14.222  1.00  0.00     0.029 A 
ATOM     64  C   UNL     1       0.641   5.699 -13.014  1.00  0.00     0.049 A 
ATOM     65  H   UNL     1       0.811   4.195 -11.541  1.00  0.00     0.167 HD
ATOM     66  C   UNL     1      -0.989   6.337 -11.272  1.00  0.00     0.074 A 
ATOM     67  C   UNL     1      -1.989   7.210 -10.696  1.00  0.00     0.031 C 
ATOM     68  C   UNL     1      -0.341   6.581 -12.437  1.00  0.00     0.031 A 
BRANCH  55  69
ATOM     69  C   UNL     1       3.874   2.307 -13.850  1.00  0.00    -0.014 A 
ATOM     70  C   UNL     1       3.678   1.195 -14.688  1.00  0.00     0.010 A 
ATOM     71  C   UNL     1       5.056   3.061 -13.977  1.00  0.00     0.010 A 
ATOM     72  C   UNL     1       4.659   0.823 -15.611  1.00  0.00     0.020 A 
ATOM     73  C   UNL     1       6.030   2.705 -14.915  1.00  0.00     0.020 A 
ATOM     74  C   UNL     1       5.832   1.578 -15.716  1.00  0.00     0.054 A 
BRANCH  74  75
ATOM     75  S   UNL     1       7.077   1.089 -16.941  1.00  0.00     0.124 S 
ATOM     76  O   UNL     1       7.667  -0.091 -16.314  1.00  0.00    -0.237 OA
ATOM     77  O   UNL     1       6.272   0.829 -18.132  1.00  0.00    -0.237 OA
ATOM     78  O   UNL     1       7.955   2.253 -17.028  1.00  0.00    -0.744 OA
ENDBRANCH  74  75
ENDBRANCH  55  69
BRANCH  56  79
ATOM     79  C   UNL     1      -2.948   5.078  -7.196  1.00  0.00    -0.014 A 
ATOM     80  C   UNL     1      -4.322   5.031  -7.492  1.00  0.00     0.010 A 
ATOM     81  C   UNL     1      -2.533   5.549  -5.938  1.00  0.00     0.010 A 
ATOM     82  C   UNL     1      -5.262   5.459  -6.551  1.00  0.00     0.020 A 
ATOM     83  C   UNL     1      -3.471   5.954  -4.985  1.00  0.00     0.020 A 
ATOM     84  C   UNL     1      -4.830   5.917  -5.303  1.00  0.00     0.054 A 
BRANCH  84  85
ATOM     85  S   UNL     1      -6.069   6.419  -4.075  1.00  0.00     0.124 S 
ATOM     86  O   UNL     1      -6.466   7.732  -4.563  1.00  0.00    -0.237 OA
ATOM     87  O   UNL     1      -7.076   5.365  -4.191  1.00  0.00    -0.237 OA
ATOM     88  O   UNL     1      -5.320   6.414  -2.817  1.00  0.00    -0.744 OA
ENDBRANCH  84  85
ENDBRANCH  56  79
BRANCH  68  89
ATOM     89  C   UNL     1      -0.687   7.846 -13.178  1.00  0.00    -0.014 A 
ATOM     90  C   UNL     1      -0.233   9.096 -12.721  1.00  0.00     0.010 A 
ATOM     91  C   UNL     1      -1.424   7.782 -14.375  1.00  0.00     0.010 A 
ATOM     92  C   UNL     1      -0.526  10.261 -13.436  1.00  0.00     0.020 A 
ATOM     93  C   UNL     1      -1.701   8.943 -15.104  1.00  0.00     0.020 A 
ATOM     94  C   UNL     1      -1.258  10.177 -14.625  1.00  0.00     0.054 A 
BRANCH  94  95
ATOM     95  S   UNL     1      -1.578  11.697 -15.564  1.00  0.00     0.124 S 
ATOM     96  O   UNL     1      -2.620  12.336 -14.765  1.00  0.00    -0.237 OA
ATOM     97  O   UNL     1      -0.278  12.364 -15.550  1.00  0.00    -0.237 OA
ATOM     98  O   UNL     1      -2.007  11.211 -16.874  1.00  0.00    -0.744 OA
ENDBRANCH  94  95
ENDBRANCH  68  89
ENDBRANCH  42  43
ENDBRANCH  34  37
ENDBRANCH  32  33
ENDBRANCH   1  32
TORSDOF 18
