REMARK SMILES Cc1cc(C(=O)NCCCNC(=O)c2ccc(-c3c4nc(c(-c5ccc(S(=O)(=O)[O-])cc5)c5ccc([nH]5)c(-c5ccc(S(=O)(=O)[O-])cc5)c5nc(c(-c6ccc(S(=O)(=O)[O-])cc6)c6ccc3[nH]6)C=C5)C=C4)cc2)ccc1NS(=O)(=O)c1ccc2c(c1)CCC2
REMARK SMILES IDX 9 1 8 2 7 3 5 4 6 5 4 7 1 8 2 9 3 10 76 11 75 12 74 13 77 14
REMARK SMILES IDX 78 16 79 17 80 18 81 19 82 20 86 21 83 22 85 23 84 24 87 25
REMARK SMILES IDX 89 26 88 27 10 28 11 29 12 30 13 32 14 33 15 34 73 35 16 36
REMARK SMILES IDX 72 37 17 38 18 39 19 40 66 41 20 42 71 43 65 44 67 45 21 46
REMARK SMILES IDX 70 47 64 48 63 49 22 51 52 52 33 53 51 54 34 55 37 56 50 57
REMARK SMILES IDX 68 58 35 59 36 60 49 62 69 63 38 64 23 65 24 66 32 67 25 68
REMARK SMILES IDX 31 69 26 70 27 71 28 72 29 73 30 74 53 75 54 76 62 77 55 78
REMARK SMILES IDX 61 79 56 80 57 81 58 82 59 83 60 84 39 85 40 86 48 87 41 88
REMARK SMILES IDX 47 89 42 90 43 91 44 92 45 93 46 94
REMARK H PARENT 7 6 77 15 11 31 67 50 37 61
REMARK Flexibility Score: inf
ROOT
ATOM      1  C   UNL     1      -4.871  -0.141   0.343  1.00  0.00     0.042 C 
ENDROOT
BRANCH   1   2
ATOM      2  C   UNL     1      -3.857  -1.032   1.246  1.00  0.00     0.118 C 
BRANCH   2   3
ATOM      3  N   UNL     1      -2.891  -1.944   0.598  1.00  0.00    -0.352 N 
ATOM      4  C   UNL     1      -1.520  -1.995   0.425  1.00  0.00     0.251 C 
ATOM      5  O   UNL     1      -0.998  -3.050   0.057  1.00  0.00    -0.269 OA
ATOM      6  H   UNL     1      -3.340  -2.715   0.183  1.00  0.00     0.163 HD
BRANCH   4   7
ATOM      7  C   UNL     1      -0.617  -0.819   0.598  1.00  0.00     0.040 A 
ATOM      8  C   UNL     1       2.926   0.179  -0.400  1.00  0.00     0.046 C 
ATOM      9  C   UNL     1       1.484   0.300   0.011  1.00  0.00    -0.026 A 
ATOM     10  C   UNL     1       0.716  -0.880   0.148  1.00  0.00     0.019 A 
ATOM     11  C   UNL     1       0.879   1.531   0.316  1.00  0.00     0.052 A 
ATOM     12  C   UNL     1      -0.251   1.523   1.105  1.00  0.00     0.028 A 
ATOM     13  C   UNL     1      -1.039   0.385   1.132  1.00  0.00     0.016 A 
BRANCH  11  14
ATOM     14  N   UNL     1       1.130   2.679  -0.499  1.00  0.00    -0.279 N 
ATOM     15  H   UNL     1       1.793   2.571  -1.218  1.00  0.00     0.180 HD
BRANCH  14  16
ATOM     16  S   UNL     1       0.410   4.196  -0.358  1.00  0.00     0.261 S 
ATOM     17  O   UNL     1       0.608   4.628   1.033  1.00  0.00    -0.201 OA
ATOM     18  O   UNL     1       0.922   4.978  -1.439  1.00  0.00    -0.201 OA
BRANCH  16  19
ATOM     19  C   UNL     1      -1.376   4.110  -0.587  1.00  0.00     0.088 A 
ATOM     20  C   UNL     1      -2.054   2.922  -0.881  1.00  0.00     0.022 A 
ATOM     21  C   UNL     1      -2.116   5.272  -0.287  1.00  0.00     0.026 A 
ATOM     22  C   UNL     1      -3.431   2.832  -0.637  1.00  0.00     0.005 A 
ATOM     23  C   UNL     1      -3.487   5.165  -0.089  1.00  0.00    -0.043 A 
ATOM     24  C   UNL     1      -4.114   3.923  -0.136  1.00  0.00    -0.045 A 
ATOM     25  C   UNL     1      -4.514   6.224   0.168  1.00  0.00     0.036 C 
ATOM     26  C   UNL     1      -5.521   3.999   0.384  1.00  0.00     0.036 C 
ATOM     27  C   UNL     1      -5.548   5.425   0.970  1.00  0.00     0.010 C 
ENDBRANCH  16  19
ENDBRANCH  14  16
ENDBRANCH  11  14
ENDBRANCH   4   7
ENDBRANCH   2   3
ENDBRANCH   1   2
BRANCH   1  28
ATOM     28  C   UNL     1      -6.346  -0.723   0.424  1.00  0.00     0.118 C 
BRANCH  28  29
ATOM     29  N   UNL     1      -7.837  -0.390  -0.060  1.00  0.00    -0.352 N 
ATOM     30  C   UNL     1      -9.195  -1.053  -0.336  1.00  0.00     0.251 C 
ATOM     31  H   UNL     1      -7.908   0.575  -0.245  1.00  0.00     0.163 HD
ATOM     32  O   UNL     1     -10.083  -0.524   0.368  1.00  0.00    -0.269 OA
BRANCH  30  33
ATOM     33  C   UNL     1      -9.841  -2.262  -1.317  1.00  0.00     0.039 A 
ATOM     34  C   UNL     1     -10.742  -3.275  -0.824  1.00  0.00     0.014 A 
ATOM     35  C   UNL     1      -9.531  -2.536  -2.647  1.00  0.00     0.014 A 
ATOM     36  C   UNL     1     -10.695  -4.664  -1.337  1.00  0.00     0.010 A 
ATOM     37  C   UNL     1      -9.433  -3.894  -3.128  1.00  0.00     0.010 A 
ATOM     38  C   UNL     1      -9.745  -5.000  -2.326  1.00  0.00    -0.014 A 
BRANCH  38  39
ATOM     39  C   UNL     1      -8.768  -6.244  -2.292  1.00  0.00     0.031 A 
ATOM     40  C   UNL     1      -8.953  -7.233  -3.341  1.00  0.00     0.074 A 
ATOM     41  C   UNL     1      -7.631  -6.567  -1.563  1.00  0.00     0.049 A 
ATOM     42  N   UNL     1      -9.318  -8.461  -3.181  1.00  0.00    -0.248 NA
ATOM     43  C   UNL     1      -8.698  -6.832  -4.715  1.00  0.00     0.031 C 
ATOM     44  C   UNL     1      -6.720  -7.739  -1.535  1.00  0.00     0.029 A 
ATOM     45  N   UNL     1      -7.001  -5.862  -0.554  1.00  0.00    -0.354 N 
ATOM     46  C   UNL     1      -9.016  -9.055  -4.388  1.00  0.00     0.074 A 
ATOM     47  C   UNL     1      -8.972  -7.971  -5.348  1.00  0.00     0.031 C 
ATOM     48  C   UNL     1      -6.084  -7.801  -0.331  1.00  0.00     0.029 A 
ATOM     49  C   UNL     1      -6.564  -6.695   0.469  1.00  0.00     0.049 A 
ATOM     50  H   UNL     1      -6.875  -4.886  -0.560  1.00  0.00     0.167 HD
ATOM     51  C   UNL     1      -8.419 -10.285  -4.456  1.00  0.00     0.031 A 
ATOM     52  C   UNL     1      -7.253  -6.707   1.663  1.00  0.00     0.031 A 
ATOM     53  C   UNL     1      -7.981 -10.764  -3.129  1.00  0.00     0.049 A 
ATOM     54  C   UNL     1      -8.012  -7.996   1.823  1.00  0.00     0.074 A 
ATOM     55  C   UNL     1      -6.731 -11.012  -2.574  1.00  0.00     0.029 A 
ATOM     56  N   UNL     1      -8.862 -10.741  -2.052  1.00  0.00    -0.354 N 
ATOM     57  N   UNL     1      -8.068  -8.889   0.884  1.00  0.00    -0.248 NA
ATOM     58  C   UNL     1      -8.802  -8.374   2.987  1.00  0.00     0.031 C 
ATOM     59  C   UNL     1      -6.872 -11.094  -1.156  1.00  0.00     0.029 A 
ATOM     60  C   UNL     1      -8.211 -10.940  -0.846  1.00  0.00     0.049 A 
ATOM     61  H   UNL     1      -9.832 -10.599  -2.138  1.00  0.00     0.167 HD
ATOM     62  C   UNL     1      -8.834  -9.942   1.258  1.00  0.00     0.074 A 
ATOM     63  C   UNL     1      -9.286  -9.568   2.591  1.00  0.00     0.031 C 
ATOM     64  C   UNL     1      -8.991 -10.994   0.400  1.00  0.00     0.031 A 
BRANCH  51  65
ATOM     65  C   UNL     1      -7.947 -10.884  -5.776  1.00  0.00    -0.014 A 
ATOM     66  C   UNL     1      -7.053 -11.971  -5.805  1.00  0.00     0.010 A 
ATOM     67  C   UNL     1      -8.410 -10.450  -7.038  1.00  0.00     0.010 A 
ATOM     68  C   UNL     1      -6.608 -12.540  -7.015  1.00  0.00     0.020 A 
ATOM     69  C   UNL     1      -7.928 -10.956  -8.251  1.00  0.00     0.020 A 
ATOM     70  C   UNL     1      -7.038 -12.017  -8.234  1.00  0.00     0.054 A 
BRANCH  70  71
ATOM     71  S   UNL     1      -6.507 -12.784  -9.786  1.00  0.00     0.124 S 
ATOM     72  O   UNL     1      -5.052 -12.690  -9.708  1.00  0.00    -0.237 OA
ATOM     73  O   UNL     1      -7.061 -14.130  -9.673  1.00  0.00    -0.237 OA
ATOM     74  O   UNL     1      -7.124 -11.950 -10.817  1.00  0.00    -0.744 OA
ENDBRANCH  70  71
ENDBRANCH  51  65
BRANCH  52  75
ATOM     75  C   UNL     1      -7.828  -5.361   2.125  1.00  0.00    -0.014 A 
ATOM     76  C   UNL     1      -6.893  -4.378   2.439  1.00  0.00     0.010 A 
ATOM     77  C   UNL     1      -8.827  -4.908   1.293  1.00  0.00     0.010 A 
ATOM     78  C   UNL     1      -6.546  -3.410   1.476  1.00  0.00     0.020 A 
ATOM     79  C   UNL     1      -8.368  -4.029   0.289  1.00  0.00     0.020 A 
ATOM     80  C   UNL     1      -7.189  -3.360   0.249  1.00  0.00     0.054 A 
BRANCH  80  81
ATOM     81  S   UNL     1      -6.400  -2.910  -1.683  1.00  0.00     0.124 S 
ATOM     82  O   UNL     1      -4.981  -2.710  -1.408  1.00  0.00    -0.237 OA
ATOM     83  O   UNL     1      -6.663  -4.091  -2.483  1.00  0.00    -0.237 OA
ATOM     84  O   UNL     1      -7.078  -1.708  -2.152  1.00  0.00    -0.744 OA
ENDBRANCH  80  81
ENDBRANCH  52  75
BRANCH  64  85
ATOM     85  C   UNL     1      -9.866 -12.203   0.610  1.00  0.00    -0.014 A 
ATOM     86  C   UNL     1     -10.556 -12.508   1.786  1.00  0.00     0.010 A 
ATOM     87  C   UNL     1     -10.014 -13.118  -0.464  1.00  0.00     0.010 A 
ATOM     88  C   UNL     1     -11.390 -13.627   1.870  1.00  0.00     0.020 A 
ATOM     89  C   UNL     1     -10.853 -14.226  -0.403  1.00  0.00     0.020 A 
ATOM     90  C   UNL     1     -11.543 -14.471   0.771  1.00  0.00     0.054 A 
BRANCH  90  91
ATOM     91  S   UNL     1     -12.644 -15.888   0.911  1.00  0.00     0.124 S 
ATOM     92  O   UNL     1     -12.008 -16.663   1.974  1.00  0.00    -0.237 OA
ATOM     93  O   UNL     1     -13.913 -15.258   1.267  1.00  0.00    -0.237 OA
ATOM     94  O   UNL     1     -12.603 -16.499  -0.415  1.00  0.00    -0.744 OA
ENDBRANCH  90  91
ENDBRANCH  64  85
ENDBRANCH  38  39
ENDBRANCH  30  33
ENDBRANCH  28  29
ENDBRANCH   1  28
TORSDOF 16
