REMARK SMILES [NH3+][C@@H](Cc1c[nH]c2ccccc12)C(=O)N[C@@H](CS)C(=O)N[C@@H](CO)C(=O)NCCCNC(=O)c1ccc(-c2c3nc(c(-c4ccc(S(=O)(=O)[O-])cc4)c4ccc([nH]4)c(-c4ccc(S(=O)(=O)[O-])cc4)c4nc(c(-c5ccc(S(=O)(=O)[O-])cc5)c5ccc2[nH]5)C=C4)C=C3)cc1
REMARK SMILES IDX 25 1 26 2 27 3 22 5 21 6 19 7 20 8 16 10 15 11 13 12 14 13
REMARK SMILES IDX 2 15 1 16 3 20 4 21 5 22 12 23 6 24 7 25 11 26 8 28 10 29
REMARK SMILES IDX 9 30 17 31 18 32 23 34 24 35 28 37 29 38 30 39 31 40 32 41
REMARK SMILES IDX 33 43 34 44 35 45 93 46 36 47 92 48 37 49 38 50 39 51 86 52
REMARK SMILES IDX 40 53 91 54 85 55 87 56 41 57 90 58 84 59 83 60 42 62 72 63
REMARK SMILES IDX 53 64 71 65 54 66 57 67 70 68 88 69 55 70 56 71 69 73 89 74
REMARK SMILES IDX 58 75 43 76 44 77 52 78 45 79 51 80 46 81 47 82 48 83 49 84
REMARK SMILES IDX 50 85 73 86 74 87 82 88 75 89 81 90 76 91 77 92 78 93 79 94
REMARK SMILES IDX 80 95 59 96 60 97 68 98 61 99 67 100 62 101 63 102 64 103
REMARK SMILES IDX 65 104 66 105
REMARK H PARENT 27 4 21 9 15 14 1 17 1 18 1 19 6 27 18 33 24 36 31 42 87 61
REMARK H PARENT 57 72
REMARK Flexibility Score: inf
ROOT
ATOM      1  C   UNL     1      -5.579  -3.029  -2.947  1.00  0.00     0.244 C 
ATOM      2  O   UNL     1      -6.079  -3.790  -2.112  1.00  0.00    -0.273 OA
ATOM      3  N   UNL     1      -5.768  -3.341  -4.254  1.00  0.00    -0.354 N 
ATOM      4  H   UNL     1      -6.130  -4.243  -4.409  1.00  0.00     0.163 HD
ENDROOT
BRANCH   1   5
ATOM      5  C   UNL     1      -4.830  -1.771  -2.498  1.00  0.00     0.197 C 
BRANCH   5   6
ATOM      6  N   UNL     1      -3.451  -1.717  -2.995  1.00  0.00    -0.340 N 
ATOM      7  C   UNL     1      -2.654  -0.718  -2.520  1.00  0.00     0.244 C 
ATOM      8  O   UNL     1      -2.772   0.404  -3.019  1.00  0.00    -0.273 OA
ATOM      9  H   UNL     1      -3.114  -2.375  -3.646  1.00  0.00     0.164 HD
BRANCH   7  10
ATOM     10  C   UNL     1      -1.647  -1.033  -1.394  1.00  0.00     0.181 C 
BRANCH  10  11
ATOM     11  N   UNL     1      -1.636   0.139  -0.524  1.00  0.00    -0.338 N 
ATOM     12  C   UNL     1      -0.750   1.178  -0.531  1.00  0.00     0.279 C 
ATOM     13  O   UNL     1      -1.187   2.281  -0.181  1.00  0.00    -0.268 OA
ATOM     14  H   UNL     1      -2.353   0.186   0.150  1.00  0.00     0.164 HD
BRANCH  12  15
ATOM     15  C   UNL     1       0.754   0.998  -0.861  1.00  0.00     0.275 C 
BRANCH  15  16
ATOM     16  N   UNL     1       1.329  -0.117  -0.072  1.00  0.00    -0.347 N 
ATOM     17  H   UNL     1       2.318  -0.221  -0.301  1.00  0.00     0.345 HD
ATOM     18  H   UNL     1       0.836  -0.982  -0.295  1.00  0.00     0.345 HD
ATOM     19  H   UNL     1       1.230   0.083   0.923  1.00  0.00     0.345 HD
ENDBRANCH  15  16
BRANCH  15  20
ATOM     20  C   UNL     1       1.164   1.088  -2.351  1.00  0.00     0.113 C 
BRANCH  20  21
ATOM     21  C   UNL     1       1.073  -0.159  -3.194  1.00  0.00    -0.016 A 
ATOM     22  C   UNL     1       1.725  -1.364  -2.994  1.00  0.00     0.087 A 
ATOM     23  C   UNL     1       0.296  -0.320  -4.394  1.00  0.00     0.003 A 
ATOM     24  N   UNL     1       1.281  -2.262  -3.930  1.00  0.00    -0.361 N 
ATOM     25  C   UNL     1       0.385  -1.659  -4.777  1.00  0.00     0.046 A 
ATOM     26  C   UNL     1      -0.507   0.541  -5.171  1.00  0.00     0.010 A 
ATOM     27  H   UNL     1       1.564  -3.203  -3.986  1.00  0.00     0.166 HD
ATOM     28  C   UNL     1      -0.329  -2.191  -5.859  1.00  0.00     0.026 A 
ATOM     29  C   UNL     1      -1.206   0.033  -6.273  1.00  0.00     0.001 A 
ATOM     30  C   UNL     1      -1.128  -1.317  -6.601  1.00  0.00     0.002 A 
ENDBRANCH  20  21
ENDBRANCH  15  20
ENDBRANCH  12  15
ENDBRANCH  10  11
BRANCH  10  31
ATOM     31  C   UNL     1      -1.746  -2.376  -0.667  1.00  0.00     0.101 C 
BRANCH  31  32
ATOM     32  S   UNL     1      -3.042  -2.518   0.602  1.00  0.00    -0.177 SA
ATOM     33  H   UNL     1      -2.788  -1.642   1.611  1.00  0.00     0.102 HD
ENDBRANCH  31  32
ENDBRANCH  10  31
ENDBRANCH   7  10
ENDBRANCH   5   6
BRANCH   5  34
ATOM     34  C   UNL     1      -5.652  -0.484  -2.717  1.00  0.00     0.191 C 
BRANCH  34  35
ATOM     35  O   UNL     1      -5.379   0.158  -3.960  1.00  0.00    -0.394 OA
ATOM     36  H   UNL     1      -4.448   0.429  -3.987  1.00  0.00     0.210 HD
ENDBRANCH  34  35
ENDBRANCH   5  34
ENDBRANCH   1   5
BRANCH   3  37
ATOM     37  C   UNL     1      -5.528  -2.575  -5.464  1.00  0.00     0.117 C 
BRANCH  37  38
ATOM     38  C   UNL     1      -4.760  -3.367  -6.511  1.00  0.00     0.042 C 
BRANCH  38  39
ATOM     39  C   UNL     1      -5.373  -4.718  -6.857  1.00  0.00     0.118 C 
BRANCH  39  40
ATOM     40  N   UNL     1      -6.761  -4.624  -7.288  1.00  0.00    -0.352 N 
ATOM     41  C   UNL     1      -7.334  -4.908  -8.504  1.00  0.00     0.251 C 
ATOM     42  H   UNL     1      -7.388  -4.306  -6.599  1.00  0.00     0.163 HD
ATOM     43  O   UNL     1      -8.507  -4.609  -8.709  1.00  0.00    -0.269 OA
BRANCH  41  44
ATOM     44  C   UNL     1      -6.531  -5.539  -9.570  1.00  0.00     0.039 A 
ATOM     45  C   UNL     1      -6.610  -5.028 -10.868  1.00  0.00     0.014 A 
ATOM     46  C   UNL     1      -5.690  -6.617  -9.289  1.00  0.00     0.014 A 
ATOM     47  C   UNL     1      -5.776  -5.540 -11.863  1.00  0.00     0.010 A 
ATOM     48  C   UNL     1      -4.797  -7.064 -10.257  1.00  0.00     0.010 A 
ATOM     49  C   UNL     1      -4.827  -6.527 -11.552  1.00  0.00    -0.014 A 
BRANCH  49  50
ATOM     50  C   UNL     1      -3.845  -7.007 -12.557  1.00  0.00     0.031 A 
ATOM     51  C   UNL     1      -3.834  -8.454 -12.968  1.00  0.00     0.074 A 
ATOM     52  C   UNL     1      -2.908  -6.161 -13.030  1.00  0.00     0.049 A 
ATOM     53  N   UNL     1      -2.988  -9.085 -13.740  1.00  0.00    -0.248 NA
ATOM     54  C   UNL     1      -4.895  -9.312 -12.412  1.00  0.00     0.031 C 
ATOM     55  C   UNL     1      -2.784  -4.745 -12.675  1.00  0.00     0.029 A 
ATOM     56  N   UNL     1      -1.871  -6.373 -13.904  1.00  0.00    -0.354 N 
ATOM     57  C   UNL     1      -3.397 -10.414 -13.742  1.00  0.00     0.074 A 
ATOM     58  C   UNL     1      -4.538 -10.507 -12.859  1.00  0.00     0.031 C 
ATOM     59  C   UNL     1      -1.750  -4.211 -13.345  1.00  0.00     0.029 A 
ATOM     60  C   UNL     1      -1.111  -5.253 -14.142  1.00  0.00     0.049 A 
ATOM     61  H   UNL     1      -1.690  -7.246 -14.322  1.00  0.00     0.167 HD
ATOM     62  C   UNL     1      -2.882 -11.458 -14.433  1.00  0.00     0.031 A 
ATOM     63  C   UNL     1      -0.015  -5.083 -14.906  1.00  0.00     0.031 A 
ATOM     64  C   UNL     1      -1.764 -11.357 -15.331  1.00  0.00     0.049 A 
ATOM     65  C   UNL     1       0.537  -6.257 -15.666  1.00  0.00     0.074 A 
ATOM     66  C   UNL     1      -1.207 -12.344 -16.125  1.00  0.00     0.029 A 
ATOM     67  N   UNL     1      -1.034 -10.200 -15.557  1.00  0.00    -0.354 N 
ATOM     68  N   UNL     1       0.102  -7.494 -15.697  1.00  0.00    -0.248 NA
ATOM     69  C   UNL     1       1.723  -6.011 -16.498  1.00  0.00     0.031 C 
ATOM     70  C   UNL     1      -0.113 -11.792 -16.802  1.00  0.00     0.029 A 
ATOM     71  C   UNL     1      -0.019 -10.452 -16.464  1.00  0.00     0.049 A 
ATOM     72  H   UNL     1      -1.212  -9.328 -15.136  1.00  0.00     0.167 HD
ATOM     73  C   UNL     1       0.950  -8.170 -16.567  1.00  0.00     0.074 A 
ATOM     74  C   UNL     1       1.913  -7.202 -17.050  1.00  0.00     0.031 C 
ATOM     75  C   UNL     1       0.932  -9.476 -16.931  1.00  0.00     0.031 A 
BRANCH  62  76
ATOM     76  C   UNL     1      -3.529 -12.803 -14.239  1.00  0.00    -0.014 A 
ATOM     77  C   UNL     1      -4.811 -13.072 -14.754  1.00  0.00     0.010 A 
ATOM     78  C   UNL     1      -2.838 -13.822 -13.559  1.00  0.00     0.010 A 
ATOM     79  C   UNL     1      -5.408 -14.318 -14.551  1.00  0.00     0.020 A 
ATOM     80  C   UNL     1      -3.421 -15.079 -13.377  1.00  0.00     0.020 A 
ATOM     81  C   UNL     1      -4.711 -15.313 -13.859  1.00  0.00     0.054 A 
BRANCH  81  82
ATOM     82  S   UNL     1      -5.503 -16.927 -13.622  1.00  0.00     0.124 S 
ATOM     83  O   UNL     1      -6.477 -16.631 -12.574  1.00  0.00    -0.237 OA
ATOM     84  O   UNL     1      -6.066 -17.206 -14.940  1.00  0.00    -0.237 OA
ATOM     85  O   UNL     1      -4.402 -17.798 -13.220  1.00  0.00    -0.744 OA
ENDBRANCH  81  82
ENDBRANCH  62  76
BRANCH  63  86
ATOM     86  C   UNL     1       0.624  -3.743 -15.001  1.00  0.00    -0.014 A 
ATOM     87  C   UNL     1       0.505  -2.981 -16.176  1.00  0.00     0.010 A 
ATOM     88  C   UNL     1       1.337  -3.214 -13.910  1.00  0.00     0.010 A 
ATOM     89  C   UNL     1       1.099  -1.719 -16.265  1.00  0.00     0.020 A 
ATOM     90  C   UNL     1       1.912  -1.942 -13.986  1.00  0.00     0.020 A 
ATOM     91  C   UNL     1       1.798  -1.207 -15.168  1.00  0.00     0.054 A 
BRANCH  91  92
ATOM     92  S   UNL     1       2.512   0.457 -15.284  1.00  0.00     0.124 S 
ATOM     93  O   UNL     1       3.688   0.224 -16.117  1.00  0.00    -0.237 OA
ATOM     94  O   UNL     1       1.435   1.222 -15.908  1.00  0.00    -0.237 OA
ATOM     95  O   UNL     1       2.788   0.806 -13.893  1.00  0.00    -0.744 OA
ENDBRANCH  91  92
ENDBRANCH  63  86
BRANCH  75  96
ATOM     96  C   UNL     1       1.972  -9.932 -17.916  1.00  0.00    -0.014 A 
ATOM     97  C   UNL     1       3.308 -10.118 -17.523  1.00  0.00     0.010 A 
ATOM     98  C   UNL     1       1.592 -10.241 -19.235  1.00  0.00     0.010 A 
ATOM     99  C   UNL     1       4.253 -10.586 -18.439  1.00  0.00     0.020 A 
ATOM    100  C   UNL     1       2.529 -10.731 -20.147  1.00  0.00     0.020 A 
ATOM    101  C   UNL     1       3.857 -10.891 -19.745  1.00  0.00     0.054 A 
BRANCH 101 102
ATOM    102  S   UNL     1       5.090 -11.552 -20.900  1.00  0.00     0.124 S 
ATOM    103  O   UNL     1       5.858 -10.357 -21.240  1.00  0.00    -0.237 OA
ATOM    104  O   UNL     1       5.794 -12.541 -20.087  1.00  0.00    -0.237 OA
ATOM    105  O   UNL     1       4.285 -12.106 -21.986  1.00  0.00    -0.744 OA
ENDBRANCH 101 102
ENDBRANCH  75  96
ENDBRANCH  49  50
ENDBRANCH  41  44
ENDBRANCH  39  40
ENDBRANCH  38  39
ENDBRANCH  37  38
ENDBRANCH   3  37
TORSDOF 24
