REMARK SMILES CCc1nc2sc(C(=O)NCC(=O)NCCCNC(=O)c3ccc(-c4c5nc(c(-c6ccc(S(=O)(=O)[O-])cc6)c6ccc([nH]6)c(-c6ccc(S(=O)(=O)[O-])cc6)c6nc(c(-c7ccc(S(=O)(=O)[O-])cc7)c7ccc4[nH]7)C=C6)C=C5)cc3)c(N)c2c(C(F)(F)F)c1C
REMARK SMILES IDX 16 1 15 2 14 3 12 4 13 5 11 7 10 8 8 9 9 10 7 12 3 13 4 14
REMARK SMILES IDX 89 15 5 16 84 17 90 18 6 19 83 20 81 21 2 22 1 23 85 24
REMARK SMILES IDX 86 25 87 26 88 27 82 28 17 31 18 32 19 33 20 35 21 36 22 37
REMARK SMILES IDX 80 38 23 39 79 40 24 41 25 42 26 43 73 44 27 45 78 46 72 47
REMARK SMILES IDX 74 48 28 49 77 50 71 51 70 52 29 54 59 55 40 56 58 57 41 58
REMARK SMILES IDX 44 59 57 60 75 61 42 62 43 63 56 65 76 66 45 67 30 68 31 69
REMARK SMILES IDX 39 70 32 71 38 72 33 73 34 74 35 75 36 76 37 77 60 78 61 79
REMARK SMILES IDX 69 80 62 81 68 82 63 83 64 84 65 85 66 86 67 87 46 88 47 89
REMARK SMILES IDX 55 90 48 91 54 92 49 93 50 94 51 95 52 96 53 97
REMARK H PARENT 14 6 10 11 82 29 82 30 18 34 74 53 44 64
REMARK Flexibility Score: inf
ROOT
ATOM      1  C   UNL     1      -0.083   1.402   9.688  1.00  0.00     0.042 C 
ENDROOT
BRANCH   1   2
ATOM      2  C   UNL     1      -0.051   2.354   8.499  1.00  0.00     0.117 C 
BRANCH   2   3
ATOM      3  N   UNL     1       0.250   3.734   8.833  1.00  0.00    -0.355 N 
ATOM      4  C   UNL     1       1.419   4.427   8.917  1.00  0.00     0.239 C 
ATOM      5  O   UNL     1       1.313   5.653   9.037  1.00  0.00    -0.273 OA
ATOM      6  H   UNL     1      -0.546   4.275   9.038  1.00  0.00     0.163 HD
BRANCH   4   7
ATOM      7  C   UNL     1       2.818   3.809   8.738  1.00  0.00     0.216 C 
BRANCH   7   8
ATOM      8  N   UNL     1       3.031   2.386   8.879  1.00  0.00    -0.342 N 
ATOM      9  C   UNL     1       3.136   1.345   7.991  1.00  0.00     0.264 C 
ATOM     10  O   UNL     1       3.545   0.307   8.528  1.00  0.00    -0.268 OA
ATOM     11  H   UNL     1       3.120   2.101   9.817  1.00  0.00     0.164 HD
BRANCH   9  12
ATOM     12  C   UNL     1       2.728   1.390   6.580  1.00  0.00     0.118 A 
ATOM     13  C   UNL     1       1.056   0.165   2.334  1.00  0.00     0.045 A 
ATOM     14  N   UNL     1       1.773  -0.370   3.342  1.00  0.00    -0.242 NA
ATOM     15  C   UNL     1       0.643   1.506   2.297  1.00  0.00    -0.017 A 
ATOM     16  C   UNL     1       2.059   0.457   4.361  1.00  0.00     0.127 A 
ATOM     17  C   UNL     1       1.071   2.384   3.332  1.00  0.00     0.073 A 
ATOM     18  C   UNL     1      -0.229   2.029   1.183  1.00  0.00     0.047 C 
ATOM     19  S   UNL     1       2.847  -0.128   5.739  1.00  0.00    -0.108 S 
ATOM     20  C   UNL     1       1.766   1.805   4.436  1.00  0.00     0.048 A 
ATOM     21  C   UNL     1       2.191   2.335   5.714  1.00  0.00     0.066 A 
BRANCH  13  22
ATOM     22  C   UNL     1       0.732  -0.817   1.228  1.00  0.00     0.053 C 
ATOM     23  C   UNL     1       1.478  -0.521  -0.067  1.00  0.00     0.011 C 
ENDBRANCH  13  22
BRANCH  17  24
ATOM     24  C   UNL     1       0.742   3.860   3.323  1.00  0.00     0.417 C 
ATOM     25  F   UNL     1      -0.272   4.171   4.178  1.00  0.00    -0.166 F 
ATOM     26  F   UNL     1       1.799   4.641   3.698  1.00  0.00    -0.166 F 
ATOM     27  F   UNL     1       0.373   4.365   2.113  1.00  0.00    -0.166 F 
ENDBRANCH  17  24
BRANCH  21  28
ATOM     28  N   UNL     1       1.928   3.623   6.021  1.00  0.00    -0.397 N 
ATOM     29  H   UNL     1       2.214   3.990   6.888  1.00  0.00     0.156 HD
ATOM     30  H   UNL     1       1.449   4.194   5.378  1.00  0.00     0.156 HD
ENDBRANCH  21  28
ENDBRANCH   9  12
ENDBRANCH   7   8
ENDBRANCH   4   7
ENDBRANCH   2   3
ENDBRANCH   1   2
BRANCH   1  31
ATOM     31  C   UNL     1      -1.435   1.442  10.371  1.00  0.00     0.118 C 
BRANCH  31  32
ATOM     32  N   UNL     1      -2.502   0.851   9.551  1.00  0.00    -0.352 N 
ATOM     33  C   UNL     1      -3.825   0.664   9.902  1.00  0.00     0.251 C 
ATOM     34  H   UNL     1      -2.245   0.554   8.649  1.00  0.00     0.163 HD
ATOM     35  O   UNL     1      -4.551  -0.099   9.265  1.00  0.00    -0.269 OA
BRANCH  33  36
ATOM     36  C   UNL     1      -4.342   1.412  11.055  1.00  0.00     0.039 A 
ATOM     37  C   UNL     1      -5.115   0.809  12.051  1.00  0.00     0.014 A 
ATOM     38  C   UNL     1      -3.943   2.740  11.160  1.00  0.00     0.014 A 
ATOM     39  C   UNL     1      -5.407   1.540  13.201  1.00  0.00     0.010 A 
ATOM     40  C   UNL     1      -4.058   3.378  12.361  1.00  0.00     0.010 A 
ATOM     41  C   UNL     1      -4.854   2.819  13.355  1.00  0.00    -0.014 A 
BRANCH  41  42
ATOM     42  C   UNL     1      -4.992   3.582  14.589  1.00  0.00     0.031 A 
ATOM     43  C   UNL     1      -4.444   2.909  15.800  1.00  0.00     0.074 A 
ATOM     44  C   UNL     1      -5.326   4.893  14.565  1.00  0.00     0.049 A 
ATOM     45  N   UNL     1      -5.091   2.517  16.846  1.00  0.00    -0.248 NA
ATOM     46  C   UNL     1      -3.027   2.497  15.793  1.00  0.00     0.031 C 
ATOM     47  C   UNL     1      -5.568   5.748  13.392  1.00  0.00     0.029 A 
ATOM     48  N   UNL     1      -5.370   5.787  15.584  1.00  0.00    -0.354 N 
ATOM     49  C   UNL     1      -4.137   2.009  17.723  1.00  0.00     0.074 A 
ATOM     50  C   UNL     1      -2.928   1.847  16.955  1.00  0.00     0.031 C 
ATOM     51  C   UNL     1      -5.459   7.048  13.746  1.00  0.00     0.029 A 
ATOM     52  C   UNL     1      -5.328   7.123  15.188  1.00  0.00     0.049 A 
ATOM     53  H   UNL     1      -5.427   5.515  16.529  1.00  0.00     0.167 HD
ATOM     54  C   UNL     1      -4.340   1.990  19.070  1.00  0.00     0.031 A 
ATOM     55  C   UNL     1      -5.160   8.206  15.990  1.00  0.00     0.031 A 
ATOM     56  C   UNL     1      -5.711   2.271  19.404  1.00  0.00     0.049 A 
ATOM     57  C   UNL     1      -5.503   7.766  17.365  1.00  0.00     0.074 A 
ATOM     58  C   UNL     1      -6.919   1.659  19.139  1.00  0.00     0.029 A 
ATOM     59  N   UNL     1      -6.007   3.567  19.758  1.00  0.00    -0.354 N 
ATOM     60  N   UNL     1      -6.700   7.384  17.715  1.00  0.00    -0.248 NA
ATOM     61  C   UNL     1      -4.423   7.292  18.215  1.00  0.00     0.031 C 
ATOM     62  C   UNL     1      -7.821   2.731  18.877  1.00  0.00     0.029 A 
ATOM     63  C   UNL     1      -7.141   3.935  19.079  1.00  0.00     0.049 A 
ATOM     64  H   UNL     1      -5.497   4.129  20.386  1.00  0.00     0.167 HD
ATOM     65  C   UNL     1      -6.494   6.284  18.537  1.00  0.00     0.074 A 
ATOM     66  C   UNL     1      -5.073   6.334  18.883  1.00  0.00     0.031 C 
ATOM     67  C   UNL     1      -7.419   5.283  18.624  1.00  0.00     0.031 A 
BRANCH  54  68
ATOM     68  C   UNL     1      -3.238   2.106  20.092  1.00  0.00    -0.014 A 
ATOM     69  C   UNL     1      -3.548   1.936  21.456  1.00  0.00     0.010 A 
ATOM     70  C   UNL     1      -1.968   2.638  19.785  1.00  0.00     0.010 A 
ATOM     71  C   UNL     1      -2.651   2.323  22.461  1.00  0.00     0.020 A 
ATOM     72  C   UNL     1      -1.050   2.988  20.777  1.00  0.00     0.020 A 
ATOM     73  C   UNL     1      -1.409   2.855  22.112  1.00  0.00     0.054 A 
BRANCH  73  74
ATOM     74  S   UNL     1      -0.294   3.432  23.415  1.00  0.00     0.124 S 
ATOM     75  O   UNL     1      -1.058   4.529  24.002  1.00  0.00    -0.237 OA
ATOM     76  O   UNL     1      -0.152   2.241  24.248  1.00  0.00    -0.237 OA
ATOM     77  O   UNL     1       0.910   3.825  22.687  1.00  0.00    -0.744 OA
ENDBRANCH  73  74
ENDBRANCH  54  68
BRANCH  55  78
ATOM     78  C   UNL     1      -4.420   9.467  15.715  1.00  0.00    -0.014 A 
ATOM     79  C   UNL     1      -4.534  10.574  16.579  1.00  0.00     0.010 A 
ATOM     80  C   UNL     1      -3.370   9.483  14.774  1.00  0.00     0.010 A 
ATOM     81  C   UNL     1      -3.589  11.617  16.556  1.00  0.00     0.020 A 
ATOM     82  C   UNL     1      -2.427  10.521  14.741  1.00  0.00     0.020 A 
ATOM     83  C   UNL     1      -2.524  11.569  15.654  1.00  0.00     0.054 A 
BRANCH  83  84
ATOM     84  S   UNL     1      -1.200  12.813  15.766  1.00  0.00     0.124 S 
ATOM     85  O   UNL     1      -1.882  14.035  15.350  1.00  0.00    -0.237 OA
ATOM     86  O   UNL     1      -0.824  12.748  17.175  1.00  0.00    -0.237 OA
ATOM     87  O   UNL     1      -0.185  12.321  14.835  1.00  0.00    -0.744 OA
ENDBRANCH  83  84
ENDBRANCH  55  78
BRANCH  67  88
ATOM     88  C   UNL     1      -8.785   5.507  18.009  1.00  0.00    -0.014 A 
ATOM     89  C   UNL     1      -9.011   5.689  16.629  1.00  0.00     0.010 A 
ATOM     90  C   UNL     1      -9.899   5.355  18.852  1.00  0.00     0.010 A 
ATOM     91  C   UNL     1     -10.318   5.734  16.114  1.00  0.00     0.020 A 
ATOM     92  C   UNL     1     -11.200   5.381  18.345  1.00  0.00     0.020 A 
ATOM     93  C   UNL     1     -11.406   5.577  16.979  1.00  0.00     0.054 A 
BRANCH  93  94
ATOM     94  S   UNL     1     -13.094   5.591  16.311  1.00  0.00     0.124 S 
ATOM     95  O   UNL     1     -13.239   6.966  15.840  1.00  0.00    -0.237 OA
ATOM     96  O   UNL     1     -13.039   4.571  15.267  1.00  0.00    -0.237 OA
ATOM     97  O   UNL     1     -13.927   5.243  17.462  1.00  0.00    -0.744 OA
ENDBRANCH  93  94
ENDBRANCH  67  88
ENDBRANCH  41  42
ENDBRANCH  33  36
ENDBRANCH  31  32
ENDBRANCH   1  31
TORSDOF 18
