REMARK SMILES Cc1nn(C)cc1-c1ccnc2nc(CCC(=O)NCCCNC(=O)c3ccc(-c4c5nc(c(-c6ccc(S(=O)(=O)[O-])cc6)c6ccc([nH]6)c(-c6ccc(S(=O)(=O)[O-])cc6)c6nc(c(-c7ccc(S(=O)(=O)[O-])cc7)c7ccc4[nH]7)C=C6)C=C5)cc3)nn12
REMARK SMILES IDX 21 1 20 2 19 3 17 4 18 5 16 7 15 8 14 9 8 10 9 11 87 12
REMARK SMILES IDX 10 13 12 14 86 15 11 16 13 17 7 18 1 19 2 20 3 21 4 22 6 23
REMARK SMILES IDX 5 24 22 25 23 26 24 27 25 29 26 30 27 31 85 32 28 33 84 34
REMARK SMILES IDX 29 35 30 36 31 37 78 38 32 39 83 40 77 41 79 42 33 43 82 44
REMARK SMILES IDX 76 45 75 46 34 48 64 49 45 50 63 51 46 52 49 53 62 54 80 55
REMARK SMILES IDX 47 56 48 57 61 59 81 60 50 61 35 62 36 63 44 64 37 65 43 66
REMARK SMILES IDX 38 67 39 68 40 69 41 70 42 71 65 72 66 73 74 74 67 75 73 76
REMARK SMILES IDX 68 77 69 78 70 79 71 80 72 81 51 82 52 83 60 84 53 85 59 86
REMARK SMILES IDX 54 87 55 88 56 89 57 90 58 91
REMARK H PARENT 19 6 23 28 79 47 49 58
REMARK Flexibility Score: inf
ROOT
ATOM      1  C   UNL     1       0.877  -2.968   0.442  1.00  0.00     0.042 C 
ENDROOT
BRANCH   1   2
ATOM      2  C   UNL     1       1.429  -4.308   0.973  1.00  0.00     0.117 C 
BRANCH   2   3
ATOM      3  N   UNL     1       1.929  -4.160   2.351  1.00  0.00    -0.356 N 
ATOM      4  C   UNL     1       1.499  -4.628   3.558  1.00  0.00     0.220 C 
ATOM      5  O   UNL     1       2.069  -4.207   4.569  1.00  0.00    -0.275 OA
ATOM      6  H   UNL     1       2.743  -3.609   2.414  1.00  0.00     0.163 HD
BRANCH   4   7
ATOM      7  C   UNL     1       0.411  -5.671   3.687  1.00  0.00     0.108 C 
BRANCH   7   8
ATOM      8  C   UNL     1      -0.910  -5.075   4.159  1.00  0.00     0.089 C 
BRANCH   8   9
ATOM      9  C   UNL     1      -1.662  -4.475   3.036  1.00  0.00     0.153 A 
ATOM     10  C   UNL     1      -2.670  -1.947   0.862  1.00  0.00     0.081 A 
ATOM     11  C   UNL     1      -3.332  -2.155  -0.291  1.00  0.00     0.049 A 
ATOM     12  N   UNL     1      -2.400  -3.076   1.659  1.00  0.00    -0.196 N 
ATOM     13  C   UNL     1      -3.637  -3.562  -0.660  1.00  0.00     0.117 A 
ATOM     14  C   UNL     1      -2.734  -4.376   1.231  1.00  0.00     0.252 A 
ATOM     15  N   UNL     1      -1.707  -3.162   2.825  1.00  0.00    -0.149 NA
ATOM     16  N   UNL     1      -3.356  -4.614   0.042  1.00  0.00    -0.220 NA
ATOM     17  N   UNL     1      -2.263  -5.250   2.092  1.00  0.00    -0.194 NA
BRANCH  10  18
ATOM     18  C   UNL     1      -2.081  -0.681   1.194  1.00  0.00     0.041 A 
ATOM     19  C   UNL     1      -3.970   0.819   2.144  1.00  0.00     0.069 C 
ATOM     20  C   UNL     1      -2.579   0.517   1.754  1.00  0.00     0.069 A 
ATOM     21  N   UNL     1      -1.630   1.473   1.847  1.00  0.00    -0.178 NA
ATOM     22  N   UNL     1      -0.534   0.893   1.345  1.00  0.00    -0.275 N 
ATOM     23  C   UNL     1      -0.795  -0.347   0.870  1.00  0.00     0.119 A 
ATOM     24  C   UNL     1       0.712   1.602   1.167  1.00  0.00     0.173 C 
ENDBRANCH  10  18
ENDBRANCH   8   9
ENDBRANCH   7   8
ENDBRANCH   4   7
ENDBRANCH   2   3
ENDBRANCH   1   2
BRANCH   1  25
ATOM     25  C   UNL     1       1.383  -2.338  -0.889  1.00  0.00     0.118 C 
BRANCH  25  26
ATOM     26  N   UNL     1       0.492  -2.470  -2.072  1.00  0.00    -0.352 N 
ATOM     27  C   UNL     1      -0.456  -1.846  -2.869  1.00  0.00     0.251 C 
ATOM     28  H   UNL     1       0.634  -3.371  -2.442  1.00  0.00     0.163 HD
ATOM     29  O   UNL     1      -0.656  -2.486  -3.916  1.00  0.00    -0.269 OA
BRANCH  27  30
ATOM     30  C   UNL     1      -1.359  -0.632  -2.692  1.00  0.00     0.039 A 
ATOM     31  C   UNL     1      -2.596  -0.671  -3.381  1.00  0.00     0.014 A 
ATOM     32  C   UNL     1      -1.161   0.534  -1.966  1.00  0.00     0.014 A 
ATOM     33  C   UNL     1      -3.632   0.298  -3.212  1.00  0.00     0.010 A 
ATOM     34  C   UNL     1      -2.242   1.470  -1.723  1.00  0.00     0.010 A 
ATOM     35  C   UNL     1      -3.531   1.353  -2.295  1.00  0.00    -0.014 A 
BRANCH  35  36
ATOM     36  C   UNL     1      -4.756   2.239  -1.956  1.00  0.00     0.031 A 
ATOM     37  C   UNL     1      -4.707   3.772  -1.913  1.00  0.00     0.074 A 
ATOM     38  C   UNL     1      -5.973   1.711  -1.636  1.00  0.00     0.049 A 
ATOM     39  N   UNL     1      -5.682   4.632  -1.677  1.00  0.00    -0.248 NA
ATOM     40  C   UNL     1      -3.411   4.418  -2.138  1.00  0.00     0.031 C 
ATOM     41  C   UNL     1      -6.289   0.287  -1.520  1.00  0.00     0.029 A 
ATOM     42  N   UNL     1      -7.191   2.317  -1.339  1.00  0.00    -0.354 N 
ATOM     43  C   UNL     1      -5.111   5.905  -1.694  1.00  0.00     0.074 A 
ATOM     44  C   UNL     1      -3.692   5.695  -1.909  1.00  0.00     0.031 C 
ATOM     45  C   UNL     1      -7.590   0.129  -1.221  1.00  0.00     0.029 A 
ATOM     46  C   UNL     1      -8.230   1.437  -1.093  1.00  0.00     0.049 A 
ATOM     47  H   UNL     1      -7.303   3.295  -1.307  1.00  0.00     0.167 HD
ATOM     48  C   UNL     1      -5.676   7.140  -1.582  1.00  0.00     0.031 A 
ATOM     49  C   UNL     1      -9.544   1.613  -0.807  1.00  0.00     0.031 A 
ATOM     50  C   UNL     1      -7.081   7.430  -1.406  1.00  0.00     0.049 A 
ATOM     51  C   UNL     1     -10.166   2.989  -0.711  1.00  0.00     0.074 A 
ATOM     52  C   UNL     1      -7.706   8.672  -1.399  1.00  0.00     0.029 A 
ATOM     53  N   UNL     1      -8.079   6.496  -1.198  1.00  0.00    -0.354 N 
ATOM     54  N   UNL     1      -9.606   4.161  -0.870  1.00  0.00    -0.248 NA
ATOM     55  C   UNL     1     -11.611   3.060  -0.416  1.00  0.00     0.031 C 
ATOM     56  C   UNL     1      -9.068   8.491  -1.136  1.00  0.00     0.029 A 
ATOM     57  C   UNL     1      -9.305   7.133  -1.042  1.00  0.00     0.049 A 
ATOM     58  H   UNL     1      -7.941   5.522  -1.165  1.00  0.00     0.167 HD
ATOM     59  C   UNL     1     -10.633   5.097  -0.735  1.00  0.00     0.074 A 
ATOM     60  C   UNL     1     -11.851   4.362  -0.492  1.00  0.00     0.031 C 
ATOM     61  C   UNL     1     -10.552   6.447  -0.816  1.00  0.00     0.031 A 
BRANCH  48  62
ATOM     62  C   UNL     1      -4.755   8.338  -1.685  1.00  0.00    -0.014 A 
ATOM     63  C   UNL     1      -4.138   8.667  -2.906  1.00  0.00     0.010 A 
ATOM     64  C   UNL     1      -4.562   9.186  -0.576  1.00  0.00     0.010 A 
ATOM     65  C   UNL     1      -3.290   9.773  -2.998  1.00  0.00     0.020 A 
ATOM     66  C   UNL     1      -3.743  10.317  -0.674  1.00  0.00     0.020 A 
ATOM     67  C   UNL     1      -3.090  10.586  -1.879  1.00  0.00     0.054 A 
BRANCH  67  68
ATOM     68  S   UNL     1      -1.975  12.009  -2.027  1.00  0.00     0.124 S 
ATOM     69  O   UNL     1      -0.665  11.355  -2.073  1.00  0.00    -0.237 OA
ATOM     70  O   UNL     1      -2.406  12.623  -3.285  1.00  0.00    -0.237 OA
ATOM     71  O   UNL     1      -2.240  12.790  -0.831  1.00  0.00    -0.744 OA
ENDBRANCH  67  68
ENDBRANCH  48  62
BRANCH  49  72
ATOM     72  C   UNL     1     -10.438   0.425  -0.615  1.00  0.00    -0.014 A 
ATOM     73  C   UNL     1     -11.420   0.111  -1.575  1.00  0.00     0.010 A 
ATOM     74  C   UNL     1     -10.355  -0.357   0.551  1.00  0.00     0.010 A 
ATOM     75  C   UNL     1     -12.312  -0.946  -1.364  1.00  0.00     0.020 A 
ATOM     76  C   UNL     1     -11.225  -1.436   0.750  1.00  0.00     0.020 A 
ATOM     77  C   UNL     1     -12.206  -1.717  -0.204  1.00  0.00     0.054 A 
BRANCH  77  78
ATOM     78  S   UNL     1     -13.338  -3.119   0.020  1.00  0.00     0.124 S 
ATOM     79  O   UNL     1     -14.599  -2.448   0.319  1.00  0.00    -0.237 OA
ATOM     80  O   UNL     1     -13.269  -3.788  -1.277  1.00  0.00    -0.237 OA
ATOM     81  O   UNL     1     -12.745  -3.862   1.129  1.00  0.00    -0.744 OA
ENDBRANCH  77  78
ENDBRANCH  49  72
BRANCH  61  82
ATOM     82  C   UNL     1     -11.821   7.265  -0.701  1.00  0.00    -0.014 A 
ATOM     83  C   UNL     1     -12.516   7.394   0.515  1.00  0.00     0.010 A 
ATOM     84  C   UNL     1     -12.292   7.977  -1.822  1.00  0.00     0.010 A 
ATOM     85  C   UNL     1     -13.663   8.197   0.602  1.00  0.00     0.020 A 
ATOM     86  C   UNL     1     -13.423   8.799  -1.735  1.00  0.00     0.020 A 
ATOM     87  C   UNL     1     -14.109   8.896  -0.523  1.00  0.00     0.054 A 
BRANCH  87  88
ATOM     88  S   UNL     1     -15.565   9.973  -0.372  1.00  0.00     0.124 S 
ATOM     89  O   UNL     1     -16.652   9.004  -0.263  1.00  0.00    -0.237 OA
ATOM     90  O   UNL     1     -15.277  10.733   0.842  1.00  0.00    -0.237 OA
ATOM     91  O   UNL     1     -15.550  10.754  -1.607  1.00  0.00    -0.744 OA
ENDBRANCH  87  88
ENDBRANCH  61  82
ENDBRANCH  35  36
ENDBRANCH  27  30
ENDBRANCH  25  26
ENDBRANCH   1  25
TORSDOF 16
