REMARK SMILES CC(C)[C@H](NC(=O)c1cc2cc(Cl)ccc2n1C)C(=O)N[C@@H](C(=O)NCCCNC(=O)c1ccc(-c2c3nc(c(-c4ccc(S(=O)(=O)[O-])cc4)c4ccc([nH]4)c(-c4ccc(S(=O)(=O)[O-])cc4)c4nc(c(-c5ccc(S(=O)(=O)[O-])cc5)c5ccc2[nH]5)C=C4)C=C3)cc1)c1ccccc1
REMARK SMILES IDX 26 1 25 2 23 3 24 4 22 6 21 7 19 8 20 9 4 11 2 12 1 13 3 14
REMARK SMILES IDX 5 15 6 16 7 18 8 19 9 20 17 21 10 22 16 23 18 24 11 25 15 26
REMARK SMILES IDX 12 27 14 28 13 29 92 30 93 31 97 32 94 33 96 34 95 35 27 36
REMARK SMILES IDX 28 37 29 38 30 39 31 41 32 42 33 43 91 44 34 45 90 46 35 47
REMARK SMILES IDX 36 48 37 49 84 50 38 51 89 52 83 53 85 54 39 55 88 56 82 57
REMARK SMILES IDX 81 58 40 60 70 61 51 62 69 63 52 64 55 65 68 66 86 67 53 68
REMARK SMILES IDX 54 69 67 71 87 72 56 73 41 74 42 75 50 76 43 77 49 78 44 79
REMARK SMILES IDX 45 80 46 81 47 82 48 83 71 84 72 85 80 86 73 87 79 88 74 89
REMARK SMILES IDX 75 90 76 91 77 92 78 93 57 94 58 95 66 96 59 97 65 98 60 99
REMARK SMILES IDX 61 100 62 101 63 102 64 103
REMARK H PARENT 25 5 21 10 5 17 29 40 85 59 55 70
REMARK Flexibility Score: inf
ROOT
ATOM      1  C   UNL     1       2.009   3.384   2.266  1.00  0.00     0.117 C 
ENDROOT
BRANCH   1   2
ATOM      2  N   UNL     1       1.803   3.550   3.692  1.00  0.00    -0.354 N 
ATOM      3  C   UNL     1       0.856   2.998   4.511  1.00  0.00     0.247 C 
ATOM      4  O   UNL     1       1.094   3.070   5.722  1.00  0.00    -0.272 OA
ATOM      5  H   UNL     1       2.442   4.153   4.138  1.00  0.00     0.163 HD
BRANCH   3   6
ATOM      6  C   UNL     1      -0.365   2.201   3.932  1.00  0.00     0.202 C 
BRANCH   6   7
ATOM      7  N   UNL     1      -0.984   2.924   2.832  1.00  0.00    -0.339 N 
ATOM      8  C   UNL     1      -1.395   2.569   1.596  1.00  0.00     0.243 C 
ATOM      9  O   UNL     1      -1.931   3.485   0.957  1.00  0.00    -0.273 OA
ATOM     10  H   UNL     1      -1.135   3.877   3.031  1.00  0.00     0.164 HD
BRANCH   8  11
ATOM     11  C   UNL     1      -1.282   1.151   0.962  1.00  0.00     0.174 C 
BRANCH  11  12
ATOM     12  C   UNL     1      -2.388   0.140   1.330  1.00  0.00     0.015 C 
ATOM     13  C   UNL     1      -3.648   0.771   1.930  1.00  0.00     0.010 C 
ATOM     14  C   UNL     1      -2.816  -0.631   0.067  1.00  0.00     0.010 C 
ENDBRANCH  11  12
BRANCH  11  15
ATOM     15  N   UNL     1       0.107   0.652   0.802  1.00  0.00    -0.339 N 
ATOM     16  C   UNL     1       0.977  -0.200   1.423  1.00  0.00     0.268 C 
ATOM     17  H   UNL     1       0.530   1.058   0.011  1.00  0.00     0.164 HD
ATOM     18  O   UNL     1       2.170  -0.060   1.159  1.00  0.00    -0.268 OA
BRANCH  16  19
ATOM     19  C   UNL     1       0.534  -1.190   2.370  1.00  0.00     0.107 A 
ATOM     20  C   UNL     1       0.960  -1.337   3.683  1.00  0.00     0.042 A 
ATOM     21  N   UNL     1      -0.198  -2.329   2.102  1.00  0.00    -0.340 N 
ATOM     22  C   UNL     1       0.190  -2.365   4.290  1.00  0.00     0.002 A 
ATOM     23  C   UNL     1      -0.595  -2.927   3.284  1.00  0.00     0.048 A 
ATOM     24  C   UNL     1      -0.439  -2.895   0.792  1.00  0.00     0.150 C 
ATOM     25  C   UNL     1       0.062  -2.842   5.609  1.00  0.00     0.030 A 
ATOM     26  C   UNL     1      -1.542  -3.928   3.546  1.00  0.00     0.028 A 
ATOM     27  C   UNL     1      -0.904  -3.813   5.883  1.00  0.00     0.041 A 
ATOM     28  C   UNL     1      -1.701  -4.343   4.872  1.00  0.00     0.023 A 
ATOM     29  Cl  UNL     1      -1.131  -4.342   7.508  1.00  0.00    -0.084 Cl
ENDBRANCH  16  19
ENDBRANCH  11  15
ENDBRANCH   8  11
ENDBRANCH   6   7
BRANCH   6  30
ATOM     30  C   UNL     1      -1.388   1.913   5.032  1.00  0.00    -0.016 A 
ATOM     31  C   UNL     1      -1.336   0.697   5.729  1.00  0.00     0.006 A 
ATOM     32  C   UNL     1      -2.339   2.861   5.444  1.00  0.00     0.006 A 
ATOM     33  C   UNL     1      -2.215   0.416   6.776  1.00  0.00     0.000 A 
ATOM     34  C   UNL     1      -3.216   2.586   6.498  1.00  0.00     0.000 A 
ATOM     35  C   UNL     1      -3.157   1.362   7.161  1.00  0.00     0.000 A 
ENDBRANCH   6  30
ENDBRANCH   3   6
ENDBRANCH   1   2
BRANCH   1  36
ATOM     36  C   UNL     1       1.789   4.670   1.474  1.00  0.00     0.042 C 
BRANCH  36  37
ATOM     37  C   UNL     1       2.904   5.704   1.649  1.00  0.00     0.118 C 
BRANCH  37  38
ATOM     38  N   UNL     1       4.216   5.205   1.279  1.00  0.00    -0.352 N 
ATOM     39  C   UNL     1       4.931   5.120   0.113  1.00  0.00     0.251 C 
ATOM     40  H   UNL     1       4.709   4.840   2.049  1.00  0.00     0.163 HD
ATOM     41  O   UNL     1       6.073   4.663   0.225  1.00  0.00    -0.269 OA
BRANCH  39  42
ATOM     42  C   UNL     1       4.450   5.527  -1.242  1.00  0.00     0.039 A 
ATOM     43  C   UNL     1       3.156   5.935  -1.556  1.00  0.00     0.014 A 
ATOM     44  C   UNL     1       5.386   5.456  -2.295  1.00  0.00     0.014 A 
ATOM     45  C   UNL     1       2.801   6.238  -2.876  1.00  0.00     0.010 A 
ATOM     46  C   UNL     1       5.037   5.771  -3.616  1.00  0.00     0.010 A 
ATOM     47  C   UNL     1       3.730   6.147  -3.919  1.00  0.00    -0.014 A 
BRANCH  47  48
ATOM     48  C   UNL     1       3.246   6.456  -5.272  1.00  0.00     0.031 A 
ATOM     49  C   UNL     1       2.717   7.824  -5.547  1.00  0.00     0.074 A 
ATOM     50  C   UNL     1       3.314   5.651  -6.351  1.00  0.00     0.049 A 
ATOM     51  N   UNL     1       1.524   8.162  -5.926  1.00  0.00    -0.248 NA
ATOM     52  C   UNL     1       3.660   8.946  -5.443  1.00  0.00     0.031 C 
ATOM     53  C   UNL     1       4.129   4.452  -6.535  1.00  0.00     0.029 A 
ATOM     54  N   UNL     1       2.709   5.822  -7.572  1.00  0.00    -0.354 N 
ATOM     55  C   UNL     1       1.583   9.520  -6.226  1.00  0.00     0.074 A 
ATOM     56  C   UNL     1       2.911   9.965  -5.870  1.00  0.00     0.031 C 
ATOM     57  C   UNL     1       4.137   4.130  -7.848  1.00  0.00     0.029 A 
ATOM     58  C   UNL     1       3.203   4.994  -8.559  1.00  0.00     0.049 A 
ATOM     59  H   UNL     1       1.989   6.474  -7.728  1.00  0.00     0.167 HD
ATOM     60  C   UNL     1       0.591  10.197  -6.863  1.00  0.00     0.031 A 
ATOM     61  C   UNL     1       2.917   5.024  -9.879  1.00  0.00     0.031 A 
ATOM     62  C   UNL     1      -0.619   9.449  -7.032  1.00  0.00     0.049 A 
ATOM     63  C   UNL     1       1.607   5.674 -10.124  1.00  0.00     0.074 A 
ATOM     64  C   UNL     1      -1.687   9.085  -6.245  1.00  0.00     0.029 A 
ATOM     65  N   UNL     1      -0.746   8.777  -8.220  1.00  0.00    -0.354 N 
ATOM     66  N   UNL     1       0.466   5.210  -9.695  1.00  0.00    -0.248 NA
ATOM     67  C   UNL     1       1.534   6.980 -10.773  1.00  0.00     0.031 C 
ATOM     68  C   UNL     1      -2.318   7.991  -6.904  1.00  0.00     0.029 A 
ATOM     69  C   UNL     1      -1.570   7.690  -8.042  1.00  0.00     0.049 A 
ATOM     70  H   UNL     1      -0.315   9.032  -9.067  1.00  0.00     0.167 HD
ATOM     71  C   UNL     1      -0.383   6.298  -9.688  1.00  0.00     0.074 A 
ATOM     72  C   UNL     1       0.263   7.298 -10.519  1.00  0.00     0.031 C 
ATOM     73  C   UNL     1      -1.350   6.434  -8.738  1.00  0.00     0.031 A 
BRANCH  60  74
ATOM     74  C   UNL     1       0.774  11.505  -7.574  1.00  0.00    -0.014 A 
ATOM     75  C   UNL     1       1.939  11.796  -8.312  1.00  0.00     0.010 A 
ATOM     76  C   UNL     1      -0.324  12.375  -7.714  1.00  0.00     0.010 A 
ATOM     77  C   UNL     1       2.022  12.933  -9.123  1.00  0.00     0.020 A 
ATOM     78  C   UNL     1      -0.259  13.502  -8.544  1.00  0.00     0.020 A 
ATOM     79  C   UNL     1       0.920  13.781  -9.235  1.00  0.00     0.054 A 
BRANCH  79  80
ATOM     80  S   UNL     1       0.992  15.194 -10.371  1.00  0.00     0.124 S 
ATOM     81  O   UNL     1       1.570  16.232  -9.522  1.00  0.00    -0.237 OA
ATOM     82  O   UNL     1       1.855  14.707 -11.446  1.00  0.00    -0.237 OA
ATOM     83  O   UNL     1      -0.405  15.395 -10.746  1.00  0.00    -0.744 OA
ENDBRANCH  79  80
ENDBRANCH  60  74
BRANCH  61  84
ATOM     84  C   UNL     1       3.833   4.666 -10.986  1.00  0.00    -0.014 A 
ATOM     85  C   UNL     1       5.220   4.871 -10.842  1.00  0.00     0.010 A 
ATOM     86  C   UNL     1       3.337   4.354 -12.264  1.00  0.00     0.010 A 
ATOM     87  C   UNL     1       6.082   4.795 -11.937  1.00  0.00     0.020 A 
ATOM     88  C   UNL     1       4.196   4.292 -13.371  1.00  0.00     0.020 A 
ATOM     89  C   UNL     1       5.561   4.530 -13.202  1.00  0.00     0.054 A 
BRANCH  89  90
ATOM     90  S   UNL     1       6.692   4.582 -14.618  1.00  0.00     0.124 S 
ATOM     91  O   UNL     1       7.155   5.966 -14.589  1.00  0.00    -0.237 OA
ATOM     92  O   UNL     1       7.689   3.578 -14.256  1.00  0.00    -0.237 OA
ATOM     93  O   UNL     1       5.842   4.232 -15.754  1.00  0.00    -0.744 OA
ENDBRANCH  89  90
ENDBRANCH  61  84
BRANCH  73  94
ATOM     94  C   UNL     1      -1.934   5.189  -8.122  1.00  0.00    -0.014 A 
ATOM     95  C   UNL     1      -3.325   4.988  -8.207  1.00  0.00     0.010 A 
ATOM     96  C   UNL     1      -1.169   4.286  -7.364  1.00  0.00     0.010 A 
ATOM     97  C   UNL     1      -3.938   3.922  -7.541  1.00  0.00     0.020 A 
ATOM     98  C   UNL     1      -1.774   3.204  -6.712  1.00  0.00     0.020 A 
ATOM     99  C   UNL     1      -3.159   3.041  -6.786  1.00  0.00     0.054 A 
BRANCH  99 100
ATOM    100  S   UNL     1      -3.974   1.679  -5.908  1.00  0.00     0.124 S 
ATOM    101  O   UNL     1      -4.523   2.351  -4.733  1.00  0.00    -0.237 OA
ATOM    102  O   UNL     1      -4.963   1.207  -6.875  1.00  0.00    -0.237 OA
ATOM    103  O   UNL     1      -2.890   0.738  -5.631  1.00  0.00    -0.744 OA
ENDBRANCH  99 100
ENDBRANCH  73  94
ENDBRANCH  47  48
ENDBRANCH  39  42
ENDBRANCH  37  38
ENDBRANCH  36  37
ENDBRANCH   1  36
TORSDOF 19
