REMARK SMILES Cc1cc(C(=O)N[C@@H](C)C(=O)NCCCNC(=O)c2ccc(-c3c4nc(c(-c5ccc(S(=O)(=O)[O-])cc5)c5ccc([nH]5)c(-c5ccc(S(=O)(=O)[O-])cc5)c5nc(c(-c6ccc(S(=O)(=O)[O-])cc6)c6ccc3[nH]6)C=C5)C=C4)cc2)cc(C)c1OC(F)F
REMARK SMILES IDX 13 1 12 2 10 3 11 4 8 6 9 7 7 8 5 9 6 10 4 12 1 13 2 14 3 15
REMARK SMILES IDX 82 16 80 17 79 18 81 19 83 20 84 21 85 22 86 23 14 24 15 25
REMARK SMILES IDX 16 26 17 27 18 29 19 30 20 31 78 32 21 33 77 34 22 35 23 36
REMARK SMILES IDX 24 37 71 38 25 39 76 40 70 41 72 42 26 43 75 44 69 45 68 46
REMARK SMILES IDX 27 48 57 49 38 50 56 51 39 52 42 53 55 54 73 55 40 56 41 57
REMARK SMILES IDX 54 59 74 60 43 61 28 62 29 63 37 64 30 65 36 66 31 67 32 68
REMARK SMILES IDX 33 69 34 70 35 71 58 72 59 73 67 74 60 75 66 76 61 77 62 78
REMARK SMILES IDX 63 79 64 80 65 81 44 82 45 83 53 84 46 85 52 86 47 87 48 88
REMARK SMILES IDX 49 89 50 90 51 91
REMARK H PARENT 12 5 7 11 16 28 72 47 42 58
REMARK Flexibility Score: inf
ROOT
ATOM      1  C   UNL     1      -6.766  -0.574  -0.347  1.00  0.00     0.117 C 
ENDROOT
BRANCH   1   2
ATOM      2  N   UNL     1      -5.852  -1.471  -1.032  1.00  0.00    -0.354 N 
ATOM      3  C   UNL     1      -4.599  -1.893  -0.695  1.00  0.00     0.242 C 
ATOM      4  O   UNL     1      -4.062  -2.728  -1.430  1.00  0.00    -0.273 OA
ATOM      5  H   UNL     1      -6.194  -1.835  -1.881  1.00  0.00     0.163 HD
BRANCH   3   6
ATOM      6  C   UNL     1      -3.857  -1.340   0.537  1.00  0.00     0.168 C 
ATOM      7  C   UNL     1      -4.543  -1.643   1.862  1.00  0.00     0.041 C 
BRANCH   6   8
ATOM      8  N   UNL     1      -3.562   0.075   0.309  1.00  0.00    -0.341 N 
ATOM      9  C   UNL     1      -2.438   0.729  -0.143  1.00  0.00     0.251 C 
ATOM     10  O   UNL     1      -2.547   1.932  -0.382  1.00  0.00    -0.269 OA
ATOM     11  H   UNL     1      -4.313   0.675   0.520  1.00  0.00     0.164 HD
BRANCH   9  12
ATOM     12  C   UNL     1      -1.093   0.094  -0.252  1.00  0.00     0.040 A 
ATOM     13  C   UNL     1       2.406   1.436   0.213  1.00  0.00     0.048 C 
ATOM     14  C   UNL     1       1.353   0.379   0.026  1.00  0.00    -0.008 A 
ATOM     15  C   UNL     1       0.032   0.899  -0.038  1.00  0.00     0.021 A 
ATOM     16  C   UNL     1       1.518  -1.015  -0.026  1.00  0.00     0.131 A 
ATOM     17  C   UNL     1       0.390  -1.821  -0.323  1.00  0.00    -0.008 A 
ATOM     18  C   UNL     1      -0.875  -1.244  -0.524  1.00  0.00     0.021 A 
ATOM     19  C   UNL     1       0.441  -3.330  -0.335  1.00  0.00     0.048 C 
BRANCH  16  20
ATOM     20  O   UNL     1       2.619  -1.766   0.250  1.00  0.00    -0.434 OA
BRANCH  20  21
ATOM     21  C   UNL     1       3.944  -1.319   0.068  1.00  0.00     0.542 C 
ATOM     22  F   UNL     1       4.071  -0.623  -1.083  1.00  0.00    -0.167 F 
ATOM     23  F   UNL     1       4.312  -0.545   1.115  1.00  0.00    -0.167 F 
ENDBRANCH  20  21
ENDBRANCH  16  20
ENDBRANCH   9  12
ENDBRANCH   6   8
ENDBRANCH   3   6
ENDBRANCH   1   2
BRANCH   1  24
ATOM     24  C   UNL     1      -7.264   0.566  -1.222  1.00  0.00     0.042 C 
BRANCH  24  25
ATOM     25  C   UNL     1      -8.077   0.128  -2.433  1.00  0.00     0.118 C 
BRANCH  25  26
ATOM     26  N   UNL     1      -9.288  -0.599  -2.070  1.00  0.00    -0.352 N 
ATOM     27  C   UNL     1     -10.611  -0.229  -2.148  1.00  0.00     0.251 C 
ATOM     28  H   UNL     1      -9.133  -1.502  -1.711  1.00  0.00     0.163 HD
ATOM     29  O   UNL     1     -11.463  -0.923  -1.607  1.00  0.00    -0.269 OA
BRANCH  27  30
ATOM     30  C   UNL     1     -11.002   1.012  -2.853  1.00  0.00     0.039 A 
ATOM     31  C   UNL     1     -11.952   1.853  -2.267  1.00  0.00     0.014 A 
ATOM     32  C   UNL     1     -10.439   1.349  -4.085  1.00  0.00     0.014 A 
ATOM     33  C   UNL     1     -12.259   3.078  -2.867  1.00  0.00     0.010 A 
ATOM     34  C   UNL     1     -10.680   2.605  -4.637  1.00  0.00     0.010 A 
ATOM     35  C   UNL     1     -11.582   3.489  -4.027  1.00  0.00    -0.014 A 
BRANCH  35  36
ATOM     36  C   UNL     1     -11.764   4.851  -4.592  1.00  0.00     0.031 A 
ATOM     37  C   UNL     1     -12.303   5.032  -5.985  1.00  0.00     0.074 A 
ATOM     38  C   UNL     1     -11.353   5.921  -3.880  1.00  0.00     0.049 A 
ATOM     39  N   UNL     1     -12.431   6.133  -6.680  1.00  0.00    -0.248 NA
ATOM     40  C   UNL     1     -12.733   3.819  -6.700  1.00  0.00     0.031 C 
ATOM     41  C   UNL     1     -10.772   5.874  -2.535  1.00  0.00     0.029 A 
ATOM     42  N   UNL     1     -11.342   7.258  -4.194  1.00  0.00    -0.354 N 
ATOM     43  C   UNL     1     -12.934   5.746  -7.917  1.00  0.00     0.074 A 
ATOM     44  C   UNL     1     -13.056   4.305  -7.891  1.00  0.00     0.031 C 
ATOM     45  C   UNL     1     -10.477   7.121  -2.135  1.00  0.00     0.029 A 
ATOM     46  C   UNL     1     -10.796   8.053  -3.211  1.00  0.00     0.049 A 
ATOM     47  H   UNL     1     -11.691   7.615  -5.042  1.00  0.00     0.167 HD
ATOM     48  C   UNL     1     -13.275   6.523  -8.972  1.00  0.00     0.031 A 
ATOM     49  C   UNL     1     -10.556   9.379  -3.185  1.00  0.00     0.031 A 
ATOM     50  C   UNL     1     -13.166   7.958  -8.987  1.00  0.00     0.049 A 
ATOM     51  C   UNL     1     -10.927  10.212  -4.382  1.00  0.00     0.074 A 
ATOM     52  C   UNL     1     -13.555   8.836  -9.984  1.00  0.00     0.029 A 
ATOM     53  N   UNL     1     -12.625   8.725  -7.967  1.00  0.00    -0.354 N 
ATOM     54  N   UNL     1     -11.483   9.835  -5.508  1.00  0.00    -0.248 NA
ATOM     55  C   UNL     1     -10.643  11.652  -4.302  1.00  0.00     0.031 C 
ATOM     56  C   UNL     1     -13.188  10.128  -9.595  1.00  0.00     0.029 A 
ATOM     57  C   UNL     1     -12.634  10.062  -8.327  1.00  0.00     0.049 A 
ATOM     58  H   UNL     1     -12.284   8.371  -7.114  1.00  0.00     0.167 HD
ATOM     59  C   UNL     1     -11.636  10.994  -6.260  1.00  0.00     0.074 A 
ATOM     60  C   UNL     1     -11.140  12.088  -5.451  1.00  0.00     0.031 C 
ATOM     61  C   UNL     1     -12.138  11.140  -7.511  1.00  0.00     0.031 A 
BRANCH  48  62
ATOM     62  C   UNL     1     -13.797   5.846 -10.213  1.00  0.00    -0.014 A 
ATOM     63  C   UNL     1     -15.078   5.266 -10.241  1.00  0.00     0.010 A 
ATOM     64  C   UNL     1     -13.034   5.877 -11.395  1.00  0.00     0.010 A 
ATOM     65  C   UNL     1     -15.579   4.716 -11.424  1.00  0.00     0.020 A 
ATOM     66  C   UNL     1     -13.542   5.351 -12.586  1.00  0.00     0.020 A 
ATOM     67  C   UNL     1     -14.810   4.768 -12.591  1.00  0.00     0.054 A 
BRANCH  67  68
ATOM     68  S   UNL     1     -15.517   4.107 -14.125  1.00  0.00     0.124 S 
ATOM     69  O   UNL     1     -15.511   2.670 -13.866  1.00  0.00    -0.237 OA
ATOM     70  O   UNL     1     -16.837   4.732 -14.163  1.00  0.00    -0.237 OA
ATOM     71  O   UNL     1     -14.588   4.557 -15.159  1.00  0.00    -0.744 OA
ENDBRANCH  67  68
ENDBRANCH  48  62
BRANCH  49  72
ATOM     72  C   UNL     1      -9.909  10.004  -1.996  1.00  0.00    -0.014 A 
ATOM     73  C   UNL     1     -10.617  10.910  -1.187  1.00  0.00     0.010 A 
ATOM     74  C   UNL     1      -8.567   9.715  -1.684  1.00  0.00     0.010 A 
ATOM     75  C   UNL     1      -9.985  11.544  -0.113  1.00  0.00     0.020 A 
ATOM     76  C   UNL     1      -7.942  10.321  -0.590  1.00  0.00     0.020 A 
ATOM     77  C   UNL     1      -8.650  11.247   0.177  1.00  0.00     0.054 A 
BRANCH  77  78
ATOM     78  S   UNL     1      -7.855  12.071   1.584  1.00  0.00     0.124 S 
ATOM     79  O   UNL     1      -7.669  13.427   1.076  1.00  0.00    -0.237 OA
ATOM     80  O   UNL     1      -8.852  11.922   2.641  1.00  0.00    -0.237 OA
ATOM     81  O   UNL     1      -6.628  11.302   1.782  1.00  0.00    -0.744 OA
ENDBRANCH  77  78
ENDBRANCH  49  72
BRANCH  61  82
ATOM     82  C   UNL     1     -12.204  12.536  -8.074  1.00  0.00    -0.014 A 
ATOM     83  C   UNL     1     -11.039  13.225  -8.454  1.00  0.00     0.010 A 
ATOM     84  C   UNL     1     -13.457  13.145  -8.275  1.00  0.00     0.010 A 
ATOM     85  C   UNL     1     -11.123  14.511  -8.994  1.00  0.00     0.020 A 
ATOM     86  C   UNL     1     -13.547  14.417  -8.845  1.00  0.00     0.020 A 
ATOM     87  C   UNL     1     -12.377  15.098  -9.188  1.00  0.00     0.054 A 
BRANCH  87  88
ATOM     88  S   UNL     1     -12.460  16.749  -9.933  1.00  0.00     0.124 S 
ATOM     89  O   UNL     1     -11.971  17.597  -8.849  1.00  0.00    -0.237 OA
ATOM     90  O   UNL     1     -11.569  16.625 -11.084  1.00  0.00    -0.237 OA
ATOM     91  O   UNL     1     -13.874  16.912 -10.261  1.00  0.00    -0.744 OA
ENDBRANCH  87  88
ENDBRANCH  61  82
ENDBRANCH  35  36
ENDBRANCH  27  30
ENDBRANCH  25  26
ENDBRANCH  24  25
ENDBRANCH   1  24
TORSDOF 17
