REMARK SMILES Cc1cnn(C2(C(=O)NCCCNC(=O)c3ccc(-c4c5nc(c(-c6ccc(S(=O)(=O)[O-])cc6)c6ccc([nH]6)c(-c6ccc(S(=O)(=O)[O-])cc6)c6nc(c(-c7ccc(S(=O)(=O)[O-])cc7)c7ccc4[nH]7)C=C6)C=C5)cc3)CCN(C(=O)c3cc4ccccc4[nH]3)CC2)c1
REMARK SMILES IDX 12 1 11 2 10 3 9 4 7 5 8 6 6 8 76 9 91 10 77 11 90 12 78 13
REMARK SMILES IDX 79 14 80 15 5 16 1 17 2 18 3 19 92 20 4 21 81 22 82 23 89 24
REMARK SMILES IDX 83 25 88 26 84 28 87 29 85 30 86 31 13 32 14 33 15 35 16 36
REMARK SMILES IDX 17 37 75 38 18 39 74 40 19 41 20 42 21 43 68 44 22 45 73 46
REMARK SMILES IDX 67 47 69 48 23 49 72 50 66 51 65 52 24 54 54 55 35 56 53 57
REMARK SMILES IDX 36 58 39 59 52 60 70 61 37 62 38 63 51 65 71 66 40 67 25 68
REMARK SMILES IDX 26 69 34 70 27 71 33 72 28 73 29 74 30 75 31 76 32 77 55 78
REMARK SMILES IDX 56 79 64 80 57 81 63 82 58 83 59 84 60 85 61 86 62 87 41 88
REMARK SMILES IDX 42 89 50 90 43 91 49 92 44 93 45 94 46 95 47 96 48 97
REMARK H PARENT 9 7 89 27 13 34 69 53 39 64
REMARK Flexibility Score: inf
ROOT
ATOM      1  C   UNL     1      -1.556   6.952   6.579  1.00  0.00     0.118 C 
ENDROOT
BRANCH   1   2
ATOM      2  C   UNL     1      -0.943   6.699   5.215  1.00  0.00     0.042 C 
BRANCH   2   3
ATOM      3  C   UNL     1       0.191   5.671   5.245  1.00  0.00     0.117 C 
BRANCH   3   4
ATOM      4  N   UNL     1      -0.247   4.303   5.520  1.00  0.00    -0.354 N 
ATOM      5  C   UNL     1      -0.224   3.133   4.785  1.00  0.00     0.248 C 
ATOM      6  O   UNL     1      -0.617   2.152   5.416  1.00  0.00    -0.272 OA
ATOM      7  H   UNL     1      -0.639   4.192   6.416  1.00  0.00     0.163 HD
BRANCH   5   8
ATOM      8  C   UNL     1       0.278   3.119   3.302  1.00  0.00     0.144 C 
ATOM      9  C   UNL     1      -0.674   4.061   2.520  1.00  0.00     0.062 C 
ATOM     10  C   UNL     1       1.775   3.525   3.348  1.00  0.00     0.062 C 
ATOM     11  C   UNL     1      -0.037   4.833   1.381  1.00  0.00     0.123 C 
ATOM     12  C   UNL     1       2.266   4.311   2.142  1.00  0.00     0.123 C 
ATOM     13  N   UNL     1       1.298   5.309   1.701  1.00  0.00    -0.337 N 
ATOM     14  C   UNL     1       1.591   6.660   1.512  1.00  0.00     0.270 C 
ATOM     15  O   UNL     1       0.715   7.514   1.440  1.00  0.00    -0.267 OA
BRANCH   8  16
ATOM     16  N   UNL     1       0.238   1.789   2.608  1.00  0.00    -0.257 N 
ATOM     17  C   UNL     1       0.907  -0.533  -0.148  1.00  0.00     0.048 C 
ATOM     18  C   UNL     1       0.548   0.193   1.089  1.00  0.00    -0.013 A 
ATOM     19  C   UNL     1       0.060  -0.308   2.308  1.00  0.00     0.138 A 
ATOM     20  C   UNL     1       0.634   1.547   1.309  1.00  0.00     0.113 A 
ATOM     21  N   UNL     1      -0.101   0.647   3.225  1.00  0.00    -0.180 NA
ENDBRANCH   8  16
BRANCH  14  22
ATOM     22  C   UNL     1       2.987   7.018   1.442  1.00  0.00     0.105 A 
ATOM     23  C   UNL     1       3.994   6.534   0.625  1.00  0.00     0.042 A 
ATOM     24  N   UNL     1       3.541   8.008   2.215  1.00  0.00    -0.351 N 
ATOM     25  C   UNL     1       5.204   7.183   0.985  1.00  0.00     0.000 A 
ATOM     26  C   UNL     1       4.899   8.073   2.014  1.00  0.00     0.046 A 
ATOM     27  H   UNL     1       3.036   8.590   2.828  1.00  0.00     0.167 HD
ATOM     28  C   UNL     1       6.535   7.090   0.538  1.00  0.00     0.010 A 
ATOM     29  C   UNL     1       5.869   8.854   2.649  1.00  0.00     0.026 A 
ATOM     30  C   UNL     1       7.516   7.876   1.152  1.00  0.00     0.001 A 
ATOM     31  C   UNL     1       7.187   8.736   2.198  1.00  0.00     0.002 A 
ENDBRANCH  14  22
ENDBRANCH   5   8
ENDBRANCH   3   4
ENDBRANCH   2   3
ENDBRANCH   1   2
BRANCH   1  32
ATOM     32  N   UNL     1      -0.660   7.663   7.491  1.00  0.00    -0.352 N 
ATOM     33  C   UNL     1      -0.950   8.122   8.764  1.00  0.00     0.251 C 
ATOM     34  H   UNL     1       0.251   7.835   7.162  1.00  0.00     0.163 HD
ATOM     35  O   UNL     1      -0.255   8.985   9.287  1.00  0.00    -0.269 OA
BRANCH  33  36
ATOM     36  C   UNL     1      -2.116   7.558   9.467  1.00  0.00     0.039 A 
ATOM     37  C   UNL     1      -2.989   8.368  10.198  1.00  0.00     0.014 A 
ATOM     38  C   UNL     1      -2.356   6.192   9.336  1.00  0.00     0.014 A 
ATOM     39  C   UNL     1      -4.154   7.804  10.714  1.00  0.00     0.010 A 
ATOM     40  C   UNL     1      -3.572   5.676   9.702  1.00  0.00     0.010 A 
ATOM     41  C   UNL     1      -4.454   6.460  10.436  1.00  0.00    -0.014 A 
BRANCH  41  42
ATOM     42  C   UNL     1      -5.750   5.890  10.788  1.00  0.00     0.031 A 
ATOM     43  C   UNL     1      -6.915   6.647  10.262  1.00  0.00     0.074 A 
ATOM     44  C   UNL     1      -5.894   4.663  11.337  1.00  0.00     0.049 A 
ATOM     45  N   UNL     1      -7.746   7.366  10.940  1.00  0.00    -0.248 NA
ATOM     46  C   UNL     1      -7.087   6.757   8.803  1.00  0.00     0.031 C 
ATOM     47  C   UNL     1      -4.848   3.676  11.629  1.00  0.00     0.029 A 
ATOM     48  N   UNL     1      -7.033   3.979  11.626  1.00  0.00    -0.354 N 
ATOM     49  C   UNL     1      -8.699   7.804  10.028  1.00  0.00     0.074 A 
ATOM     50  C   UNL     1      -8.125   7.594   8.723  1.00  0.00     0.031 C 
ATOM     51  C   UNL     1      -5.409   2.459  11.798  1.00  0.00     0.029 A 
ATOM     52  C   UNL     1      -6.853   2.609  11.799  1.00  0.00     0.049 A 
ATOM     53  H   UNL     1      -7.912   4.416  11.707  1.00  0.00     0.167 HD
ATOM     54  C   UNL     1      -9.988   8.033  10.411  1.00  0.00     0.031 A 
ATOM     55  C   UNL     1      -7.820   1.661  11.896  1.00  0.00     0.031 A 
ATOM     56  C   UNL     1     -10.117   8.049  11.848  1.00  0.00     0.049 A 
ATOM     57  C   UNL     1      -9.062   2.359  12.310  1.00  0.00     0.074 A 
ATOM     58  C   UNL     1      -9.522   8.765  12.869  1.00  0.00     0.029 A 
ATOM     59  N   UNL     1     -10.658   6.928  12.436  1.00  0.00    -0.354 N 
ATOM     60  N   UNL     1      -9.200   2.935  13.472  1.00  0.00    -0.248 NA
ATOM     61  C   UNL     1      -9.968   2.828  11.273  1.00  0.00     0.031 C 
ATOM     62  C   UNL     1      -9.308   7.811  13.906  1.00  0.00     0.029 A 
ATOM     63  C   UNL     1      -9.866   6.596  13.504  1.00  0.00     0.049 A 
ATOM     64  H   UNL     1     -11.468   6.451  12.142  1.00  0.00     0.167 HD
ATOM     65  C   UNL     1      -9.857   4.126  13.197  1.00  0.00     0.074 A 
ATOM     66  C   UNL     1     -10.400   3.954  11.850  1.00  0.00     0.031 C 
ATOM     67  C   UNL     1      -9.651   5.239  13.963  1.00  0.00     0.031 A 
BRANCH  54  68
ATOM     68  C   UNL     1     -11.185   7.800   9.518  1.00  0.00    -0.014 A 
ATOM     69  C   UNL     1     -12.469   8.097  10.021  1.00  0.00     0.010 A 
ATOM     70  C   UNL     1     -11.125   7.042   8.330  1.00  0.00     0.010 A 
ATOM     71  C   UNL     1     -13.624   7.586   9.417  1.00  0.00     0.020 A 
ATOM     72  C   UNL     1     -12.273   6.568   7.693  1.00  0.00     0.020 A 
ATOM     73  C   UNL     1     -13.514   6.812   8.262  1.00  0.00     0.054 A 
BRANCH  73  74
ATOM     74  S   UNL     1     -15.002   6.075   7.545  1.00  0.00     0.124 S 
ATOM     75  O   UNL     1     -15.387   5.116   8.576  1.00  0.00    -0.237 OA
ATOM     76  O   UNL     1     -15.878   7.234   7.396  1.00  0.00    -0.237 OA
ATOM     77  O   UNL     1     -14.525   5.495   6.292  1.00  0.00    -0.744 OA
ENDBRANCH  73  74
ENDBRANCH  54  68
BRANCH  55  78
ATOM     78  C   UNL     1      -7.806   0.266  11.380  1.00  0.00    -0.014 A 
ATOM     79  C   UNL     1      -8.850  -0.629  11.684  1.00  0.00     0.010 A 
ATOM     80  C   UNL     1      -6.914  -0.104  10.351  1.00  0.00     0.010 A 
ATOM     81  C   UNL     1      -9.047  -1.801  10.931  1.00  0.00     0.020 A 
ATOM     82  C   UNL     1      -7.096  -1.276   9.604  1.00  0.00     0.020 A 
ATOM     83  C   UNL     1      -8.182  -2.103   9.876  1.00  0.00     0.054 A 
BRANCH  83  84
ATOM     84  S   UNL     1      -8.568  -3.494   8.769  1.00  0.00     0.124 S 
ATOM     85  O   UNL     1      -8.267  -4.652   9.605  1.00  0.00    -0.237 OA
ATOM     86  O   UNL     1      -9.981  -3.280   8.469  1.00  0.00    -0.237 OA
ATOM     87  O   UNL     1      -7.663  -3.294   7.638  1.00  0.00    -0.744 OA
ENDBRANCH  83  84
ENDBRANCH  55  78
BRANCH  67  88
ATOM     88  C   UNL     1      -8.941   5.092  15.290  1.00  0.00    -0.014 A 
ATOM     89  C   UNL     1      -7.632   4.593  15.438  1.00  0.00     0.010 A 
ATOM     90  C   UNL     1      -9.579   5.637  16.419  1.00  0.00     0.010 A 
ATOM     91  C   UNL     1      -6.993   4.614  16.689  1.00  0.00     0.020 A 
ATOM     92  C   UNL     1      -8.942   5.680  17.661  1.00  0.00     0.020 A 
ATOM     93  C   UNL     1      -7.655   5.159  17.794  1.00  0.00     0.054 A 
BRANCH  93  94
ATOM     94  S   UNL     1      -6.816   5.225  19.402  1.00  0.00     0.124 S 
ATOM     95  O   UNL     1      -6.740   3.816  19.778  1.00  0.00    -0.237 OA
ATOM     96  O   UNL     1      -5.540   5.860  19.078  1.00  0.00    -0.237 OA
ATOM     97  O   UNL     1      -7.709   6.037  20.228  1.00  0.00    -0.744 OA
ENDBRANCH  93  94
ENDBRANCH  67  88
ENDBRANCH  41  42
ENDBRANCH  33  36
ENDBRANCH   1  32
TORSDOF 15
