REMARK SMILES Cc1ccc(S(=O)(=O)N[C@@H](Cc2cccc(F)c2)C(=O)NCCCNC(=O)c2ccc(-c3c4nc(c(-c5ccc(S(=O)(=O)[O-])cc5)c5ccc([nH]5)c(-c5ccc(S(=O)(=O)[O-])cc5)c5nc(c(-c6ccc(S(=O)(=O)[O-])cc6)c6ccc3[nH]6)C=C5)C=C4)cc2)cc1
REMARK SMILES IDX 23 1 22 2 21 3 19 4 20 5 10 7 9 8 6 10 7 11 8 12 5 13 1 14
REMARK SMILES IDX 2 15 3 16 89 17 4 18 88 19 11 20 12 21 13 22 18 23 14 24
REMARK SMILES IDX 16 25 15 26 17 27 24 28 25 29 26 30 27 32 28 33 29 34 87 35
REMARK SMILES IDX 30 36 86 37 31 38 32 39 33 40 80 41 34 42 85 43 79 44 81 45
REMARK SMILES IDX 35 46 84 47 78 48 77 49 36 51 66 52 47 53 65 54 48 55 51 56
REMARK SMILES IDX 64 57 82 58 49 59 50 60 63 62 83 63 52 64 37 65 38 66 46 67
REMARK SMILES IDX 39 68 45 69 40 70 41 71 42 72 43 73 44 74 67 75 68 76 76 77
REMARK SMILES IDX 69 78 75 79 70 80 71 81 72 82 73 83 74 84 53 85 54 86 62 87
REMARK SMILES IDX 55 88 61 89 56 90 57 91 58 92 59 93 60 94
REMARK H PARENT 21 6 9 9 25 31 81 50 51 61
REMARK Flexibility Score: inf
ROOT
ATOM      1  C   UNL     1      -7.574   2.244  -0.336  1.00  0.00     0.042 C 
ENDROOT
BRANCH   1   2
ATOM      2  C   UNL     1      -6.665   2.718  -1.456  1.00  0.00     0.117 C 
BRANCH   2   3
ATOM      3  N   UNL     1      -5.672   3.677  -0.986  1.00  0.00    -0.355 N 
ATOM      4  C   UNL     1      -4.312   3.585  -0.987  1.00  0.00     0.238 C 
ATOM      5  O   UNL     1      -3.652   4.519  -0.523  1.00  0.00    -0.273 OA
ATOM      6  H   UNL     1      -6.037   4.513  -0.614  1.00  0.00     0.163 HD
BRANCH   4   7
ATOM      7  C   UNL     1      -3.599   2.298  -1.448  1.00  0.00     0.163 C 
BRANCH   7   8
ATOM      8  N   UNL     1      -3.938   1.348  -0.356  1.00  0.00    -0.198 NA
ATOM      9  H   UNL     1      -3.657   1.823   0.501  1.00  0.00     0.142 HD
BRANCH   8  10
ATOM     10  S   UNL     1      -3.396  -0.202  -0.181  1.00  0.00     0.241 S 
ATOM     11  O   UNL     1      -3.635  -0.898  -1.437  1.00  0.00    -0.207 OA
ATOM     12  O   UNL     1      -3.943  -0.679   1.058  1.00  0.00    -0.207 OA
BRANCH  10  13
ATOM     13  C   UNL     1      -1.641  -0.117   0.031  1.00  0.00     0.082 A 
ATOM     14  C   UNL     1       2.649  -0.041   0.072  1.00  0.00     0.044 C 
ATOM     15  C   UNL     1       1.150  -0.067   0.098  1.00  0.00    -0.051 A 
ATOM     16  C   UNL     1       0.474  -1.272  -0.129  1.00  0.00     0.005 A 
ATOM     17  C   UNL     1       0.414   1.097   0.359  1.00  0.00     0.005 A 
ATOM     18  C   UNL     1      -0.918  -1.296  -0.174  1.00  0.00     0.022 A 
ATOM     19  C   UNL     1      -0.983   1.072   0.342  1.00  0.00     0.022 A 
ENDBRANCH  10  13
ENDBRANCH   8  10
ENDBRANCH   7   8
BRANCH   7  20
ATOM     20  C   UNL     1      -3.888   1.793  -2.877  1.00  0.00     0.065 C 
BRANCH  20  21
ATOM     21  C   UNL     1      -4.437   2.729  -3.942  1.00  0.00    -0.043 A 
ATOM     22  C   UNL     1      -5.182   2.160  -4.994  1.00  0.00     0.004 A 
ATOM     23  C   UNL     1      -4.276   4.121  -3.939  1.00  0.00     0.043 A 
ATOM     24  C   UNL     1      -5.821   2.958  -5.949  1.00  0.00     0.003 A 
ATOM     25  C   UNL     1      -4.945   4.911  -4.875  1.00  0.00     0.123 A 
ATOM     26  C   UNL     1      -5.725   4.342  -5.871  1.00  0.00     0.039 A 
ATOM     27  F   UNL     1      -4.839   6.244  -4.803  1.00  0.00    -0.207 F 
ENDBRANCH  20  21
ENDBRANCH   7  20
ENDBRANCH   4   7
ENDBRANCH   2   3
ENDBRANCH   1   2
BRANCH   1  28
ATOM     28  C   UNL     1      -8.603   3.294   0.022  1.00  0.00     0.118 C 
BRANCH  28  29
ATOM     29  N   UNL     1      -9.869   3.162  -0.675  1.00  0.00    -0.352 N 
ATOM     30  C   UNL     1     -11.070   3.767  -0.336  1.00  0.00     0.251 C 
ATOM     31  H   UNL     1      -9.877   2.582  -1.470  1.00  0.00     0.163 HD
ATOM     32  O   UNL     1     -12.146   3.229  -0.569  1.00  0.00    -0.269 OA
BRANCH  30  33
ATOM     33  C   UNL     1     -11.007   5.178   0.116  1.00  0.00     0.039 A 
ATOM     34  C   UNL     1     -11.744   6.131  -0.601  1.00  0.00     0.014 A 
ATOM     35  C   UNL     1     -10.028   5.581   1.012  1.00  0.00     0.014 A 
ATOM     36  C   UNL     1     -11.367   7.473  -0.556  1.00  0.00     0.010 A 
ATOM     37  C   UNL     1      -9.544   6.859   0.920  1.00  0.00     0.010 A 
ATOM     38  C   UNL     1     -10.207   7.805   0.130  1.00  0.00    -0.014 A 
BRANCH  38  39
ATOM     39  C   UNL     1      -9.606   9.122   0.234  1.00  0.00     0.031 A 
ATOM     40  C   UNL     1      -9.771   9.841   1.521  1.00  0.00     0.074 A 
ATOM     41  C   UNL     1      -8.657   9.482  -0.658  1.00  0.00     0.049 A 
ATOM     42  N   UNL     1      -9.385  11.048   1.733  1.00  0.00    -0.248 NA
ATOM     43  C   UNL     1     -10.416   9.241   2.692  1.00  0.00     0.031 C 
ATOM     44  C   UNL     1      -7.581  10.449  -0.451  1.00  0.00     0.029 A 
ATOM     45  N   UNL     1      -8.562   9.178  -2.017  1.00  0.00    -0.354 N 
ATOM     46  C   UNL     1      -9.407  11.255   3.095  1.00  0.00     0.074 A 
ATOM     47  C   UNL     1     -10.153  10.148   3.637  1.00  0.00     0.031 C 
ATOM     48  C   UNL     1      -7.148  10.873  -1.650  1.00  0.00     0.029 A 
ATOM     49  C   UNL     1      -8.079  10.349  -2.634  1.00  0.00     0.049 A 
ATOM     50  H   UNL     1      -8.786   8.325  -2.453  1.00  0.00     0.167 HD
ATOM     51  C   UNL     1      -8.668  12.275   3.612  1.00  0.00     0.031 A 
ATOM     52  C   UNL     1      -8.838  11.124  -3.473  1.00  0.00     0.031 A 
ATOM     53  C   UNL     1      -8.052  13.067   2.548  1.00  0.00     0.049 A 
ATOM     54  C   UNL     1      -9.028  12.557  -2.989  1.00  0.00     0.074 A 
ATOM     55  C   UNL     1      -6.771  13.175   2.034  1.00  0.00     0.029 A 
ATOM     56  N   UNL     1      -8.884  13.694   1.641  1.00  0.00    -0.354 N 
ATOM     57  N   UNL     1      -8.619  13.005  -1.834  1.00  0.00    -0.248 NA
ATOM     58  C   UNL     1      -9.784  13.571  -3.727  1.00  0.00     0.031 C 
ATOM     59  C   UNL     1      -6.853  13.884   0.800  1.00  0.00     0.029 A 
ATOM     60  C   UNL     1      -8.176  14.226   0.587  1.00  0.00     0.049 A 
ATOM     61  H   UNL     1      -9.862  13.753   1.737  1.00  0.00     0.167 HD
ATOM     62  C   UNL     1      -9.094  14.273  -1.627  1.00  0.00     0.074 A 
ATOM     63  C   UNL     1      -9.807  14.592  -2.850  1.00  0.00     0.031 C 
ATOM     64  C   UNL     1      -8.914  14.934  -0.446  1.00  0.00     0.031 A 
BRANCH  51  65
ATOM     65  C   UNL     1      -8.326  12.478   5.070  1.00  0.00    -0.014 A 
ATOM     66  C   UNL     1      -7.301  13.389   5.401  1.00  0.00     0.010 A 
ATOM     67  C   UNL     1      -8.919  11.799   6.151  1.00  0.00     0.010 A 
ATOM     68  C   UNL     1      -6.842  13.558   6.714  1.00  0.00     0.020 A 
ATOM     69  C   UNL     1      -8.466  11.950   7.472  1.00  0.00     0.020 A 
ATOM     70  C   UNL     1      -7.416  12.819   7.742  1.00  0.00     0.054 A 
BRANCH  70  71
ATOM     71  S   UNL     1      -6.769  13.007   9.422  1.00  0.00     0.124 S 
ATOM     72  O   UNL     1      -5.385  12.564   9.274  1.00  0.00    -0.237 OA
ATOM     73  O   UNL     1      -6.952  14.433   9.674  1.00  0.00    -0.237 OA
ATOM     74  O   UNL     1      -7.617  12.123  10.221  1.00  0.00    -0.744 OA
ENDBRANCH  70  71
ENDBRANCH  51  65
BRANCH  52  75
ATOM     75  C   UNL     1      -9.877  10.347  -4.215  1.00  0.00    -0.014 A 
ATOM     76  C   UNL     1      -9.428   9.426  -5.185  1.00  0.00     0.010 A 
ATOM     77  C   UNL     1     -11.143  10.161  -3.628  1.00  0.00     0.010 A 
ATOM     78  C   UNL     1     -10.116   8.227  -5.386  1.00  0.00     0.020 A 
ATOM     79  C   UNL     1     -11.842   8.967  -3.845  1.00  0.00     0.020 A 
ATOM     80  C   UNL     1     -11.274   7.975  -4.650  1.00  0.00     0.054 A 
BRANCH  80  81
ATOM     81  S   UNL     1     -11.870   6.258  -4.560  1.00  0.00     0.124 S 
ATOM     82  O   UNL     1     -12.047   5.911  -5.966  1.00  0.00    -0.237 OA
ATOM     83  O   UNL     1     -10.757   5.595  -3.883  1.00  0.00    -0.237 OA
ATOM     84  O   UNL     1     -13.098   6.370  -3.778  1.00  0.00    -0.744 OA
ENDBRANCH  80  81
ENDBRANCH  52  75
BRANCH  64  85
ATOM     85  C   UNL     1      -9.471  16.298  -0.122  1.00  0.00    -0.014 A 
ATOM     86  C   UNL     1      -9.492  17.354  -1.043  1.00  0.00     0.010 A 
ATOM     87  C   UNL     1      -9.890  16.591   1.199  1.00  0.00     0.010 A 
ATOM     88  C   UNL     1      -9.968  18.622  -0.676  1.00  0.00     0.020 A 
ATOM     89  C   UNL     1     -10.347  17.852   1.581  1.00  0.00     0.020 A 
ATOM     90  C   UNL     1     -10.402  18.860   0.632  1.00  0.00     0.054 A 
BRANCH  90  91
ATOM     91  S   UNL     1     -10.992  20.508   1.090  1.00  0.00     0.124 S 
ATOM     92  O   UNL     1      -9.944  21.378   0.563  1.00  0.00    -0.237 OA
ATOM     93  O   UNL     1     -12.273  20.573   0.392  1.00  0.00    -0.237 OA
ATOM     94  O   UNL     1     -11.079  20.458   2.548  1.00  0.00    -0.744 OA
ENDBRANCH  90  91
ENDBRANCH  64  85
ENDBRANCH  38  39
ENDBRANCH  30  33
ENDBRANCH  28  29
ENDBRANCH   1  28
TORSDOF 18
