REMARK SMILES Cc1ccnc(C(=O)c2[nH]c3ccc(F)cc3c2CC(=O)NCCCNC(=O)c2ccc(-c3c4nc(c(-c5ccc(S(=O)(=O)[O-])cc5)c5ccc([nH]5)c(-c5ccc(S(=O)(=O)[O-])cc5)c5nc(c(-c6ccc(S(=O)(=O)[O-])cc6)c6ccc3[nH]6)C=C5)C=C4)cc2)c1
REMARK SMILES IDX 24 1 23 2 22 3 20 4 21 5 19 7 18 8 9 9 10 10 11 11 17 13
REMARK SMILES IDX 12 14 16 15 13 16 14 17 15 18 7 19 8 20 6 21 1 22 2 23 3 24
REMARK SMILES IDX 89 25 4 26 5 27 25 28 26 29 27 30 28 32 29 33 30 34 88 35
REMARK SMILES IDX 31 36 87 37 32 38 33 39 34 40 81 41 35 42 86 43 80 44 82 45
REMARK SMILES IDX 36 46 85 47 79 48 78 49 37 51 67 52 48 53 66 54 49 55 52 56
REMARK SMILES IDX 65 57 83 58 50 59 51 60 64 62 84 63 53 64 38 65 39 66 47 67
REMARK SMILES IDX 40 68 46 69 41 70 42 71 43 72 44 73 45 74 68 75 69 76 77 77
REMARK SMILES IDX 70 78 76 79 71 80 72 81 73 82 74 83 75 84 54 85 55 86 63 87
REMARK SMILES IDX 56 88 62 89 57 90 58 91 59 92 60 93 61 94
REMARK H PARENT 22 6 10 12 26 31 82 50 52 61
REMARK Flexibility Score: inf
ROOT
ATOM      1  C   UNL     1      -2.918  -3.828   0.630  1.00  0.00     0.042 C 
ENDROOT
BRANCH   1   2
ATOM      2  C   UNL     1      -3.089  -3.658  -0.882  1.00  0.00     0.117 C 
BRANCH   2   3
ATOM      3  N   UNL     1      -2.433  -2.503  -1.464  1.00  0.00    -0.356 N 
ATOM      4  C   UNL     1      -1.252  -2.396  -2.138  1.00  0.00     0.224 C 
ATOM      5  O   UNL     1      -1.041  -1.332  -2.729  1.00  0.00    -0.275 OA
ATOM      6  H   UNL     1      -2.922  -1.656  -1.354  1.00  0.00     0.163 HD
BRANCH   4   7
ATOM      7  C   UNL     1      -0.251  -3.531  -2.232  1.00  0.00     0.138 C 
BRANCH   7   8
ATOM      8  C   UNL     1       0.194  -4.143  -0.934  1.00  0.00    -0.002 A 
ATOM      9  C   UNL     1       1.048  -3.628   0.045  1.00  0.00     0.093 A 
ATOM     10  N   UNL     1       1.244  -4.636   0.971  1.00  0.00    -0.352 N 
ATOM     11  C   UNL     1       0.477  -5.736   0.689  1.00  0.00     0.046 A 
ATOM     12  H   UNL     1       1.857  -4.571   1.738  1.00  0.00     0.167 HD
ATOM     13  C   UNL     1      -0.138  -5.492  -0.534  1.00  0.00     0.007 A 
ATOM     14  C   UNL     1       0.306  -6.927   1.409  1.00  0.00     0.030 A 
ATOM     15  C   UNL     1      -0.929  -6.519  -1.095  1.00  0.00     0.049 A 
ATOM     16  C   UNL     1      -0.531  -7.901   0.859  1.00  0.00     0.041 A 
ATOM     17  C   UNL     1      -1.127  -7.697  -0.376  1.00  0.00     0.123 A 
ATOM     18  F   UNL     1      -1.925  -8.643  -0.889  1.00  0.00    -0.207 F 
BRANCH   9  19
ATOM     19  C   UNL     1       1.807  -2.387   0.193  1.00  0.00     0.227 C 
ATOM     20  O   UNL     1       3.002  -2.447   0.485  1.00  0.00    -0.285 OA
BRANCH  19  21
ATOM     21  C   UNL     1       1.152  -1.032   0.124  1.00  0.00     0.113 A 
ATOM     22  C   UNL     1      -2.234   0.690   0.294  1.00  0.00     0.044 C 
ATOM     23  C   UNL     1      -0.759   0.434   0.214  1.00  0.00    -0.047 A 
ATOM     24  C   UNL     1       0.106   1.505   0.001  1.00  0.00     0.023 A 
ATOM     25  C   UNL     1      -0.211  -0.849   0.341  1.00  0.00     0.036 A 
ATOM     26  C   UNL     1       1.459   1.248  -0.131  1.00  0.00     0.112 A 
ATOM     27  N   UNL     1       1.996   0.011  -0.092  1.00  0.00    -0.253 NA
ENDBRANCH  19  21
ENDBRANCH   9  19
ENDBRANCH   7   8
ENDBRANCH   4   7
ENDBRANCH   2   3
ENDBRANCH   1   2
BRANCH   1  28
ATOM     28  C   UNL     1      -3.557  -2.782   1.539  1.00  0.00     0.118 C 
BRANCH  28  29
ATOM     29  N   UNL     1      -4.948  -2.505   1.243  1.00  0.00    -0.352 N 
ATOM     30  C   UNL     1      -6.004  -2.354   2.109  1.00  0.00     0.251 C 
ATOM     31  H   UNL     1      -5.167  -2.412   0.288  1.00  0.00     0.163 HD
ATOM     32  O   UNL     1      -7.142  -2.255   1.662  1.00  0.00    -0.269 OA
BRANCH  30  33
ATOM     33  C   UNL     1      -5.775  -2.329   3.570  1.00  0.00     0.039 A 
ATOM     34  C   UNL     1      -6.582  -3.124   4.387  1.00  0.00     0.014 A 
ATOM     35  C   UNL     1      -4.795  -1.508   4.137  1.00  0.00     0.014 A 
ATOM     36  C   UNL     1      -6.375  -3.135   5.769  1.00  0.00     0.010 A 
ATOM     37  C   UNL     1      -4.556  -1.559   5.511  1.00  0.00     0.010 A 
ATOM     38  C   UNL     1      -5.342  -2.374   6.342  1.00  0.00    -0.014 A 
BRANCH  38  39
ATOM     39  C   UNL     1      -5.063  -2.442   7.802  1.00  0.00     0.031 A 
ATOM     40  C   UNL     1      -5.259  -1.234   8.678  1.00  0.00     0.074 A 
ATOM     41  C   UNL     1      -4.586  -3.586   8.332  1.00  0.00     0.049 A 
ATOM     42  N   UNL     1      -5.034  -1.102   9.961  1.00  0.00    -0.248 NA
ATOM     43  C   UNL     1      -5.754  -0.011   8.028  1.00  0.00     0.031 C 
ATOM     44  C   UNL     1      -4.324  -4.819   7.587  1.00  0.00     0.029 A 
ATOM     45  N   UNL     1      -4.231  -3.898   9.622  1.00  0.00    -0.354 N 
ATOM     46  C   UNL     1      -5.348   0.216  10.270  1.00  0.00     0.074 A 
ATOM     47  C   UNL     1      -5.736   0.856   9.031  1.00  0.00     0.031 C 
ATOM     48  C   UNL     1      -3.874  -5.759   8.434  1.00  0.00     0.029 A 
ATOM     49  C   UNL     1      -3.773  -5.186   9.773  1.00  0.00     0.049 A 
ATOM     50  H   UNL     1      -4.299  -3.260  10.368  1.00  0.00     0.167 HD
ATOM     51  C   UNL     1      -5.332   0.835  11.476  1.00  0.00     0.031 A 
ATOM     52  C   UNL     1      -3.312  -5.834  10.861  1.00  0.00     0.031 A 
ATOM     53  C   UNL     1      -4.943   0.196  12.707  1.00  0.00     0.049 A 
ATOM     54  C   UNL     1      -3.275  -5.117  12.183  1.00  0.00     0.074 A 
ATOM     55  C   UNL     1      -4.940   0.726  13.986  1.00  0.00     0.029 A 
ATOM     56  N   UNL     1      -4.481  -1.107  12.816  1.00  0.00    -0.354 N 
ATOM     57  N   UNL     1      -3.640  -3.889  12.465  1.00  0.00    -0.248 NA
ATOM     58  C   UNL     1      -2.775  -5.878  13.337  1.00  0.00     0.031 C 
ATOM     59  C   UNL     1      -4.417  -0.235  14.858  1.00  0.00     0.029 A 
ATOM     60  C   UNL     1      -4.161  -1.388  14.134  1.00  0.00     0.049 A 
ATOM     61  H   UNL     1      -4.393  -1.739  12.066  1.00  0.00     0.167 HD
ATOM     62  C   UNL     1      -3.442  -3.741  13.834  1.00  0.00     0.074 A 
ATOM     63  C   UNL     1      -2.941  -5.008  14.324  1.00  0.00     0.031 C 
ATOM     64  C   UNL     1      -3.660  -2.652  14.613  1.00  0.00     0.031 A 
BRANCH  51  65
ATOM     65  C   UNL     1      -5.734   2.288  11.524  1.00  0.00    -0.014 A 
ATOM     66  C   UNL     1      -7.064   2.684  11.294  1.00  0.00     0.010 A 
ATOM     67  C   UNL     1      -4.778   3.267  11.853  1.00  0.00     0.010 A 
ATOM     68  C   UNL     1      -7.421   4.034  11.350  1.00  0.00     0.020 A 
ATOM     69  C   UNL     1      -5.138   4.615  11.941  1.00  0.00     0.020 A 
ATOM     70  C   UNL     1      -6.455   4.992  11.671  1.00  0.00     0.054 A 
BRANCH  70  71
ATOM     71  S   UNL     1      -6.954   6.734  11.755  1.00  0.00     0.124 S 
ATOM     72  O   UNL     1      -7.176   7.051  10.347  1.00  0.00    -0.237 OA
ATOM     73  O   UNL     1      -8.155   6.682  12.584  1.00  0.00    -0.237 OA
ATOM     74  O   UNL     1      -5.804   7.395  12.368  1.00  0.00    -0.744 OA
ENDBRANCH  70  71
ENDBRANCH  51  65
BRANCH  52  75
ATOM     75  C   UNL     1      -2.851  -7.245  10.744  1.00  0.00    -0.014 A 
ATOM     76  C   UNL     1      -3.580  -8.290  11.339  1.00  0.00     0.010 A 
ATOM     77  C   UNL     1      -1.680  -7.553  10.026  1.00  0.00     0.010 A 
ATOM     78  C   UNL     1      -3.139  -9.612  11.233  1.00  0.00     0.020 A 
ATOM     79  C   UNL     1      -1.254  -8.877   9.891  1.00  0.00     0.020 A 
ATOM     80  C   UNL     1      -1.980  -9.898  10.506  1.00  0.00     0.054 A 
BRANCH  80  81
ATOM     81  S   UNL     1      -1.457 -11.627  10.337  1.00  0.00     0.124 S 
ATOM     82  O   UNL     1      -0.969 -11.929  11.678  1.00  0.00    -0.237 OA
ATOM     83  O   UNL     1      -2.697 -12.293   9.947  1.00  0.00    -0.237 OA
ATOM     84  O   UNL     1      -0.434 -11.573   9.294  1.00  0.00    -0.744 OA
ENDBRANCH  80  81
ENDBRANCH  52  75
BRANCH  64  85
ATOM     85  C   UNL     1      -3.393  -2.790  16.090  1.00  0.00    -0.014 A 
ATOM     86  C   UNL     1      -2.084  -2.898  16.593  1.00  0.00     0.010 A 
ATOM     87  C   UNL     1      -4.472  -2.756  16.994  1.00  0.00     0.010 A 
ATOM     88  C   UNL     1      -1.862  -3.003  17.969  1.00  0.00     0.020 A 
ATOM     89  C   UNL     1      -4.252  -2.828  18.372  1.00  0.00     0.020 A 
ATOM     90  C   UNL     1      -2.948  -2.966  18.850  1.00  0.00     0.054 A 
BRANCH  90  91
ATOM     91  S   UNL     1      -2.629  -3.059  20.633  1.00  0.00     0.124 S 
ATOM     92  O   UNL     1      -2.238  -4.456  20.799  1.00  0.00    -0.237 OA
ATOM     93  O   UNL     1      -1.559  -2.081  20.818  1.00  0.00    -0.237 OA
ATOM     94  O   UNL     1      -3.909  -2.695  21.235  1.00  0.00    -0.744 OA
ENDBRANCH  90  91
ENDBRANCH  64  85
ENDBRANCH  38  39
ENDBRANCH  30  33
ENDBRANCH  28  29
ENDBRANCH   1  28
TORSDOF 16
