REMARK SMILES O=C(Cc1c(C(=O)c2cc3c(cn2)CCCC3)[nH]c2cc(Cl)ccc12)NCCCNC(=O)c1ccc(-c2c3nc(c(-c4ccc(S(=O)(=O)[O-])cc4)c4ccc([nH]4)c(-c4ccc(S(=O)(=O)[O-])cc4)c4nc(c(-c5ccc(S(=O)(=O)[O-])cc5)c5ccc2[nH]5)C=C4)C=C3)cc1
REMARK SMILES IDX 28 1 27 2 26 3 1 4 2 5 3 7 4 8 5 9 25 10 18 11 19 12 24 13
REMARK SMILES IDX 20 15 23 16 21 17 22 18 6 19 7 20 8 21 9 22 13 23 10 24
REMARK SMILES IDX 12 25 11 26 17 27 14 28 16 29 15 30 29 31 30 32 31 33 32 35
REMARK SMILES IDX 33 36 34 37 92 38 35 39 91 40 36 41 37 42 38 43 85 44 39 45
REMARK SMILES IDX 90 46 84 47 86 48 40 49 89 50 83 51 82 52 41 54 71 55 52 56
REMARK SMILES IDX 70 57 53 58 56 59 69 60 87 61 54 62 55 63 68 65 88 66 57 67
REMARK SMILES IDX 42 68 43 69 51 70 44 71 50 72 45 73 46 74 47 75 48 76 49 77
REMARK SMILES IDX 72 78 73 79 81 80 74 81 80 82 75 83 76 84 77 85 78 86 79 87
REMARK SMILES IDX 58 88 59 89 67 90 60 91 66 92 61 93 62 94 63 95 64 96 65 97
REMARK H PARENT 26 6 18 14 30 34 86 53 56 64
REMARK Flexibility Score: inf
ROOT
ATOM      1  C   UNL     1       2.343   1.587   3.061  1.00  0.00     0.042 C 
ENDROOT
BRANCH   1   2
ATOM      2  C   UNL     1       2.104   1.754   1.571  1.00  0.00     0.117 C 
BRANCH   2   3
ATOM      3  N   UNL     1       2.838   0.812   0.751  1.00  0.00    -0.356 N 
ATOM      4  O   UNL     1       1.134  -0.706   0.559  1.00  0.00    -0.275 OA
ATOM      5  C   UNL     1       2.205  -0.257   0.152  1.00  0.00     0.224 C 
ATOM      6  H   UNL     1       3.806   0.937   0.620  1.00  0.00     0.163 HD
BRANCH   5   7
ATOM      7  C   UNL     1       2.948  -0.917  -1.000  1.00  0.00     0.138 C 
BRANCH   7   8
ATOM      8  C   UNL     1       3.727  -0.021  -1.938  1.00  0.00    -0.002 A 
ATOM      9  C   UNL     1       3.506   1.313  -2.290  1.00  0.00     0.093 A 
ATOM     10  C   UNL     1       4.801  -0.486  -2.777  1.00  0.00     0.004 A 
ATOM     11  N   UNL     1       4.585   1.703  -3.056  1.00  0.00    -0.351 N 
ATOM     12  C   UNL     1       5.292   0.608  -3.483  1.00  0.00     0.048 A 
ATOM     13  C   UNL     1       5.368  -1.754  -3.031  1.00  0.00     0.012 A 
ATOM     14  H   UNL     1       4.815   2.637  -3.266  1.00  0.00     0.167 HD
ATOM     15  C   UNL     1       6.309   0.509  -4.440  1.00  0.00     0.047 A 
ATOM     16  C   UNL     1       6.366  -1.882  -4.006  1.00  0.00     0.021 A 
ATOM     17  C   UNL     1       6.821  -0.764  -4.699  1.00  0.00     0.043 A 
ATOM     18  Cl  UNL     1       8.024  -0.952  -5.919  1.00  0.00    -0.084 Cl
BRANCH   9  19
ATOM     19  C   UNL     1       2.368   2.173  -2.002  1.00  0.00     0.227 C 
ATOM     20  O   UNL     1       1.246   1.756  -1.730  1.00  0.00    -0.285 OA
BRANCH  19  21
ATOM     21  C   UNL     1       2.524   3.633  -2.189  1.00  0.00     0.113 A 
ATOM     22  C   UNL     1       2.119   4.179  -3.398  1.00  0.00     0.036 A 
ATOM     23  N   UNL     1       3.078   4.336  -1.172  1.00  0.00    -0.252 NA
ATOM     24  C   UNL     1       2.251   5.555  -3.577  1.00  0.00    -0.041 A 
ATOM     25  C   UNL     1       3.151   5.674  -1.354  1.00  0.00     0.115 A 
ATOM     26  C   UNL     1       2.765   6.329  -2.525  1.00  0.00    -0.026 A 
ATOM     27  C   UNL     1       1.895   6.164  -4.908  1.00  0.00     0.036 C 
ATOM     28  C   UNL     1       2.816   7.832  -2.606  1.00  0.00     0.037 C 
ATOM     29  C   UNL     1       1.643   7.666  -4.825  1.00  0.00     0.005 C 
ATOM     30  C   UNL     1       2.755   8.356  -4.042  1.00  0.00     0.005 C 
ENDBRANCH  19  21
ENDBRANCH   9  19
ENDBRANCH   7   8
ENDBRANCH   5   7
ENDBRANCH   2   3
ENDBRANCH   1   2
BRANCH   1  31
ATOM     31  C   UNL     1       3.795   1.743   3.492  1.00  0.00     0.118 C 
BRANCH  31  32
ATOM     32  N   UNL     1       4.362   3.060   3.224  1.00  0.00    -0.352 N 
ATOM     33  C   UNL     1       5.108   3.884   4.039  1.00  0.00     0.251 C 
ATOM     34  H   UNL     1       4.184   3.415   2.323  1.00  0.00     0.163 HD
ATOM     35  O   UNL     1       5.436   4.996   3.642  1.00  0.00    -0.269 OA
BRANCH  33  36
ATOM     36  C   UNL     1       5.469   3.448   5.411  1.00  0.00     0.039 A 
ATOM     37  C   UNL     1       5.910   2.150   5.666  1.00  0.00     0.014 A 
ATOM     38  C   UNL     1       5.332   4.355   6.467  1.00  0.00     0.014 A 
ATOM     39  C   UNL     1       6.022   1.704   6.980  1.00  0.00     0.010 A 
ATOM     40  C   UNL     1       5.534   3.929   7.785  1.00  0.00     0.010 A 
ATOM     41  C   UNL     1       5.822   2.584   8.057  1.00  0.00    -0.014 A 
BRANCH  41  42
ATOM     42  C   UNL     1       5.901   2.064   9.450  1.00  0.00     0.031 A 
ATOM     43  C   UNL     1       4.684   2.048  10.339  1.00  0.00     0.074 A 
ATOM     44  C   UNL     1       7.058   1.528   9.890  1.00  0.00     0.049 A 
ATOM     45  N   UNL     1       4.563   1.572  11.554  1.00  0.00    -0.248 NA
ATOM     46  C   UNL     1       3.446   2.637   9.805  1.00  0.00     0.031 C 
ATOM     47  C   UNL     1       8.300   1.464   9.118  1.00  0.00     0.029 A 
ATOM     48  N   UNL     1       7.367   0.899  11.070  1.00  0.00    -0.354 N 
ATOM     49  C   UNL     1       3.246   1.814  11.930  1.00  0.00     0.074 A 
ATOM     50  C   UNL     1       2.614   2.508  10.830  1.00  0.00     0.031 C 
ATOM     51  C   UNL     1       9.212   0.767   9.812  1.00  0.00     0.029 A 
ATOM     52  C   UNL     1       8.644   0.390  11.103  1.00  0.00     0.049 A 
ATOM     53  H   UNL     1       6.735   0.819  11.821  1.00  0.00     0.167 HD
ATOM     54  C   UNL     1       2.617   1.476  13.081  1.00  0.00     0.031 A 
ATOM     55  C   UNL     1       9.294  -0.304  12.058  1.00  0.00     0.031 A 
ATOM     56  C   UNL     1       3.240   0.768  14.168  1.00  0.00     0.049 A 
ATOM     57  C   UNL     1       8.589  -0.632  13.341  1.00  0.00     0.074 A 
ATOM     58  C   UNL     1       2.672   0.371  15.367  1.00  0.00     0.029 A 
ATOM     59  N   UNL     1       4.559   0.343  14.191  1.00  0.00    -0.354 N 
ATOM     60  N   UNL     1       7.347  -0.384  13.679  1.00  0.00    -0.248 NA
ATOM     61  C   UNL     1       9.370  -1.324  14.376  1.00  0.00     0.031 C 
ATOM     62  C   UNL     1       3.661  -0.248  16.136  1.00  0.00     0.029 A 
ATOM     63  C   UNL     1       4.830  -0.289  15.393  1.00  0.00     0.049 A 
ATOM     64  H   UNL     1       5.207   0.472  13.461  1.00  0.00     0.167 HD
ATOM     65  C   UNL     1       7.196  -0.889  14.964  1.00  0.00     0.074 A 
ATOM     66  C   UNL     1       8.466  -1.478  15.336  1.00  0.00     0.031 C 
ATOM     67  C   UNL     1       6.102  -0.859  15.762  1.00  0.00     0.031 A 
BRANCH  54  68
ATOM     68  C   UNL     1       1.170   1.861  13.242  1.00  0.00    -0.014 A 
ATOM     69  C   UNL     1       0.811   2.853  14.174  1.00  0.00     0.010 A 
ATOM     70  C   UNL     1       0.157   1.168  12.556  1.00  0.00     0.010 A 
ATOM     71  C   UNL     1      -0.533   3.129  14.435  1.00  0.00     0.020 A 
ATOM     72  C   UNL     1      -1.190   1.458  12.798  1.00  0.00     0.020 A 
ATOM     73  C   UNL     1      -1.526   2.423  13.752  1.00  0.00     0.054 A 
BRANCH  73  74
ATOM     74  S   UNL     1      -3.268   2.786  14.109  1.00  0.00     0.124 S 
ATOM     75  O   UNL     1      -3.483   2.068  15.361  1.00  0.00    -0.237 OA
ATOM     76  O   UNL     1      -3.279   4.244  14.207  1.00  0.00    -0.237 OA
ATOM     77  O   UNL     1      -3.973   2.246  12.947  1.00  0.00    -0.744 OA
ENDBRANCH  73  74
ENDBRANCH  54  68
BRANCH  55  78
ATOM     78  C   UNL     1      10.693  -0.743  11.803  1.00  0.00    -0.014 A 
ATOM     79  C   UNL     1      11.731   0.203  11.724  1.00  0.00     0.010 A 
ATOM     80  C   UNL     1      10.975  -2.094  11.539  1.00  0.00     0.010 A 
ATOM     81  C   UNL     1      13.012  -0.182  11.324  1.00  0.00     0.020 A 
ATOM     82  C   UNL     1      12.264  -2.488  11.164  1.00  0.00     0.020 A 
ATOM     83  C   UNL     1      13.265  -1.524  11.028  1.00  0.00     0.054 A 
BRANCH  83  84
ATOM     84  S   UNL     1      14.918  -1.995  10.448  1.00  0.00     0.124 S 
ATOM     85  O   UNL     1      14.862  -1.607   9.041  1.00  0.00    -0.237 OA
ATOM     86  O   UNL     1      15.798  -1.187  11.288  1.00  0.00    -0.237 OA
ATOM     87  O   UNL     1      14.969  -3.433  10.699  1.00  0.00    -0.744 OA
ENDBRANCH  83  84
ENDBRANCH  55  78
BRANCH  67  88
ATOM     88  C   UNL     1       6.211  -1.462  17.137  1.00  0.00    -0.014 A 
ATOM     89  C   UNL     1       5.523  -2.653  17.436  1.00  0.00     0.010 A 
ATOM     90  C   UNL     1       6.888  -0.783  18.164  1.00  0.00     0.010 A 
ATOM     91  C   UNL     1       5.482  -3.137  18.746  1.00  0.00     0.020 A 
ATOM     92  C   UNL     1       6.869  -1.277  19.471  1.00  0.00     0.020 A 
ATOM     93  C   UNL     1       6.146  -2.438  19.758  1.00  0.00     0.054 A 
BRANCH  93  94
ATOM     94  S   UNL     1       6.058  -3.061  21.459  1.00  0.00     0.124 S 
ATOM     95  O   UNL     1       4.739  -2.603  21.887  1.00  0.00    -0.237 OA
ATOM     96  O   UNL     1       6.197  -4.505  21.283  1.00  0.00    -0.237 OA
ATOM     97  O   UNL     1       7.189  -2.412  22.119  1.00  0.00    -0.744 OA
ENDBRANCH  93  94
ENDBRANCH  67  88
ENDBRANCH  41  42
ENDBRANCH  33  36
ENDBRANCH  31  32
ENDBRANCH   1  31
TORSDOF 16
