REMARK SMILES CCCO[C@@H]1CCC[C@]([NH3+])(C(=O)NCCCNC(=O)c2ccc(-c3c4nc(c(-c5ccc(S(=O)(=O)[O-])cc5)c5ccc([nH]5)c(-c5ccc(S(=O)(=O)[O-])cc5)c5nc(c(-c6ccc(S(=O)(=O)[O-])cc6)c6ccc3[nH]6)C=C5)C=C4)cc2)C1
REMARK SMILES IDX 15 1 14 2 13 3 11 4 12 5 9 7 5 8 6 9 80 10 7 11 8 12 4 13
REMARK SMILES IDX 3 14 2 15 1 16 10 17 16 21 17 22 18 23 19 25 20 26 21 27
REMARK SMILES IDX 79 28 22 29 78 30 23 31 24 32 25 33 72 34 26 35 77 36 71 37
REMARK SMILES IDX 73 38 27 39 76 40 70 41 69 42 28 44 58 45 39 46 57 47 40 48
REMARK SMILES IDX 43 49 56 50 74 51 41 52 42 53 55 55 75 56 44 57 29 58 30 59
REMARK SMILES IDX 38 60 31 61 37 62 32 63 33 64 34 65 35 66 36 67 59 68 60 69
REMARK SMILES IDX 68 70 61 71 67 72 62 73 63 74 64 75 65 76 66 77 45 78 46 79
REMARK SMILES IDX 54 80 47 81 53 82 48 83 49 84 50 85 51 86 52 87
REMARK H PARENT 13 6 10 18 10 19 10 20 17 24 73 43 43 54
REMARK Flexibility Score: inf
ROOT
ATOM      1  C   UNL     1       2.524   6.191  -4.279  1.00  0.00     0.042 C 
ENDROOT
BRANCH   1   2
ATOM      2  C   UNL     1       2.781   5.527  -2.942  1.00  0.00     0.118 C 
BRANCH   2   3
ATOM      3  N   UNL     1       2.108   6.173  -1.819  1.00  0.00    -0.351 N 
ATOM      4  C   UNL     1       1.694   5.636  -0.619  1.00  0.00     0.281 C 
ATOM      5  O   UNL     1       1.305   6.410   0.257  1.00  0.00    -0.268 OA
ATOM      6  H   UNL     1       1.923   7.133  -1.935  1.00  0.00     0.163 HD
BRANCH   4   7
ATOM      7  C   UNL     1       1.683   4.087  -0.438  1.00  0.00     0.176 C 
ATOM      8  C   UNL     1       1.216   2.109   1.091  1.00  0.00     0.125 C 
ATOM      9  C   UNL     1       2.675   1.655   0.980  1.00  0.00     0.032 C 
ATOM     10  C   UNL     1       1.146   3.648   0.955  1.00  0.00     0.111 C 
ATOM     11  C   UNL     1       3.253   2.052  -0.361  1.00  0.00     0.010 C 
ATOM     12  C   UNL     1       3.131   3.550  -0.567  1.00  0.00     0.079 C 
BRANCH   8  13
ATOM     13  O   UNL     1       0.603   1.674   2.302  1.00  0.00    -0.378 OA
BRANCH  13  14
ATOM     14  C   UNL     1       0.600   0.259   2.524  1.00  0.00     0.160 C 
BRANCH  14  15
ATOM     15  C   UNL     1      -0.173  -0.612   1.519  1.00  0.00     0.025 C 
ATOM     16  C   UNL     1       0.513  -0.914   0.188  1.00  0.00     0.006 C 
ENDBRANCH  14  15
ENDBRANCH  13  14
ENDBRANCH   8  13
BRANCH   7  17
ATOM     17  N   UNL     1       0.733   3.526  -1.441  1.00  0.00    -0.345 N 
ATOM     18  H   UNL     1       0.702   2.510  -1.349  1.00  0.00     0.345 HD
ATOM     19  H   UNL     1       1.046   3.773  -2.380  1.00  0.00     0.345 HD
ATOM     20  H   UNL     1      -0.198   3.910  -1.280  1.00  0.00     0.345 HD
ENDBRANCH   7  17
ENDBRANCH   4   7
ENDBRANCH   2   3
ENDBRANCH   1   2
BRANCH   1  21
ATOM     21  C   UNL     1       3.274   7.502  -4.438  1.00  0.00     0.118 C 
BRANCH  21  22
ATOM     22  N   UNL     1       4.725   7.330  -4.415  1.00  0.00    -0.352 N 
ATOM     23  C   UNL     1       5.652   7.333  -5.433  1.00  0.00     0.251 C 
ATOM     24  H   UNL     1       5.105   7.187  -3.518  1.00  0.00     0.163 HD
ATOM     25  O   UNL     1       6.797   6.962  -5.214  1.00  0.00    -0.269 OA
BRANCH  23  26
ATOM     26  C   UNL     1       5.252   7.756  -6.792  1.00  0.00     0.039 A 
ATOM     27  C   UNL     1       5.708   7.034  -7.898  1.00  0.00     0.014 A 
ATOM     28  C   UNL     1       4.408   8.850  -6.973  1.00  0.00     0.014 A 
ATOM     29  C   UNL     1       5.222   7.344  -9.171  1.00  0.00     0.010 A 
ATOM     30  C   UNL     1       3.835   9.080  -8.216  1.00  0.00     0.010 A 
ATOM     31  C   UNL     1       4.230   8.326  -9.329  1.00  0.00    -0.014 A 
BRANCH  31  32
ATOM     32  C   UNL     1       3.567   8.571 -10.635  1.00  0.00     0.031 A 
ATOM     33  C   UNL     1       3.615   9.940 -11.260  1.00  0.00     0.074 A 
ATOM     34  C   UNL     1       2.830   7.592 -11.199  1.00  0.00     0.049 A 
ATOM     35  N   UNL     1       2.997  10.380 -12.326  1.00  0.00    -0.248 NA
ATOM     36  C   UNL     1       4.431  10.960 -10.579  1.00  0.00     0.031 C 
ATOM     37  C   UNL     1       2.650   6.242 -10.656  1.00  0.00     0.029 A 
ATOM     38  N   UNL     1       2.079   7.585 -12.348  1.00  0.00    -0.354 N 
ATOM     39  C   UNL     1       3.325  11.727 -12.424  1.00  0.00     0.074 A 
ATOM     40  C   UNL     1       4.155  12.046 -11.284  1.00  0.00     0.031 C 
ATOM     41  C   UNL     1       1.867   5.533 -11.484  1.00  0.00     0.029 A 
ATOM     42  C   UNL     1       1.448   6.387 -12.589  1.00  0.00     0.049 A 
ATOM     43  H   UNL     1       1.999   8.365 -12.943  1.00  0.00     0.167 HD
ATOM     44  C   UNL     1       2.984  12.614 -13.388  1.00  0.00     0.031 A 
ATOM     45  C   UNL     1       0.614   6.019 -13.580  1.00  0.00     0.031 A 
ATOM     46  C   UNL     1       2.187  12.283 -14.538  1.00  0.00     0.049 A 
ATOM     47  C   UNL     1       0.265   7.018 -14.648  1.00  0.00     0.074 A 
ATOM     48  C   UNL     1       1.858  13.087 -15.615  1.00  0.00     0.029 A 
ATOM     49  N   UNL     1       1.596  11.049 -14.762  1.00  0.00    -0.354 N 
ATOM     50  N   UNL     1       0.653   8.265 -14.765  1.00  0.00    -0.248 NA
ATOM     51  C   UNL     1      -0.629   6.559 -15.720  1.00  0.00     0.031 C 
ATOM     52  C   UNL     1       1.026  12.354 -16.466  1.00  0.00     0.029 A 
ATOM     53  C   UNL     1       0.881  11.078 -15.946  1.00  0.00     0.049 A 
ATOM     54  H   UNL     1       1.674  10.269 -14.167  1.00  0.00     0.167 HD
ATOM     55  C   UNL     1       0.065   8.735 -15.933  1.00  0.00     0.074 A 
ATOM     56  C   UNL     1      -0.687   7.633 -16.497  1.00  0.00     0.031 C 
ATOM     57  C   UNL     1       0.136   9.970 -16.488  1.00  0.00     0.031 A 
BRANCH  44  58
ATOM     58  C   UNL     1       3.479  14.029 -13.245  1.00  0.00    -0.014 A 
ATOM     59  C   UNL     1       4.840  14.342 -13.410  1.00  0.00     0.010 A 
ATOM     60  C   UNL     1       2.564  15.068 -12.993  1.00  0.00     0.010 A 
ATOM     61  C   UNL     1       5.282  15.662 -13.292  1.00  0.00     0.020 A 
ATOM     62  C   UNL     1       2.998  16.393 -12.902  1.00  0.00     0.020 A 
ATOM     63  C   UNL     1       4.358  16.680 -13.038  1.00  0.00     0.054 A 
BRANCH  63  64
ATOM     64  S   UNL     1       4.956  18.389 -12.929  1.00  0.00     0.124 S 
ATOM     65  O   UNL     1       5.636  18.387 -11.636  1.00  0.00    -0.237 OA
ATOM     66  O   UNL     1       5.827  18.498 -14.096  1.00  0.00    -0.237 OA
ATOM     67  O   UNL     1       3.735  19.188 -12.989  1.00  0.00    -0.744 OA
ENDBRANCH  63  64
ENDBRANCH  44  58
BRANCH  45  68
ATOM     68  C   UNL     1       0.053   4.640 -13.611  1.00  0.00    -0.014 A 
ATOM     69  C   UNL     1       0.479   3.718 -14.583  1.00  0.00     0.010 A 
ATOM     70  C   UNL     1      -0.905   4.238 -12.662  1.00  0.00     0.010 A 
ATOM     71  C   UNL     1      -0.058   2.428 -14.620  1.00  0.00     0.020 A 
ATOM     72  C   UNL     1      -1.424   2.941 -12.679  1.00  0.00     0.020 A 
ATOM     73  C   UNL     1      -1.007   2.047 -13.667  1.00  0.00     0.054 A 
BRANCH  73  74
ATOM     74  S   UNL     1      -1.658   0.354 -13.706  1.00  0.00     0.124 S 
ATOM     75  O   UNL     1      -2.570   0.406 -14.844  1.00  0.00    -0.237 OA
ATOM     76  O   UNL     1      -0.450  -0.445 -13.898  1.00  0.00    -0.237 OA
ATOM     77  O   UNL     1      -2.293   0.204 -12.398  1.00  0.00    -0.744 OA
ENDBRANCH  73  74
ENDBRANCH  45  68
BRANCH  57  78
ATOM     78  C   UNL     1      -0.604  10.191 -17.778  1.00  0.00    -0.014 A 
ATOM     79  C   UNL     1      -2.006  10.292 -17.800  1.00  0.00     0.010 A 
ATOM     80  C   UNL     1       0.118  10.359 -18.974  1.00  0.00     0.010 A 
ATOM     81  C   UNL     1      -2.676  10.533 -19.002  1.00  0.00     0.020 A 
ATOM     82  C   UNL     1      -0.547  10.627 -20.172  1.00  0.00     0.020 A 
ATOM     83  C   UNL     1      -1.942  10.699 -20.180  1.00  0.00     0.054 A 
BRANCH  83  84
ATOM     84  S   UNL     1      -2.833  11.061 -21.718  1.00  0.00     0.124 S 
ATOM     85  O   UNL     1      -3.417   9.762 -22.043  1.00  0.00    -0.237 OA
ATOM     86  O   UNL     1      -3.781  12.092 -21.305  1.00  0.00    -0.237 OA
ATOM     87  O   UNL     1      -1.783  11.517 -22.627  1.00  0.00    -0.744 OA
ENDBRANCH  83  84
ENDBRANCH  57  78
ENDBRANCH  31  32
ENDBRANCH  23  26
ENDBRANCH  21  22
ENDBRANCH   1  21
TORSDOF 17
