REMARK SMILES CC(C)[C@@H](CO)NC(=O)CC(C)(C)CC(=O)NCCCNC(=O)c1ccc(-c2c3nc(c(-c4ccc(S(=O)(=O)[O-])cc4)c4ccc([nH]4)c(-c4ccc(S(=O)(=O)[O-])cc4)c4nc(c(-c5ccc(S(=O)(=O)[O-])cc5)c5ccc2[nH]5)C=C4)C=C3)cc1
REMARK SMILES IDX 15 1 16 2 17 3 14 5 11 6 12 7 13 8 10 9 8 10 7 11 9 13 4 14
REMARK SMILES IDX 2 15 1 16 3 17 5 18 6 19 18 21 19 22 20 23 21 24 22 25 23 27
REMARK SMILES IDX 24 28 25 29 83 30 26 31 82 32 27 33 28 34 29 35 76 36 30 37
REMARK SMILES IDX 81 38 75 39 77 40 31 41 80 42 74 43 73 44 32 46 62 47 43 48
REMARK SMILES IDX 61 49 44 50 47 51 60 52 78 53 45 54 46 55 59 57 79 58 48 59
REMARK SMILES IDX 33 60 34 61 42 62 35 63 41 64 36 65 37 66 38 67 39 68 40 69
REMARK SMILES IDX 63 70 64 71 72 72 65 73 71 74 66 75 67 76 68 77 69 78 70 79
REMARK SMILES IDX 49 80 50 81 58 82 51 83 57 84 52 85 53 86 54 87 55 88 56 89
REMARK H PARENT 17 4 7 12 6 20 21 26 77 45 47 56
REMARK Flexibility Score: inf
ROOT
ATOM      1  C   UNL     1      -1.870   3.767   4.485  1.00  0.00     0.220 C 
ATOM      2  O   UNL     1      -2.479   3.177   5.376  1.00  0.00    -0.275 OA
ATOM      3  N   UNL     1      -1.985   5.122   4.424  1.00  0.00    -0.356 N 
ATOM      4  H   UNL     1      -2.500   5.519   5.164  1.00  0.00     0.163 HD
ENDROOT
BRANCH   1   5
ATOM      5  C   UNL     1      -0.991   3.033   3.496  1.00  0.00     0.107 C 
BRANCH   5   6
ATOM      6  C   UNL     1      -1.690   2.429   2.251  1.00  0.00    -0.018 C 
ATOM      7  C   UNL     1      -0.604   2.262   1.175  1.00  0.00     0.012 C 
ATOM      8  C   UNL     1      -2.718   3.376   1.609  1.00  0.00     0.012 C 
BRANCH   6   9
ATOM      9  C   UNL     1      -2.463   1.117   2.560  1.00  0.00     0.107 C 
BRANCH   9  10
ATOM     10  C   UNL     1      -1.812   0.026   3.398  1.00  0.00     0.220 C 
ATOM     11  N   UNL     1      -1.079  -0.956   2.810  1.00  0.00    -0.351 N 
ATOM     12  H   UNL     1      -0.831  -1.700   3.406  1.00  0.00     0.163 HD
ATOM     13  O   UNL     1      -1.974  -0.032   4.617  1.00  0.00    -0.275 OA
BRANCH  11  14
ATOM     14  C   UNL     1      -0.601  -1.083   1.440  1.00  0.00     0.110 C 
BRANCH  14  15
ATOM     15  C   UNL     1       0.946  -1.267   1.409  1.00  0.00     0.007 C 
ATOM     16  C   UNL     1       1.501  -0.856   0.040  1.00  0.00     0.009 C 
ATOM     17  C   UNL     1       1.717  -0.508   2.505  1.00  0.00     0.009 C 
ENDBRANCH  14  15
BRANCH  14  18
ATOM     18  C   UNL     1      -1.365  -2.205   0.704  1.00  0.00     0.181 C 
BRANCH  18  19
ATOM     19  O   UNL     1      -1.021  -3.497   1.195  1.00  0.00    -0.394 OA
ATOM     20  H   UNL     1      -0.074  -3.654   1.055  1.00  0.00     0.210 HD
ENDBRANCH  18  19
ENDBRANCH  14  18
ENDBRANCH  11  14
ENDBRANCH   9  10
ENDBRANCH   6   9
ENDBRANCH   5   6
ENDBRANCH   1   5
BRANCH   3  21
ATOM     21  C   UNL     1      -1.482   6.089   3.459  1.00  0.00     0.117 C 
BRANCH  21  22
ATOM     22  C   UNL     1      -2.592   6.666   2.585  1.00  0.00     0.042 C 
BRANCH  22  23
ATOM     23  C   UNL     1      -3.678   7.390   3.365  1.00  0.00     0.118 C 
BRANCH  23  24
ATOM     24  N   UNL     1      -3.401   8.810   3.463  1.00  0.00    -0.352 N 
ATOM     25  C   UNL     1      -3.918   9.842   2.723  1.00  0.00     0.251 C 
ATOM     26  H   UNL     1      -2.751   9.068   4.156  1.00  0.00     0.163 HD
ATOM     27  O   UNL     1      -3.345  10.936   2.743  1.00  0.00    -0.269 OA
BRANCH  25  28
ATOM     28  C   UNL     1      -5.135   9.660   1.897  1.00  0.00     0.039 A 
ATOM     29  C   UNL     1      -5.221  10.316   0.665  1.00  0.00     0.014 A 
ATOM     30  C   UNL     1      -6.221   8.905   2.351  1.00  0.00     0.014 A 
ATOM     31  C   UNL     1      -6.377  10.195  -0.114  1.00  0.00     0.010 A 
ATOM     32  C   UNL     1      -7.330   8.704   1.532  1.00  0.00     0.010 A 
ATOM     33  C   UNL     1      -7.438   9.377   0.307  1.00  0.00    -0.014 A 
BRANCH  33  34
ATOM     34  C   UNL     1      -8.696   9.274  -0.479  1.00  0.00     0.031 A 
ATOM     35  C   UNL     1      -9.996   9.756   0.116  1.00  0.00     0.074 A 
ATOM     36  C   UNL     1      -8.687   8.718  -1.706  1.00  0.00     0.049 A 
ATOM     37  N   UNL     1     -11.203   9.717  -0.391  1.00  0.00    -0.248 NA
ATOM     38  C   UNL     1      -9.935  10.333   1.469  1.00  0.00     0.031 C 
ATOM     39  C   UNL     1      -7.506   8.182  -2.386  1.00  0.00     0.029 A 
ATOM     40  N   UNL     1      -9.707   8.513  -2.602  1.00  0.00    -0.354 N 
ATOM     41  C   UNL     1     -12.042  10.238   0.589  1.00  0.00     0.074 A 
ATOM     42  C   UNL     1     -11.215  10.533   1.739  1.00  0.00     0.031 C 
ATOM     43  C   UNL     1      -7.862   7.747  -3.606  1.00  0.00     0.029 A 
ATOM     44  C   UNL     1      -9.299   7.936  -3.780  1.00  0.00     0.049 A 
ATOM     45  H   UNL     1     -10.643   8.757  -2.417  1.00  0.00     0.167 HD
ATOM     46  C   UNL     1     -13.375  10.474   0.535  1.00  0.00     0.031 A 
ATOM     47  C   UNL     1     -10.000   7.599  -4.881  1.00  0.00     0.031 A 
ATOM     48  C   UNL     1     -14.194  10.203  -0.614  1.00  0.00     0.049 A 
ATOM     49  C   UNL     1     -11.478   7.870  -4.924  1.00  0.00     0.074 A 
ATOM     50  C   UNL     1     -15.543  10.456  -0.791  1.00  0.00     0.029 A 
ATOM     51  N   UNL     1     -13.739   9.618  -1.787  1.00  0.00    -0.354 N 
ATOM     52  N   UNL     1     -12.244   8.409  -4.005  1.00  0.00    -0.248 NA
ATOM     53  C   UNL     1     -12.185   7.495  -6.157  1.00  0.00     0.031 C 
ATOM     54  C   UNL     1     -15.913   9.986  -2.057  1.00  0.00     0.029 A 
ATOM     55  C   UNL     1     -14.784   9.486  -2.686  1.00  0.00     0.049 A 
ATOM     56  H   UNL     1     -12.811   9.339  -1.955  1.00  0.00     0.167 HD
ATOM     57  C   UNL     1     -13.519   8.460  -4.558  1.00  0.00     0.074 A 
ATOM     58  C   UNL     1     -13.418   7.907  -5.894  1.00  0.00     0.031 C 
ATOM     59  C   UNL     1     -14.668   8.927  -4.009  1.00  0.00     0.031 A 
BRANCH  46  60
ATOM     60  C   UNL     1     -14.021  11.049   1.769  1.00  0.00    -0.014 A 
ATOM     61  C   UNL     1     -13.754  12.368   2.182  1.00  0.00     0.010 A 
ATOM     62  C   UNL     1     -14.898  10.259   2.533  1.00  0.00     0.010 A 
ATOM     63  C   UNL     1     -14.299  12.864   3.369  1.00  0.00     0.020 A 
ATOM     64  C   UNL     1     -15.470  10.761   3.707  1.00  0.00     0.020 A 
ATOM     65  C   UNL     1     -15.144  12.052   4.131  1.00  0.00     0.054 A 
BRANCH  65  66
ATOM     66  S   UNL     1     -15.823  12.709   5.679  1.00  0.00     0.124 S 
ATOM     67  O   UNL     1     -14.673  12.614   6.575  1.00  0.00    -0.237 OA
ATOM     68  O   UNL     1     -16.218  14.066   5.308  1.00  0.00    -0.237 OA
ATOM     69  O   UNL     1     -16.928  11.804   5.984  1.00  0.00    -0.744 OA
ENDBRANCH  65  66
ENDBRANCH  46  60
BRANCH  47  70
ATOM     70  C   UNL     1      -9.295   7.004  -6.048  1.00  0.00    -0.014 A 
ATOM     71  C   UNL     1      -9.066   7.773  -7.202  1.00  0.00     0.010 A 
ATOM     72  C   UNL     1      -8.808   5.686  -5.994  1.00  0.00     0.010 A 
ATOM     73  C   UNL     1      -8.363   7.234  -8.284  1.00  0.00     0.020 A 
ATOM     74  C   UNL     1      -8.085   5.151  -7.065  1.00  0.00     0.020 A 
ATOM     75  C   UNL     1      -7.871   5.928  -8.205  1.00  0.00     0.054 A 
BRANCH  75  76
ATOM     76  S   UNL     1      -6.886   5.280  -9.585  1.00  0.00     0.124 S 
ATOM     77  O   UNL     1      -7.909   5.011 -10.590  1.00  0.00    -0.237 OA
ATOM     78  O   UNL     1      -5.984   6.391  -9.879  1.00  0.00    -0.237 OA
ATOM     79  O   UNL     1      -6.239   4.099  -9.016  1.00  0.00    -0.744 OA
ENDBRANCH  75  76
ENDBRANCH  47  70
BRANCH  59  80
ATOM     80  C   UNL     1     -15.907   8.885  -4.862  1.00  0.00    -0.014 A 
ATOM     81  C   UNL     1     -16.573   7.674  -5.116  1.00  0.00     0.010 A 
ATOM     82  C   UNL     1     -16.442  10.084  -5.368  1.00  0.00     0.010 A 
ATOM     83  C   UNL     1     -17.739   7.659  -5.887  1.00  0.00     0.020 A 
ATOM     84  C   UNL     1     -17.620  10.075  -6.119  1.00  0.00     0.020 A 
ATOM     85  C   UNL     1     -18.254   8.860  -6.385  1.00  0.00     0.054 A 
BRANCH  85  86
ATOM     86  S   UNL     1     -19.792   8.822  -7.345  1.00  0.00     0.124 S 
ATOM     87  O   UNL     1     -19.334   8.304  -8.631  1.00  0.00    -0.237 OA
ATOM     88  O   UNL     1     -20.635   7.916  -6.567  1.00  0.00    -0.237 OA
ATOM     89  O   UNL     1     -20.230  10.216  -7.354  1.00  0.00    -0.744 OA
ENDBRANCH  85  86
ENDBRANCH  59  80
ENDBRANCH  33  34
ENDBRANCH  25  28
ENDBRANCH  23  24
ENDBRANCH  22  23
ENDBRANCH  21  22
ENDBRANCH   3  21
TORSDOF 20
