REMARK SMILES Nc1c(N2CCCC2)ncnc1N1CCC(C(=O)NCCCNC(=O)c2ccc(-c3c4nc(c(-c5ccc(S(=O)(=O)[O-])cc5)c5ccc([nH]5)c(-c5ccc(S(=O)(=O)[O-])cc5)c5nc(c(-c6ccc(S(=O)(=O)[O-])cc6)c6ccc3[nH]6)C=C5)C=C4)cc2)CC1
REMARK SMILES IDX 21 1 20 2 19 3 17 4 18 5 16 7 13 8 14 9 87 10 15 11 86 12
REMARK SMILES IDX 12 13 2 14 3 15 9 16 11 17 10 18 1 19 4 22 5 23 8 24 6 25
REMARK SMILES IDX 7 26 22 27 23 28 24 29 25 31 26 32 27 33 85 34 28 35 84 36
REMARK SMILES IDX 29 37 30 38 31 39 78 40 32 41 83 42 77 43 79 44 33 45 82 46
REMARK SMILES IDX 76 47 75 48 34 50 64 51 45 52 63 53 46 54 49 55 62 56 80 57
REMARK SMILES IDX 47 58 48 59 61 61 81 62 50 63 35 64 36 65 44 66 37 67 43 68
REMARK SMILES IDX 38 69 39 70 40 71 41 72 42 73 65 74 66 75 74 76 67 77 73 78
REMARK SMILES IDX 68 79 69 80 70 81 71 82 72 83 51 84 52 85 60 86 53 87 59 88
REMARK SMILES IDX 54 89 55 90 56 91 57 92 58 93
REMARK H PARENT 19 6 1 20 1 21 23 30 79 49 49 60
REMARK Flexibility Score: inf
ROOT
ATOM      1  C   UNL     1       0.260  -4.210   6.204  1.00  0.00     0.042 C 
ENDROOT
BRANCH   1   2
ATOM      2  C   UNL     1       0.395  -2.694   6.164  1.00  0.00     0.117 C 
BRANCH   2   3
ATOM      3  N   UNL     1       1.568  -2.222   6.892  1.00  0.00    -0.356 N 
ATOM      4  C   UNL     1       2.704  -1.612   6.454  1.00  0.00     0.223 C 
ATOM      5  O   UNL     1       3.559  -1.308   7.290  1.00  0.00    -0.275 OA
ATOM      6  H   UNL     1       1.532  -2.369   7.865  1.00  0.00     0.163 HD
BRANCH   4   7
ATOM      7  C   UNL     1       2.913  -1.280   4.986  1.00  0.00     0.082 C 
ATOM      8  N   UNL     1       1.703  -1.420   2.446  1.00  0.00    -0.355 N 
ATOM      9  C   UNL     1       2.813  -2.322   2.652  1.00  0.00     0.119 C 
ATOM     10  C   UNL     1       1.762  -0.099   3.035  1.00  0.00     0.119 C 
ATOM     11  C   UNL     1       3.002  -2.560   4.139  1.00  0.00     0.035 C 
ATOM     12  C   UNL     1       1.891  -0.221   4.543  1.00  0.00     0.035 C 
BRANCH   8  13
ATOM     13  C   UNL     1       0.700  -1.777   1.563  1.00  0.00     0.157 A 
ATOM     14  C   UNL     1       0.379  -0.968   0.466  1.00  0.00     0.118 A 
ATOM     15  C   UNL     1      -0.719  -1.366  -0.316  1.00  0.00     0.157 A 
ATOM     16  N   UNL     1      -1.435  -2.465  -0.034  1.00  0.00    -0.217 NA
ATOM     17  N   UNL     1       0.039  -2.923   1.808  1.00  0.00    -0.217 NA
ATOM     18  C   UNL     1      -1.001  -3.197   1.003  1.00  0.00     0.226 A 
BRANCH  14  19
ATOM     19  N   UNL     1       1.047   0.248   0.206  1.00  0.00    -0.393 N 
ATOM     20  H   UNL     1       0.794   0.791  -0.576  1.00  0.00     0.156 HD
ATOM     21  H   UNL     1       1.765   0.553   0.806  1.00  0.00     0.156 HD
ENDBRANCH  14  19
BRANCH  15  22
ATOM     22  N   UNL     1      -1.055  -0.601  -1.417  1.00  0.00    -0.355 N 
ATOM     23  C   UNL     1      -0.204  -0.606  -2.592  1.00  0.00     0.118 C 
ATOM     24  C   UNL     1      -2.437  -0.376  -1.796  1.00  0.00     0.118 C 
ATOM     25  C   UNL     1      -0.811   0.555  -3.365  1.00  0.00     0.023 C 
ATOM     26  C   UNL     1      -2.314   0.383  -3.130  1.00  0.00     0.023 C 
ENDBRANCH  15  22
ENDBRANCH   8  13
ENDBRANCH   4   7
ENDBRANCH   2   3
ENDBRANCH   1   2
BRANCH   1  27
ATOM     27  C   UNL     1       0.045  -4.768   7.601  1.00  0.00     0.118 C 
BRANCH  27  28
ATOM     28  N   UNL     1      -1.221  -4.344   8.183  1.00  0.00    -0.352 N 
ATOM     29  C   UNL     1      -2.343  -5.078   8.476  1.00  0.00     0.251 C 
ATOM     30  H   UNL     1      -1.282  -3.385   8.399  1.00  0.00     0.163 HD
ATOM     31  O   UNL     1      -3.387  -4.501   8.773  1.00  0.00    -0.269 OA
BRANCH  29  32
ATOM     32  C   UNL     1      -2.302  -6.554   8.416  1.00  0.00     0.039 A 
ATOM     33  C   UNL     1      -3.369  -7.239   7.830  1.00  0.00     0.014 A 
ATOM     34  C   UNL     1      -1.220  -7.264   8.943  1.00  0.00     0.014 A 
ATOM     35  C   UNL     1      -3.317  -8.630   7.711  1.00  0.00     0.010 A 
ATOM     36  C   UNL     1      -1.127  -8.637   8.742  1.00  0.00     0.010 A 
ATOM     37  C   UNL     1      -2.178  -9.336   8.133  1.00  0.00    -0.014 A 
BRANCH  37  38
ATOM     38  C   UNL     1      -2.075 -10.807   7.963  1.00  0.00     0.031 A 
ATOM     39  C   UNL     1      -1.984 -11.698   9.173  1.00  0.00     0.074 A 
ATOM     40  C   UNL     1      -2.019 -11.335   6.724  1.00  0.00     0.049 A 
ATOM     41  N   UNL     1      -1.842 -12.997   9.229  1.00  0.00    -0.248 NA
ATOM     42  C   UNL     1      -2.040 -11.044  10.491  1.00  0.00     0.031 C 
ATOM     43  C   UNL     1      -2.072 -10.573   5.474  1.00  0.00     0.029 A 
ATOM     44  N   UNL     1      -1.909 -12.639   6.311  1.00  0.00    -0.354 N 
ATOM     45  C   UNL     1      -1.787 -13.313  10.581  1.00  0.00     0.074 A 
ATOM     46  C   UNL     1      -1.849 -12.067  11.311  1.00  0.00     0.031 C 
ATOM     47  C   UNL     1      -2.035 -11.425   4.437  1.00  0.00     0.029 A 
ATOM     48  C   UNL     1      -1.909 -12.788   4.944  1.00  0.00     0.049 A 
ATOM     49  H   UNL     1      -1.836 -13.398   6.935  1.00  0.00     0.167 HD
ATOM     50  C   UNL     1      -1.719 -14.533  11.165  1.00  0.00     0.031 A 
ATOM     51  C   UNL     1      -1.816 -13.896   4.182  1.00  0.00     0.031 A 
ATOM     52  C   UNL     1      -1.665 -15.771  10.435  1.00  0.00     0.049 A 
ATOM     53  C   UNL     1      -1.700 -15.237   4.855  1.00  0.00     0.074 A 
ATOM     54  C   UNL     1      -1.627 -17.061  10.935  1.00  0.00     0.029 A 
ATOM     55  N   UNL     1      -1.645 -15.876   9.053  1.00  0.00    -0.354 N 
ATOM     56  N   UNL     1      -1.691 -15.517   6.136  1.00  0.00    -0.248 NA
ATOM     57  C   UNL     1      -1.587 -16.412   3.979  1.00  0.00     0.031 C 
ATOM     58  C   UNL     1      -1.530 -17.943   9.855  1.00  0.00     0.029 A 
ATOM     59  C   UNL     1      -1.572 -17.207   8.682  1.00  0.00     0.049 A 
ATOM     60  H   UNL     1      -1.678 -15.116   8.428  1.00  0.00     0.167 HD
ATOM     61  C   UNL     1      -1.598 -16.902   6.220  1.00  0.00     0.074 A 
ATOM     62  C   UNL     1      -1.569 -17.402   4.861  1.00  0.00     0.031 C 
ATOM     63  C   UNL     1      -1.542 -17.689   7.323  1.00  0.00     0.031 A 
BRANCH  50  64
ATOM     64  C   UNL     1      -1.709 -14.589  12.669  1.00  0.00    -0.014 A 
ATOM     65  C   UNL     1      -2.861 -14.268  13.411  1.00  0.00     0.010 A 
ATOM     66  C   UNL     1      -0.557 -15.023  13.350  1.00  0.00     0.010 A 
ATOM     67  C   UNL     1      -2.852 -14.352  14.805  1.00  0.00     0.020 A 
ATOM     68  C   UNL     1      -0.553 -15.136  14.743  1.00  0.00     0.020 A 
ATOM     69  C   UNL     1      -1.699 -14.789  15.463  1.00  0.00     0.054 A 
BRANCH  69  70
ATOM     70  S   UNL     1      -1.734 -14.927  17.271  1.00  0.00     0.124 S 
ATOM     71  O   UNL     1      -1.798 -13.525  17.679  1.00  0.00    -0.237 OA
ATOM     72  O   UNL     1      -2.947 -15.705  17.506  1.00  0.00    -0.237 OA
ATOM     73  O   UNL     1      -0.484 -15.611  17.592  1.00  0.00    -0.744 OA
ENDBRANCH  69  70
ENDBRANCH  50  64
BRANCH  51  74
ATOM     74  C   UNL     1      -1.855 -13.784   2.698  1.00  0.00    -0.014 A 
ATOM     75  C   UNL     1      -2.969 -14.252   1.978  1.00  0.00     0.010 A 
ATOM     76  C   UNL     1      -0.788 -13.194   1.995  1.00  0.00     0.010 A 
ATOM     77  C   UNL     1      -3.010 -14.144   0.585  1.00  0.00     0.020 A 
ATOM     78  C   UNL     1      -0.838 -13.058   0.605  1.00  0.00     0.020 A 
ATOM     79  C   UNL     1      -1.946 -13.543  -0.093  1.00  0.00     0.054 A 
BRANCH  79  80
ATOM     80  S   UNL     1      -2.048 -13.369  -1.896  1.00  0.00     0.124 S 
ATOM     81  O   UNL     1      -1.920 -14.752  -2.344  1.00  0.00    -0.237 OA
ATOM     82  O   UNL     1      -3.365 -12.763  -2.078  1.00  0.00    -0.237 OA
ATOM     83  O   UNL     1      -0.920 -12.499  -2.221  1.00  0.00    -0.744 OA
ENDBRANCH  79  80
ENDBRANCH  51  74
BRANCH  63  84
ATOM     84  C   UNL     1      -1.467 -19.178   7.116  1.00  0.00    -0.014 A 
ATOM     85  C   UNL     1      -0.293 -19.788   6.643  1.00  0.00     0.010 A 
ATOM     86  C   UNL     1      -2.564 -19.984   7.473  1.00  0.00     0.010 A 
ATOM     87  C   UNL     1      -0.224 -21.177   6.510  1.00  0.00     0.020 A 
ATOM     88  C   UNL     1      -2.489 -21.375   7.369  1.00  0.00     0.020 A 
ATOM     89  C   UNL     1      -1.321 -21.962   6.878  1.00  0.00     0.054 A 
BRANCH  89  90
ATOM     90  S   UNL     1      -1.183 -23.766   6.745  1.00  0.00     0.124 S 
ATOM     91  O   UNL     1      -1.179 -23.965   5.298  1.00  0.00    -0.237 OA
ATOM     92  O   UNL     1       0.083 -24.038   7.420  1.00  0.00    -0.237 OA
ATOM     93  O   UNL     1      -2.371 -24.258   7.438  1.00  0.00    -0.744 OA
ENDBRANCH  89  90
ENDBRANCH  63  84
ENDBRANCH  37  38
ENDBRANCH  29  32
ENDBRANCH  27  28
ENDBRANCH   1  27
TORSDOF 16
