REMARK SMILES CN(C(=O)CC(=O)NCCCNC(=O)c1ccc(-c2c3nc(c(-c4ccc(S(=O)(=O)[O-])cc4)c4ccc([nH]4)c(-c4ccc(S(=O)(=O)[O-])cc4)c4nc(c(-c5ccc(S(=O)(=O)[O-])cc5)c5ccc2[nH]5)C=C4)C=C3)cc1)C1CCC(C)(C)CC1
REMARK SMILES IDX 10 1 9 2 8 3 6 4 7 5 5 7 3 8 4 9 2 10 1 11 75 12 76 13 82 14
REMARK SMILES IDX 77 15 81 16 78 17 79 18 80 19 11 20 12 21 13 22 14 24 15 25
REMARK SMILES IDX 16 26 74 27 17 28 73 29 18 30 19 31 20 32 67 33 21 34 72 35
REMARK SMILES IDX 66 36 68 37 22 38 71 39 65 40 64 41 23 43 53 44 34 45 52 46
REMARK SMILES IDX 35 47 38 48 51 49 69 50 36 51 37 52 50 54 70 55 39 56 24 57
REMARK SMILES IDX 25 58 33 59 26 60 32 61 27 62 28 63 29 64 30 65 31 66 54 67
REMARK SMILES IDX 55 68 63 69 56 70 62 71 57 72 58 73 59 74 60 75 61 76 40 77
REMARK SMILES IDX 41 78 49 79 42 80 48 81 43 82 44 83 45 84 46 85 47 86
REMARK H PARENT 8 6 12 23 68 42 38 53
REMARK Flexibility Score: inf
ROOT
ATOM      1  C   UNL     1       2.055   1.730   4.463  1.00  0.00     0.042 C 
ENDROOT
BRANCH   1   2
ATOM      2  C   UNL     1       0.960   2.727   4.092  1.00  0.00     0.117 C 
BRANCH   2   3
ATOM      3  N   UNL     1       1.053   3.175   2.712  1.00  0.00    -0.356 N 
ATOM      4  C   UNL     1       0.291   2.813   1.642  1.00  0.00     0.229 C 
ATOM      5  O   UNL     1       0.527   3.336   0.551  1.00  0.00    -0.275 OA
ATOM      6  H   UNL     1       1.764   3.830   2.526  1.00  0.00     0.163 HD
BRANCH   4   7
ATOM      7  C   UNL     1      -0.832   1.823   1.810  1.00  0.00     0.200 C 
BRANCH   7   8
ATOM      8  C   UNL     1      -0.368   0.425   2.137  1.00  0.00     0.231 C 
ATOM      9  O   UNL     1      -0.670  -0.060   3.232  1.00  0.00    -0.274 OA
BRANCH   8  10
ATOM     10  N   UNL     1       0.405  -0.271   1.208  1.00  0.00    -0.342 N 
ATOM     11  C   UNL     1       0.599   0.190  -0.164  1.00  0.00     0.147 C 
BRANCH  10  12
ATOM     12  C   UNL     1       1.028  -1.545   1.655  1.00  0.00     0.084 C 
ATOM     13  C   UNL     1       0.076  -2.741   1.534  1.00  0.00     0.025 C 
ATOM     14  C   UNL     1       2.400  -1.871   1.044  1.00  0.00     0.025 C 
ATOM     15  C   UNL     1      -0.040  -3.271   0.109  1.00  0.00     0.008 C 
ATOM     16  C   UNL     1       2.357  -2.474  -0.361  1.00  0.00     0.008 C 
ATOM     17  C   UNL     1       1.318  -3.602  -0.554  1.00  0.00    -0.035 C 
ATOM     18  C   UNL     1       1.081  -3.799  -2.064  1.00  0.00     0.011 C 
ATOM     19  C   UNL     1       1.878  -4.919   0.019  1.00  0.00     0.011 C 
ENDBRANCH  10  12
ENDBRANCH   8  10
ENDBRANCH   7   8
ENDBRANCH   4   7
ENDBRANCH   2   3
ENDBRANCH   1   2
BRANCH   1  20
ATOM     20  C   UNL     1       3.476   2.286   4.386  1.00  0.00     0.118 C 
BRANCH  20  21
ATOM     21  N   UNL     1       3.683   3.436   5.255  1.00  0.00    -0.352 N 
ATOM     22  C   UNL     1       4.542   3.622   6.310  1.00  0.00     0.251 C 
ATOM     23  H   UNL     1       3.110   4.210   5.053  1.00  0.00     0.163 HD
ATOM     24  O   UNL     1       4.409   4.619   7.016  1.00  0.00    -0.269 OA
BRANCH  22  25
ATOM     25  C   UNL     1       5.608   2.642   6.615  1.00  0.00     0.039 A 
ATOM     26  C   UNL     1       5.871   2.336   7.955  1.00  0.00     0.014 A 
ATOM     27  C   UNL     1       6.384   2.064   5.607  1.00  0.00     0.014 A 
ATOM     28  C   UNL     1       6.864   1.406   8.278  1.00  0.00     0.010 A 
ATOM     29  C   UNL     1       7.328   1.087   5.927  1.00  0.00     0.010 A 
ATOM     30  C   UNL     1       7.577   0.746   7.265  1.00  0.00    -0.014 A 
BRANCH  30  31
ATOM     31  C   UNL     1       8.566  -0.315   7.588  1.00  0.00     0.031 A 
ATOM     32  C   UNL     1      10.024  -0.132   7.258  1.00  0.00     0.074 A 
ATOM     33  C   UNL     1       8.139  -1.479   8.118  1.00  0.00     0.049 A 
ATOM     34  N   UNL     1      11.015  -0.973   7.410  1.00  0.00    -0.248 NA
ATOM     35  C   UNL     1      10.416   1.154   6.659  1.00  0.00     0.031 C 
ATOM     36  C   UNL     1       6.747  -1.801   8.443  1.00  0.00     0.029 A 
ATOM     37  N   UNL     1       8.830  -2.612   8.468  1.00  0.00    -0.354 N 
ATOM     38  C   UNL     1      12.141  -0.331   6.908  1.00  0.00     0.074 A 
ATOM     39  C   UNL     1      11.704   0.957   6.413  1.00  0.00     0.031 C 
ATOM     40  C   UNL     1       6.690  -3.039   8.959  1.00  0.00     0.029 A 
ATOM     41  C   UNL     1       8.031  -3.614   8.967  1.00  0.00     0.049 A 
ATOM     42  H   UNL     1       9.806  -2.700   8.371  1.00  0.00     0.167 HD
ATOM     43  C   UNL     1      13.423  -0.766   6.875  1.00  0.00     0.031 A 
ATOM     44  C   UNL     1       8.337  -4.861   9.375  1.00  0.00     0.031 A 
ATOM     45  C   UNL     1      13.859  -2.041   7.384  1.00  0.00     0.049 A 
ATOM     46  C   UNL     1       9.769  -5.318   9.335  1.00  0.00     0.074 A 
ATOM     47  C   UNL     1      15.148  -2.541   7.457  1.00  0.00     0.029 A 
ATOM     48  N   UNL     1      13.022  -3.016   7.903  1.00  0.00    -0.354 N 
ATOM     49  N   UNL     1      10.830  -4.665   8.924  1.00  0.00    -0.248 NA
ATOM     50  C   UNL     1      10.047  -6.675   9.826  1.00  0.00     0.031 C 
ATOM     51  C   UNL     1      15.085  -3.839   7.974  1.00  0.00     0.029 A 
ATOM     52  C   UNL     1      13.763  -4.126   8.274  1.00  0.00     0.049 A 
ATOM     53  H   UNL     1      12.046  -2.933   7.994  1.00  0.00     0.167 HD
ATOM     54  C   UNL     1      11.904  -5.524   9.128  1.00  0.00     0.074 A 
ATOM     55  C   UNL     1      11.367  -6.735   9.714  1.00  0.00     0.031 C 
ATOM     56  C   UNL     1      13.217  -5.327   8.854  1.00  0.00     0.031 A 
BRANCH  43  57
ATOM     57  C   UNL     1      14.455   0.142   6.258  1.00  0.00    -0.014 A 
ATOM     58  C   UNL     1      14.868   1.320   6.905  1.00  0.00     0.010 A 
ATOM     59  C   UNL     1      15.060  -0.217   5.039  1.00  0.00     0.010 A 
ATOM     60  C   UNL     1      15.840   2.142   6.328  1.00  0.00     0.020 A 
ATOM     61  C   UNL     1      16.052   0.589   4.471  1.00  0.00     0.020 A 
ATOM     62  C   UNL     1      16.424   1.772   5.112  1.00  0.00     0.054 A 
BRANCH  62  63
ATOM     63  S   UNL     1      17.703   2.843   4.400  1.00  0.00     0.124 S 
ATOM     64  O   UNL     1      16.913   3.972   3.914  1.00  0.00    -0.237 OA
ATOM     65  O   UNL     1      18.561   3.126   5.548  1.00  0.00    -0.237 OA
ATOM     66  O   UNL     1      18.310   2.015   3.361  1.00  0.00    -0.744 OA
ENDBRANCH  62  63
ENDBRANCH  43  57
BRANCH  44  67
ATOM     67  C   UNL     1       7.261  -5.767   9.863  1.00  0.00    -0.014 A 
ATOM     68  C   UNL     1       7.165  -6.095  11.226  1.00  0.00     0.010 A 
ATOM     69  C   UNL     1       6.318  -6.297   8.963  1.00  0.00     0.010 A 
ATOM     70  C   UNL     1       6.159  -6.954  11.679  1.00  0.00     0.020 A 
ATOM     71  C   UNL     1       5.294  -7.134   9.416  1.00  0.00     0.020 A 
ATOM     72  C   UNL     1       5.229  -7.467  10.770  1.00  0.00     0.054 A 
BRANCH  72  73
ATOM     73  S   UNL     1       3.903  -8.541  11.386  1.00  0.00     0.124 S 
ATOM     74  O   UNL     1       4.613  -9.794  11.623  1.00  0.00    -0.237 OA
ATOM     75  O   UNL     1       3.451  -7.833  12.581  1.00  0.00    -0.237 OA
ATOM     76  O   UNL     1       2.943  -8.563  10.284  1.00  0.00    -0.744 OA
ENDBRANCH  72  73
ENDBRANCH  44  67
BRANCH  56  77
ATOM     77  C   UNL     1      14.172  -6.434   9.210  1.00  0.00    -0.014 A 
ATOM     78  C   UNL     1      14.217  -7.625   8.463  1.00  0.00     0.010 A 
ATOM     79  C   UNL     1      15.071  -6.259  10.278  1.00  0.00     0.010 A 
ATOM     80  C   UNL     1      15.124  -8.634   8.799  1.00  0.00     0.020 A 
ATOM     81  C   UNL     1      15.996  -7.255  10.600  1.00  0.00     0.020 A 
ATOM     82  C   UNL     1      16.006  -8.444   9.867  1.00  0.00     0.054 A 
BRANCH  82  83
ATOM     83  S   UNL     1      17.201  -9.752  10.258  1.00  0.00     0.124 S 
ATOM     84  O   UNL     1      16.356 -10.749  10.909  1.00  0.00    -0.237 OA
ATOM     85  O   UNL     1      17.713 -10.124   8.942  1.00  0.00    -0.237 OA
ATOM     86  O   UNL     1      18.167  -9.088  11.131  1.00  0.00    -0.744 OA
ENDBRANCH  82  83
ENDBRANCH  56  77
ENDBRANCH  30  31
ENDBRANCH  22  25
ENDBRANCH  20  21
ENDBRANCH   1  20
TORSDOF 16
