REMARK SMILES CC1CC[NH+](CC(=O)N[C@H](Cc2cccc(F)c2)C(=O)NCCCNC(=O)c2ccc(-c3c4nc(c(-c5ccc(S(=O)(=O)[O-])cc5)c5ccc([nH]5)c(-c5ccc(S(=O)(=O)[O-])cc5)c5nc(c(-c6ccc(S(=O)(=O)[O-])cc6)c6ccc3[nH]6)C=C5)C=C4)cc2)CC1
REMARK SMILES IDX 23 1 22 2 21 3 19 4 20 5 10 7 9 8 7 9 8 10 6 12 5 13 1 14
REMARK SMILES IDX 2 15 3 16 89 17 4 18 88 19 11 21 12 22 13 23 18 24 14 25
REMARK SMILES IDX 16 26 15 27 17 28 24 29 25 30 26 31 27 33 28 34 29 35 87 36
REMARK SMILES IDX 30 37 86 38 31 39 32 40 33 41 80 42 34 43 85 44 79 45 81 46
REMARK SMILES IDX 35 47 84 48 78 49 77 50 36 52 66 53 47 54 65 55 48 56 51 57
REMARK SMILES IDX 64 58 82 59 49 60 50 61 63 63 83 64 52 65 37 66 38 67 46 68
REMARK SMILES IDX 39 69 45 70 40 71 41 72 42 73 43 74 44 75 67 76 68 77 76 78
REMARK SMILES IDX 69 79 75 80 70 81 71 82 72 83 73 84 74 85 53 86 54 87 62 88
REMARK SMILES IDX 55 89 61 90 56 91 57 92 58 93 59 94 60 95
REMARK H PARENT 21 6 9 11 5 20 25 32 81 51 51 62
REMARK Flexibility Score: inf
ROOT
ATOM      1  C   UNL     1      -4.035  -2.708  -3.251  1.00  0.00     0.042 C 
ENDROOT
BRANCH   1   2
ATOM      2  C   UNL     1      -3.405  -3.068  -1.916  1.00  0.00     0.117 C 
BRANCH   2   3
ATOM      3  N   UNL     1      -2.082  -3.645  -2.121  1.00  0.00    -0.354 N 
ATOM      4  C   UNL     1      -0.880  -3.001  -2.240  1.00  0.00     0.242 C 
ATOM      5  O   UNL     1       0.018  -3.550  -2.880  1.00  0.00    -0.273 OA
ATOM      6  H   UNL     1      -2.049  -4.627  -2.182  1.00  0.00     0.163 HD
BRANCH   4   7
ATOM      7  C   UNL     1      -0.693  -1.612  -1.605  1.00  0.00     0.175 C 
BRANCH   7   8
ATOM      8  N   UNL     1      -1.266  -1.749  -0.248  1.00  0.00    -0.339 N 
ATOM      9  C   UNL     1      -1.108  -1.118   0.940  1.00  0.00     0.275 C 
ATOM     10  O   UNL     1      -1.652  -1.654   1.911  1.00  0.00    -0.268 OA
ATOM     11  H   UNL     1      -1.925  -2.478  -0.196  1.00  0.00     0.164 HD
BRANCH   9  12
ATOM     12  C   UNL     1      -0.372   0.200   1.068  1.00  0.00     0.363 C 
BRANCH  12  13
ATOM     13  N   UNL     1       1.070   0.185   1.348  1.00  0.00    -0.327 N 
ATOM     14  C   UNL     1       1.404  -3.841   2.494  1.00  0.00     0.008 C 
ATOM     15  C   UNL     1       2.002  -2.449   2.266  1.00  0.00    -0.003 C 
ATOM     16  C   UNL     1       1.317  -1.441   3.205  1.00  0.00     0.065 C 
ATOM     17  C   UNL     1       1.918  -2.097   0.775  1.00  0.00     0.065 C 
ATOM     18  C   UNL     1       1.426   0.004   2.745  1.00  0.00     0.262 C 
ATOM     19  C   UNL     1       1.938  -0.598   0.488  1.00  0.00     0.262 C 
ATOM     20  H   UNL     1       1.275   1.150   1.087  1.00  0.00     0.348 HD
ENDBRANCH  12  13
ENDBRANCH   9  12
ENDBRANCH   7   8
BRANCH   7  21
ATOM     21  C   UNL     1      -1.248  -0.498  -2.521  1.00  0.00     0.070 C 
BRANCH  21  22
ATOM     22  C   UNL     1      -0.445   0.787  -2.441  1.00  0.00    -0.043 A 
ATOM     23  C   UNL     1       0.891   0.824  -2.875  1.00  0.00     0.004 A 
ATOM     24  C   UNL     1      -0.982   1.922  -1.818  1.00  0.00     0.043 A 
ATOM     25  C   UNL     1       1.711   1.913  -2.560  1.00  0.00     0.003 A 
ATOM     26  C   UNL     1      -0.147   2.985  -1.480  1.00  0.00     0.123 A 
ATOM     27  C   UNL     1       1.199   2.979  -1.824  1.00  0.00     0.039 A 
ATOM     28  F   UNL     1      -0.631   3.987  -0.734  1.00  0.00    -0.207 F 
ENDBRANCH  21  22
ENDBRANCH   7  21
ENDBRANCH   4   7
ENDBRANCH   2   3
ENDBRANCH   1   2
BRANCH   1  29
ATOM     29  C   UNL     1      -4.223  -3.927  -4.139  1.00  0.00     0.118 C 
BRANCH  29  30
ATOM     30  N   UNL     1      -5.170  -4.872  -3.558  1.00  0.00    -0.352 N 
ATOM     31  C   UNL     1      -6.487  -5.075  -3.889  1.00  0.00     0.251 C 
ATOM     32  H   UNL     1      -4.819  -5.438  -2.833  1.00  0.00     0.163 HD
ATOM     33  O   UNL     1      -7.234  -5.679  -3.122  1.00  0.00    -0.269 OA
BRANCH  31  34
ATOM     34  C   UNL     1      -6.987  -4.541  -5.168  1.00  0.00     0.039 A 
ATOM     35  C   UNL     1      -8.186  -3.829  -5.200  1.00  0.00     0.014 A 
ATOM     36  C   UNL     1      -6.222  -4.703  -6.325  1.00  0.00     0.014 A 
ATOM     37  C   UNL     1      -8.574  -3.202  -6.385  1.00  0.00     0.010 A 
ATOM     38  C   UNL     1      -6.554  -3.992  -7.468  1.00  0.00     0.010 A 
ATOM     39  C   UNL     1      -7.734  -3.236  -7.511  1.00  0.00    -0.014 A 
BRANCH  39  40
ATOM     40  C   UNL     1      -8.050  -2.486  -8.750  1.00  0.00     0.031 A 
ATOM     41  C   UNL     1      -8.230  -3.230 -10.045  1.00  0.00     0.074 A 
ATOM     42  C   UNL     1      -8.071  -1.138  -8.725  1.00  0.00     0.049 A 
ATOM     43  N   UNL     1      -8.393  -2.754 -11.251  1.00  0.00    -0.248 NA
ATOM     44  C   UNL     1      -8.191  -4.702  -9.981  1.00  0.00     0.031 C 
ATOM     45  C   UNL     1      -7.872  -0.306  -7.534  1.00  0.00     0.029 A 
ATOM     46  N   UNL     1      -8.255  -0.228  -9.734  1.00  0.00    -0.354 N 
ATOM     47  C   UNL     1      -8.446  -3.861 -12.089  1.00  0.00     0.074 A 
ATOM     48  C   UNL     1      -8.253  -5.031 -11.262  1.00  0.00     0.031 C 
ATOM     49  C   UNL     1      -7.977   0.988  -7.878  1.00  0.00     0.029 A 
ATOM     50  C   UNL     1      -8.191   1.082  -9.317  1.00  0.00     0.049 A 
ATOM     51  H   UNL     1      -8.419  -0.487 -10.670  1.00  0.00     0.167 HD
ATOM     52  C   UNL     1      -8.652  -3.899 -13.426  1.00  0.00     0.031 A 
ATOM     53  C   UNL     1      -8.277   2.229 -10.018  1.00  0.00     0.031 A 
ATOM     54  C   UNL     1      -8.862  -2.730 -14.236  1.00  0.00     0.049 A 
ATOM     55  C   UNL     1      -8.476   2.157 -11.508  1.00  0.00     0.074 A 
ATOM     56  C   UNL     1      -9.158  -2.664 -15.585  1.00  0.00     0.029 A 
ATOM     57  N   UNL     1      -8.789  -1.424 -13.775  1.00  0.00    -0.354 N 
ATOM     58  N   UNL     1      -8.611   1.098 -12.271  1.00  0.00    -0.248 NA
ATOM     59  C   UNL     1      -8.534   3.434 -12.233  1.00  0.00     0.031 C 
ATOM     60  C   UNL     1      -9.193  -1.317 -15.956  1.00  0.00     0.029 A 
ATOM     61  C   UNL     1      -8.989  -0.544 -14.824  1.00  0.00     0.049 A 
ATOM     62  H   UNL     1      -8.620  -1.162 -12.842  1.00  0.00     0.167 HD
ATOM     63  C   UNL     1      -8.795   1.583 -13.561  1.00  0.00     0.074 A 
ATOM     64  C   UNL     1      -8.773   3.028 -13.472  1.00  0.00     0.031 C 
ATOM     65  C   UNL     1      -8.965   0.893 -14.715  1.00  0.00     0.031 A 
BRANCH  52  66
ATOM     66  C   UNL     1      -8.648  -5.245 -14.102  1.00  0.00    -0.014 A 
ATOM     67  C   UNL     1      -9.681  -6.175 -13.887  1.00  0.00     0.010 A 
ATOM     68  C   UNL     1      -7.624  -5.559 -15.014  1.00  0.00     0.010 A 
ATOM     69  C   UNL     1      -9.673  -7.407 -14.547  1.00  0.00     0.020 A 
ATOM     70  C   UNL     1      -7.629  -6.777 -15.700  1.00  0.00     0.020 A 
ATOM     71  C   UNL     1      -8.648  -7.699 -15.452  1.00  0.00     0.054 A 
BRANCH  71  72
ATOM     72  S   UNL     1      -8.688  -9.287 -16.326  1.00  0.00     0.124 S 
ATOM     73  O   UNL     1      -8.376 -10.229 -15.253  1.00  0.00    -0.237 OA
ATOM     74  O   UNL     1     -10.059  -9.339 -16.828  1.00  0.00    -0.237 OA
ATOM     75  O   UNL     1      -7.656  -9.147 -17.350  1.00  0.00    -0.744 OA
ENDBRANCH  71  72
ENDBRANCH  52  66
BRANCH  53  76
ATOM     76  C   UNL     1      -8.176   3.543  -9.324  1.00  0.00    -0.014 A 
ATOM     77  C   UNL     1      -9.293   4.392  -9.244  1.00  0.00     0.010 A 
ATOM     78  C   UNL     1      -6.963   3.955  -8.741  1.00  0.00     0.010 A 
ATOM     79  C   UNL     1      -9.195   5.638  -8.616  1.00  0.00     0.020 A 
ATOM     80  C   UNL     1      -6.869   5.185  -8.084  1.00  0.00     0.020 A 
ATOM     81  C   UNL     1      -7.983   6.025  -8.039  1.00  0.00     0.054 A 
BRANCH  81  82
ATOM     82  S   UNL     1      -7.891   7.630  -7.198  1.00  0.00     0.124 S 
ATOM     83  O   UNL     1      -7.940   8.563  -8.320  1.00  0.00    -0.237 OA
ATOM     84  O   UNL     1      -9.074   7.604  -6.342  1.00  0.00    -0.237 OA
ATOM     85  O   UNL     1      -6.615   7.571  -6.488  1.00  0.00    -0.744 OA
ENDBRANCH  81  82
ENDBRANCH  53  76
BRANCH  65  86
ATOM     86  C   UNL     1      -9.165   1.687 -15.978  1.00  0.00    -0.014 A 
ATOM     87  C   UNL     1      -8.100   2.386 -16.572  1.00  0.00     0.010 A 
ATOM     88  C   UNL     1     -10.415   1.661 -16.624  1.00  0.00     0.010 A 
ATOM     89  C   UNL     1      -8.286   3.059 -17.782  1.00  0.00     0.020 A 
ATOM     90  C   UNL     1     -10.596   2.307 -17.849  1.00  0.00     0.020 A 
ATOM     91  C   UNL     1      -9.531   3.009 -18.416  1.00  0.00     0.054 A 
BRANCH  91  92
ATOM     92  S   UNL     1      -9.722   3.829 -20.022  1.00  0.00     0.124 S 
ATOM     93  O   UNL     1      -9.684   5.240 -19.650  1.00  0.00    -0.237 OA
ATOM     94  O   UNL     1      -8.563   3.343 -20.767  1.00  0.00    -0.237 OA
ATOM     95  O   UNL     1     -11.014   3.347 -20.507  1.00  0.00    -0.744 OA
ENDBRANCH  91  92
ENDBRANCH  65  86
ENDBRANCH  39  40
ENDBRANCH  31  34
ENDBRANCH  29  30
ENDBRANCH   1  29
TORSDOF 18
