REMARK SMILES COC(=O)[C@H]1CCN(S(=O)(=O)N2CCC[C@H](C(=O)NCCCNC(=O)c3ccc(-c4c5nc(c(-c6ccc(S(=O)(=O)[O-])cc6)c6ccc([nH]6)c(-c6ccc(S(=O)(=O)[O-])cc6)c6nc(c(-c7ccc(S(=O)(=O)[O-])cc7)c7ccc4[nH]7)C=C6)C=C5)cc3)C2)C1
REMARK SMILES IDX 20 1 19 2 17 3 18 4 16 6 12 7 13 8 86 9 14 10 15 11 9 12
REMARK SMILES IDX 10 13 11 14 8 15 5 16 6 17 87 18 7 19 3 20 4 21 2 22 1 23
REMARK SMILES IDX 21 24 22 25 23 26 24 27 25 29 26 30 27 31 85 32 28 33 84 34
REMARK SMILES IDX 29 35 30 36 31 37 78 38 32 39 83 40 77 41 79 42 33 43 82 44
REMARK SMILES IDX 76 45 75 46 34 48 64 49 45 50 63 51 46 52 49 53 62 54 80 55
REMARK SMILES IDX 47 56 48 57 61 59 81 60 50 61 35 62 36 63 44 64 37 65 43 66
REMARK SMILES IDX 38 67 39 68 40 69 41 70 42 71 65 72 66 73 74 74 67 75 73 76
REMARK SMILES IDX 68 77 69 78 70 79 71 80 72 81 51 82 52 83 60 84 53 85 59 86
REMARK SMILES IDX 54 87 55 88 56 89 57 90 58 91
REMARK H PARENT 19 5 23 28 79 47 49 58
REMARK Flexibility Score: inf
ROOT
ATOM      1  C   UNL     1      -4.753   6.937  -2.205  1.00  0.00     0.117 C 
ENDROOT
BRANCH   1   2
ATOM      2  N   UNL     1      -5.614   5.869  -2.664  1.00  0.00    -0.356 N 
ATOM      3  C   UNL     1      -5.354   4.632  -3.148  1.00  0.00     0.224 C 
ATOM      4  O   UNL     1      -6.344   3.933  -3.402  1.00  0.00    -0.275 OA
ATOM      5  H   UNL     1      -6.574   6.082  -2.615  1.00  0.00     0.163 HD
BRANCH   3   6
ATOM      6  C   UNL     1      -3.960   4.055  -3.403  1.00  0.00     0.094 C 
ATOM      7  N   UNL     1      -2.220   5.033  -1.925  1.00  0.00    -0.188 NA
ATOM      8  C   UNL     1      -1.361   5.458  -3.042  1.00  0.00     0.103 C 
ATOM      9  C   UNL     1      -3.085   3.873  -2.175  1.00  0.00     0.117 C 
ATOM     10  C   UNL     1      -2.196   5.704  -4.297  1.00  0.00     0.018 C 
ATOM     11  C   UNL     1      -3.202   4.603  -4.610  1.00  0.00     0.016 C 
BRANCH   7  12
ATOM     12  S   UNL     1      -1.726   5.377  -0.364  1.00  0.00     0.282 S 
ATOM     13  O   UNL     1      -2.714   4.890   0.566  1.00  0.00    -0.195 OA
ATOM     14  O   UNL     1      -1.287   6.754  -0.335  1.00  0.00    -0.195 OA
BRANCH  12  15
ATOM     15  N   UNL     1      -0.348   4.404  -0.224  1.00  0.00    -0.188 NA
ATOM     16  C   UNL     1       0.734   3.492   1.738  1.00  0.00     0.116 C 
ATOM     17  C   UNL     1      -0.407   2.590   1.313  1.00  0.00     0.033 C 
ATOM     18  C   UNL     1       0.513   4.776   0.949  1.00  0.00     0.118 C 
ATOM     19  C   UNL     1      -0.566   2.940  -0.150  1.00  0.00     0.104 C 
BRANCH  16  20
ATOM     20  C   UNL     1       0.711   3.795   3.211  1.00  0.00     0.310 C 
ATOM     21  O   UNL     1      -0.291   4.065   3.855  1.00  0.00    -0.252 OA
BRANCH  20  22
ATOM     22  O   UNL     1       1.978   3.769   3.709  1.00  0.00    -0.469 OA
ATOM     23  C   UNL     1       2.071   4.165   5.077  1.00  0.00     0.282 C 
ENDBRANCH  20  22
ENDBRANCH  16  20
ENDBRANCH  12  15
ENDBRANCH   7  12
ENDBRANCH   3   6
ENDBRANCH   1   2
BRANCH   1  24
ATOM     24  C   UNL     1      -4.678   8.088  -3.192  1.00  0.00     0.042 C 
BRANCH  24  25
ATOM     25  C   UNL     1      -5.818   9.072  -3.030  1.00  0.00     0.118 C 
BRANCH  25  26
ATOM     26  N   UNL     1      -5.739   9.805  -1.771  1.00  0.00    -0.352 N 
ATOM     27  C   UNL     1      -5.512  11.138  -1.531  1.00  0.00     0.251 C 
ATOM     28  H   UNL     1      -5.870   9.256  -0.965  1.00  0.00     0.163 HD
ATOM     29  O   UNL     1      -5.276  11.517  -0.387  1.00  0.00    -0.269 OA
BRANCH  27  30
ATOM     30  C   UNL     1      -5.534  12.109  -2.644  1.00  0.00     0.039 A 
ATOM     31  C   UNL     1      -4.613  13.159  -2.651  1.00  0.00     0.014 A 
ATOM     32  C   UNL     1      -6.465  11.990  -3.677  1.00  0.00     0.014 A 
ATOM     33  C   UNL     1      -4.589  14.047  -3.727  1.00  0.00     0.010 A 
ATOM     34  C   UNL     1      -6.356  12.793  -4.803  1.00  0.00     0.010 A 
ATOM     35  C   UNL     1      -5.433  13.847  -4.831  1.00  0.00    -0.014 A 
BRANCH  35  36
ATOM     36  C   UNL     1      -5.394  14.742  -6.014  1.00  0.00     0.031 A 
ATOM     37  C   UNL     1      -6.626  15.513  -6.410  1.00  0.00     0.074 A 
ATOM     38  C   UNL     1      -4.274  14.813  -6.760  1.00  0.00     0.049 A 
ATOM     39  N   UNL     1      -6.811  16.298  -7.440  1.00  0.00    -0.248 NA
ATOM     40  C   UNL     1      -7.818  15.357  -5.557  1.00  0.00     0.031 C 
ATOM     41  C   UNL     1      -3.033  14.077  -6.502  1.00  0.00     0.029 A 
ATOM     42  N   UNL     1      -3.998  15.537  -7.892  1.00  0.00    -0.354 N 
ATOM     43  C   UNL     1      -8.137  16.710  -7.367  1.00  0.00     0.074 A 
ATOM     44  C   UNL     1      -8.729  16.038  -6.234  1.00  0.00     0.031 C 
ATOM     45  C   UNL     1      -2.118  14.420  -7.422  1.00  0.00     0.029 A 
ATOM     46  C   UNL     1      -2.720  15.356  -8.365  1.00  0.00     0.049 A 
ATOM     47  H   UNL     1      -4.653  16.131  -8.325  1.00  0.00     0.167 HD
ATOM     48  C   UNL     1      -8.796  17.590  -8.157  1.00  0.00     0.031 A 
ATOM     49  C   UNL     1      -2.103  15.880  -9.442  1.00  0.00     0.031 A 
ATOM     50  C   UNL     1      -8.194  18.264  -9.275  1.00  0.00     0.049 A 
ATOM     51  C   UNL     1      -2.861  16.843 -10.315  1.00  0.00     0.074 A 
ATOM     52  C   UNL     1      -8.753  19.217 -10.107  1.00  0.00     0.029 A 
ATOM     53  N   UNL     1      -6.896  18.056  -9.719  1.00  0.00    -0.354 N 
ATOM     54  N   UNL     1      -4.094  17.274 -10.189  1.00  0.00    -0.248 NA
ATOM     55  C   UNL     1      -2.141  17.399 -11.468  1.00  0.00     0.031 C 
ATOM     56  C   UNL     1      -7.816  19.536 -11.094  1.00  0.00     0.029 A 
ATOM     57  C   UNL     1      -6.646  18.839 -10.833  1.00  0.00     0.049 A 
ATOM     58  H   UNL     1      -6.248  17.442  -9.303  1.00  0.00     0.167 HD
ATOM     59  C   UNL     1      -4.287  18.175 -11.230  1.00  0.00     0.074 A 
ATOM     60  C   UNL     1      -3.039  18.239 -11.963  1.00  0.00     0.031 C 
ATOM     61  C   UNL     1      -5.397  18.887 -11.550  1.00  0.00     0.031 A 
BRANCH  48  62
ATOM     62  C   UNL     1     -10.244  17.866  -7.841  1.00  0.00    -0.014 A 
ATOM     63  C   UNL     1     -10.619  18.541  -6.664  1.00  0.00     0.010 A 
ATOM     64  C   UNL     1     -11.243  17.478  -8.751  1.00  0.00     0.010 A 
ATOM     65  C   UNL     1     -11.966  18.784  -6.384  1.00  0.00     0.020 A 
ATOM     66  C   UNL     1     -12.590  17.749  -8.491  1.00  0.00     0.020 A 
ATOM     67  C   UNL     1     -12.943  18.387  -7.300  1.00  0.00     0.054 A 
BRANCH  67  68
ATOM     68  S   UNL     1     -14.681  18.743  -6.924  1.00  0.00     0.124 S 
ATOM     69  O   UNL     1     -14.948  17.817  -5.825  1.00  0.00    -0.237 OA
ATOM     70  O   UNL     1     -14.645  20.157  -6.558  1.00  0.00    -0.237 OA
ATOM     71  O   UNL     1     -15.377  18.443  -8.173  1.00  0.00    -0.744 OA
ENDBRANCH  67  68
ENDBRANCH  48  62
BRANCH  49  72
ATOM     72  C   UNL     1      -0.691  15.513  -9.745  1.00  0.00    -0.014 A 
ATOM     73  C   UNL     1       0.339  16.462  -9.622  1.00  0.00     0.010 A 
ATOM     74  C   UNL     1      -0.367  14.204 -10.146  1.00  0.00     0.010 A 
ATOM     75  C   UNL     1       1.662  16.116  -9.916  1.00  0.00     0.020 A 
ATOM     76  C   UNL     1       0.958  13.845 -10.408  1.00  0.00     0.020 A 
ATOM     77  C   UNL     1       1.963  14.807 -10.303  1.00  0.00     0.054 A 
BRANCH  77  78
ATOM     78  S   UNL     1       3.693  14.370 -10.634  1.00  0.00     0.124 S 
ATOM     79  O   UNL     1       3.950  15.071 -11.887  1.00  0.00    -0.237 OA
ATOM     80  O   UNL     1       4.381  14.898  -9.459  1.00  0.00    -0.237 OA
ATOM     81  O   UNL     1       3.665  12.912 -10.726  1.00  0.00    -0.744 OA
ENDBRANCH  77  78
ENDBRANCH  49  72
BRANCH  61  82
ATOM     82  C   UNL     1      -5.303  19.826 -12.724  1.00  0.00    -0.014 A 
ATOM     83  C   UNL     1      -5.214  19.344 -14.042  1.00  0.00     0.010 A 
ATOM     84  C   UNL     1      -5.365  21.214 -12.504  1.00  0.00     0.010 A 
ATOM     85  C   UNL     1      -5.152  20.236 -15.116  1.00  0.00     0.020 A 
ATOM     86  C   UNL     1      -5.339  22.108 -13.576  1.00  0.00     0.020 A 
ATOM     87  C   UNL     1      -5.218  21.612 -14.876  1.00  0.00     0.054 A 
BRANCH  87  88
ATOM     88  S   UNL     1      -5.182  22.745 -16.291  1.00  0.00     0.124 S 
ATOM     89  O   UNL     1      -3.795  22.634 -16.734  1.00  0.00    -0.237 OA
ATOM     90  O   UNL     1      -6.177  22.165 -17.189  1.00  0.00    -0.237 OA
ATOM     91  O   UNL     1      -5.549  24.036 -15.712  1.00  0.00    -0.744 OA
ENDBRANCH  87  88
ENDBRANCH  61  82
ENDBRANCH  35  36
ENDBRANCH  27  30
ENDBRANCH  25  26
ENDBRANCH  24  25
ENDBRANCH   1  24
TORSDOF 17
