REMARK SMILES C[C@@H](C(=O)NCCCNC(=O)c1ccc(-c2c3nc(c(-c4ccc(S(=O)(=O)[O-])cc4)c4ccc([nH]4)c(-c4ccc(S(=O)(=O)[O-])cc4)c4nc(c(-c5ccc(S(=O)(=O)[O-])cc5)c5ccc2[nH]5)C=C4)C=C3)cc1)c1ccc2c3cc(Cl)ccc3n(C(=O)c3cocn3)c2c1
REMARK SMILES IDX 7 1 6 2 5 3 3 4 4 5 2 7 1 8 72 9 73 10 92 11 74 12 91 13
REMARK SMILES IDX 75 14 83 15 76 16 82 17 77 18 81 19 78 20 80 21 79 22 84 23
REMARK SMILES IDX 85 24 86 25 87 26 90 27 88 28 89 29 8 30 9 31 10 32 11 34
REMARK SMILES IDX 12 35 13 36 71 37 14 38 70 39 15 40 16 41 17 42 64 43 18 44
REMARK SMILES IDX 69 45 63 46 65 47 19 48 68 49 62 50 61 51 20 53 50 54 31 55
REMARK SMILES IDX 49 56 32 57 35 58 48 59 66 60 33 61 34 62 47 64 67 65 36 66
REMARK SMILES IDX 21 67 22 68 30 69 23 70 29 71 24 72 25 73 26 74 27 75 28 76
REMARK SMILES IDX 51 77 52 78 60 79 53 80 59 81 54 82 55 83 56 84 57 85 58 86
REMARK SMILES IDX 37 87 38 88 46 89 39 90 45 91 40 92 41 93 42 94 43 95 44 96
REMARK H PARENT 5 6 9 33 65 52 35 63
REMARK Flexibility Score: inf
ROOT
ATOM      1  C   UNL     1       4.404   1.259   0.100  1.00  0.00     0.042 C 
ENDROOT
BRANCH   1   2
ATOM      2  C   UNL     1       3.495   1.670   1.260  1.00  0.00     0.117 C 
BRANCH   2   3
ATOM      3  N   UNL     1       2.499   2.634   0.832  1.00  0.00    -0.356 N 
ATOM      4  C   UNL     1       1.217   2.432   0.409  1.00  0.00     0.227 C 
ATOM      5  O   UNL     1       0.744   3.318  -0.304  1.00  0.00    -0.274 OA
ATOM      6  H   UNL     1       2.792   3.573   0.850  1.00  0.00     0.163 HD
BRANCH   4   7
ATOM      7  C   UNL     1       0.473   1.147   0.808  1.00  0.00     0.105 C 
ATOM      8  C   UNL     1       0.800   0.065  -0.232  1.00  0.00     0.023 C 
BRANCH   7   9
ATOM      9  C   UNL     1      -1.050   1.256   0.987  1.00  0.00    -0.034 A 
ATOM     10  C   UNL     1      -1.771   2.436   0.798  1.00  0.00     0.005 A 
ATOM     11  C   UNL     1      -1.766   0.094   1.345  1.00  0.00     0.032 A 
ATOM     12  C   UNL     1      -3.169   2.448   0.801  1.00  0.00     0.011 A 
ATOM     13  C   UNL     1      -3.177   0.110   1.381  1.00  0.00     0.058 A 
ATOM     14  C   UNL     1      -3.880   1.260   1.047  1.00  0.00     0.008 A 
ATOM     15  N   UNL     1      -4.103  -0.905   1.663  1.00  0.00    -0.274 N 
ATOM     16  C   UNL     1      -5.260   0.934   1.029  1.00  0.00     0.009 A 
ATOM     17  C   UNL     1      -5.396  -0.390   1.465  1.00  0.00     0.057 A 
ATOM     18  C   UNL     1      -6.406   1.688   0.696  1.00  0.00     0.031 A 
ATOM     19  C   UNL     1      -6.679  -0.930   1.688  1.00  0.00     0.029 A 
ATOM     20  C   UNL     1      -7.667   1.122   0.849  1.00  0.00     0.041 A 
ATOM     21  C   UNL     1      -7.805  -0.162   1.357  1.00  0.00     0.023 A 
ATOM     22  Cl  UNL     1      -9.064   2.038   0.435  1.00  0.00    -0.084 Cl
BRANCH  15  23
ATOM     23  C   UNL     1      -3.740  -2.207   2.103  1.00  0.00     0.284 C 
ATOM     24  O   UNL     1      -2.686  -2.277   2.749  1.00  0.00    -0.266 OA
BRANCH  23  25
ATOM     25  C   UNL     1      -4.485  -3.429   1.826  1.00  0.00     0.167 A 
ATOM     26  C   UNL     1      -5.329  -3.713   0.772  1.00  0.00     0.231 A 
ATOM     27  N   UNL     1      -4.329  -4.585   2.582  1.00  0.00    -0.211 NA
ATOM     28  O   UNL     1      -5.716  -5.018   0.866  1.00  0.00    -0.451 OA
ATOM     29  C   UNL     1      -5.057  -5.480   1.961  1.00  0.00     0.308 A 
ENDBRANCH  23  25
ENDBRANCH  15  23
ENDBRANCH   7   9
ENDBRANCH   4   7
ENDBRANCH   2   3
ENDBRANCH   1   2
BRANCH   1  30
ATOM     30  C   UNL     1       5.116   2.420  -0.588  1.00  0.00     0.118 C 
BRANCH  30  31
ATOM     31  N   UNL     1       6.056   3.099   0.290  1.00  0.00    -0.352 N 
ATOM     32  C   UNL     1       7.406   3.295   0.132  1.00  0.00     0.251 C 
ATOM     33  H   UNL     1       5.670   3.470   1.116  1.00  0.00     0.163 HD
ATOM     34  O   UNL     1       8.072   3.726   1.068  1.00  0.00    -0.269 OA
BRANCH  32  35
ATOM     35  C   UNL     1       8.057   2.964  -1.155  1.00  0.00     0.039 A 
ATOM     36  C   UNL     1       9.252   2.240  -1.139  1.00  0.00     0.014 A 
ATOM     37  C   UNL     1       7.497   3.367  -2.370  1.00  0.00     0.014 A 
ATOM     38  C   UNL     1       9.849   1.861  -2.344  1.00  0.00     0.010 A 
ATOM     39  C   UNL     1       8.057   2.933  -3.569  1.00  0.00     0.010 A 
ATOM     40  C   UNL     1       9.237   2.173  -3.568  1.00  0.00    -0.014 A 
BRANCH  40  41
ATOM     41  C   UNL     1       9.802   1.699  -4.858  1.00  0.00     0.031 A 
ATOM     42  C   UNL     1      10.302   2.689  -5.875  1.00  0.00     0.074 A 
ATOM     43  C   UNL     1       9.787   0.382  -5.147  1.00  0.00     0.049 A 
ATOM     44  N   UNL     1      10.743   2.471  -7.088  1.00  0.00    -0.248 NA
ATOM     45  C   UNL     1      10.283   4.109  -5.489  1.00  0.00     0.031 C 
ATOM     46  C   UNL     1       9.290  -0.675  -4.261  1.00  0.00     0.029 A 
ATOM     47  N   UNL     1      10.184  -0.293  -6.275  1.00  0.00    -0.354 N 
ATOM     48  C   UNL     1      11.028   3.724  -7.618  1.00  0.00     0.074 A 
ATOM     49  C   UNL     1      10.680   4.700  -6.608  1.00  0.00     0.031 C 
ATOM     50  C   UNL     1       9.425  -1.863  -4.874  1.00  0.00     0.029 A 
ATOM     51  C   UNL     1       9.976  -1.651  -6.209  1.00  0.00     0.049 A 
ATOM     52  H   UNL     1      10.581   0.153  -7.057  1.00  0.00     0.167 HD
ATOM     53  C   UNL     1      11.541   4.033  -8.833  1.00  0.00     0.031 A 
ATOM     54  C   UNL     1      10.185  -2.617  -7.124  1.00  0.00     0.031 A 
ATOM     55  C   UNL     1      11.908   3.058  -9.825  1.00  0.00     0.049 A 
ATOM     56  C   UNL     1      10.750  -2.245  -8.468  1.00  0.00     0.074 A 
ATOM     57  C   UNL     1      12.516   3.269 -11.051  1.00  0.00     0.029 A 
ATOM     58  N   UNL     1      11.697   1.693  -9.713  1.00  0.00    -0.354 N 
ATOM     59  N   UNL     1      11.092  -1.062  -8.918  1.00  0.00    -0.248 NA
ATOM     60  C   UNL     1      10.959  -3.339  -9.428  1.00  0.00     0.031 C 
ATOM     61  C   UNL     1      12.622   2.037 -11.703  1.00  0.00     0.029 A 
ATOM     62  C   UNL     1      12.130   1.052 -10.861  1.00  0.00     0.049 A 
ATOM     63  H   UNL     1      11.297   1.246  -8.932  1.00  0.00     0.167 HD
ATOM     64  C   UNL     1      11.579  -1.273 -10.203  1.00  0.00     0.074 A 
ATOM     65  C   UNL     1      11.501  -2.697 -10.454  1.00  0.00     0.031 C 
ATOM     66  C   UNL     1      12.048  -0.367 -11.095  1.00  0.00     0.031 A 
BRANCH  53  67
ATOM     67  C   UNL     1      11.731   5.488  -9.166  1.00  0.00    -0.014 A 
ATOM     68  C   UNL     1      12.745   6.249  -8.557  1.00  0.00     0.010 A 
ATOM     69  C   UNL     1      10.923   6.088 -10.150  1.00  0.00     0.010 A 
ATOM     70  C   UNL     1      12.926   7.591  -8.902  1.00  0.00     0.020 A 
ATOM     71  C   UNL     1      11.117   7.423 -10.515  1.00  0.00     0.020 A 
ATOM     72  C   UNL     1      12.109   8.170  -9.878  1.00  0.00     0.054 A 
BRANCH  72  73
ATOM     73  S   UNL     1      12.390   9.904 -10.331  1.00  0.00     0.124 S 
ATOM     74  O   UNL     1      11.853  10.609  -9.169  1.00  0.00    -0.237 OA
ATOM     75  O   UNL     1      13.841   9.964 -10.486  1.00  0.00    -0.237 OA
ATOM     76  O   UNL     1      11.627  10.068 -11.566  1.00  0.00    -0.744 OA
ENDBRANCH  72  73
ENDBRANCH  53  67
BRANCH  54  77
ATOM     77  C   UNL     1       9.851  -4.032  -6.806  1.00  0.00    -0.014 A 
ATOM     78  C   UNL     1      10.870  -4.982  -6.620  1.00  0.00     0.010 A 
ATOM     79  C   UNL     1       8.508  -4.437  -6.691  1.00  0.00     0.010 A 
ATOM     80  C   UNL     1      10.553  -6.317  -6.349  1.00  0.00     0.020 A 
ATOM     81  C   UNL     1       8.188  -5.765  -6.394  1.00  0.00     0.020 A 
ATOM     82  C   UNL     1       9.213  -6.700  -6.239  1.00  0.00     0.054 A 
BRANCH  82  83
ATOM     83  S   UNL     1       8.823  -8.429  -5.850  1.00  0.00     0.124 S 
ATOM     84  O   UNL     1       9.071  -9.090  -7.127  1.00  0.00    -0.237 OA
ATOM     85  O   UNL     1       9.772  -8.735  -4.783  1.00  0.00    -0.237 OA
ATOM     86  O   UNL     1       7.424  -8.376  -5.432  1.00  0.00    -0.744 OA
ENDBRANCH  82  83
ENDBRANCH  54  77
BRANCH  66  87
ATOM     87  C   UNL     1      12.540  -0.884 -12.419  1.00  0.00    -0.014 A 
ATOM     88  C   UNL     1      11.639  -1.317 -13.408  1.00  0.00     0.010 A 
ATOM     89  C   UNL     1      13.918  -0.867 -12.704  1.00  0.00     0.010 A 
ATOM     90  C   UNL     1      12.110  -1.742 -14.653  1.00  0.00     0.020 A 
ATOM     91  C   UNL     1      14.389  -1.267 -13.956  1.00  0.00     0.020 A 
ATOM     92  C   UNL     1      13.482  -1.711 -14.921  1.00  0.00     0.054 A 
BRANCH  92  93
ATOM     93  S   UNL     1      14.062  -2.204 -16.567  1.00  0.00     0.124 S 
ATOM     94  O   UNL     1      13.922  -3.657 -16.516  1.00  0.00    -0.237 OA
ATOM     95  O   UNL     1      13.132  -1.514 -17.456  1.00  0.00    -0.237 OA
ATOM     96  O   UNL     1      15.438  -1.712 -16.611  1.00  0.00    -0.744 OA
ENDBRANCH  92  93
ENDBRANCH  66  87
ENDBRANCH  40  41
ENDBRANCH  32  35
ENDBRANCH  30  31
ENDBRANCH   1  30
TORSDOF 16
