REMARK SMILES C[C@@H]1CCCN(C(=O)CSc2nnc3c4ccccc4n(CC(=O)NCCCNC(=O)c4ccc(-c5c6nc(c(-c7ccc(S(=O)(=O)[O-])cc7)c7ccc([nH]7)c(-c7ccc(S(=O)(=O)[O-])cc7)c7nc(c(-c8ccc(S(=O)(=O)[O-])cc8)c8ccc5[nH]8)C=C7)C=C6)cc4)c3n2)C1
REMARK SMILES IDX 26 1 25 2 23 3 24 4 22 6 21 7 11 8 12 9 93 10 13 11 92 12
REMARK SMILES IDX 14 13 15 14 20 15 16 16 19 17 17 18 18 19 10 20 9 21 7 22
REMARK SMILES IDX 8 23 6 24 1 25 2 26 3 27 94 28 4 29 5 30 27 31 28 32 29 33
REMARK SMILES IDX 30 34 31 36 32 37 33 38 91 39 34 40 90 41 35 42 36 43 37 44
REMARK SMILES IDX 84 45 38 46 89 47 83 48 85 49 39 50 88 51 82 52 81 53 40 55
REMARK SMILES IDX 70 56 51 57 69 58 52 59 55 60 68 61 86 62 53 63 54 64 67 66
REMARK SMILES IDX 87 67 56 68 41 69 42 70 50 71 43 72 49 73 44 74 45 75 46 76
REMARK SMILES IDX 47 77 48 78 71 79 72 80 80 81 73 82 79 83 74 84 75 85 76 86
REMARK SMILES IDX 77 87 78 88 57 89 58 90 66 91 59 92 65 93 60 94 61 95 62 96
REMARK SMILES IDX 63 97 64 98
REMARK H PARENT 25 5 29 35 85 54 55 65
REMARK Flexibility Score: inf
ROOT
ATOM      1  C   UNL     1       6.048   3.084   4.927  1.00  0.00     0.117 C 
ENDROOT
BRANCH   1   2
ATOM      2  N   UNL     1       5.365   3.367   6.181  1.00  0.00    -0.354 N 
ATOM      3  C   UNL     1       4.059   3.674   6.420  1.00  0.00     0.240 C 
ATOM      4  O   UNL     1       3.718   3.854   7.594  1.00  0.00    -0.273 OA
ATOM      5  H   UNL     1       5.936   3.330   6.982  1.00  0.00     0.163 HD
BRANCH   3   6
ATOM      6  C   UNL     1       3.044   3.737   5.299  1.00  0.00     0.224 C 
BRANCH   6   7
ATOM      7  N   UNL     1       3.260   4.842   4.381  1.00  0.00    -0.314 N 
ATOM      8  C   UNL     1       3.915   3.705   1.089  1.00  0.00     0.211 A 
ATOM      9  N   UNL     1       4.162   4.902   0.502  1.00  0.00    -0.122 NA
ATOM     10  N   UNL     1       3.553   3.510   2.378  1.00  0.00    -0.201 NA
ATOM     11  N   UNL     1       4.053   6.043   1.188  1.00  0.00    -0.144 NA
ATOM     12  C   UNL     1       3.489   4.678   3.040  1.00  0.00     0.165 A 
ATOM     13  C   UNL     1       3.732   5.925   2.497  1.00  0.00     0.138 A 
ATOM     14  C   UNL     1       3.627   6.883   3.536  1.00  0.00     0.030 A 
ATOM     15  C   UNL     1       3.309   6.186   4.711  1.00  0.00     0.053 A 
ATOM     16  C   UNL     1       3.800   8.281   3.595  1.00  0.00     0.013 A 
ATOM     17  C   UNL     1       3.132   6.847   5.937  1.00  0.00     0.027 A 
ATOM     18  C   UNL     1       3.646   8.942   4.817  1.00  0.00     0.001 A 
ATOM     19  C   UNL     1       3.312   8.234   5.968  1.00  0.00     0.002 A 
BRANCH   8  20
ATOM     20  S   UNL     1       4.357   2.225   0.215  1.00  0.00    -0.074 SA
BRANCH  20  21
ATOM     21  C   UNL     1       3.187   2.334  -1.173  1.00  0.00     0.178 C 
BRANCH  21  22
ATOM     22  C   UNL     1       1.742   2.353  -0.684  1.00  0.00     0.233 C 
ATOM     23  O   UNL     1       1.109   3.415  -0.671  1.00  0.00    -0.274 OA
BRANCH  22  24
ATOM     24  N   UNL     1       1.139   1.165  -0.260  1.00  0.00    -0.342 N 
ATOM     25  C   UNL     1      -2.500   0.058   0.113  1.00  0.00     0.009 C 
ATOM     26  C   UNL     1      -1.043  -0.004  -0.339  1.00  0.00     0.005 C 
ATOM     27  C   UNL     1      -0.365  -1.285   0.155  1.00  0.00     0.007 C 
ATOM     28  C   UNL     1      -0.264   1.222   0.150  1.00  0.00     0.122 C 
ATOM     29  C   UNL     1       1.088  -1.324  -0.308  1.00  0.00     0.022 C 
ATOM     30  C   UNL     1       1.855  -0.064   0.084  1.00  0.00     0.119 C 
ENDBRANCH  22  24
ENDBRANCH  21  22
ENDBRANCH  20  21
ENDBRANCH   8  20
ENDBRANCH   6   7
ENDBRANCH   3   6
ENDBRANCH   1   2
BRANCH   1  31
ATOM     31  C   UNL     1       6.973   4.224   4.494  1.00  0.00     0.042 C 
BRANCH  31  32
ATOM     32  C   UNL     1       8.114   4.500   5.476  1.00  0.00     0.118 C 
BRANCH  32  33
ATOM     33  N   UNL     1       8.945   3.347   5.764  1.00  0.00    -0.352 N 
ATOM     34  C   UNL     1      10.057   2.785   5.202  1.00  0.00     0.251 C 
ATOM     35  H   UNL     1       8.634   2.849   6.554  1.00  0.00     0.163 HD
ATOM     36  O   UNL     1      10.552   1.845   5.833  1.00  0.00    -0.269 OA
BRANCH  34  37
ATOM     37  C   UNL     1      10.661   3.168   3.896  1.00  0.00     0.039 A 
ATOM     38  C   UNL     1      10.251   4.226   3.086  1.00  0.00     0.014 A 
ATOM     39  C   UNL     1      11.697   2.331   3.431  1.00  0.00     0.014 A 
ATOM     40  C   UNL     1      10.781   4.378   1.806  1.00  0.00     0.010 A 
ATOM     41  C   UNL     1      12.240   2.489   2.161  1.00  0.00     0.010 A 
ATOM     42  C   UNL     1      11.740   3.481   1.326  1.00  0.00    -0.014 A 
BRANCH  42  43
ATOM     43  C   UNL     1      12.216   3.655  -0.044  1.00  0.00     0.031 A 
ATOM     44  C   UNL     1      12.904   4.945  -0.337  1.00  0.00     0.074 A 
ATOM     45  C   UNL     1      12.131   2.698  -0.991  1.00  0.00     0.049 A 
ATOM     46  N   UNL     1      12.560   5.865  -1.178  1.00  0.00    -0.248 NA
ATOM     47  C   UNL     1      14.083   5.285   0.473  1.00  0.00     0.031 C 
ATOM     48  C   UNL     1      11.764   1.288  -0.835  1.00  0.00     0.029 A 
ATOM     49  N   UNL     1      12.464   2.783  -2.309  1.00  0.00    -0.354 N 
ATOM     50  C   UNL     1      13.551   6.844  -1.118  1.00  0.00     0.074 A 
ATOM     51  C   UNL     1      14.404   6.485  -0.012  1.00  0.00     0.031 C 
ATOM     52  C   UNL     1      12.122   0.608  -1.949  1.00  0.00     0.029 A 
ATOM     53  C   UNL     1      12.587   1.556  -2.947  1.00  0.00     0.049 A 
ATOM     54  H   UNL     1      12.605   3.641  -2.771  1.00  0.00     0.167 HD
ATOM     55  C   UNL     1      13.689   7.814  -2.065  1.00  0.00     0.031 A 
ATOM     56  C   UNL     1      13.101   1.336  -4.183  1.00  0.00     0.031 A 
ATOM     57  C   UNL     1      12.510   7.950  -2.876  1.00  0.00     0.049 A 
ATOM     58  C   UNL     1      13.016   2.614  -4.930  1.00  0.00     0.074 A 
ATOM     59  C   UNL     1      11.205   8.324  -2.626  1.00  0.00     0.029 A 
ATOM     60  N   UNL     1      12.496   7.335  -4.104  1.00  0.00    -0.354 N 
ATOM     61  N   UNL     1      11.893   3.177  -5.279  1.00  0.00    -0.248 NA
ATOM     62  C   UNL     1      14.180   3.485  -4.929  1.00  0.00     0.031 C 
ATOM     63  C   UNL     1      10.418   7.486  -3.465  1.00  0.00     0.029 A 
ATOM     64  C   UNL     1      11.288   6.694  -4.218  1.00  0.00     0.049 A 
ATOM     65  H   UNL     1      13.216   7.352  -4.776  1.00  0.00     0.167 HD
ATOM     66  C   UNL     1      12.118   4.538  -5.133  1.00  0.00     0.074 A 
ATOM     67  C   UNL     1      13.568   4.669  -5.007  1.00  0.00     0.031 C 
ATOM     68  C   UNL     1      11.099   5.407  -4.862  1.00  0.00     0.031 A 
BRANCH  55  69
ATOM     69  C   UNL     1      14.996   8.474  -2.425  1.00  0.00    -0.014 A 
ATOM     70  C   UNL     1      16.247   7.937  -2.058  1.00  0.00     0.010 A 
ATOM     71  C   UNL     1      15.009   9.536  -3.353  1.00  0.00     0.010 A 
ATOM     72  C   UNL     1      17.448   8.437  -2.566  1.00  0.00     0.020 A 
ATOM     73  C   UNL     1      16.207  10.018  -3.904  1.00  0.00     0.020 A 
ATOM     74  C   UNL     1      17.421   9.466  -3.500  1.00  0.00     0.054 A 
BRANCH  74  75
ATOM     75  S   UNL     1      18.989  10.002  -4.228  1.00  0.00     0.124 S 
ATOM     76  O   UNL     1      19.643  10.646  -3.089  1.00  0.00    -0.237 OA
ATOM     77  O   UNL     1      19.582   8.736  -4.657  1.00  0.00    -0.237 OA
ATOM     78  O   UNL     1      18.584  10.896  -5.303  1.00  0.00    -0.744 OA
ENDBRANCH  74  75
ENDBRANCH  55  69
BRANCH  56  79
ATOM     79  C   UNL     1      14.070   0.271  -4.554  1.00  0.00    -0.014 A 
ATOM     80  C   UNL     1      14.916  -0.278  -3.569  1.00  0.00     0.010 A 
ATOM     81  C   UNL     1      14.390   0.032  -5.905  1.00  0.00     0.010 A 
ATOM     82  C   UNL     1      16.084  -0.966  -3.915  1.00  0.00     0.020 A 
ATOM     83  C   UNL     1      15.563  -0.657  -6.259  1.00  0.00     0.020 A 
ATOM     84  C   UNL     1      16.421  -1.116  -5.258  1.00  0.00     0.054 A 
BRANCH  84  85
ATOM     85  S   UNL     1      18.042  -1.831  -5.658  1.00  0.00     0.124 S 
ATOM     86  O   UNL     1      18.956  -0.804  -5.167  1.00  0.00    -0.237 OA
ATOM     87  O   UNL     1      18.033  -3.078  -4.897  1.00  0.00    -0.237 OA
ATOM     88  O   UNL     1      18.002  -1.991  -7.110  1.00  0.00    -0.744 OA
ENDBRANCH  84  85
ENDBRANCH  56  79
BRANCH  68  89
ATOM     89  C   UNL     1       9.665   4.923  -4.963  1.00  0.00    -0.014 A 
ATOM     90  C   UNL     1       8.758   5.714  -5.692  1.00  0.00     0.010 A 
ATOM     91  C   UNL     1       9.152   3.852  -4.203  1.00  0.00     0.010 A 
ATOM     92  C   UNL     1       7.382   5.473  -5.638  1.00  0.00     0.020 A 
ATOM     93  C   UNL     1       7.772   3.587  -4.165  1.00  0.00     0.020 A 
ATOM     94  C   UNL     1       6.894   4.416  -4.866  1.00  0.00     0.054 A 
BRANCH  94  95
ATOM     95  S   UNL     1       5.097   4.178  -4.777  1.00  0.00     0.124 S 
ATOM     96  O   UNL     1       4.663   5.356  -4.034  1.00  0.00    -0.237 OA
ATOM     97  O   UNL     1       4.707   4.150  -6.185  1.00  0.00    -0.237 OA
ATOM     98  O   UNL     1       4.933   2.907  -4.069  1.00  0.00    -0.744 OA
ENDBRANCH  94  95
ENDBRANCH  68  89
ENDBRANCH  42  43
ENDBRANCH  34  37
ENDBRANCH  32  33
ENDBRANCH  31  32
ENDBRANCH   1  31
TORSDOF 18
