REMARK SMILES O=C(CCC(=O)N1c2ccccc2NC2=C(C(=O)C[C@H](c3ccco3)C2)[C@H]1c1cccs1)NCCCNC(=O)c1ccc(-c2c3nc(c(-c4ccc(S(=O)(=O)[O-])cc4)c4ccc([nH]4)c(-c4ccc(S(=O)(=O)[O-])cc4)c4nc(c(-c5ccc(S(=O)(=O)[O-])cc5)c5ccc2[nH]5)C=C4)C=C3)cc1
REMARK SMILES IDX 1 1 2 2 33 3 3 5 4 6 5 7 6 8 7 9 8 10 9 11 13 12 10 13 12 14
REMARK SMILES IDX 11 15 14 16 15 18 16 19 26 20 17 21 20 23 18 24 19 25 21 26
REMARK SMILES IDX 22 27 25 28 23 29 24 30 27 31 28 33 29 34 32 35 30 36 31 37
REMARK SMILES IDX 34 38 35 39 36 40 37 41 38 42 39 44 40 45 41 46 99 47 42 48
REMARK SMILES IDX 98 49 43 50 44 51 45 52 92 53 46 54 97 55 91 56 93 57 47 58
REMARK SMILES IDX 96 59 90 60 89 61 48 63 78 64 59 65 77 66 60 67 63 68 76 69
REMARK SMILES IDX 94 70 61 71 62 72 75 74 95 75 64 76 49 77 50 78 58 79 51 80
REMARK SMILES IDX 57 81 52 82 53 83 54 84 55 85 56 86 79 87 80 88 88 89 81 90
REMARK SMILES IDX 87 91 82 92 83 93 84 94 85 95 86 96 65 97 66 98 74 99 67 100
REMARK SMILES IDX 73 101 68 102 69 103 70 104 71 105 72 106
REMARK H PARENT 33 4 14 17 37 43 93 62 63 73
REMARK Flexibility Score: 90.00
ROOT
ATOM      1  O   UNL     1       0.684   1.170   0.607  1.00  0.00    -0.275 OA
ATOM      2  C   UNL     1       1.662   0.676   0.054  1.00  0.00     0.220 C 
ATOM      3  N   UNL     1       2.053  -0.713  -0.087  1.00  0.00    -0.356 N 
ATOM      4  H   UNL     1       2.404  -0.806  -1.002  1.00  0.00     0.163 HD
ENDROOT
BRANCH   2   5
ATOM      5  C   UNL     1       2.793   1.573  -0.455  1.00  0.00     0.110 C 
BRANCH   5   6
ATOM      6  C   UNL     1       3.671   1.962   0.727  1.00  0.00     0.110 C 
BRANCH   6   7
ATOM      7  C   UNL     1       4.879   1.082   1.068  1.00  0.00     0.228 C 
ATOM      8  O   UNL     1       6.008   1.577   1.028  1.00  0.00    -0.274 OA
BRANCH   7   9
ATOM      9  N   UNL     1       4.636  -0.156   1.641  1.00  0.00    -0.298 N 
BRANCH   9  10
ATOM     10  C   UNL     1       3.625  -0.981   1.158  1.00  0.00     0.068 A 
ATOM     11  C   UNL     1       3.769  -1.764  -0.467  1.00  0.00     0.028 A 
ATOM     12  C   UNL     1       2.020  -0.838   1.962  1.00  0.00     0.062 A 
ATOM     13  C   UNL     1       2.269  -2.300  -1.351  1.00  0.00     0.002 A 
ATOM     14  C   UNL     1       0.497  -1.357   1.086  1.00  0.00     0.028 A 
ATOM     15  C   UNL     1       0.636  -2.081  -0.572  1.00  0.00     0.002 A 
BRANCH  12  16
ATOM     16  N   UNL     1       1.952  -0.382   3.280  1.00  0.00    -0.357 N 
ATOM     17  H   UNL     1       1.091   0.007   3.555  1.00  0.00     0.166 HD
BRANCH  16  18
ATOM     18  C   UNL     1       2.942  -0.405   4.248  1.00  0.00     0.025 C 
ATOM     19  C   UNL     1       4.300  -0.441   4.130  1.00  0.00     0.043 CG0
ATOM     20  C   UNL     1       2.298  -0.481   5.639  1.00  0.00     0.066 C 
ATOM     21  C   UNL     1       5.114  -0.364   5.411  1.00  0.00     0.163 C 
ATOM     22  G   UNL     1       5.260  -0.475   2.921  1.00  0.00     0.000 G0
ATOM     23  C   UNL     1       3.124  -1.258   6.663  1.00  0.00     0.069 C 
ATOM     24  O   UNL     1       6.306  -0.048   5.381  1.00  0.00    -0.294 OA
ATOM     25  C   UNL     1       4.473  -0.579   6.759  1.00  0.00     0.093 C 
BRANCH  23  26
ATOM     26  C   UNL     1       3.247  -2.732   6.386  1.00  0.00     0.107 A 
ATOM     27  C   UNL     1       3.971  -3.743   6.990  1.00  0.00     0.046 A 
ATOM     28  O   UNL     1       2.518  -3.250   5.354  1.00  0.00    -0.469 OA
ATOM     29  C   UNL     1       3.691  -4.928   6.270  1.00  0.00     0.042 A 
ATOM     30  C   UNL     1       2.795  -4.577   5.289  1.00  0.00     0.195 A 
ENDBRANCH  23  26
ENDBRANCH  16  18
ENDBRANCH  12  16
ENDBRANCH   9  10
BRANCH   9  31
ATOM     31  C   UNL     1       5.260  -0.475   2.921  1.00  0.00     0.167 CG0
ATOM     32  G   UNL     1       4.300  -0.441   4.130  1.00  0.00     0.000 G0
BRANCH  31  33
ATOM     33  C   UNL     1       6.114  -1.740   2.786  1.00  0.00     0.032 A 
ATOM     34  C   UNL     1       5.997  -2.955   3.438  1.00  0.00     0.018 A 
ATOM     35  S   UNL     1       7.520  -1.726   1.788  1.00  0.00    -0.146 S 
ATOM     36  C   UNL     1       7.090  -3.832   3.179  1.00  0.00     0.012 A 
ATOM     37  C   UNL     1       7.986  -3.291   2.289  1.00  0.00     0.065 A 
ENDBRANCH  31  33
ENDBRANCH   9  31
ENDBRANCH   7   9
ENDBRANCH   6   7
ENDBRANCH   5   6
ENDBRANCH   2   5
BRANCH   3  38
ATOM     38  C   UNL     1       2.202  -2.605   0.787  1.00  0.00     0.117 C 
BRANCH  38  39
ATOM     39  C   UNL     1       2.183  -4.182   0.186  1.00  0.00     0.042 C 
BRANCH  39  40
ATOM     40  C   UNL     1       3.548  -4.869   0.279  1.00  0.00     0.118 C 
BRANCH  40  41
ATOM     41  N   UNL     1       3.993  -5.132   1.650  1.00  0.00    -0.352 N 
ATOM     42  C   UNL     1       4.825  -6.145   2.080  1.00  0.00     0.251 C 
ATOM     43  H   UNL     1       3.661  -4.517   2.342  1.00  0.00     0.163 HD
ATOM     44  O   UNL     1       5.044  -6.338   3.270  1.00  0.00    -0.269 OA
BRANCH  42  45
ATOM     45  C   UNL     1       5.367  -7.056   1.056  1.00  0.00     0.039 A 
ATOM     46  C   UNL     1       5.997  -6.531  -0.074  1.00  0.00     0.014 A 
ATOM     47  C   UNL     1       4.996  -8.398   1.123  1.00  0.00     0.014 A 
ATOM     48  C   UNL     1       6.018  -7.288  -1.237  1.00  0.00     0.010 A 
ATOM     49  C   UNL     1       5.105  -9.182  -0.021  1.00  0.00     0.010 A 
ATOM     50  C   UNL     1       5.525  -8.603  -1.230  1.00  0.00    -0.014 A 
BRANCH  50  51
ATOM     51  C   UNL     1       5.330  -9.347  -2.497  1.00  0.00     0.031 A 
ATOM     52  C   UNL     1       3.939  -9.758  -2.910  1.00  0.00     0.074 A 
ATOM     53  C   UNL     1       6.385  -9.634  -3.280  1.00  0.00     0.049 A 
ATOM     54  N   UNL     1       3.569 -10.582  -3.855  1.00  0.00    -0.248 NA
ATOM     55  C   UNL     1       2.813  -9.171  -2.159  1.00  0.00     0.031 C 
ATOM     56  C   UNL     1       7.761  -9.205  -3.031  1.00  0.00     0.029 A 
ATOM     57  N   UNL     1       6.462 -10.352  -4.446  1.00  0.00    -0.354 N 
ATOM     58  C   UNL     1       2.181 -10.650  -3.782  1.00  0.00     0.074 A 
ATOM     59  C   UNL     1       1.769  -9.786  -2.699  1.00  0.00     0.031 C 
ATOM     60  C   UNL     1       8.542  -9.644  -4.029  1.00  0.00     0.029 A 
ATOM     61  C   UNL     1       7.742 -10.468  -4.929  1.00  0.00     0.049 A 
ATOM     62  H   UNL     1       5.677 -10.745  -4.892  1.00  0.00     0.167 HD
ATOM     63  C   UNL     1       1.335 -11.372  -4.553  1.00  0.00     0.031 A 
ATOM     64  C   UNL     1       8.232 -11.202  -5.947  1.00  0.00     0.031 A 
ATOM     65  C   UNL     1       1.770 -12.196  -5.649  1.00  0.00     0.049 A 
ATOM     66  C   UNL     1       7.293 -12.067  -6.732  1.00  0.00     0.074 A 
ATOM     67  C   UNL     1       1.000 -12.968  -6.500  1.00  0.00     0.029 A 
ATOM     68  N   UNL     1       3.088 -12.344  -6.056  1.00  0.00    -0.354 N 
ATOM     69  N   UNL     1       5.992 -12.184  -6.607  1.00  0.00    -0.248 NA
ATOM     70  C   UNL     1       7.880 -12.917  -7.775  1.00  0.00     0.031 C 
ATOM     71  C   UNL     1       1.857 -13.625  -7.385  1.00  0.00     0.029 A 
ATOM     72  C   UNL     1       3.156 -13.214  -7.128  1.00  0.00     0.049 A 
ATOM     73  H   UNL     1       3.861 -11.895  -5.642  1.00  0.00     0.167 HD
ATOM     74  C   UNL     1       5.603 -13.123  -7.552  1.00  0.00     0.074 A 
ATOM     75  C   UNL     1       6.804 -13.528  -8.257  1.00  0.00     0.031 C 
ATOM     76  C   UNL     1       4.365 -13.610  -7.807  1.00  0.00     0.031 A 
BRANCH  63  77
ATOM     77  C   UNL     1      -0.140 -11.335  -4.245  1.00  0.00    -0.014 A 
ATOM     78  C   UNL     1      -0.772 -12.491  -3.747  1.00  0.00     0.010 A 
ATOM     79  C   UNL     1      -0.924 -10.212  -4.557  1.00  0.00     0.010 A 
ATOM     80  C   UNL     1      -2.160 -12.535  -3.593  1.00  0.00     0.020 A 
ATOM     81  C   UNL     1      -2.312 -10.243  -4.381  1.00  0.00     0.020 A 
ATOM     82  C   UNL     1      -2.924 -11.413  -3.921  1.00  0.00     0.054 A 
BRANCH  82  83
ATOM     83  S   UNL     1      -4.727 -11.492  -3.734  1.00  0.00     0.124 S 
ATOM     84  O   UNL     1      -5.125 -12.267  -4.904  1.00  0.00    -0.237 OA
ATOM     85  O   UNL     1      -4.887 -12.162  -2.446  1.00  0.00    -0.237 OA
ATOM     86  O   UNL     1      -5.131 -10.087  -3.746  1.00  0.00    -0.744 OA
ENDBRANCH  82  83
ENDBRANCH  63  77
BRANCH  64  87
ATOM     87  C   UNL     1       9.693 -11.154  -6.221  1.00  0.00    -0.014 A 
ATOM     88  C   UNL     1      10.607 -11.682  -5.288  1.00  0.00     0.010 A 
ATOM     89  C   UNL     1      10.182 -10.461  -7.340  1.00  0.00     0.010 A 
ATOM     90  C   UNL     1      11.977 -11.447  -5.425  1.00  0.00     0.020 A 
ATOM     91  C   UNL     1      11.556 -10.250  -7.497  1.00  0.00     0.020 A 
ATOM     92  C   UNL     1      12.440 -10.711  -6.518  1.00  0.00     0.054 A 
BRANCH  92  93
ATOM     93  S   UNL     1      14.211 -10.336  -6.630  1.00  0.00     0.124 S 
ATOM     94  O   UNL     1      14.342  -9.236  -5.678  1.00  0.00    -0.237 OA
ATOM     95  O   UNL     1      14.833 -11.594  -6.227  1.00  0.00    -0.237 OA
ATOM     96  O   UNL     1      14.394  -9.975  -8.033  1.00  0.00    -0.744 OA
ENDBRANCH  92  93
ENDBRANCH  64  87
BRANCH  76  97
ATOM     97  C   UNL     1       4.222 -14.648  -8.884  1.00  0.00    -0.014 A 
ATOM     98  C   UNL     1       3.584 -14.314 -10.093  1.00  0.00     0.010 A 
ATOM     99  C   UNL     1       4.572 -15.985  -8.633  1.00  0.00     0.010 A 
ATOM    100  C   UNL     1       3.255 -15.310 -11.014  1.00  0.00     0.020 A 
ATOM    101  C   UNL     1       4.265 -16.980  -9.564  1.00  0.00     0.020 A 
ATOM    102  C   UNL     1       3.582 -16.639 -10.735  1.00  0.00     0.054 A 
BRANCH 102 103
ATOM    103  S   UNL     1       3.089 -17.926 -11.913  1.00  0.00     0.124 S 
ATOM    104  O   UNL     1       1.661 -18.060 -11.641  1.00  0.00    -0.237 OA
ATOM    105  O   UNL     1       3.432 -17.329 -13.202  1.00  0.00    -0.237 OA
ATOM    106  O   UNL     1       3.909 -19.073 -11.530  1.00  0.00    -0.744 OA
ENDBRANCH 102 103
ENDBRANCH  76  97
ENDBRANCH  50  51
ENDBRANCH  42  45
ENDBRANCH  40  41
ENDBRANCH  39  40
ENDBRANCH  38  39
ENDBRANCH   3  38
TORSDOF 18
