REMARK SMILES Cc1ccc(-c2cc(C(=O)NCCCNC(=O)c3ccc(-c4c5nc(c(-c6ccc(S(=O)(=O)[O-])cc6)c6ccc([nH]6)c(-c6ccc(S(=O)(=O)[O-])cc6)c6nc(c(-c7ccc(S(=O)(=O)[O-])cc7)c7ccc4[nH]7)C=C6)C=C5)cc3)c3c(-c4cccc([N+](=O)[O-])c4)[nH]nc3n2)cc1
REMARK SMILES IDX 13 1 12 2 11 3 9 4 10 5 8 7 6 8 7 9 92 10 91 11 78 12 90 13
REMARK SMILES IDX 79 14 89 15 5 17 1 18 2 19 3 20 94 21 4 22 93 23 80 24 81 25
REMARK SMILES IDX 88 26 82 27 84 28 83 29 85 30 86 31 87 32 14 33 15 34 16 35
REMARK SMILES IDX 17 37 18 38 19 39 77 40 20 41 76 42 21 43 22 44 23 45 70 46
REMARK SMILES IDX 24 47 75 48 69 49 71 50 25 51 74 52 68 53 67 54 26 56 56 57
REMARK SMILES IDX 37 58 55 59 38 60 41 61 54 62 72 63 39 64 40 65 53 67 73 68
REMARK SMILES IDX 42 69 27 70 28 71 36 72 29 73 35 74 30 75 31 76 32 77 33 78
REMARK SMILES IDX 34 79 57 80 58 81 66 82 59 83 65 84 60 85 61 86 62 87 63 88
REMARK SMILES IDX 64 89 43 90 44 91 52 92 45 93 51 94 46 95 47 96 48 97 49 98
REMARK SMILES IDX 50 99
REMARK H PARENT 11 6 89 16 15 36 71 55 41 66
REMARK Flexibility Score: inf
ROOT
ATOM      1  C   UNL     1      -1.939   2.577  -3.506  1.00  0.00     0.042 C 
ENDROOT
BRANCH   1   2
ATOM      2  C   UNL     1      -3.123   2.833  -2.443  1.00  0.00     0.118 C 
BRANCH   2   3
ATOM      3  N   UNL     1      -4.487   2.301  -2.709  1.00  0.00    -0.352 N 
ATOM      4  C   UNL     1      -5.465   1.519  -2.108  1.00  0.00     0.252 C 
ATOM      5  O   UNL     1      -6.628   1.601  -2.494  1.00  0.00    -0.269 OA
ATOM      6  H   UNL     1      -4.795   2.598  -3.596  1.00  0.00     0.163 HD
BRANCH   4   7
ATOM      7  C   UNL     1      -5.150   0.582  -1.027  1.00  0.00     0.055 A 
ATOM      8  C   UNL     1      -3.356  -0.454   0.274  1.00  0.00     0.074 A 
ATOM      9  C   UNL     1      -3.841   0.147  -0.900  1.00  0.00     0.043 A 
ATOM     10  N   UNL     1      -4.100  -0.900   1.322  1.00  0.00    -0.226 NA
ATOM     11  C   UNL     1      -5.433  -0.715   1.117  1.00  0.00     0.182 A 
ATOM     12  C   UNL     1      -5.956   0.005  -0.024  1.00  0.00     0.059 A 
ATOM     13  N   UNL     1      -6.401  -1.126   1.937  1.00  0.00    -0.154 NA
ATOM     14  C   UNL     1      -7.334  -0.067   0.126  1.00  0.00     0.076 A 
ATOM     15  N   UNL     1      -7.524  -0.749   1.307  1.00  0.00    -0.275 N 
ATOM     16  H   UNL     1      -8.420  -0.946   1.664  1.00  0.00     0.190 HD
BRANCH   8  17
ATOM     17  C   UNL     1      -1.901  -0.415   0.433  1.00  0.00     0.000 A 
ATOM     18  C   UNL     1       2.374  -0.085   0.009  1.00  0.00     0.044 C 
ATOM     19  C   UNL     1       0.894  -0.194   0.212  1.00  0.00    -0.051 A 
ATOM     20  C   UNL     1       0.273  -1.452   0.247  1.00  0.00     0.004 A 
ATOM     21  C   UNL     1       0.116   0.956   0.341  1.00  0.00     0.004 A 
ATOM     22  C   UNL     1      -1.116  -1.564   0.355  1.00  0.00     0.010 A 
ATOM     23  C   UNL     1      -1.264   0.843   0.468  1.00  0.00     0.010 A 
ENDBRANCH   8  17
BRANCH  14  24
ATOM     24  C   UNL     1      -8.477   0.311  -0.695  1.00  0.00     0.007 A 
ATOM     25  C   UNL     1      -9.330   1.346  -0.285  1.00  0.00     0.011 A 
ATOM     26  C   UNL     1      -8.714  -0.334  -1.917  1.00  0.00     0.096 A 
ATOM     27  C   UNL     1     -10.358   1.792  -1.120  1.00  0.00     0.008 A 
ATOM     28  C   UNL     1      -9.728   0.137  -2.762  1.00  0.00     0.270 A 
ATOM     29  C   UNL     1     -10.549   1.203  -2.370  1.00  0.00     0.085 A 
BRANCH  28  30
ATOM     30  N   UNL     1      -9.933  -0.492  -4.072  1.00  0.00     0.062 N 
ATOM     31  O   UNL     1     -10.797  -0.001  -4.814  1.00  0.00    -0.258 OA
ATOM     32  O   UNL     1      -9.294  -1.524  -4.323  1.00  0.00    -0.258 OA
ENDBRANCH  28  30
ENDBRANCH  14  24
ENDBRANCH   4   7
ENDBRANCH   2   3
ENDBRANCH   1   2
BRANCH   1  33
ATOM     33  C   UNL     1      -1.746   3.690  -4.638  1.00  0.00     0.118 C 
BRANCH  33  34
ATOM     34  N   UNL     1      -0.717   3.598  -5.810  1.00  0.00    -0.352 N 
ATOM     35  C   UNL     1      -0.678   4.142  -7.157  1.00  0.00     0.251 C 
ATOM     36  H   UNL     1       0.075   3.056  -5.589  1.00  0.00     0.163 HD
ATOM     37  O   UNL     1       0.116   5.087  -7.304  1.00  0.00    -0.269 OA
BRANCH  35  38
ATOM     38  C   UNL     1      -1.372   3.669  -8.496  1.00  0.00     0.039 A 
ATOM     39  C   UNL     1      -1.780   4.625  -9.484  1.00  0.00     0.014 A 
ATOM     40  C   UNL     1      -1.779   2.373  -8.795  1.00  0.00     0.014 A 
ATOM     41  C   UNL     1      -2.917   4.379 -10.360  1.00  0.00     0.010 A 
ATOM     42  C   UNL     1      -2.908   2.129  -9.649  1.00  0.00     0.010 A 
ATOM     43  C   UNL     1      -3.629   3.167 -10.268  1.00  0.00    -0.014 A 
BRANCH  43  44
ATOM     44  C   UNL     1      -5.141   3.028 -10.479  1.00  0.00     0.031 A 
ATOM     45  C   UNL     1      -5.715   2.368 -11.649  1.00  0.00     0.074 A 
ATOM     46  C   UNL     1      -6.139   3.299  -9.583  1.00  0.00     0.049 A 
ATOM     47  N   UNL     1      -6.733   2.799 -12.325  1.00  0.00    -0.248 NA
ATOM     48  C   UNL     1      -5.227   1.066 -12.054  1.00  0.00     0.031 C 
ATOM     49  C   UNL     1      -7.594   3.066  -9.547  1.00  0.00     0.029 A 
ATOM     50  N   UNL     1      -6.003   3.864  -8.344  1.00  0.00    -0.354 N 
ATOM     51  C   UNL     1      -7.247   1.685 -12.955  1.00  0.00     0.074 A 
ATOM     52  C   UNL     1      -6.160   0.722 -12.943  1.00  0.00     0.031 C 
ATOM     53  C   UNL     1      -8.158   3.821  -8.573  1.00  0.00     0.029 A 
ATOM     54  C   UNL     1      -7.112   4.616  -7.966  1.00  0.00     0.049 A 
ATOM     55  H   UNL     1      -5.206   3.749  -7.778  1.00  0.00     0.167 HD
ATOM     56  C   UNL     1      -8.592   1.536 -13.179  1.00  0.00     0.031 A 
ATOM     57  C   UNL     1      -6.970   5.977  -7.843  1.00  0.00     0.031 A 
ATOM     58  C   UNL     1      -9.409   2.593 -12.541  1.00  0.00     0.049 A 
ATOM     59  C   UNL     1      -7.646   6.650  -9.022  1.00  0.00     0.074 A 
ATOM     60  C   UNL     1     -10.391   2.598 -11.555  1.00  0.00     0.029 A 
ATOM     61  N   UNL     1      -9.053   3.928 -12.693  1.00  0.00    -0.354 N 
ATOM     62  N   UNL     1      -8.472   6.012  -9.803  1.00  0.00    -0.248 NA
ATOM     63  C   UNL     1      -7.439   8.023  -9.482  1.00  0.00     0.031 C 
ATOM     64  C   UNL     1     -10.593   3.943 -11.112  1.00  0.00     0.029 A 
ATOM     65  C   UNL     1      -9.767   4.767 -11.851  1.00  0.00     0.049 A 
ATOM     66  H   UNL     1      -8.370   4.243 -13.329  1.00  0.00     0.167 HD
ATOM     67  C   UNL     1      -8.791   6.756 -10.895  1.00  0.00     0.074 A 
ATOM     68  C   UNL     1      -8.164   8.041 -10.622  1.00  0.00     0.031 C 
ATOM     69  C   UNL     1      -9.513   6.211 -11.920  1.00  0.00     0.031 A 
BRANCH  56  70
ATOM     70  C   UNL     1      -9.182   0.249 -13.755  1.00  0.00    -0.014 A 
ATOM     71  C   UNL     1     -10.554  -0.055 -13.643  1.00  0.00     0.010 A 
ATOM     72  C   UNL     1      -8.418  -0.694 -14.474  1.00  0.00     0.010 A 
ATOM     73  C   UNL     1     -11.100  -1.257 -14.141  1.00  0.00     0.020 A 
ATOM     74  C   UNL     1      -8.925  -1.925 -14.912  1.00  0.00     0.020 A 
ATOM     75  C   UNL     1     -10.273  -2.197 -14.755  1.00  0.00     0.054 A 
BRANCH  75  76
ATOM     76  S   UNL     1     -10.972  -3.729 -15.425  1.00  0.00     0.124 S 
ATOM     77  O   UNL     1     -11.629  -4.321 -14.263  1.00  0.00    -0.237 OA
ATOM     78  O   UNL     1     -11.863  -3.233 -16.470  1.00  0.00    -0.237 OA
ATOM     79  O   UNL     1      -9.803  -4.462 -15.911  1.00  0.00    -0.744 OA
ENDBRANCH  75  76
ENDBRANCH  56  70
BRANCH  57  80
ATOM     80  C   UNL     1      -5.666   6.427  -7.120  1.00  0.00    -0.014 A 
ATOM     81  C   UNL     1      -5.624   6.070  -5.747  1.00  0.00     0.010 A 
ATOM     82  C   UNL     1      -4.511   6.107  -7.818  1.00  0.00     0.010 A 
ATOM     83  C   UNL     1      -4.989   4.878  -5.338  1.00  0.00     0.020 A 
ATOM     84  C   UNL     1      -3.913   4.895  -7.413  1.00  0.00     0.020 A 
ATOM     85  C   UNL     1      -4.282   4.178  -6.292  1.00  0.00     0.054 A 
BRANCH  85  86
ATOM     86  S   UNL     1      -4.187   2.223  -6.282  1.00  0.00     0.124 S 
ATOM     87  O   UNL     1      -4.864   1.939  -5.045  1.00  0.00    -0.237 OA
ATOM     88  O   UNL     1      -4.944   1.792  -7.455  1.00  0.00    -0.237 OA
ATOM     89  O   UNL     1      -2.787   1.853  -6.308  1.00  0.00    -0.744 OA
ENDBRANCH  85  86
ENDBRANCH  57  80
BRANCH  69  90
ATOM     90  C   UNL     1     -10.027   6.949 -13.131  1.00  0.00    -0.014 A 
ATOM     91  C   UNL     1     -10.276   8.327 -13.165  1.00  0.00     0.010 A 
ATOM     92  C   UNL     1     -10.401   6.208 -14.280  1.00  0.00     0.010 A 
ATOM     93  C   UNL     1     -10.776   8.942 -14.323  1.00  0.00     0.020 A 
ATOM     94  C   UNL     1     -10.908   6.803 -15.432  1.00  0.00     0.020 A 
ATOM     95  C   UNL     1     -11.068   8.177 -15.455  1.00  0.00     0.054 A 
BRANCH  95  96
ATOM     96  S   UNL     1     -11.692   8.989 -16.942  1.00  0.00     0.124 S 
ATOM     97  O   UNL     1     -12.817   9.766 -16.429  1.00  0.00    -0.237 OA
ATOM     98  O   UNL     1     -10.533   9.768 -17.369  1.00  0.00    -0.237 OA
ATOM     99  O   UNL     1     -12.055   7.882 -17.824  1.00  0.00    -0.744 OA
ENDBRANCH  95  96
ENDBRANCH  69  90
ENDBRANCH  43  44
ENDBRANCH  35  38
ENDBRANCH  33  34
ENDBRANCH   1  33
TORSDOF 16
