REMARK SMILES Nc1nc(N2CCCCC2)nc2c1[C@H](C(=O)NCCCNC(=O)c1ccc(-c3c4nc(c(-c5ccc(S(=O)(=O)[O-])cc5)c5ccc([nH]5)c(-c5ccc(S(=O)(=O)[O-])cc5)c5nc(c(-c6ccc(S(=O)(=O)[O-])cc6)c6ccc3[nH]6)C=C5)C=C4)cc1)CC(=O)N2
REMARK SMILES IDX 20 1 19 2 18 3 17 4 15 5 16 6 14 8 2 9 3 10 13 11 4 12 12 13
REMARK SMILES IDX 11 14 87 15 84 16 85 17 86 19 1 20 5 23 6 24 10 25 7 26 9 27
REMARK SMILES IDX 8 28 21 29 22 30 23 32 24 33 25 34 83 35 26 36 82 37 27 38
REMARK SMILES IDX 28 39 29 40 76 41 30 42 81 43 75 44 77 45 31 46 80 47 74 48
REMARK SMILES IDX 73 49 32 51 62 52 43 53 61 54 44 55 47 56 60 57 78 58 45 59
REMARK SMILES IDX 46 60 59 62 79 63 48 64 33 65 34 66 42 67 35 68 41 69 36 70
REMARK SMILES IDX 37 71 38 72 39 73 40 74 63 75 64 76 72 77 65 78 71 79 66 80
REMARK SMILES IDX 67 81 68 82 69 83 70 84 49 85 50 86 58 87 51 88 57 89 52 90
REMARK SMILES IDX 53 91 54 92 55 93 56 94
REMARK H PARENT 17 7 87 18 1 21 1 22 21 31 77 50 47 61
REMARK Flexibility Score: inf
ROOT
ATOM      1  C   UNL     1      -0.121   3.503  -2.300  1.00  0.00     0.118 C 
ENDROOT
BRANCH   1   2
ATOM      2  C   UNL     1       0.491   2.143  -2.023  1.00  0.00     0.042 C 
BRANCH   2   3
ATOM      3  C   UNL     1      -0.102   1.421  -0.830  1.00  0.00     0.117 C 
BRANCH   3   4
ATOM      4  N   UNL     1      -1.476   1.016  -1.004  1.00  0.00    -0.355 N 
ATOM      5  C   UNL     1      -2.041  -0.211  -0.825  1.00  0.00     0.228 C 
ATOM      6  O   UNL     1      -3.270  -0.263  -0.899  1.00  0.00    -0.274 OA
ATOM      7  H   UNL     1      -2.093   1.727  -1.292  1.00  0.00     0.163 HD
BRANCH   5   8
ATOM      8  C   UNL     1      -1.180  -1.469  -0.589  1.00  0.00     0.125 C 
ATOM      9  C   UNL     1       0.596  -1.288   1.284  1.00  0.00     0.135 A 
ATOM     10  N   UNL     1       0.892  -1.237   2.589  1.00  0.00    -0.196 NA
ATOM     11  C   UNL     1      -0.671  -1.583   0.827  1.00  0.00     0.050 A 
ATOM     12  C   UNL     1      -0.053  -1.583   3.469  1.00  0.00     0.229 A 
ATOM     13  C   UNL     1      -1.534  -2.026   1.806  1.00  0.00     0.144 A 
ATOM     14  N   UNL     1      -1.259  -2.030   3.113  1.00  0.00    -0.195 NA
ATOM     15  N   UNL     1      -2.754  -2.583   1.442  1.00  0.00    -0.310 N 
ATOM     16  C   UNL     1      -2.044  -2.701  -0.900  1.00  0.00     0.119 C 
ATOM     17  C   UNL     1      -3.098  -2.932   0.167  1.00  0.00     0.226 C 
ATOM     18  H   UNL     1      -3.417  -2.738   2.153  1.00  0.00     0.171 HD
ATOM     19  O   UNL     1      -4.154  -3.516  -0.068  1.00  0.00    -0.275 OA
BRANCH   9  20
ATOM     20  N   UNL     1       1.653  -0.973   0.462  1.00  0.00    -0.383 N 
ATOM     21  H   UNL     1       2.535  -0.772   0.850  1.00  0.00     0.158 HD
ATOM     22  H   UNL     1       1.527  -0.949  -0.514  1.00  0.00     0.158 HD
ENDBRANCH   9  20
BRANCH  12  23
ATOM     23  N   UNL     1       0.225  -1.516   4.810  1.00  0.00    -0.341 N 
ATOM     24  C   UNL     1       0.604  -0.237   5.382  1.00  0.00     0.119 C 
ATOM     25  C   UNL     1       0.624  -2.748   5.460  1.00  0.00     0.119 C 
ATOM     26  C   UNL     1       2.083  -0.207   5.758  1.00  0.00     0.022 C 
ATOM     27  C   UNL     1       2.113  -2.713   5.811  1.00  0.00     0.022 C 
ATOM     28  C   UNL     1       2.473  -1.439   6.572  1.00  0.00     0.004 C 
ENDBRANCH  12  23
ENDBRANCH   5   8
ENDBRANCH   3   4
ENDBRANCH   2   3
ENDBRANCH   1   2
BRANCH   1  29
ATOM     29  N   UNL     1       0.049   4.434  -1.194  1.00  0.00    -0.352 N 
ATOM     30  C   UNL     1       0.767   5.602  -1.103  1.00  0.00     0.251 C 
ATOM     31  H   UNL     1      -0.433   4.185  -0.372  1.00  0.00     0.163 HD
ATOM     32  O   UNL     1       0.910   6.130  -0.005  1.00  0.00    -0.269 OA
BRANCH  30  33
ATOM     33  C   UNL     1       1.381   6.215  -2.303  1.00  0.00     0.039 A 
ATOM     34  C   UNL     1       2.623   6.847  -2.178  1.00  0.00     0.014 A 
ATOM     35  C   UNL     1       0.728   6.214  -3.537  1.00  0.00     0.014 A 
ATOM     36  C   UNL     1       3.228   7.425  -3.298  1.00  0.00     0.010 A 
ATOM     37  C   UNL     1       1.373   6.698  -4.669  1.00  0.00     0.010 A 
ATOM     38  C   UNL     1       2.620   7.330  -4.558  1.00  0.00    -0.014 A 
BRANCH  38  39
ATOM     39  C   UNL     1       3.223   7.939  -5.769  1.00  0.00     0.031 A 
ATOM     40  C   UNL     1       2.494   9.052  -6.476  1.00  0.00     0.074 A 
ATOM     41  C   UNL     1       4.381   7.463  -6.264  1.00  0.00     0.049 A 
ATOM     42  N   UNL     1       2.778   9.636  -7.611  1.00  0.00    -0.248 NA
ATOM     43  C   UNL     1       1.269   9.556  -5.832  1.00  0.00     0.031 C 
ATOM     44  C   UNL     1       5.182   6.391  -5.671  1.00  0.00     0.029 A 
ATOM     45  N   UNL     1       5.083   7.821  -7.387  1.00  0.00    -0.354 N 
ATOM     46  C   UNL     1       1.764  10.563  -7.822  1.00  0.00     0.074 A 
ATOM     47  C   UNL     1       0.827  10.424  -6.730  1.00  0.00     0.031 C 
ATOM     48  C   UNL     1       6.279   6.197  -6.421  1.00  0.00     0.029 A 
ATOM     49  C   UNL     1       6.234   7.092  -7.574  1.00  0.00     0.049 A 
ATOM     50  H   UNL     1       4.791   8.532  -8.002  1.00  0.00     0.167 HD
ATOM     51  C   UNL     1       1.635  11.466  -8.822  1.00  0.00     0.031 A 
ATOM     52  C   UNL     1       7.143   7.132  -8.567  1.00  0.00     0.031 A 
ATOM     53  C   UNL     1       2.573  11.607  -9.904  1.00  0.00     0.049 A 
ATOM     54  C   UNL     1       6.948   8.107  -9.697  1.00  0.00     0.074 A 
ATOM     55  C   UNL     1       2.545  12.506 -10.955  1.00  0.00     0.029 A 
ATOM     56  N   UNL     1       3.710  10.831 -10.071  1.00  0.00    -0.354 N 
ATOM     57  N   UNL     1       5.989   8.985  -9.874  1.00  0.00    -0.248 NA
ATOM     58  C   UNL     1       7.964   8.099 -10.757  1.00  0.00     0.031 C 
ATOM     59  C   UNL     1       3.636  12.237 -11.788  1.00  0.00     0.029 A 
ATOM     60  C   UNL     1       4.380  11.214 -11.221  1.00  0.00     0.049 A 
ATOM     61  H   UNL     1       3.999  10.114  -9.461  1.00  0.00     0.167 HD
ATOM     62  C   UNL     1       6.297   9.647 -11.057  1.00  0.00     0.074 A 
ATOM     63  C   UNL     1       7.545   9.086 -11.536  1.00  0.00     0.031 C 
ATOM     64  C   UNL     1       5.609  10.629 -11.694  1.00  0.00     0.031 A 
BRANCH  51  65
ATOM     65  C   UNL     1       0.431  12.371  -8.791  1.00  0.00    -0.014 A 
ATOM     66  C   UNL     1       0.305  13.376  -7.814  1.00  0.00     0.010 A 
ATOM     67  C   UNL     1      -0.568  12.244  -9.773  1.00  0.00     0.010 A 
ATOM     68  C   UNL     1      -0.813  14.214  -7.799  1.00  0.00     0.020 A 
ATOM     69  C   UNL     1      -1.673  13.101  -9.780  1.00  0.00     0.020 A 
ATOM     70  C   UNL     1      -1.794  14.072  -8.785  1.00  0.00     0.054 A 
BRANCH  70  71
ATOM     71  S   UNL     1      -3.215  15.198  -8.758  1.00  0.00     0.124 S 
ATOM     72  O   UNL     1      -3.924  14.761  -7.558  1.00  0.00    -0.237 OA
ATOM     73  O   UNL     1      -2.579  16.510  -8.669  1.00  0.00    -0.237 OA
ATOM     74  O   UNL     1      -3.901  14.924 -10.019  1.00  0.00    -0.744 OA
ENDBRANCH  70  71
ENDBRANCH  51  65
BRANCH  52  75
ATOM     75  C   UNL     1       8.326   6.229  -8.530  1.00  0.00    -0.014 A 
ATOM     76  C   UNL     1       9.611   6.753  -8.306  1.00  0.00     0.010 A 
ATOM     77  C   UNL     1       8.175   4.840  -8.700  1.00  0.00     0.010 A 
ATOM     78  C   UNL     1      10.724   5.907  -8.259  1.00  0.00     0.020 A 
ATOM     79  C   UNL     1       9.281   3.988  -8.625  1.00  0.00     0.020 A 
ATOM     80  C   UNL     1      10.550   4.529  -8.411  1.00  0.00     0.054 A 
BRANCH  80  81
ATOM     81  S   UNL     1      12.002   3.448  -8.280  1.00  0.00     0.124 S 
ATOM     82  O   UNL     1      12.742   3.782  -9.492  1.00  0.00    -0.237 OA
ATOM     83  O   UNL     1      12.606   3.890  -7.026  1.00  0.00    -0.237 OA
ATOM     84  O   UNL     1      11.427   2.105  -8.247  1.00  0.00    -0.744 OA
ENDBRANCH  80  81
ENDBRANCH  52  75
BRANCH  64  85
ATOM     85  C   UNL     1       6.201  11.165 -12.972  1.00  0.00    -0.014 A 
ATOM     86  C   UNL     1       6.240  10.381 -14.139  1.00  0.00     0.010 A 
ATOM     87  C   UNL     1       6.704  12.478 -13.012  1.00  0.00     0.010 A 
ATOM     88  C   UNL     1       6.820  10.881 -15.307  1.00  0.00     0.020 A 
ATOM     89  C   UNL     1       7.254  12.995 -14.188  1.00  0.00     0.020 A 
ATOM     90  C   UNL     1       7.328  12.184 -15.322  1.00  0.00     0.054 A 
BRANCH  90  91
ATOM     91  S   UNL     1       8.075  12.808 -16.852  1.00  0.00     0.124 S 
ATOM     92  O   UNL     1       9.316  12.041 -16.919  1.00  0.00    -0.237 OA
ATOM     93  O   UNL     1       7.071  12.468 -17.859  1.00  0.00    -0.237 OA
ATOM     94  O   UNL     1       8.239  14.238 -16.602  1.00  0.00    -0.744 OA
ENDBRANCH  90  91
ENDBRANCH  64  85
ENDBRANCH  38  39
ENDBRANCH  30  33
ENDBRANCH   1  29
TORSDOF 15
