REMARK SMILES CC(C)Cc1cc2c(cc1Cl)C=C(C(=O)NCCCNC(=O)c1ccc(-c3c4nc(c(-c5ccc(S(=O)(=O)[O-])cc5)c5ccc([nH]5)c(-c5ccc(S(=O)(=O)[O-])cc5)c5nc(c(-c6ccc(S(=O)(=O)[O-])cc6)c6ccc3[nH]6)C=C5)C=C4)cc1)[C@H](C(F)(F)F)O2
REMARK SMILES IDX 18 1 17 2 16 3 14 4 15 5 13 7 5 8 6 9 10 10 7 11 9 12 11 13
REMARK SMILES IDX 8 14 88 15 12 16 83 17 4 18 2 19 1 20 3 21 84 22 85 23 86 24
REMARK SMILES IDX 87 25 19 26 20 27 21 28 22 30 23 31 24 32 82 33 25 34 81 35
REMARK SMILES IDX 26 36 27 37 28 38 75 39 29 40 80 41 74 42 76 43 30 44 79 45
REMARK SMILES IDX 73 46 72 47 31 49 61 50 42 51 60 52 43 53 46 54 59 55 77 56
REMARK SMILES IDX 44 57 45 58 58 60 78 61 47 62 32 63 33 64 41 65 34 66 40 67
REMARK SMILES IDX 35 68 36 69 37 70 38 71 39 72 62 73 63 74 71 75 64 76 70 77
REMARK SMILES IDX 65 78 66 79 67 80 68 81 69 82 48 83 49 84 57 85 50 86 56 87
REMARK SMILES IDX 51 88 52 89 53 90 54 91 55 92
REMARK H PARENT 16 6 20 29 76 48 46 59
REMARK Flexibility Score: inf
ROOT
ATOM      1  C   UNL     1      -4.777   4.202   6.638  1.00  0.00     0.042 C 
ENDROOT
BRANCH   1   2
ATOM      2  C   UNL     1      -5.353   4.671   5.308  1.00  0.00     0.118 C 
BRANCH   2   3
ATOM      3  N   UNL     1      -4.477   5.629   4.652  1.00  0.00    -0.352 N 
ATOM      4  C   UNL     1      -3.626   5.630   3.602  1.00  0.00     0.251 C 
ATOM      5  O   UNL     1      -3.134   6.728   3.322  1.00  0.00    -0.270 OA
ATOM      6  H   UNL     1      -4.514   6.511   5.089  1.00  0.00     0.163 HD
BRANCH   4   7
ATOM      7  C   UNL     1      -3.268   4.434   2.788  1.00  0.00     0.067 C 
ATOM      8  C   UNL     1      -1.424   1.430  -0.825  1.00  0.00    -0.025 A 
ATOM      9  C   UNL     1      -2.171   1.223   0.345  1.00  0.00     0.052 A 
ATOM     10  C   UNL     1      -1.152   2.750  -1.219  1.00  0.00     0.045 A 
ATOM     11  C   UNL     1      -2.585   2.300   1.125  1.00  0.00     0.128 A 
ATOM     12  C   UNL     1      -1.571   3.830  -0.431  1.00  0.00     0.032 A 
ATOM     13  Cl  UNL     1      -0.319   3.115  -2.688  1.00  0.00    -0.084 Cl
ATOM     14  C   UNL     1      -2.281   3.605   0.750  1.00  0.00     0.019 A 
ATOM     15  O   UNL     1      -3.320   1.998   2.233  1.00  0.00    -0.475 OA
ATOM     16  C   UNL     1      -2.735   4.708   1.583  1.00  0.00     0.025 C 
ATOM     17  C   UNL     1      -3.369   3.012   3.274  1.00  0.00     0.314 C 
BRANCH   8  18
ATOM     18  C   UNL     1      -0.916   0.215  -1.569  1.00  0.00     0.040 C 
BRANCH  18  19
ATOM     19  C   UNL     1       0.600  -0.026  -1.415  1.00  0.00    -0.013 C 
ATOM     20  C   UNL     1       1.028  -0.204   0.045  1.00  0.00     0.008 C 
ATOM     21  C   UNL     1       1.010  -1.257  -2.226  1.00  0.00     0.008 C 
ENDBRANCH  18  19
ENDBRANCH   8  18
BRANCH  17  22
ATOM     22  C   UNL     1      -2.369   2.660   4.388  1.00  0.00     0.429 C 
ATOM     23  F   UNL     1      -1.958   3.747   5.080  1.00  0.00    -0.167 F 
ATOM     24  F   UNL     1      -2.951   1.822   5.283  1.00  0.00    -0.167 F 
ATOM     25  F   UNL     1      -1.261   2.046   3.918  1.00  0.00    -0.167 F 
ENDBRANCH  17  22
ENDBRANCH   4   7
ENDBRANCH   2   3
ENDBRANCH   1   2
BRANCH   1  26
ATOM     26  C   UNL     1      -4.893   5.261   7.729  1.00  0.00     0.118 C 
BRANCH  26  27
ATOM     27  N   UNL     1      -6.270   5.426   8.184  1.00  0.00    -0.352 N 
ATOM     28  C   UNL     1      -6.852   5.081   9.381  1.00  0.00     0.251 C 
ATOM     29  H   UNL     1      -6.875   5.850   7.534  1.00  0.00     0.163 HD
ATOM     30  O   UNL     1      -8.078   5.072   9.475  1.00  0.00    -0.269 OA
BRANCH  28  31
ATOM     31  C   UNL     1      -6.012   4.704  10.538  1.00  0.00     0.039 A 
ATOM     32  C   UNL     1      -4.826   5.387  10.802  1.00  0.00     0.014 A 
ATOM     33  C   UNL     1      -6.414   3.659  11.375  1.00  0.00     0.014 A 
ATOM     34  C   UNL     1      -3.950   4.902  11.764  1.00  0.00     0.010 A 
ATOM     35  C   UNL     1      -5.584   3.250  12.425  1.00  0.00     0.010 A 
ATOM     36  C   UNL     1      -4.320   3.836  12.599  1.00  0.00    -0.014 A 
BRANCH  36  37
ATOM     37  C   UNL     1      -3.374   3.380  13.652  1.00  0.00     0.031 A 
ATOM     38  C   UNL     1      -2.823   1.978  13.647  1.00  0.00     0.074 A 
ATOM     39  C   UNL     1      -2.957   4.265  14.581  1.00  0.00     0.049 A 
ATOM     40  N   UNL     1      -1.952   1.438  14.461  1.00  0.00    -0.248 NA
ATOM     41  C   UNL     1      -3.309   1.059  12.604  1.00  0.00     0.031 C 
ATOM     42  C   UNL     1      -3.409   5.656  14.674  1.00  0.00     0.029 A 
ATOM     43  N   UNL     1      -2.035   4.151  15.592  1.00  0.00    -0.354 N 
ATOM     44  C   UNL     1      -1.798   0.121  14.042  1.00  0.00     0.074 A 
ATOM     45  C   UNL     1      -2.693  -0.071  12.923  1.00  0.00     0.031 C 
ATOM     46  C   UNL     1      -2.707   6.285  15.626  1.00  0.00     0.029 A 
ATOM     47  C   UNL     1      -1.820   5.326  16.275  1.00  0.00     0.049 A 
ATOM     48  H   UNL     1      -1.573   3.309  15.807  1.00  0.00     0.167 HD
ATOM     49  C   UNL     1      -0.972  -0.831  14.535  1.00  0.00     0.031 A 
ATOM     50  C   UNL     1      -1.010   5.610  17.315  1.00  0.00     0.031 A 
ATOM     51  C   UNL     1      -0.067  -0.619  15.637  1.00  0.00     0.049 A 
ATOM     52  C   UNL     1      -0.138   4.522  17.872  1.00  0.00     0.074 A 
ATOM     53  C   UNL     1       0.828  -1.518  16.190  1.00  0.00     0.029 A 
ATOM     54  N   UNL     1       0.066   0.565  16.347  1.00  0.00    -0.354 N 
ATOM     55  N   UNL     1       0.003   3.289  17.448  1.00  0.00    -0.248 NA
ATOM     56  C   UNL     1       0.683   4.858  19.042  1.00  0.00     0.031 C 
ATOM     57  C   UNL     1       1.444  -0.904  17.282  1.00  0.00     0.029 A 
ATOM     58  C   UNL     1       1.001   0.407  17.357  1.00  0.00     0.049 A 
ATOM     59  H   UNL     1      -0.430   1.395  16.161  1.00  0.00     0.167 HD
ATOM     60  C   UNL     1       0.937   2.703  18.294  1.00  0.00     0.074 A 
ATOM     61  C   UNL     1       1.348   3.726  19.235  1.00  0.00     0.031 C 
ATOM     62  C   UNL     1       1.403   1.430  18.293  1.00  0.00     0.031 A 
BRANCH  49  63
ATOM     63  C   UNL     1      -0.986  -2.201  13.900  1.00  0.00    -0.014 A 
ATOM     64  C   UNL     1      -1.404  -3.314  14.654  1.00  0.00     0.010 A 
ATOM     65  C   UNL     1      -0.456  -2.411  12.614  1.00  0.00     0.010 A 
ATOM     66  C   UNL     1      -1.254  -4.611  14.154  1.00  0.00     0.020 A 
ATOM     67  C   UNL     1      -0.335  -3.705  12.097  1.00  0.00     0.020 A 
ATOM     68  C   UNL     1      -0.708  -4.799  12.882  1.00  0.00     0.054 A 
BRANCH  68  69
ATOM     69  S   UNL     1      -0.475  -6.492  12.272  1.00  0.00     0.124 S 
ATOM     70  O   UNL     1       0.653  -6.956  13.072  1.00  0.00    -0.237 OA
ATOM     71  O   UNL     1      -1.762  -7.117  12.569  1.00  0.00    -0.237 OA
ATOM     72  O   UNL     1      -0.198  -6.307  10.848  1.00  0.00    -0.744 OA
ENDBRANCH  68  69
ENDBRANCH  49  63
BRANCH  50  73
ATOM     73  C   UNL     1      -0.989   6.997  17.861  1.00  0.00    -0.014 A 
ATOM     74  C   UNL     1      -2.143   7.546  18.453  1.00  0.00     0.010 A 
ATOM     75  C   UNL     1       0.146   7.810  17.703  1.00  0.00     0.010 A 
ATOM     76  C   UNL     1      -2.190   8.897  18.802  1.00  0.00     0.020 A 
ATOM     77  C   UNL     1       0.117   9.155  18.089  1.00  0.00     0.020 A 
ATOM     78  C   UNL     1      -1.063   9.697  18.602  1.00  0.00     0.054 A 
BRANCH  78  79
ATOM     79  S   UNL     1      -1.172  11.464  18.997  1.00  0.00     0.124 S 
ATOM     80  O   UNL     1      -1.992  11.966  17.897  1.00  0.00    -0.237 OA
ATOM     81  O   UNL     1      -1.815  11.458  20.309  1.00  0.00    -0.237 OA
ATOM     82  O   UNL     1       0.220  11.904  18.990  1.00  0.00    -0.744 OA
ENDBRANCH  78  79
ENDBRANCH  50  73
BRANCH  62  83
ATOM     83  C   UNL     1       2.413   1.042  19.344  1.00  0.00    -0.014 A 
ATOM     84  C   UNL     1       3.715   0.672  18.959  1.00  0.00     0.010 A 
ATOM     85  C   UNL     1       2.037   0.914  20.693  1.00  0.00     0.010 A 
ATOM     86  C   UNL     1       4.608   0.140  19.892  1.00  0.00     0.020 A 
ATOM     87  C   UNL     1       2.939   0.417  21.637  1.00  0.00     0.020 A 
ATOM     88  C   UNL     1       4.209   0.007  21.224  1.00  0.00     0.054 A 
BRANCH  88  89
ATOM     89  S   UNL     1       5.368  -0.724  22.413  1.00  0.00     0.124 S 
ATOM     90  O   UNL     1       5.330  -2.137  22.050  1.00  0.00    -0.237 OA
ATOM     91  O   UNL     1       6.617  -0.029  22.110  1.00  0.00    -0.237 OA
ATOM     92  O   UNL     1       4.781  -0.396  23.711  1.00  0.00    -0.744 OA
ENDBRANCH  88  89
ENDBRANCH  62  83
ENDBRANCH  36  37
ENDBRANCH  28  31
ENDBRANCH  26  27
ENDBRANCH   1  26
TORSDOF 16
