REMARK SMILES O=C(NCCCNC(=O)c1ccc(-c2c3nc(c(-c4ccc(S(=O)(=O)[O-])cc4)c4ccc([nH]4)c(-c4ccc(S(=O)(=O)[O-])cc4)c4nc(c(-c5ccc(S(=O)(=O)[O-])cc5)c5ccc2[nH]5)C=C4)C=C3)cc1)C1=Cc2c(Cl)cc(Cl)cc2O[C@@H]1C(F)(F)F
REMARK SMILES IDX 6 1 5 2 4 3 3 4 1 5 2 6 70 8 71 9 81 10 72 11 80 12 73 13
REMARK SMILES IDX 79 14 74 15 75 16 78 17 76 18 77 19 82 20 83 21 84 22 85 23
REMARK SMILES IDX 7 24 8 25 9 27 10 28 11 29 69 30 12 31 68 32 13 33 14 34
REMARK SMILES IDX 15 35 62 36 16 37 67 38 61 39 63 40 17 41 66 42 60 43 59 44
REMARK SMILES IDX 18 46 48 47 29 48 47 49 30 50 33 51 46 52 64 53 31 54 32 55
REMARK SMILES IDX 45 57 65 58 34 59 19 60 20 61 28 62 21 63 27 64 22 65 23 66
REMARK SMILES IDX 24 67 25 68 26 69 49 70 50 71 58 72 51 73 57 74 52 75 53 76
REMARK SMILES IDX 54 77 55 78 56 79 35 80 36 81 44 82 37 83 43 84 38 85 39 86
REMARK SMILES IDX 40 87 41 88 42 89
REMARK H PARENT 3 7 7 26 63 45 33 56
REMARK Flexibility Score: inf
ROOT
ATOM      1  C   UNL     1       3.987   3.962  -1.251  1.00  0.00     0.118 C 
ENDROOT
BRANCH   1   2
ATOM      2  C   UNL     1       4.158   2.455  -1.409  1.00  0.00     0.042 C 
BRANCH   2   3
ATOM      3  C   UNL     1       3.385   1.676  -0.351  1.00  0.00     0.118 C 
BRANCH   3   4
ATOM      4  N   UNL     1       2.389   0.760  -0.916  1.00  0.00    -0.352 N 
ATOM      5  O   UNL     1       1.243  -1.195  -1.098  1.00  0.00    -0.270 OA
ATOM      6  C   UNL     1       2.254  -0.599  -0.756  1.00  0.00     0.251 C 
ATOM      7  H   UNL     1       1.715   1.181  -1.496  1.00  0.00     0.163 HD
BRANCH   6   8
ATOM      8  C   UNL     1       3.370  -1.298  -0.094  1.00  0.00     0.067 C 
ATOM      9  C   UNL     1       4.525  -1.323  -0.771  1.00  0.00     0.027 C 
ATOM     10  C   UNL     1       3.263  -1.515   1.379  1.00  0.00     0.314 C 
ATOM     11  C   UNL     1       5.712  -0.988   0.032  1.00  0.00     0.036 A 
ATOM     12  O   UNL     1       4.379  -0.942   2.104  1.00  0.00    -0.475 OA
ATOM     13  C   UNL     1       6.902  -0.578  -0.598  1.00  0.00     0.053 A 
ATOM     14  C   UNL     1       5.527  -0.679   1.395  1.00  0.00     0.130 A 
ATOM     15  Cl  UNL     1       7.234  -0.927  -2.260  1.00  0.00    -0.083 Cl
ATOM     16  C   UNL     1       7.812   0.237   0.077  1.00  0.00     0.042 A 
ATOM     17  C   UNL     1       6.454   0.112   2.074  1.00  0.00     0.067 A 
ATOM     18  C   UNL     1       7.565   0.604   1.396  1.00  0.00     0.046 A 
ATOM     19  Cl  UNL     1       8.597   1.739   2.172  1.00  0.00    -0.084 Cl
BRANCH  10  20
ATOM     20  C   UNL     1       3.092  -3.000   1.730  1.00  0.00     0.429 C 
ATOM     21  F   UNL     1       2.832  -3.156   3.053  1.00  0.00    -0.167 F 
ATOM     22  F   UNL     1       2.061  -3.568   1.064  1.00  0.00    -0.167 F 
ATOM     23  F   UNL     1       4.202  -3.725   1.455  1.00  0.00    -0.167 F 
ENDBRANCH  10  20
ENDBRANCH   6   8
ENDBRANCH   3   4
ENDBRANCH   2   3
ENDBRANCH   1   2
BRANCH   1  24
ATOM     24  N   UNL     1       4.651   4.509  -0.070  1.00  0.00    -0.352 N 
ATOM     25  C   UNL     1       5.591   5.519   0.040  1.00  0.00     0.251 C 
ATOM     26  H   UNL     1       4.388   4.093   0.782  1.00  0.00     0.163 HD
ATOM     27  O   UNL     1       6.088   5.772   1.121  1.00  0.00    -0.269 OA
BRANCH  25  28
ATOM     28  C   UNL     1       6.016   6.258  -1.173  1.00  0.00     0.039 A 
ATOM     29  C   UNL     1       7.377   6.485  -1.397  1.00  0.00     0.014 A 
ATOM     30  C   UNL     1       5.076   6.678  -2.111  1.00  0.00     0.014 A 
ATOM     31  C   UNL     1       7.799   7.020  -2.620  1.00  0.00     0.010 A 
ATOM     32  C   UNL     1       5.501   7.096  -3.365  1.00  0.00     0.010 A 
ATOM     33  C   UNL     1       6.868   7.266  -3.641  1.00  0.00    -0.014 A 
BRANCH  33  34
ATOM     34  C   UNL     1       7.260   7.700  -5.010  1.00  0.00     0.031 A 
ATOM     35  C   UNL     1       6.653   8.953  -5.587  1.00  0.00     0.074 A 
ATOM     36  C   UNL     1       8.035   6.910  -5.782  1.00  0.00     0.049 A 
ATOM     37  N   UNL     1       6.637   9.371  -6.826  1.00  0.00    -0.248 NA
ATOM     38  C   UNL     1       5.913   9.818  -4.652  1.00  0.00     0.031 C 
ATOM     39  C   UNL     1       8.657   5.650  -5.367  1.00  0.00     0.029 A 
ATOM     40  N   UNL     1       8.411   7.041  -7.098  1.00  0.00    -0.354 N 
ATOM     41  C   UNL     1       5.836  10.508  -6.827  1.00  0.00     0.074 A 
ATOM     42  C   UNL     1       5.351  10.687  -5.477  1.00  0.00     0.031 C 
ATOM     43  C   UNL     1       9.354   5.140  -6.395  1.00  0.00     0.029 A 
ATOM     44  C   UNL     1       9.183   6.000  -7.560  1.00  0.00     0.049 A 
ATOM     45  H   UNL     1       8.151   7.809  -7.657  1.00  0.00     0.167 HD
ATOM     46  C   UNL     1       5.543  11.339  -7.856  1.00  0.00     0.031 A 
ATOM     47  C   UNL     1       9.681   5.754  -8.788  1.00  0.00     0.031 A 
ATOM     48  C   UNL     1       6.082  11.194  -9.180  1.00  0.00     0.049 A 
ATOM     49  C   UNL     1       9.384   6.717  -9.906  1.00  0.00     0.074 A 
ATOM     50  C   UNL     1       5.913  12.024 -10.273  1.00  0.00     0.029 A 
ATOM     51  N   UNL     1       6.914  10.161  -9.583  1.00  0.00    -0.354 N 
ATOM     52  N   UNL     1       8.649   7.803  -9.881  1.00  0.00    -0.248 NA
ATOM     53  C   UNL     1       9.985   6.424 -11.215  1.00  0.00     0.031 C 
ATOM     54  C   UNL     1       6.622  11.478 -11.348  1.00  0.00     0.029 A 
ATOM     55  C   UNL     1       7.266  10.331 -10.910  1.00  0.00     0.049 A 
ATOM     56  H   UNL     1       7.210   9.417  -9.011  1.00  0.00     0.167 HD
ATOM     57  C   UNL     1       8.724   8.339 -11.162  1.00  0.00     0.074 A 
ATOM     58  C   UNL     1       9.580   7.462 -11.935  1.00  0.00     0.031 C 
ATOM     59  C   UNL     1       8.136   9.457 -11.654  1.00  0.00     0.031 A 
BRANCH  46  60
ATOM     60  C   UNL     1       4.603  12.482  -7.579  1.00  0.00    -0.014 A 
ATOM     61  C   UNL     1       4.988  13.560  -6.761  1.00  0.00     0.010 A 
ATOM     62  C   UNL     1       3.321  12.489  -8.159  1.00  0.00     0.010 A 
ATOM     63  C   UNL     1       4.090  14.592  -6.480  1.00  0.00     0.020 A 
ATOM     64  C   UNL     1       2.430  13.536  -7.906  1.00  0.00     0.020 A 
ATOM     65  C   UNL     1       2.814  14.570  -7.049  1.00  0.00     0.054 A 
BRANCH  65  66
ATOM     66  S   UNL     1       1.670  15.926  -6.673  1.00  0.00     0.124 S 
ATOM     67  O   UNL     1       1.248  15.593  -5.314  1.00  0.00    -0.237 OA
ATOM     68  O   UNL     1       2.520  17.108  -6.794  1.00  0.00    -0.237 OA
ATOM     69  O   UNL     1       0.635  15.800  -7.696  1.00  0.00    -0.744 OA
ENDBRANCH  65  66
ENDBRANCH  46  60
BRANCH  47  70
ATOM     70  C   UNL     1      10.528   4.553  -9.023  1.00  0.00    -0.014 A 
ATOM     71  C   UNL     1      11.914   4.694  -9.215  1.00  0.00     0.010 A 
ATOM     72  C   UNL     1       9.965   3.264  -9.039  1.00  0.00     0.010 A 
ATOM     73  C   UNL     1      12.719   3.573  -9.435  1.00  0.00     0.020 A 
ATOM     74  C   UNL     1      10.770   2.137  -9.234  1.00  0.00     0.020 A 
ATOM     75  C   UNL     1      12.142   2.300  -9.442  1.00  0.00     0.054 A 
BRANCH  75  76
ATOM     76  S   UNL     1      13.214   0.855  -9.675  1.00  0.00     0.124 S 
ATOM     77  O   UNL     1      13.498   0.915 -11.106  1.00  0.00    -0.237 OA
ATOM     78  O   UNL     1      14.340   1.150  -8.793  1.00  0.00    -0.237 OA
ATOM     79  O   UNL     1      12.376  -0.264  -9.248  1.00  0.00    -0.744 OA
ENDBRANCH  75  76
ENDBRANCH  47  70
BRANCH  59  80
ATOM     80  C   UNL     1       8.433   9.833 -13.078  1.00  0.00    -0.014 A 
ATOM     81  C   UNL     1       7.827   9.156 -14.150  1.00  0.00     0.010 A 
ATOM     82  C   UNL     1       9.257  10.943 -13.340  1.00  0.00     0.010 A 
ATOM     83  C   UNL     1       8.047   9.579 -15.463  1.00  0.00     0.020 A 
ATOM     84  C   UNL     1       9.461  11.382 -14.650  1.00  0.00     0.020 A 
ATOM     85  C   UNL     1       8.859  10.692 -15.704  1.00  0.00     0.054 A 
BRANCH  85  86
ATOM     86  S   UNL     1       9.063  11.271 -17.411  1.00  0.00     0.124 S 
ATOM     87  O   UNL     1       9.980  10.277 -17.962  1.00  0.00    -0.237 OA
ATOM     88  O   UNL     1       7.699  11.225 -17.932  1.00  0.00    -0.237 OA
ATOM     89  O   UNL     1       9.618  12.614 -17.257  1.00  0.00    -0.744 OA
ENDBRANCH  85  86
ENDBRANCH  59  80
ENDBRANCH  33  34
ENDBRANCH  25  28
ENDBRANCH   1  24
TORSDOF 14
