REMARK SMILES CC1=C(C)C[C@@H](C(=O)NCCCNC(=O)c2ccc(-c3c4nc(c(-c5ccc(S(=O)(=O)[O-])cc5)c5ccc([nH]5)c(-c5ccc(S(=O)(=O)[O-])cc5)c5nc(c(-c6ccc(S(=O)(=O)[O-])cc6)c6ccc3[nH]6)C=C5)C=C4)cc2)[C@@H](C(=O)NCC[NH+]2CCOCC2)C1
REMARK SMILES IDX 10 1 9 2 7 3 8 4 6 6 1 7 2 8 3 9 88 10 4 11 5 12 76 13 77 14
REMARK SMILES IDX 78 15 79 16 80 18 81 19 82 20 83 21 87 22 84 24 86 25 85 26
REMARK SMILES IDX 11 27 12 28 13 29 14 30 15 32 16 33 17 34 75 35 18 36 74 37
REMARK SMILES IDX 19 38 20 39 21 40 68 41 22 42 73 43 67 44 69 45 23 46 72 47
REMARK SMILES IDX 66 48 65 49 24 51 54 52 35 53 53 54 36 55 39 56 52 57 70 58
REMARK SMILES IDX 37 59 38 60 51 62 71 63 40 64 25 65 26 66 34 67 27 68 33 69
REMARK SMILES IDX 28 70 29 71 30 72 31 73 32 74 55 75 56 76 64 77 57 78 63 79
REMARK SMILES IDX 58 80 59 81 60 82 61 83 62 84 41 85 42 86 50 87 43 88 49 89
REMARK SMILES IDX 44 90 45 91 46 92 47 93 48 94
REMARK H PARENT 9 5 79 17 82 23 13 31 69 50 39 61
REMARK Flexibility Score: inf
ROOT
ATOM      1  C   UNL     1       2.981  -0.800   3.373  1.00  0.00     0.117 C 
ENDROOT
BRANCH   1   2
ATOM      2  N   UNL     1       2.283  -0.942   4.630  1.00  0.00    -0.356 N 
ATOM      3  C   UNL     1       0.973  -1.135   4.918  1.00  0.00     0.224 C 
ATOM      4  O   UNL     1       0.724  -1.532   6.063  1.00  0.00    -0.275 OA
ATOM      5  H   UNL     1       2.866  -0.889   5.421  1.00  0.00     0.163 HD
BRANCH   3   6
ATOM      6  C   UNL     1      -0.168  -0.973   3.903  1.00  0.00     0.095 C 
ATOM      7  C   UNL     1       0.772  -0.292  -0.388  1.00  0.00     0.039 C 
ATOM      8  C   UNL     1       0.333  -0.622   1.018  1.00  0.00    -0.074 C 
ATOM      9  C   UNL     1       0.223  -1.876   1.502  1.00  0.00    -0.074 C 
ATOM     10  C   UNL     1       0.102   0.603   1.868  1.00  0.00     0.045 C 
ATOM     11  C   UNL     1       0.604  -3.121   0.739  1.00  0.00     0.039 C 
ATOM     12  C   UNL     1      -0.207  -2.151   2.922  1.00  0.00     0.045 C 
ATOM     13  C   UNL     1      -0.432   0.426   3.289  1.00  0.00     0.095 C 
BRANCH  13  14
ATOM     14  C   UNL     1      -0.105   1.548   4.292  1.00  0.00     0.224 C 
ATOM     15  O   UNL     1      -0.153   1.335   5.508  1.00  0.00    -0.275 OA
ATOM     16  N   UNL     1       0.129   2.841   3.965  1.00  0.00    -0.350 N 
ATOM     17  H   UNL     1       0.265   3.417   4.753  1.00  0.00     0.163 HD
BRANCH  16  18
ATOM     18  C   UNL     1       0.226   3.570   2.708  1.00  0.00     0.177 C 
BRANCH  18  19
ATOM     19  C   UNL     1       0.132   5.104   2.883  1.00  0.00     0.283 C 
BRANCH  19  20
ATOM     20  N   UNL     1       1.275   5.903   3.332  1.00  0.00    -0.330 N 
ATOM     21  C   UNL     1       2.227   6.305   2.282  1.00  0.00     0.291 C 
ATOM     22  C   UNL     1       2.001   5.481   4.533  1.00  0.00     0.291 C 
ATOM     23  H   UNL     1       0.746   6.724   3.625  1.00  0.00     0.348 HD
ATOM     24  C   UNL     1       3.368   5.306   2.048  1.00  0.00     0.221 C 
ATOM     25  C   UNL     1       3.151   4.501   4.260  1.00  0.00     0.221 C 
ATOM     26  O   UNL     1       4.053   4.988   3.264  1.00  0.00    -0.370 OA
ENDBRANCH  19  20
ENDBRANCH  18  19
ENDBRANCH  16  18
ENDBRANCH  13  14
ENDBRANCH   3   6
ENDBRANCH   1   2
BRANCH   1  27
ATOM     27  C   UNL     1       3.461   0.618   3.118  1.00  0.00     0.042 C 
BRANCH  27  28
ATOM     28  C   UNL     1       4.651   1.027   3.974  1.00  0.00     0.118 C 
BRANCH  28  29
ATOM     29  N   UNL     1       5.856   0.287   3.635  1.00  0.00    -0.352 N 
ATOM     30  C   UNL     1       7.050   0.729   3.127  1.00  0.00     0.251 C 
ATOM     31  H   UNL     1       5.806  -0.683   3.794  1.00  0.00     0.163 HD
ATOM     32  O   UNL     1       7.855  -0.101   2.698  1.00  0.00    -0.269 OA
BRANCH  30  33
ATOM     33  C   UNL     1       7.381   2.172   3.076  1.00  0.00     0.039 A 
ATOM     34  C   UNL     1       8.104   2.656   1.981  1.00  0.00     0.014 A 
ATOM     35  C   UNL     1       7.040   3.040   4.116  1.00  0.00     0.014 A 
ATOM     36  C   UNL     1       8.439   4.011   1.908  1.00  0.00     0.010 A 
ATOM     37  C   UNL     1       7.302   4.404   4.003  1.00  0.00     0.010 A 
ATOM     38  C   UNL     1       8.018   4.904   2.906  1.00  0.00    -0.014 A 
BRANCH  38  39
ATOM     39  C   UNL     1       8.332   6.355   2.828  1.00  0.00     0.031 A 
ATOM     40  C   UNL     1       9.209   7.000   3.869  1.00  0.00     0.074 A 
ATOM     41  C   UNL     1       7.790   7.106   1.849  1.00  0.00     0.049 A 
ATOM     42  N   UNL     1       9.563   8.255   3.987  1.00  0.00    -0.248 NA
ATOM     43  C   UNL     1       9.745   6.125   4.925  1.00  0.00     0.031 C 
ATOM     44  C   UNL     1       6.899   6.612   0.797  1.00  0.00     0.029 A 
ATOM     45  N   UNL     1       7.904   8.448   1.582  1.00  0.00    -0.354 N 
ATOM     46  C   UNL     1      10.349   8.321   5.132  1.00  0.00     0.074 A 
ATOM     47  C   UNL     1      10.379   6.992   5.701  1.00  0.00     0.031 C 
ATOM     48  C   UNL     1       6.560   7.632  -0.009  1.00  0.00     0.029 A 
ATOM     49  C   UNL     1       7.181   8.857   0.486  1.00  0.00     0.049 A 
ATOM     50  H   UNL     1       8.451   9.060   2.124  1.00  0.00     0.167 HD
ATOM     51  C   UNL     1      11.004   9.386   5.653  1.00  0.00     0.031 A 
ATOM     52  C   UNL     1       7.027  10.079  -0.058  1.00  0.00     0.031 A 
ATOM     53  C   UNL     1      10.982  10.707   5.082  1.00  0.00     0.049 A 
ATOM     54  C   UNL     1       7.749  11.251   0.547  1.00  0.00     0.074 A 
ATOM     55  C   UNL     1      11.661  11.837   5.503  1.00  0.00     0.029 A 
ATOM     56  N   UNL     1      10.239  11.077   3.971  1.00  0.00    -0.354 N 
ATOM     57  N   UNL     1       8.543  11.278   1.590  1.00  0.00    -0.248 NA
ATOM     58  C   UNL     1       7.565  12.553  -0.107  1.00  0.00     0.031 C 
ATOM     59  C   UNL     1      11.290  12.903   4.676  1.00  0.00     0.029 A 
ATOM     60  C   UNL     1      10.422  12.424   3.707  1.00  0.00     0.049 A 
ATOM     61  H   UNL     1       9.666  10.472   3.448  1.00  0.00     0.167 HD
ATOM     62  C   UNL     1       8.974  12.595   1.702  1.00  0.00     0.074 A 
ATOM     63  C   UNL     1       8.364  13.330   0.613  1.00  0.00     0.031 C 
ATOM     64  C   UNL     1       9.803  13.145   2.624  1.00  0.00     0.031 A 
BRANCH  51  65
ATOM     65  C   UNL     1      11.802   9.164   6.912  1.00  0.00    -0.014 A 
ATOM     66  C   UNL     1      12.989   8.409   6.895  1.00  0.00     0.010 A 
ATOM     67  C   UNL     1      11.380   9.747   8.120  1.00  0.00     0.010 A 
ATOM     68  C   UNL     1      13.714   8.203   8.071  1.00  0.00     0.020 A 
ATOM     69  C   UNL     1      12.118   9.567   9.294  1.00  0.00     0.020 A 
ATOM     70  C   UNL     1      13.271   8.780   9.265  1.00  0.00     0.054 A 
BRANCH  70  71
ATOM     71  S   UNL     1      14.242   8.511  10.774  1.00  0.00     0.124 S 
ATOM     72  O   UNL     1      13.929   7.119  11.088  1.00  0.00    -0.237 OA
ATOM     73  O   UNL     1      15.610   8.760  10.324  1.00  0.00    -0.237 OA
ATOM     74  O   UNL     1      13.708   9.496  11.710  1.00  0.00    -0.744 OA
ENDBRANCH  70  71
ENDBRANCH  51  65
BRANCH  52  75
ATOM     75  C   UNL     1       6.160  10.251  -1.255  1.00  0.00    -0.014 A 
ATOM     76  C   UNL     1       6.727  10.508  -2.516  1.00  0.00     0.010 A 
ATOM     77  C   UNL     1       4.763  10.138  -1.142  1.00  0.00     0.010 A 
ATOM     78  C   UNL     1       5.911  10.661  -3.640  1.00  0.00     0.020 A 
ATOM     79  C   UNL     1       3.946  10.265  -2.269  1.00  0.00     0.020 A 
ATOM     80  C   UNL     1       4.525  10.535  -3.510  1.00  0.00     0.054 A 
BRANCH  80  81
ATOM     81  S   UNL     1       3.489  10.673  -4.993  1.00  0.00     0.124 S 
ATOM     82  O   UNL     1       3.505  12.111  -5.243  1.00  0.00    -0.237 OA
ATOM     83  O   UNL     1       4.212   9.853  -5.962  1.00  0.00    -0.237 OA
ATOM     84  O   UNL     1       2.205  10.124  -4.562  1.00  0.00    -0.744 OA
ENDBRANCH  80  81
ENDBRANCH  52  75
BRANCH  64  85
ATOM     85  C   UNL     1      10.121  14.609   2.482  1.00  0.00    -0.014 A 
ATOM     86  C   UNL     1       9.164  15.594   2.786  1.00  0.00     0.010 A 
ATOM     87  C   UNL     1      11.412  15.005   2.088  1.00  0.00     0.010 A 
ATOM     88  C   UNL     1       9.485  16.949   2.668  1.00  0.00     0.020 A 
ATOM     89  C   UNL     1      11.744  16.359   1.996  1.00  0.00     0.020 A 
ATOM     90  C   UNL     1      10.773  17.323   2.273  1.00  0.00     0.054 A 
BRANCH  90  91
ATOM     91  S   UNL     1      11.177  19.088   2.170  1.00  0.00     0.124 S 
ATOM     92  O   UNL     1      10.488  19.486   0.946  1.00  0.00    -0.237 OA
ATOM     93  O   UNL     1      10.615  19.620   3.409  1.00  0.00    -0.237 OA
ATOM     94  O   UNL     1      12.636  19.106   2.098  1.00  0.00    -0.744 OA
ENDBRANCH  90  91
ENDBRANCH  64  85
ENDBRANCH  38  39
ENDBRANCH  30  33
ENDBRANCH  28  29
ENDBRANCH  27  28
ENDBRANCH   1  27
TORSDOF 17
