REMARK SMILES Cc1c(CC(=O)NCCCNC(=O)c2ccc(-c3c4nc(c(-c5ccc(S(=O)(=O)[O-])cc5)c5ccc([nH]5)c(-c5ccc(S(=O)(=O)[O-])cc5)c5nc(c(-c6ccc(S(=O)(=O)[O-])cc6)c6ccc3[nH]6)C=C5)C=C4)cc2)c2cc(O)ccc2n1C(=O)c1ccc(Cl)cc1
REMARK SMILES IDX 9 1 8 2 7 3 5 4 6 5 4 7 3 8 1 9 2 10 81 11 74 12 80 13 75 14
REMARK SMILES IDX 79 15 76 16 78 17 82 18 83 19 84 20 85 21 90 22 86 23 89 24
REMARK SMILES IDX 87 25 88 26 77 27 10 29 11 30 12 31 13 33 14 34 15 35 73 36
REMARK SMILES IDX 16 37 72 38 17 39 18 40 19 41 66 42 20 43 71 44 65 45 67 46
REMARK SMILES IDX 21 47 70 48 64 49 63 50 22 52 52 53 33 54 51 55 34 56 37 57
REMARK SMILES IDX 50 58 68 59 35 60 36 61 49 63 69 64 38 65 23 66 24 67 32 68
REMARK SMILES IDX 25 69 31 70 26 71 27 72 28 73 29 74 30 75 53 76 54 77 62 78
REMARK SMILES IDX 55 79 61 80 56 81 57 82 58 83 59 84 60 85 39 86 40 87 48 88
REMARK SMILES IDX 41 89 47 90 42 91 43 92 44 93 45 94 46 95
REMARK H PARENT 7 6 77 28 11 32 67 51 37 62
REMARK Flexibility Score: inf
ROOT
ATOM      1  C   UNL     1       1.586   1.251   3.838  1.00  0.00     0.042 C 
ENDROOT
BRANCH   1   2
ATOM      2  C   UNL     1       0.575   0.138   3.549  1.00  0.00     0.117 C 
BRANCH   2   3
ATOM      3  N   UNL     1      -0.793   0.548   3.822  1.00  0.00    -0.356 N 
ATOM      4  C   UNL     1      -1.805   0.834   2.954  1.00  0.00     0.224 C 
ATOM      5  O   UNL     1      -2.895   1.167   3.427  1.00  0.00    -0.275 OA
ATOM      6  H   UNL     1      -1.023   0.631   4.775  1.00  0.00     0.163 HD
BRANCH   4   7
ATOM      7  C   UNL     1      -1.608   0.676   1.457  1.00  0.00     0.138 C 
BRANCH   7   8
ATOM      8  C   UNL     1      -0.616   1.641   0.877  1.00  0.00    -0.009 A 
ATOM      9  C   UNL     1       1.052  -0.019  -0.237  1.00  0.00     0.065 C 
ATOM     10  C   UNL     1       0.527   1.332   0.153  1.00  0.00     0.028 A 
ATOM     11  N   UNL     1       1.205   2.521  -0.161  1.00  0.00    -0.280 N 
ATOM     12  C   UNL     1      -0.708   3.061   0.934  1.00  0.00     0.008 A 
ATOM     13  C   UNL     1       0.381   3.591   0.232  1.00  0.00     0.057 A 
ATOM     14  C   UNL     1      -1.655   3.939   1.511  1.00  0.00     0.056 A 
ATOM     15  C   UNL     1       0.475   4.986   0.033  1.00  0.00     0.031 A 
ATOM     16  C   UNL     1      -1.499   5.314   1.371  1.00  0.00     0.116 A 
ATOM     17  C   UNL     1      -0.455   5.838   0.633  1.00  0.00     0.048 A 
BRANCH  11  18
ATOM     18  C   UNL     1       2.489   2.600  -0.776  1.00  0.00     0.262 C 
ATOM     19  O   UNL     1       2.993   1.555  -1.186  1.00  0.00    -0.268 OA
BRANCH  18  20
ATOM     20  C   UNL     1       3.262   3.833  -0.995  1.00  0.00     0.040 A 
ATOM     21  C   UNL     1       3.639   4.653   0.076  1.00  0.00     0.015 A 
ATOM     22  C   UNL     1       3.566   4.196  -2.311  1.00  0.00     0.015 A 
ATOM     23  C   UNL     1       4.214   5.899  -0.186  1.00  0.00     0.021 A 
ATOM     24  C   UNL     1       4.144   5.439  -2.567  1.00  0.00     0.021 A 
ATOM     25  C   UNL     1       4.438   6.296  -1.507  1.00  0.00     0.041 A 
ATOM     26  Cl  UNL     1       5.047   7.874  -1.829  1.00  0.00    -0.084 Cl
ENDBRANCH  18  20
ENDBRANCH  11  18
BRANCH  16  27
ATOM     27  O   UNL     1      -2.419   6.125   1.968  1.00  0.00    -0.508 OA
ATOM     28  H   UNL     1      -3.121   5.752   2.465  1.00  0.00     0.293 HD
ENDBRANCH  16  27
ENDBRANCH   7   8
ENDBRANCH   4   7
ENDBRANCH   2   3
ENDBRANCH   1   2
BRANCH   1  29
ATOM     29  C   UNL     1       1.580   1.711   5.297  1.00  0.00     0.118 C 
BRANCH  29  30
ATOM     30  N   UNL     1       1.782   0.635   6.249  1.00  0.00    -0.352 N 
ATOM     31  C   UNL     1       2.859   0.062   6.860  1.00  0.00     0.251 C 
ATOM     32  H   UNL     1       0.934   0.217   6.522  1.00  0.00     0.163 HD
ATOM     33  O   UNL     1       2.595  -0.790   7.714  1.00  0.00    -0.269 OA
BRANCH  31  34
ATOM     34  C   UNL     1       4.285   0.325   6.529  1.00  0.00     0.039 A 
ATOM     35  C   UNL     1       4.747   1.235   5.579  1.00  0.00     0.014 A 
ATOM     36  C   UNL     1       5.220  -0.503   7.181  1.00  0.00     0.014 A 
ATOM     37  C   UNL     1       6.082   1.216   5.187  1.00  0.00     0.010 A 
ATOM     38  C   UNL     1       6.557  -0.511   6.809  1.00  0.00     0.010 A 
ATOM     39  C   UNL     1       6.966   0.294   5.755  1.00  0.00    -0.014 A 
BRANCH  39  40
ATOM     40  C   UNL     1       8.320   0.221   5.215  1.00  0.00     0.031 A 
ATOM     41  C   UNL     1       9.121   1.468   5.348  1.00  0.00     0.074 A 
ATOM     42  C   UNL     1       8.834  -0.911   4.690  1.00  0.00     0.049 A 
ATOM     43  N   UNL     1       9.578   2.233   4.411  1.00  0.00    -0.248 NA
ATOM     44  C   UNL     1       9.335   1.992   6.705  1.00  0.00     0.031 C 
ATOM     45  C   UNL     1       8.283  -2.271   4.748  1.00  0.00     0.029 A 
ATOM     46  N   UNL     1      10.028  -1.096   4.063  1.00  0.00    -0.354 N 
ATOM     47  C   UNL     1      10.284   3.252   5.052  1.00  0.00     0.074 A 
ATOM     48  C   UNL     1       9.992   3.125   6.457  1.00  0.00     0.031 C 
ATOM     49  C   UNL     1       9.242  -3.160   4.402  1.00  0.00     0.029 A 
ATOM     50  C   UNL     1      10.401  -2.427   3.927  1.00  0.00     0.049 A 
ATOM     51  H   UNL     1      10.580  -0.350   3.735  1.00  0.00     0.167 HD
ATOM     52  C   UNL     1      11.202   4.022   4.405  1.00  0.00     0.031 A 
ATOM     53  C   UNL     1      11.597  -2.890   3.488  1.00  0.00     0.031 A 
ATOM     54  C   UNL     1      11.096   3.892   2.979  1.00  0.00     0.049 A 
ATOM     55  C   UNL     1      12.212  -1.801   2.694  1.00  0.00     0.074 A 
ATOM     56  C   UNL     1      10.235   4.348   2.008  1.00  0.00     0.029 A 
ATOM     57  N   UNL     1      11.811   2.854   2.438  1.00  0.00    -0.354 N 
ATOM     58  N   UNL     1      11.702  -1.337   1.585  1.00  0.00    -0.248 NA
ATOM     59  C   UNL     1      13.223  -0.960   3.316  1.00  0.00     0.031 C 
ATOM     60  C   UNL     1      10.226   3.336   1.005  1.00  0.00     0.029 A 
ATOM     61  C   UNL     1      11.120   2.328   1.376  1.00  0.00     0.049 A 
ATOM     62  H   UNL     1      12.685   2.536   2.761  1.00  0.00     0.167 HD
ATOM     63  C   UNL     1      12.020   0.010   1.587  1.00  0.00     0.074 A 
ATOM     64  C   UNL     1      13.073   0.148   2.587  1.00  0.00     0.031 C 
ATOM     65  C   UNL     1      11.217   0.931   0.980  1.00  0.00     0.031 A 
BRANCH  52  66
ATOM     66  C   UNL     1      12.427   4.617   5.059  1.00  0.00    -0.014 A 
ATOM     67  C   UNL     1      12.904   4.189   6.315  1.00  0.00     0.010 A 
ATOM     68  C   UNL     1      13.282   5.453   4.309  1.00  0.00     0.010 A 
ATOM     69  C   UNL     1      14.142   4.595   6.819  1.00  0.00     0.020 A 
ATOM     70  C   UNL     1      14.545   5.837   4.790  1.00  0.00     0.020 A 
ATOM     71  C   UNL     1      14.961   5.412   6.050  1.00  0.00     0.054 A 
BRANCH  71  72
ATOM     72  S   UNL     1      16.590   5.846   6.709  1.00  0.00     0.124 S 
ATOM     73  O   UNL     1      16.237   6.700   7.841  1.00  0.00    -0.237 OA
ATOM     74  O   UNL     1      17.146   4.542   7.055  1.00  0.00    -0.237 OA
ATOM     75  O   UNL     1      17.243   6.527   5.594  1.00  0.00    -0.744 OA
ENDBRANCH  71  72
ENDBRANCH  52  66
BRANCH  53  76
ATOM     76  C   UNL     1      12.416  -3.951   4.134  1.00  0.00    -0.014 A 
ATOM     77  C   UNL     1      12.328  -4.139   5.529  1.00  0.00     0.010 A 
ATOM     78  C   UNL     1      13.504  -4.538   3.458  1.00  0.00     0.010 A 
ATOM     79  C   UNL     1      13.329  -4.814   6.237  1.00  0.00     0.020 A 
ATOM     80  C   UNL     1      14.511  -5.222   4.164  1.00  0.00     0.020 A 
ATOM     81  C   UNL     1      14.433  -5.322   5.555  1.00  0.00     0.054 A 
BRANCH  81  82
ATOM     82  S   UNL     1      15.794  -6.029   6.530  1.00  0.00     0.124 S 
ATOM     83  O   UNL     1      16.304  -4.857   7.236  1.00  0.00    -0.237 OA
ATOM     84  O   UNL     1      15.107  -7.013   7.363  1.00  0.00    -0.237 OA
ATOM     85  O   UNL     1      16.690  -6.590   5.521  1.00  0.00    -0.744 OA
ENDBRANCH  81  82
ENDBRANCH  53  76
BRANCH  65  86
ATOM     86  C   UNL     1      10.212   0.460  -0.048  1.00  0.00    -0.014 A 
ATOM     87  C   UNL     1      10.303   1.039  -1.327  1.00  0.00     0.010 A 
ATOM     88  C   UNL     1       9.105  -0.363   0.239  1.00  0.00     0.010 A 
ATOM     89  C   UNL     1       9.299   0.854  -2.277  1.00  0.00     0.020 A 
ATOM     90  C   UNL     1       8.102  -0.576  -0.725  1.00  0.00     0.020 A 
ATOM     91  C   UNL     1       8.195   0.059  -1.967  1.00  0.00     0.054 A 
BRANCH  91  92
ATOM     92  S   UNL     1       6.891  -0.096  -3.221  1.00  0.00     0.124 S 
ATOM     93  O   UNL     1       6.299   1.241  -3.221  1.00  0.00    -0.237 OA
ATOM     94  O   UNL     1       7.645  -0.435  -4.427  1.00  0.00    -0.237 OA
ATOM     95  O   UNL     1       6.036  -1.165  -2.712  1.00  0.00    -0.744 OA
ENDBRANCH  91  92
ENDBRANCH  65  86
ENDBRANCH  39  40
ENDBRANCH  31  34
ENDBRANCH  29  30
ENDBRANCH   1  29
TORSDOF 17
