REMARK SMILES COc1cc(/C=C2/C(=O)N(c3ccccc3)C(=O)[NH+]=C2NCCCNC(=O)c2ccc(-c3c4nc(c(-c5ccc(S(=O)(=O)[O-])cc5)c5ccc([nH]5)c(-c5ccc(S(=O)(=O)[O-])cc5)c5nc(c(-c6ccc(S(=O)(=O)[O-])cc6)c6ccc3[nH]6)C=C5)C=C4)cc2)ccc1OCC(=O)[O-]
REMARK SMILES IDX 23 1 22 2 21 3 6 4 7 5 8 6 20 7 9 8 10 9 19 10 17 11 18 14
REMARK SMILES IDX 5 15 3 16 4 17 90 18 89 19 88 20 2 21 1 22 91 23 92 24 93 25
REMARK SMILES IDX 94 26 95 27 11 28 12 29 16 30 13 31 15 32 14 33 24 34 25 35
REMARK SMILES IDX 26 36 27 38 28 39 29 40 87 41 30 42 86 43 31 44 32 45 33 46
REMARK SMILES IDX 80 47 34 48 85 49 79 50 81 51 35 52 84 53 78 54 77 55 36 57
REMARK SMILES IDX 66 58 47 59 65 60 48 61 51 62 64 63 82 64 49 65 50 66 63 68
REMARK SMILES IDX 83 69 52 70 37 71 38 72 46 73 39 74 45 75 40 76 41 77 42 78
REMARK SMILES IDX 43 79 44 80 67 81 68 82 76 83 69 84 75 85 70 86 71 87 72 88
REMARK SMILES IDX 73 89 74 90 53 91 54 92 62 93 55 94 61 95 56 96 57 97 58 98
REMARK SMILES IDX 59 99 60 100
REMARK H PARENT 19 12 21 13 25 37 81 56 51 67
REMARK Flexibility Score: inf
ROOT
ATOM      1  C   UNL     1       0.862  -1.388  -3.005  1.00  0.00     0.059 C 
ENDROOT
BRANCH   1   2
ATOM      2  C   UNL     1       0.266  -3.384  -2.301  1.00  0.00     0.195 C 
BRANCH   2   3
ATOM      3  N   UNL     1      -1.188  -3.935  -1.874  1.00  0.00    -0.305 N 
ATOM      4  C   UNL     1      -1.520  -3.303  -4.823  1.00  0.00     0.030 C 
ATOM      5  C   UNL     1      -2.260  -4.204  -4.161  1.00  0.00     0.129 C 
ATOM      6  C   UNL     1      -3.175  -5.119  -4.865  1.00  0.00     0.328 C 
ATOM      7  C   UNL     1      -2.258  -4.285  -2.676  1.00  0.00     0.236 C 
ATOM      8  O   UNL     1      -2.965  -5.445  -6.030  1.00  0.00    -0.249 OA
ATOM      9  N   UNL     1      -4.258  -5.491  -4.084  1.00  0.00    -0.155 N 
ATOM     10  N   UNL     1      -3.351  -4.645  -2.069  1.00  0.00    -0.209 N 
ATOM     11  C   UNL     1      -4.469  -4.941  -2.820  1.00  0.00     0.448 C 
ATOM     12  H   UNL     1      -3.379  -4.706  -1.087  1.00  0.00     0.270 HD
ATOM     13  H   UNL     1      -1.334  -4.036  -0.905  1.00  0.00     0.256 HD
ATOM     14  O   UNL     1      -5.590  -4.737  -2.359  1.00  0.00    -0.212 OA
BRANCH   4  15
ATOM     15  C   UNL     1      -0.564  -2.552  -4.023  1.00  0.00    -0.021 A 
ATOM     16  C   UNL     1       0.043  -1.704  -1.061  1.00  0.00     0.161 A 
ATOM     17  C   UNL     1      -1.101  -1.755  -2.456  1.00  0.00     0.058 A 
ATOM     18  C   UNL     1       1.740  -2.251  -1.256  1.00  0.00     0.161 A 
ATOM     19  C   UNL     1       2.284  -2.962  -2.816  1.00  0.00     0.051 A 
ATOM     20  C   UNL     1       1.146  -3.098  -4.219  1.00  0.00     0.012 A 
BRANCH  16  21
ATOM     21  O   UNL     1      -0.384  -1.869   0.239  1.00  0.00    -0.493 OA
ATOM     22  C   UNL     1      -1.390  -1.004   0.728  1.00  0.00     0.278 C 
ENDBRANCH  16  21
BRANCH  18  23
ATOM     23  O   UNL     1       2.708  -2.161  -0.297  1.00  0.00    -0.484 OA
BRANCH  23  24
ATOM     24  C   UNL     1       2.419  -1.910   1.069  1.00  0.00     0.282 C 
BRANCH  24  25
ATOM     25  C   UNL     1       1.930  -0.597   1.724  1.00  0.00     0.079 C 
ATOM     26  O   UNL     1       1.950  -0.394   2.931  1.00  0.00    -0.546 OA
ATOM     27  O   UNL     1       1.404   0.304   0.878  1.00  0.00    -0.546 OA
ENDBRANCH  24  25
ENDBRANCH  23  24
ENDBRANCH  18  23
ENDBRANCH   4  15
BRANCH   9  28
ATOM     28  C   UNL     1      -5.256  -6.302  -4.677  1.00  0.00     0.111 A 
ATOM     29  C   UNL     1      -6.523  -5.797  -4.986  1.00  0.00     0.044 A 
ATOM     30  C   UNL     1      -4.949  -7.638  -4.964  1.00  0.00     0.044 A 
ATOM     31  C   UNL     1      -7.467  -6.623  -5.598  1.00  0.00     0.004 A 
ATOM     32  C   UNL     1      -5.906  -8.468  -5.544  1.00  0.00     0.004 A 
ATOM     33  C   UNL     1      -7.161  -7.957  -5.870  1.00  0.00     0.000 A 
ENDBRANCH   9  28
ENDBRANCH   2   3
ENDBRANCH   1   2
BRANCH   1  34
ATOM     34  C   UNL     1       1.304   0.105  -2.357  1.00  0.00     0.119 C 
BRANCH  34  35
ATOM     35  N   UNL     1       2.646   0.138  -1.774  1.00  0.00    -0.352 N 
ATOM     36  C   UNL     1       3.408   1.029  -1.078  1.00  0.00     0.251 C 
ATOM     37  H   UNL     1       3.127  -0.708  -1.926  1.00  0.00     0.163 HD
ATOM     38  O   UNL     1       4.481   0.626  -0.635  1.00  0.00    -0.269 OA
BRANCH  36  39
ATOM     39  C   UNL     1       3.010   2.431  -0.914  1.00  0.00     0.039 A 
ATOM     40  C   UNL     1       4.065   3.348  -0.879  1.00  0.00     0.014 A 
ATOM     41  C   UNL     1       1.684   2.866  -0.936  1.00  0.00     0.014 A 
ATOM     42  C   UNL     1       3.797   4.690  -1.052  1.00  0.00     0.010 A 
ATOM     43  C   UNL     1       1.414   4.196  -1.178  1.00  0.00     0.010 A 
ATOM     44  C   UNL     1       2.479   5.086  -1.306  1.00  0.00    -0.014 A 
BRANCH  44  45
ATOM     45  C   UNL     1       2.240   6.392  -1.917  1.00  0.00     0.031 A 
ATOM     46  C   UNL     1       1.622   7.475  -1.115  1.00  0.00     0.074 A 
ATOM     47  C   UNL     1       2.593   6.517  -3.210  1.00  0.00     0.049 A 
ATOM     48  N   UNL     1       1.497   8.733  -1.419  1.00  0.00    -0.248 NA
ATOM     49  C   UNL     1       1.052   7.096   0.189  1.00  0.00     0.031 C 
ATOM     50  C   UNL     1       3.116   5.426  -4.049  1.00  0.00     0.029 A 
ATOM     51  N   UNL     1       2.608   7.601  -4.037  1.00  0.00    -0.354 N 
ATOM     52  C   UNL     1       0.852   9.308  -0.335  1.00  0.00     0.074 A 
ATOM     53  C   UNL     1       0.545   8.249   0.599  1.00  0.00     0.031 C 
ATOM     54  C   UNL     1       3.478   5.919  -5.241  1.00  0.00     0.029 A 
ATOM     55  C   UNL     1       3.193   7.345  -5.256  1.00  0.00     0.049 A 
ATOM     56  H   UNL     1       2.237   8.478  -3.788  1.00  0.00     0.167 HD
ATOM     57  C   UNL     1       0.574  10.617  -0.148  1.00  0.00     0.031 A 
ATOM     58  C   UNL     1       3.503   8.194  -6.251  1.00  0.00     0.031 A 
ATOM     59  C   UNL     1       0.874  11.611  -1.143  1.00  0.00     0.049 A 
ATOM     60  C   UNL     1       3.211   9.646  -6.008  1.00  0.00     0.074 A 
ATOM     61  C   UNL     1       0.661  12.974  -1.105  1.00  0.00     0.029 A 
ATOM     62  N   UNL     1       1.454  11.326  -2.378  1.00  0.00    -0.354 N 
ATOM     63  N   UNL     1       2.679  10.206  -4.943  1.00  0.00    -0.248 NA
ATOM     64  C   UNL     1       3.572  10.582  -7.074  1.00  0.00     0.031 C 
ATOM     65  C   UNL     1       1.068  13.505  -2.335  1.00  0.00     0.029 A 
ATOM     66  C   UNL     1       1.590  12.483  -3.119  1.00  0.00     0.049 A 
ATOM     67  H   UNL     1       1.727  10.429  -2.678  1.00  0.00     0.167 HD
ATOM     68  C   UNL     1       2.650  11.566  -5.202  1.00  0.00     0.074 A 
ATOM     69  C   UNL     1       3.244  11.742  -6.518  1.00  0.00     0.031 C 
ATOM     70  C   UNL     1       2.177  12.582  -4.436  1.00  0.00     0.031 A 
BRANCH  57  71
ATOM     71  C   UNL     1      -0.095  10.992   1.146  1.00  0.00    -0.014 A 
ATOM     72  C   UNL     1       0.574  10.842   2.378  1.00  0.00     0.010 A 
ATOM     73  C   UNL     1      -1.425  11.444   1.147  1.00  0.00     0.010 A 
ATOM     74  C   UNL     1      -0.095  11.070   3.584  1.00  0.00     0.020 A 
ATOM     75  C   UNL     1      -2.089  11.704   2.351  1.00  0.00     0.020 A 
ATOM     76  C   UNL     1      -1.427  11.489   3.563  1.00  0.00     0.054 A 
BRANCH  76  77
ATOM     77  S   UNL     1      -2.281  11.752   5.141  1.00  0.00     0.124 S 
ATOM     78  O   UNL     1      -2.486  10.382   5.605  1.00  0.00    -0.237 OA
ATOM     79  O   UNL     1      -1.312  12.534   5.904  1.00  0.00    -0.237 OA
ATOM     80  O   UNL     1      -3.497  12.469   4.763  1.00  0.00    -0.744 OA
ENDBRANCH  76  77
ENDBRANCH  57  71
BRANCH  58  81
ATOM     81  C   UNL     1       4.176   7.691  -7.480  1.00  0.00    -0.014 A 
ATOM     82  C   UNL     1       5.524   7.996  -7.740  1.00  0.00     0.010 A 
ATOM     83  C   UNL     1       3.494   6.832  -8.364  1.00  0.00     0.010 A 
ATOM     84  C   UNL     1       6.172   7.463  -8.861  1.00  0.00     0.020 A 
ATOM     85  C   UNL     1       4.145   6.277  -9.471  1.00  0.00     0.020 A 
ATOM     86  C   UNL     1       5.479   6.603  -9.717  1.00  0.00     0.054 A 
BRANCH  86  87
ATOM     87  S   UNL     1       6.359   5.872 -11.128  1.00  0.00     0.124 S 
ATOM     88  O   UNL     1       6.513   7.018 -12.018  1.00  0.00    -0.237 OA
ATOM     89  O   UNL     1       7.587   5.378 -10.512  1.00  0.00    -0.237 OA
ATOM     90  O   UNL     1       5.446   4.832 -11.599  1.00  0.00    -0.744 OA
ENDBRANCH  86  87
ENDBRANCH  58  81
BRANCH  70  91
ATOM     91  C   UNL     1       2.290  13.959  -5.021  1.00  0.00    -0.014 A 
ATOM     92  C   UNL     1       1.447  14.367  -6.068  1.00  0.00     0.010 A 
ATOM     93  C   UNL     1       3.207  14.870  -4.467  1.00  0.00     0.010 A 
ATOM     94  C   UNL     1       1.539  15.663  -6.573  1.00  0.00     0.020 A 
ATOM     95  C   UNL     1       3.278  16.175  -4.949  1.00  0.00     0.020 A 
ATOM     96  C   UNL     1       2.452  16.559  -6.007  1.00  0.00     0.054 A 
BRANCH  96  97
ATOM     97  S   UNL     1       2.509  18.254  -6.643  1.00  0.00     0.124 S 
ATOM     98  O   UNL     1       3.187  18.074  -7.923  1.00  0.00    -0.237 OA
ATOM     99  O   UNL     1       1.095  18.613  -6.724  1.00  0.00    -0.237 OA
ATOM    100  O   UNL     1       3.272  18.978  -5.628  1.00  0.00    -0.744 OA
ENDBRANCH  96  97
ENDBRANCH  70  91
ENDBRANCH  44  45
ENDBRANCH  36  39
ENDBRANCH  34  35
ENDBRANCH   1  34
TORSDOF 18
