REMARK SMILES C[C@@H]1CCCN(C(=O)NC2(CC(=O)NCCCNC(=O)c3ccc(-c4c5nc(c(-c6ccc(S(=O)(=O)[O-])cc6)c6ccc([nH]6)c(-c6ccc(S(=O)(=O)[O-])cc6)c6nc(c(-c7ccc(S(=O)(=O)[O-])cc7)c7ccc4[nH]7)C=C6)C=C5)cc3)CCC2)[C@@H]1C
REMARK SMILES IDX 16 1 15 2 14 3 12 4 13 5 11 7 10 8 81 9 83 10 82 11 9 12
REMARK SMILES IDX 7 13 8 14 6 16 1 17 2 18 3 19 84 20 4 21 85 22 5 23 17 24
REMARK SMILES IDX 18 25 19 26 20 28 21 29 22 30 80 31 23 32 79 33 24 34 25 35
REMARK SMILES IDX 26 36 73 37 27 38 78 39 72 40 74 41 28 42 77 43 71 44 70 45
REMARK SMILES IDX 29 47 59 48 40 49 58 50 41 51 44 52 57 53 75 54 42 55 43 56
REMARK SMILES IDX 56 58 76 59 45 60 30 61 31 62 39 63 32 64 38 65 33 66 34 67
REMARK SMILES IDX 35 68 36 69 37 70 60 71 61 72 69 73 62 74 68 75 63 76 64 77
REMARK SMILES IDX 65 78 66 79 67 80 46 81 47 82 55 83 48 84 54 85 49 86 50 87
REMARK SMILES IDX 51 88 52 89 53 90
REMARK H PARENT 14 6 9 15 18 27 74 46 44 57
REMARK Flexibility Score: inf
ROOT
ATOM      1  C   UNL     1      -7.220  -2.417  -2.055  1.00  0.00     0.042 C 
ENDROOT
BRANCH   1   2
ATOM      2  C   UNL     1      -6.645  -2.485  -3.468  1.00  0.00     0.117 C 
BRANCH   2   3
ATOM      3  N   UNL     1      -6.025  -1.222  -3.818  1.00  0.00    -0.356 N 
ATOM      4  C   UNL     1      -4.728  -0.842  -3.674  1.00  0.00     0.222 C 
ATOM      5  O   UNL     1      -4.453   0.357  -3.739  1.00  0.00    -0.275 OA
ATOM      6  H   UNL     1      -6.624  -0.549  -4.214  1.00  0.00     0.163 HD
BRANCH   4   7
ATOM      7  C   UNL     1      -3.638  -1.869  -3.490  1.00  0.00     0.128 C 
BRANCH   7   8
ATOM      8  C   UNL     1      -3.091  -2.091  -2.057  1.00  0.00     0.051 C 
ATOM      9  C   UNL     1      -1.963  -3.138  -2.179  1.00  0.00     0.029 C 
ATOM     10  C   UNL     1      -3.899  -3.091  -1.201  1.00  0.00     0.029 C 
ATOM     11  C   UNL     1      -2.891  -4.196  -1.559  1.00  0.00     0.005 C 
BRANCH   8  12
ATOM     12  N   UNL     1      -2.750  -0.788  -1.442  1.00  0.00    -0.332 N 
ATOM     13  C   UNL     1      -2.136  -0.187  -0.404  1.00  0.00     0.318 C 
ATOM     14  O   UNL     1      -2.141   1.044  -0.535  1.00  0.00    -0.249 OA
ATOM     15  H   UNL     1      -3.117  -0.082  -2.021  1.00  0.00     0.165 HD
BRANCH  13  16
ATOM     16  N   UNL     1      -1.554  -0.783   0.675  1.00  0.00    -0.322 N 
ATOM     17  C   UNL     1       1.287   0.206   0.145  1.00  0.00     0.010 C 
ATOM     18  C   UNL     1       0.737  -0.285   1.490  1.00  0.00     0.008 C 
ATOM     19  C   UNL     1       0.982  -1.797   1.674  1.00  0.00     0.007 C 
ATOM     20  C   UNL     1      -0.775   0.010   1.669  1.00  0.00     0.086 C 
ATOM     21  C   UNL     1       0.043  -2.648   0.821  1.00  0.00     0.022 C 
ATOM     22  C   UNL     1      -1.063   1.504   1.845  1.00  0.00     0.031 C 
ATOM     23  C   UNL     1      -1.414  -2.202   0.960  1.00  0.00     0.121 C 
ENDBRANCH  13  16
ENDBRANCH   8  12
ENDBRANCH   7   8
ENDBRANCH   4   7
ENDBRANCH   2   3
ENDBRANCH   1   2
BRANCH   1  24
ATOM     24  C   UNL     1      -8.535  -1.659  -1.976  1.00  0.00     0.118 C 
BRANCH  24  25
ATOM     25  N   UNL     1      -9.621  -2.421  -2.568  1.00  0.00    -0.352 N 
ATOM     26  C   UNL     1     -10.740  -2.957  -1.987  1.00  0.00     0.251 C 
ATOM     27  H   UNL     1      -9.541  -2.575  -3.538  1.00  0.00     0.163 HD
ATOM     28  O   UNL     1     -11.381  -3.804  -2.612  1.00  0.00    -0.269 OA
BRANCH  26  29
ATOM     29  C   UNL     1     -11.184  -2.541  -0.636  1.00  0.00     0.039 A 
ATOM     30  C   UNL     1     -11.823  -3.481   0.177  1.00  0.00     0.014 A 
ATOM     31  C   UNL     1     -11.051  -1.222  -0.191  1.00  0.00     0.014 A 
ATOM     32  C   UNL     1     -12.306  -3.106   1.433  1.00  0.00     0.010 A 
ATOM     33  C   UNL     1     -11.450  -0.871   1.097  1.00  0.00     0.010 A 
ATOM     34  C   UNL     1     -12.111  -1.800   1.911  1.00  0.00    -0.014 A 
BRANCH  34  35
ATOM     35  C   UNL     1     -12.642  -1.384   3.234  1.00  0.00     0.031 A 
ATOM     36  C   UNL     1     -13.718  -0.331   3.318  1.00  0.00     0.074 A 
ATOM     37  C   UNL     1     -12.150  -1.941   4.358  1.00  0.00     0.049 A 
ATOM     38  N   UNL     1     -14.304   0.166   4.378  1.00  0.00    -0.248 NA
ATOM     39  C   UNL     1     -14.182   0.256   2.049  1.00  0.00     0.031 C 
ATOM     40  C   UNL     1     -11.083  -2.944   4.411  1.00  0.00     0.029 A 
ATOM     41  N   UNL     1     -12.489  -1.748   5.673  1.00  0.00    -0.354 N 
ATOM     42  C   UNL     1     -15.192   1.126   3.905  1.00  0.00     0.074 A 
ATOM     43  C   UNL     1     -15.028   1.184   2.470  1.00  0.00     0.031 C 
ATOM     44  C   UNL     1     -10.885  -3.308   5.688  1.00  0.00     0.029 A 
ATOM     45  C   UNL     1     -11.784  -2.543   6.546  1.00  0.00     0.049 A 
ATOM     46  H   UNL     1     -13.172  -1.102   5.964  1.00  0.00     0.167 HD
ATOM     47  C   UNL     1     -16.086   1.874   4.597  1.00  0.00     0.031 A 
ATOM     48  C   UNL     1     -11.859  -2.649   7.887  1.00  0.00     0.031 A 
ATOM     49  C   UNL     1     -16.262   1.803   6.022  1.00  0.00     0.049 A 
ATOM     50  C   UNL     1     -12.860  -1.809   8.632  1.00  0.00     0.074 A 
ATOM     51  C   UNL     1     -17.161   2.494   6.815  1.00  0.00     0.029 A 
ATOM     52  N   UNL     1     -15.531   0.983   6.867  1.00  0.00    -0.354 N 
ATOM     53  N   UNL     1     -13.720  -0.938   8.159  1.00  0.00    -0.248 NA
ATOM     54  C   UNL     1     -12.911  -1.980  10.090  1.00  0.00     0.031 C 
ATOM     55  C   UNL     1     -16.951   2.115   8.146  1.00  0.00     0.029 A 
ATOM     56  C   UNL     1     -15.953   1.155   8.174  1.00  0.00     0.049 A 
ATOM     57  H   UNL     1     -14.816   0.369   6.580  1.00  0.00     0.167 HD
ATOM     58  C   UNL     1     -14.432  -0.476   9.260  1.00  0.00     0.074 A 
ATOM     59  C   UNL     1     -13.915  -1.178  10.418  1.00  0.00     0.031 C 
ATOM     60  C   UNL     1     -15.426   0.445   9.311  1.00  0.00     0.031 A 
BRANCH  47  61
ATOM     61  C   UNL     1     -16.951   2.825   3.812  1.00  0.00    -0.014 A 
ATOM     62  C   UNL     1     -17.975   2.343   2.975  1.00  0.00     0.010 A 
ATOM     63  C   UNL     1     -16.766   4.213   3.936  1.00  0.00     0.010 A 
ATOM     64  C   UNL     1     -18.772   3.230   2.248  1.00  0.00     0.020 A 
ATOM     65  C   UNL     1     -17.580   5.105   3.230  1.00  0.00     0.020 A 
ATOM     66  C   UNL     1     -18.567   4.606   2.377  1.00  0.00     0.054 A 
BRANCH  66  67
ATOM     67  S   UNL     1     -19.634   5.736   1.441  1.00  0.00     0.124 S 
ATOM     68  O   UNL     1     -19.107   5.594   0.086  1.00  0.00    -0.237 OA
ATOM     69  O   UNL     1     -20.965   5.174   1.657  1.00  0.00    -0.237 OA
ATOM     70  O   UNL     1     -19.400   7.034   2.068  1.00  0.00    -0.744 OA
ENDBRANCH  66  67
ENDBRANCH  47  61
BRANCH  48  71
ATOM     71  C   UNL     1     -10.983  -3.608   8.612  1.00  0.00    -0.014 A 
ATOM     72  C   UNL     1     -11.526  -4.769   9.191  1.00  0.00     0.010 A 
ATOM     73  C   UNL     1      -9.604  -3.364   8.733  1.00  0.00     0.010 A 
ATOM     74  C   UNL     1     -10.711  -5.653   9.904  1.00  0.00     0.020 A 
ATOM     75  C   UNL     1      -8.781  -4.260   9.422  1.00  0.00     0.020 A 
ATOM     76  C   UNL     1      -9.343  -5.391  10.017  1.00  0.00     0.054 A 
BRANCH  76  77
ATOM     77  S   UNL     1      -8.295  -6.567  10.917  1.00  0.00     0.124 S 
ATOM     78  O   UNL     1      -8.604  -6.246  12.307  1.00  0.00    -0.237 OA
ATOM     79  O   UNL     1      -8.784  -7.859  10.441  1.00  0.00    -0.237 OA
ATOM     80  O   UNL     1      -6.944  -6.223  10.479  1.00  0.00    -0.744 OA
ENDBRANCH  76  77
ENDBRANCH  48  71
BRANCH  60  81
ATOM     81  C   UNL     1     -16.040   0.717  10.657  1.00  0.00    -0.014 A 
ATOM     82  C   UNL     1     -15.346   1.445  11.639  1.00  0.00     0.010 A 
ATOM     83  C   UNL     1     -17.343   0.263  10.928  1.00  0.00     0.010 A 
ATOM     84  C   UNL     1     -15.930   1.677  12.887  1.00  0.00     0.020 A 
ATOM     85  C   UNL     1     -17.940   0.516  12.165  1.00  0.00     0.020 A 
ATOM     86  C   UNL     1     -17.222   1.206  13.144  1.00  0.00     0.054 A 
BRANCH  86  87
ATOM     87  S   UNL     1     -17.970   1.541  14.761  1.00  0.00     0.124 S 
ATOM     88  O   UNL     1     -17.296   0.565  15.614  1.00  0.00    -0.237 OA
ATOM     89  O   UNL     1     -17.613   2.937  15.000  1.00  0.00    -0.237 OA
ATOM     90  O   UNL     1     -19.394   1.298  14.540  1.00  0.00    -0.744 OA
ENDBRANCH  86  87
ENDBRANCH  60  81
ENDBRANCH  34  35
ENDBRANCH  26  29
ENDBRANCH  24  25
ENDBRANCH   1  24
TORSDOF 16
