REMARK SMILES CCCn1cc(S(=O)(=O)N[C@H]2C=C[C@@H](C(=O)NCCCNC(=O)c3ccc(-c4c5nc(c(-c6ccc(S(=O)(=O)[O-])cc6)c6ccc([nH]6)c(-c6ccc(S(=O)(=O)[O-])cc6)c6nc(c(-c7ccc(S(=O)(=O)[O-])cc7)c7ccc4[nH]7)C=C6)C=C5)cc3)C2)nc1C
REMARK SMILES IDX 18 1 17 2 15 3 16 4 14 6 11 7 12 8 84 9 13 10 10 11 7 13
REMARK SMILES IDX 8 14 9 15 6 16 4 17 5 18 86 19 85 20 87 21 3 22 2 23 1 24
REMARK SMILES IDX 19 25 20 26 21 27 22 28 23 30 24 31 25 32 83 33 26 34 82 35
REMARK SMILES IDX 27 36 28 37 29 38 76 39 30 40 81 41 75 42 77 43 31 44 80 45
REMARK SMILES IDX 74 46 73 47 32 49 62 50 43 51 61 52 44 53 47 54 60 55 78 56
REMARK SMILES IDX 45 57 46 58 59 60 79 61 48 62 33 63 34 64 42 65 35 66 41 67
REMARK SMILES IDX 36 68 37 69 38 70 39 71 40 72 63 73 64 74 72 75 65 76 71 77
REMARK SMILES IDX 66 78 67 79 68 80 69 81 70 82 49 83 50 84 58 85 51 86 57 87
REMARK SMILES IDX 52 88 53 89 54 90 55 91 56 92
REMARK H PARENT 17 5 10 12 21 29 77 48 47 59
REMARK Flexibility Score: inf
ROOT
ATOM      1  C   UNL     1       1.865  -4.814   1.282  1.00  0.00     0.117 C 
ENDROOT
BRANCH   1   2
ATOM      2  N   UNL     1       3.187  -5.051   1.829  1.00  0.00    -0.356 N 
ATOM      3  C   UNL     1       4.349  -5.362   1.196  1.00  0.00     0.226 C 
ATOM      4  O   UNL     1       5.370  -5.434   1.886  1.00  0.00    -0.274 OA
ATOM      5  H   UNL     1       3.253  -4.974   2.808  1.00  0.00     0.163 HD
BRANCH   3   6
ATOM      6  C   UNL     1       4.441  -5.574  -0.319  1.00  0.00     0.103 C 
ATOM      7  C   UNL     1       3.212  -6.149  -2.332  1.00  0.00     0.093 C 
ATOM      8  C   UNL     1       3.438  -4.681  -2.241  1.00  0.00    -0.011 C 
ATOM      9  C   UNL     1       3.555  -6.671  -0.937  1.00  0.00     0.042 C 
ATOM     10  C   UNL     1       4.107  -4.353  -1.129  1.00  0.00    -0.016 C 
BRANCH   7  11
ATOM     11  N   UNL     1       1.920  -6.486  -2.936  1.00  0.00    -0.203 NA
ATOM     12  H   UNL     1       1.882  -5.943  -3.798  1.00  0.00     0.142 HD
BRANCH  11  13
ATOM     13  S   UNL     1       0.396  -6.299  -2.237  1.00  0.00     0.260 S 
ATOM     14  O   UNL     1       0.365  -7.129  -1.074  1.00  0.00    -0.205 OA
ATOM     15  O   UNL     1      -0.546  -6.528  -3.329  1.00  0.00    -0.205 OA
BRANCH  13  16
ATOM     16  C   UNL     1       0.081  -4.640  -1.767  1.00  0.00     0.188 A 
ATOM     17  N   UNL     1       0.197  -2.441  -1.707  1.00  0.00    -0.334 N 
ATOM     18  C   UNL     1       0.454  -3.541  -2.499  1.00  0.00     0.129 A 
ATOM     19  C   UNL     1      -0.562  -2.883  -0.646  1.00  0.00     0.107 A 
ATOM     20  N   UNL     1      -0.589  -4.210  -0.632  1.00  0.00    -0.221 NA
ATOM     21  C   UNL     1      -1.274  -2.049   0.362  1.00  0.00     0.088 C 
BRANCH  17  22
ATOM     22  C   UNL     1       0.769  -1.161  -2.079  1.00  0.00     0.123 C 
BRANCH  22  23
ATOM     23  C   UNL     1       0.519   0.125  -1.299  1.00  0.00     0.018 C 
ATOM     24  C   UNL     1       1.265   0.203   0.024  1.00  0.00     0.006 C 
ENDBRANCH  22  23
ENDBRANCH  17  22
ENDBRANCH  13  16
ENDBRANCH  11  13
ENDBRANCH   7  11
ENDBRANCH   3   6
ENDBRANCH   1   2
BRANCH   1  25
ATOM     25  C   UNL     1       0.914  -5.978   1.533  1.00  0.00     0.042 C 
BRANCH  25  26
ATOM     26  C   UNL     1       0.221  -5.892   2.861  1.00  0.00     0.118 C 
BRANCH  26  27
ATOM     27  N   UNL     1      -0.875  -4.903   2.877  1.00  0.00    -0.352 N 
ATOM     28  C   UNL     1      -1.876  -4.749   3.833  1.00  0.00     0.251 C 
ATOM     29  H   UNL     1      -0.902  -4.275   2.119  1.00  0.00     0.163 HD
ATOM     30  O   UNL     1      -2.880  -4.085   3.607  1.00  0.00    -0.269 OA
BRANCH  28  31
ATOM     31  C   UNL     1      -1.685  -5.421   5.135  1.00  0.00     0.039 A 
ATOM     32  C   UNL     1      -2.685  -6.093   5.844  1.00  0.00     0.014 A 
ATOM     33  C   UNL     1      -0.374  -5.514   5.545  1.00  0.00     0.014 A 
ATOM     34  C   UNL     1      -2.298  -6.874   6.938  1.00  0.00     0.010 A 
ATOM     35  C   UNL     1      -0.031  -6.652   6.189  1.00  0.00     0.010 A 
ATOM     36  C   UNL     1      -0.933  -7.130   7.106  1.00  0.00    -0.014 A 
BRANCH  36  37
ATOM     37  C   UNL     1      -0.327  -7.965   8.128  1.00  0.00     0.031 A 
ATOM     38  C   UNL     1      -0.705  -9.387   8.012  1.00  0.00     0.074 A 
ATOM     39  C   UNL     1       0.739  -7.544   8.855  1.00  0.00     0.049 A 
ATOM     40  N   UNL     1      -1.603 -10.008   8.697  1.00  0.00    -0.248 NA
ATOM     41  C   UNL     1      -0.202 -10.149   6.854  1.00  0.00     0.031 C 
ATOM     42  C   UNL     1       1.471  -6.267   8.772  1.00  0.00     0.029 A 
ATOM     43  N   UNL     1       1.484  -8.233   9.757  1.00  0.00    -0.354 N 
ATOM     44  C   UNL     1      -1.545 -11.322   8.253  1.00  0.00     0.074 A 
ATOM     45  C   UNL     1      -0.921 -11.269   6.957  1.00  0.00     0.031 C 
ATOM     46  C   UNL     1       2.660  -6.373   9.412  1.00  0.00     0.029 A 
ATOM     47  C   UNL     1       2.709  -7.656  10.090  1.00  0.00     0.049 A 
ATOM     48  H   UNL     1       1.180  -9.083  10.150  1.00  0.00     0.167 HD
ATOM     49  C   UNL     1      -1.679 -12.362   9.125  1.00  0.00     0.031 A 
ATOM     50  C   UNL     1       3.691  -8.213  10.849  1.00  0.00     0.031 A 
ATOM     51  C   UNL     1      -2.096 -11.894  10.428  1.00  0.00     0.049 A 
ATOM     52  C   UNL     1       3.056  -9.309  11.626  1.00  0.00     0.074 A 
ATOM     53  C   UNL     1      -3.162 -11.152  10.901  1.00  0.00     0.029 A 
ATOM     54  N   UNL     1      -1.113 -11.800  11.389  1.00  0.00    -0.354 N 
ATOM     55  N   UNL     1       2.146  -9.100  12.537  1.00  0.00    -0.248 NA
ATOM     56  C   UNL     1       3.052 -10.641  11.041  1.00  0.00     0.031 C 
ATOM     57  C   UNL     1      -2.593 -10.269  11.867  1.00  0.00     0.029 A 
ATOM     58  C   UNL     1      -1.241 -10.585  12.015  1.00  0.00     0.049 A 
ATOM     59  H   UNL     1      -0.436 -12.485  11.592  1.00  0.00     0.167 HD
ATOM     60  C   UNL     1       1.186 -10.078  12.311  1.00  0.00     0.074 A 
ATOM     61  C   UNL     1       1.846 -11.056  11.443  1.00  0.00     0.031 C 
ATOM     62  C   UNL     1      -0.133  -9.850  12.594  1.00  0.00     0.031 A 
BRANCH  49  63
ATOM     63  C   UNL     1      -1.007 -13.706   8.950  1.00  0.00    -0.014 A 
ATOM     64  C   UNL     1      -1.259 -14.705   9.912  1.00  0.00     0.010 A 
ATOM     65  C   UNL     1       0.044 -13.949   8.043  1.00  0.00     0.010 A 
ATOM     66  C   UNL     1      -0.450 -15.843  10.009  1.00  0.00     0.020 A 
ATOM     67  C   UNL     1       0.829 -15.101   8.102  1.00  0.00     0.020 A 
ATOM     68  C   UNL     1       0.598 -16.026   9.108  1.00  0.00     0.054 A 
BRANCH  68  69
ATOM     69  S   UNL     1       1.690 -17.454   9.297  1.00  0.00     0.124 S 
ATOM     70  O   UNL     1       2.340 -17.167  10.572  1.00  0.00    -0.237 OA
ATOM     71  O   UNL     1       0.743 -18.566   9.302  1.00  0.00    -0.237 OA
ATOM     72  O   UNL     1       2.554 -17.381   8.121  1.00  0.00    -0.744 OA
ENDBRANCH  68  69
ENDBRANCH  49  63
BRANCH  50  73
ATOM     73  C   UNL     1       5.170  -8.081  10.728  1.00  0.00    -0.014 A 
ATOM     74  C   UNL     1       6.030  -8.541  11.746  1.00  0.00     0.010 A 
ATOM     75  C   UNL     1       5.748  -7.783   9.477  1.00  0.00     0.010 A 
ATOM     76  C   UNL     1       7.399  -8.766  11.499  1.00  0.00     0.020 A 
ATOM     77  C   UNL     1       7.111  -8.001   9.225  1.00  0.00     0.020 A 
ATOM     78  C   UNL     1       7.926  -8.519  10.230  1.00  0.00     0.054 A 
BRANCH  78  79
ATOM     79  S   UNL     1       9.642  -9.001   9.858  1.00  0.00     0.124 S 
ATOM     80  O   UNL     1      10.414  -8.027  10.625  1.00  0.00    -0.237 OA
ATOM     81  O   UNL     1       9.700 -10.376  10.345  1.00  0.00    -0.237 OA
ATOM     82  O   UNL     1       9.734  -8.858   8.406  1.00  0.00    -0.744 OA
ENDBRANCH  78  79
ENDBRANCH  50  73
BRANCH  62  83
ATOM     83  C   UNL     1      -0.486  -8.630  13.421  1.00  0.00    -0.014 A 
ATOM     84  C   UNL     1      -0.182  -7.301  13.061  1.00  0.00     0.010 A 
ATOM     85  C   UNL     1      -1.262  -8.843  14.574  1.00  0.00     0.010 A 
ATOM     86  C   UNL     1      -0.591  -6.224  13.867  1.00  0.00     0.020 A 
ATOM     87  C   UNL     1      -1.690  -7.777  15.368  1.00  0.00     0.020 A 
ATOM     88  C   UNL     1      -1.333  -6.473  15.025  1.00  0.00     0.054 A 
BRANCH  88  89
ATOM     89  S   UNL     1      -1.832  -5.090  16.088  1.00  0.00     0.124 S 
ATOM     90  O   UNL     1      -0.554  -4.615  16.612  1.00  0.00    -0.237 OA
ATOM     91  O   UNL     1      -2.505  -4.188  15.157  1.00  0.00    -0.237 OA
ATOM     92  O   UNL     1      -2.711  -5.711  17.079  1.00  0.00    -0.744 OA
ENDBRANCH  88  89
ENDBRANCH  62  83
ENDBRANCH  36  37
ENDBRANCH  28  31
ENDBRANCH  26  27
ENDBRANCH  25  26
ENDBRANCH   1  25
TORSDOF 18
