REMARK SMILES COc1cc(Br)ccc1[C@H]([NH3+])C(=O)NCCCNC(=O)c1ccc(-c2c3nc(c(-c4ccc(S(=O)(=O)[O-])cc4)c4ccc([nH]4)c(-c4ccc(S(=O)(=O)[O-])cc4)c4nc(c(-c5ccc(S(=O)(=O)[O-])cc5)c5ccc2[nH]5)C=C4)C=C3)cc1
REMARK SMILES IDX 16 1 15 2 14 3 12 4 13 5 10 7 9 8 3 9 4 10 5 11 8 12 6 13
REMARK SMILES IDX 7 14 2 15 1 16 11 17 17 21 18 22 19 23 20 25 21 26 22 27
REMARK SMILES IDX 80 28 23 29 79 30 24 31 25 32 26 33 73 34 27 35 78 36 72 37
REMARK SMILES IDX 74 38 28 39 77 40 71 41 70 42 29 44 59 45 40 46 58 47 41 48
REMARK SMILES IDX 44 49 57 50 75 51 42 52 43 53 56 55 76 56 45 57 30 58 31 59
REMARK SMILES IDX 39 60 32 61 38 62 33 63 34 64 35 65 36 66 37 67 60 68 61 69
REMARK SMILES IDX 69 70 62 71 68 72 63 73 64 74 65 75 66 76 67 77 46 78 47 79
REMARK SMILES IDX 55 80 48 81 54 82 49 83 50 84 51 85 52 86 53 87
REMARK H PARENT 14 6 11 18 11 19 11 20 18 24 74 43 44 54
REMARK Flexibility Score: inf
ROOT
ATOM      1  C   UNL     1      -0.043   1.699   6.797  1.00  0.00     0.042 C 
ENDROOT
BRANCH   1   2
ATOM      2  C   UNL     1      -1.206   1.241   5.936  1.00  0.00     0.118 C 
BRANCH   2   3
ATOM      3  N   UNL     1      -1.635   2.251   4.981  1.00  0.00    -0.351 N 
ATOM      4  C   UNL     1      -2.075   2.147   3.692  1.00  0.00     0.283 C 
ATOM      5  O   UNL     1      -2.586   3.164   3.208  1.00  0.00    -0.268 OA
ATOM      6  H   UNL     1      -1.602   3.173   5.324  1.00  0.00     0.163 HD
BRANCH   4   7
ATOM      7  C   UNL     1      -1.920   0.863   2.842  1.00  0.00     0.306 C 
BRANCH   7   8
ATOM      8  C   UNL     1      -2.878  -0.283   3.145  1.00  0.00     0.061 A 
ATOM      9  C   UNL     1      -3.140  -1.263   2.169  1.00  0.00     0.129 A 
ATOM     10  C   UNL     1      -3.904  -2.402   2.454  1.00  0.00     0.062 A 
ATOM     11  C   UNL     1      -4.477  -2.547   3.710  1.00  0.00     0.021 A 
ATOM     12  C   UNL     1      -3.539  -0.429   4.376  1.00  0.00     0.015 A 
ATOM     13  Br  UNL     1      -5.504  -4.082   4.110  1.00  0.00    -0.051 Br
ATOM     14  C   UNL     1      -4.316  -1.556   4.668  1.00  0.00     0.016 A 
BRANCH   9  15
ATOM     15  O   UNL     1      -2.622  -1.116   0.906  1.00  0.00    -0.496 OA
ATOM     16  C   UNL     1      -3.664  -0.821  -0.027  1.00  0.00     0.278 C 
ENDBRANCH   9  15
ENDBRANCH   7   8
BRANCH   7  17
ATOM     17  N   UNL     1      -0.505   0.436   2.790  1.00  0.00    -0.343 N 
ATOM     18  H   UNL     1      -0.199   0.157   3.723  1.00  0.00     0.345 HD
ATOM     19  H   UNL     1       0.072   1.209   2.460  1.00  0.00     0.345 HD
ATOM     20  H   UNL     1      -0.411  -0.354   2.152  1.00  0.00     0.345 HD
ENDBRANCH   7  17
ENDBRANCH   4   7
ENDBRANCH   2   3
ENDBRANCH   1   2
BRANCH   1  21
ATOM     21  C   UNL     1      -0.373   2.891   7.688  1.00  0.00     0.118 C 
BRANCH  21  22
ATOM     22  N   UNL     1      -1.469   2.633   8.617  1.00  0.00    -0.352 N 
ATOM     23  C   UNL     1      -1.478   2.584   9.993  1.00  0.00     0.251 C 
ATOM     24  H   UNL     1      -2.342   2.469   8.192  1.00  0.00     0.163 HD
ATOM     25  O   UNL     1      -2.472   2.178  10.581  1.00  0.00    -0.269 OA
BRANCH  23  26
ATOM     26  C   UNL     1      -0.277   2.997  10.749  1.00  0.00     0.039 A 
ATOM     27  C   UNL     1       0.151   2.225  11.832  1.00  0.00     0.014 A 
ATOM     28  C   UNL     1       0.436   4.137  10.375  1.00  0.00     0.014 A 
ATOM     29  C   UNL     1       1.347   2.548  12.478  1.00  0.00     0.010 A 
ATOM     30  C   UNL     1       1.677   4.390  10.944  1.00  0.00     0.010 A 
ATOM     31  C   UNL     1       2.144   3.604  12.007  1.00  0.00    -0.014 A 
BRANCH  31  32
ATOM     32  C   UNL     1       3.464   3.921  12.608  1.00  0.00     0.031 A 
ATOM     33  C   UNL     1       3.705   5.281  13.210  1.00  0.00     0.074 A 
ATOM     34  C   UNL     1       4.468   3.024  12.535  1.00  0.00     0.049 A 
ATOM     35  N   UNL     1       4.812   5.788  13.687  1.00  0.00    -0.248 NA
ATOM     36  C   UNL     1       2.559   6.205  13.245  1.00  0.00     0.031 C 
ATOM     37  C   UNL     1       4.377   1.691  11.934  1.00  0.00     0.029 A 
ATOM     38  N   UNL     1       5.769   3.102  12.966  1.00  0.00    -0.354 N 
ATOM     39  C   UNL     1       4.503   7.094  14.049  1.00  0.00     0.074 A 
ATOM     40  C   UNL     1       3.123   7.321  13.681  1.00  0.00     0.031 C 
ATOM     41  C   UNL     1       5.556   1.064  12.069  1.00  0.00     0.029 A 
ATOM     42  C   UNL     1       6.500   1.963  12.724  1.00  0.00     0.049 A 
ATOM     43  H   UNL     1       6.143   3.899  13.406  1.00  0.00     0.167 HD
ATOM     44  C   UNL     1       5.285   8.016  14.659  1.00  0.00     0.031 A 
ATOM     45  C   UNL     1       7.788   1.676  12.997  1.00  0.00     0.031 A 
ATOM     46  C   UNL     1       6.649   7.778  15.048  1.00  0.00     0.049 A 
ATOM     47  C   UNL     1       8.637   2.712  13.681  1.00  0.00     0.074 A 
ATOM     48  C   UNL     1       7.513   8.623  15.722  1.00  0.00     0.029 A 
ATOM     49  N   UNL     1       7.345   6.604  14.803  1.00  0.00    -0.354 N 
ATOM     50  N   UNL     1       8.310   3.923  14.064  1.00  0.00    -0.248 NA
ATOM     51  C   UNL     1      10.027   2.337  13.977  1.00  0.00     0.031 C 
ATOM     52  C   UNL     1       8.745   7.973  15.849  1.00  0.00     0.029 A 
ATOM     53  C   UNL     1       8.632   6.705  15.300  1.00  0.00     0.049 A 
ATOM     54  H   UNL     1       6.977   5.814  14.344  1.00  0.00     0.167 HD
ATOM     55  C   UNL     1       9.444   4.444  14.676  1.00  0.00     0.074 A 
ATOM     56  C   UNL     1      10.461   3.413  14.620  1.00  0.00     0.031 C 
ATOM     57  C   UNL     1       9.628   5.665  15.236  1.00  0.00     0.031 A 
BRANCH  44  58
ATOM     58  C   UNL     1       4.673   9.364  14.941  1.00  0.00    -0.014 A 
ATOM     59  C   UNL     1       3.650   9.511  15.896  1.00  0.00     0.010 A 
ATOM     60  C   UNL     1       5.128  10.500  14.248  1.00  0.00     0.010 A 
ATOM     61  C   UNL     1       3.053  10.755  16.110  1.00  0.00     0.020 A 
ATOM     62  C   UNL     1       4.556  11.754  14.482  1.00  0.00     0.020 A 
ATOM     63  C   UNL     1       3.506  11.868  15.396  1.00  0.00     0.054 A 
BRANCH  63  64
ATOM     64  S   UNL     1       2.713  13.472  15.693  1.00  0.00     0.124 S 
ATOM     65  O   UNL     1       1.436  13.308  15.002  1.00  0.00    -0.237 OA
ATOM     66  O   UNL     1       2.635  13.527  17.151  1.00  0.00    -0.237 OA
ATOM     67  O   UNL     1       3.632  14.431  15.085  1.00  0.00    -0.744 OA
ENDBRANCH  63  64
ENDBRANCH  44  58
BRANCH  45  68
ATOM     68  C   UNL     1       8.340   0.336  12.658  1.00  0.00    -0.014 A 
ATOM     69  C   UNL     1       8.627  -0.589  13.678  1.00  0.00     0.010 A 
ATOM     70  C   UNL     1       8.567  -0.031  11.319  1.00  0.00     0.010 A 
ATOM     71  C   UNL     1       9.147  -1.849  13.367  1.00  0.00     0.020 A 
ATOM     72  C   UNL     1       9.062  -1.300  11.003  1.00  0.00     0.020 A 
ATOM     73  C   UNL     1       9.359  -2.197  12.030  1.00  0.00     0.054 A 
BRANCH  73  74
ATOM     74  S   UNL     1       9.985  -3.857  11.649  1.00  0.00     0.124 S 
ATOM     75  O   UNL     1      11.387  -3.750  12.042  1.00  0.00    -0.237 OA
ATOM     76  O   UNL     1       9.153  -4.710  12.493  1.00  0.00    -0.237 OA
ATOM     77  O   UNL     1       9.745  -3.990  10.213  1.00  0.00    -0.744 OA
ENDBRANCH  73  74
ENDBRANCH  45  68
BRANCH  57  78
ATOM     78  C   UNL     1      10.965   5.940  15.870  1.00  0.00    -0.014 A 
ATOM     79  C   UNL     1      12.112   6.158  15.088  1.00  0.00     0.010 A 
ATOM     80  C   UNL     1      11.059   6.034  17.271  1.00  0.00     0.010 A 
ATOM     81  C   UNL     1      13.338   6.436  15.697  1.00  0.00     0.020 A 
ATOM     82  C   UNL     1      12.277   6.338  17.882  1.00  0.00     0.020 A 
ATOM     83  C   UNL     1      13.412   6.523  17.091  1.00  0.00     0.054 A 
BRANCH  83  84
ATOM     84  S   UNL     1      15.005   6.928  17.857  1.00  0.00     0.124 S 
ATOM     85  O   UNL     1      15.737   5.672  17.720  1.00  0.00    -0.237 OA
ATOM     86  O   UNL     1      15.488   8.031  17.030  1.00  0.00    -0.237 OA
ATOM     87  O   UNL     1      14.648   7.295  19.226  1.00  0.00    -0.744 OA
ENDBRANCH  83  84
ENDBRANCH  57  78
ENDBRANCH  31  32
ENDBRANCH  23  26
ENDBRANCH  21  22
ENDBRANCH   1  21
TORSDOF 16
