REMARK SMILES O=C(NCCCNC(=O)c1cc(Cl)cc(Cl)c1O)c1ccc(-c2c3nc(c(-c4ccc(S(=O)(=O)[O-])cc4)c4ccc([nH]4)c(-c4ccc(S(=O)(=O)[O-])cc4)c4nc(c(-c5ccc(S(=O)(=O)[O-])cc5)c5ccc2[nH]5)C=C4)C=C3)cc1
REMARK SMILES IDX 4 1 3 2 1 3 2 4 19 6 20 7 78 8 21 9 77 10 22 11 23 12 24 13
REMARK SMILES IDX 71 14 25 15 76 16 70 17 72 18 26 19 75 20 69 21 68 22 27 24
REMARK SMILES IDX 57 25 38 26 56 27 39 28 42 29 55 30 73 31 40 32 41 33 54 35
REMARK SMILES IDX 74 36 43 37 28 38 29 39 37 40 30 41 36 42 31 43 32 44 33 45
REMARK SMILES IDX 34 46 35 47 58 48 59 49 67 50 60 51 66 52 61 53 62 54 63 55
REMARK SMILES IDX 64 56 65 57 44 58 45 59 53 60 46 61 52 62 47 63 48 64 49 65
REMARK SMILES IDX 50 66 51 67 5 68 6 69 7 70 8 71 9 73 10 74 11 75 17 76 12 77
REMARK SMILES IDX 15 78 13 79 14 80 16 81 18 82
REMARK H PARENT 3 5 72 23 42 34 7 72 18 83
REMARK Flexibility Score: inf
ROOT
ATOM      1  C   UNL     1       4.454  -0.325   1.324  1.00  0.00     0.118 C 
ENDROOT
BRANCH   1   2
ATOM      2  N   UNL     1       3.019  -0.400   1.085  1.00  0.00    -0.352 N 
ATOM      3  O   UNL     1       1.062  -0.036   0.042  1.00  0.00    -0.269 OA
ATOM      4  C   UNL     1       2.288  -0.081  -0.034  1.00  0.00     0.251 C 
ATOM      5  H   UNL     1       2.489  -0.733   1.845  1.00  0.00     0.163 HD
BRANCH   4   6
ATOM      6  C   UNL     1       2.965   0.227  -1.313  1.00  0.00     0.039 A 
ATOM      7  C   UNL     1       4.057  -0.527  -1.744  1.00  0.00     0.014 A 
ATOM      8  C   UNL     1       2.478   1.266  -2.111  1.00  0.00     0.014 A 
ATOM      9  C   UNL     1       4.758  -0.146  -2.882  1.00  0.00     0.010 A 
ATOM     10  C   UNL     1       3.124   1.585  -3.310  1.00  0.00     0.010 A 
ATOM     11  C   UNL     1       4.289   0.901  -3.690  1.00  0.00    -0.014 A 
BRANCH  11  12
ATOM     12  C   UNL     1       4.987   1.205  -4.965  1.00  0.00     0.031 A 
ATOM     13  C   UNL     1       5.647   2.536  -5.196  1.00  0.00     0.074 A 
ATOM     14  C   UNL     1       5.028   0.255  -5.920  1.00  0.00     0.049 A 
ATOM     15  N   UNL     1       6.301   2.955  -6.250  1.00  0.00    -0.248 NA
ATOM     16  C   UNL     1       5.556   3.527  -4.114  1.00  0.00     0.031 C 
ATOM     17  C   UNL     1       4.408  -1.070  -5.815  1.00  0.00     0.029 A 
ATOM     18  N   UNL     1       5.617   0.247  -7.157  1.00  0.00    -0.354 N 
ATOM     19  C   UNL     1       6.678   4.263  -5.971  1.00  0.00     0.074 A 
ATOM     20  C   UNL     1       6.161   4.576  -4.656  1.00  0.00     0.031 C 
ATOM     21  C   UNL     1       4.680  -1.772  -6.924  1.00  0.00     0.029 A 
ATOM     22  C   UNL     1       5.432  -0.928  -7.845  1.00  0.00     0.049 A 
ATOM     23  H   UNL     1       6.125   1.010  -7.518  1.00  0.00     0.167 HD
ATOM     24  C   UNL     1       7.391   5.122  -6.741  1.00  0.00     0.031 A 
ATOM     25  C   UNL     1       5.798  -1.286  -9.090  1.00  0.00     0.031 A 
ATOM     26  C   UNL     1       7.895   4.803  -8.052  1.00  0.00     0.049 A 
ATOM     27  C   UNL     1       6.566  -0.311  -9.931  1.00  0.00     0.074 A 
ATOM     28  C   UNL     1       8.664   5.590  -8.893  1.00  0.00     0.029 A 
ATOM     29  N   UNL     1       7.672   3.607  -8.720  1.00  0.00    -0.354 N 
ATOM     30  N   UNL     1       6.958   0.903  -9.627  1.00  0.00    -0.248 NA
ATOM     31  C   UNL     1       6.946  -0.753 -11.278  1.00  0.00     0.031 C 
ATOM     32  C   UNL     1       8.855   4.892 -10.091  1.00  0.00     0.029 A 
ATOM     33  C   UNL     1       8.259   3.646  -9.974  1.00  0.00     0.049 A 
ATOM     34  H   UNL     1       7.169   2.843  -8.356  1.00  0.00     0.167 HD
ATOM     35  C   UNL     1       7.641   1.369 -10.743  1.00  0.00     0.074 A 
ATOM     36  C   UNL     1       7.627   0.297 -11.719  1.00  0.00     0.031 C 
ATOM     37  C   UNL     1       8.226   2.576 -10.940  1.00  0.00     0.031 A 
BRANCH  24  38
ATOM     38  C   UNL     1       7.632   6.508  -6.198  1.00  0.00    -0.014 A 
ATOM     39  C   UNL     1       8.504   6.732  -5.117  1.00  0.00     0.010 A 
ATOM     40  C   UNL     1       6.993   7.609  -6.798  1.00  0.00     0.010 A 
ATOM     41  C   UNL     1       8.691   8.023  -4.614  1.00  0.00     0.020 A 
ATOM     42  C   UNL     1       7.198   8.905  -6.315  1.00  0.00     0.020 A 
ATOM     43  C   UNL     1       8.029   9.101  -5.210  1.00  0.00     0.054 A 
BRANCH  43  44
ATOM     44  S   UNL     1       8.280  10.763  -4.529  1.00  0.00     0.124 S 
ATOM     45  O   UNL     1       7.508  10.700  -3.291  1.00  0.00    -0.237 OA
ATOM     46  O   UNL     1       9.730  10.826  -4.361  1.00  0.00    -0.237 OA
ATOM     47  O   UNL     1       7.736  11.646  -5.558  1.00  0.00    -0.744 OA
ENDBRANCH  43  44
ENDBRANCH  24  38
BRANCH  25  48
ATOM     48  C   UNL     1       5.405  -2.625  -9.604  1.00  0.00    -0.014 A 
ATOM     49  C   UNL     1       6.361  -3.640  -9.773  1.00  0.00     0.010 A 
ATOM     50  C   UNL     1       4.050  -2.907  -9.862  1.00  0.00     0.010 A 
ATOM     51  C   UNL     1       5.967  -4.915 -10.191  1.00  0.00     0.020 A 
ATOM     52  C   UNL     1       3.650  -4.187 -10.251  1.00  0.00     0.020 A 
ATOM     53  C   UNL     1       4.613  -5.182 -10.420  1.00  0.00     0.054 A 
BRANCH  53  54
ATOM     54  S   UNL     1       4.116  -6.866 -10.879  1.00  0.00     0.124 S 
ATOM     55  O   UNL     1       4.549  -6.941 -12.270  1.00  0.00    -0.237 OA
ATOM     56  O   UNL     1       4.872  -7.686  -9.935  1.00  0.00    -0.237 OA
ATOM     57  O   UNL     1       2.670  -6.864 -10.670  1.00  0.00    -0.744 OA
ENDBRANCH  53  54
ENDBRANCH  25  48
BRANCH  37  58
ATOM     58  C   UNL     1       8.918   2.798 -12.258  1.00  0.00    -0.014 A 
ATOM     59  C   UNL     1       8.184   2.988 -13.442  1.00  0.00     0.010 A 
ATOM     60  C   UNL     1      10.322   2.872 -12.300  1.00  0.00     0.010 A 
ATOM     61  C   UNL     1       8.845   3.223 -14.651  1.00  0.00     0.020 A 
ATOM     62  C   UNL     1      10.985   3.134 -13.502  1.00  0.00     0.020 A 
ATOM     63  C   UNL     1      10.241   3.296 -14.672  1.00  0.00     0.054 A 
BRANCH  63  64
ATOM     64  S   UNL     1      11.073   3.655 -16.244  1.00  0.00     0.124 S 
ATOM     65  O   UNL     1      10.934   2.389 -16.958  1.00  0.00    -0.237 OA
ATOM     66  O   UNL     1      10.288   4.767 -16.775  1.00  0.00    -0.237 OA
ATOM     67  O   UNL     1      12.436   3.999 -15.844  1.00  0.00    -0.744 OA
ENDBRANCH  63  64
ENDBRANCH  37  58
ENDBRANCH  11  12
ENDBRANCH   4   6
ENDBRANCH   1   2
BRANCH   1  68
ATOM     68  C   UNL     1       4.826   0.746   2.339  1.00  0.00     0.042 C 
BRANCH  68  69
ATOM     69  C   UNL     1       4.281   0.496   3.739  1.00  0.00     0.118 C 
BRANCH  69  70
ATOM     70  N   UNL     1       4.813  -0.727   4.329  1.00  0.00    -0.352 N 
ATOM     71  C   UNL     1       5.685  -0.895   5.370  1.00  0.00     0.255 C 
ATOM     72  H   UNL     1       4.496  -1.561   3.913  1.00  0.00     0.163 HD
ATOM     73  O   UNL     1       6.249  -1.975   5.538  1.00  0.00    -0.269 OA
BRANCH  71  74
ATOM     74  C   UNL     1       6.007   0.211   6.294  1.00  0.00     0.084 A 
ATOM     75  C   UNL     1       4.996   1.050   6.775  1.00  0.00     0.038 A 
ATOM     76  C   UNL     1       7.327   0.377   6.740  1.00  0.00     0.147 A 
ATOM     77  C   UNL     1       5.323   2.117   7.607  1.00  0.00     0.043 A 
ATOM     78  C   UNL     1       7.639   1.450   7.582  1.00  0.00     0.085 A 
ATOM     79  Cl  UNL     1       4.083   3.181   8.143  1.00  0.00    -0.084 Cl
ATOM     80  C   UNL     1       6.640   2.330   8.003  1.00  0.00     0.045 A 
ATOM     81  Cl  UNL     1       9.250   1.716   8.143  1.00  0.00    -0.080 Cl
BRANCH  76  82
ATOM     82  O   UNL     1       8.323  -0.494   6.375  1.00  0.00    -0.506 OA
ATOM     83  H   UNL     1       8.130  -1.218   5.812  1.00  0.00     0.293 HD
ENDBRANCH  76  82
ENDBRANCH  71  74
ENDBRANCH  69  70
ENDBRANCH  68  69
ENDBRANCH   1  68
TORSDOF 14
