REMARK SMILES COc1ccccc1N1C(=O)/C(=C\c2ccc(O[C@H](C)C(=O)NCCCNC(=O)c3ccc(-c4c5nc(c(-c6ccc(S(=O)(=O)[O-])cc6)c6ccc([nH]6)c(-c6ccc(S(=O)(=O)[O-])cc6)c6nc(c(-c7ccc(S(=O)(=O)[O-])cc7)c7ccc4[nH]7)C=C6)C=C5)cc3)cc2)SC1=S
REMARK SMILES IDX 24 1 23 2 21 3 22 4 19 6 20 7 18 8 17 9 14 10 15 11 91 12
REMARK SMILES IDX 16 13 90 14 13 15 9 16 10 17 93 18 11 19 12 20 92 21 94 22
REMARK SMILES IDX 8 23 3 24 4 25 5 26 7 27 6 28 2 29 1 30 25 31 26 32 27 33
REMARK SMILES IDX 28 34 29 36 30 37 31 38 89 39 32 40 88 41 33 42 34 43 35 44
REMARK SMILES IDX 82 45 36 46 87 47 81 48 83 49 37 50 86 51 80 52 79 53 38 55
REMARK SMILES IDX 68 56 49 57 67 58 50 59 53 60 66 61 84 62 51 63 52 64 65 66
REMARK SMILES IDX 85 67 54 68 39 69 40 70 48 71 41 72 47 73 42 74 43 75 44 76
REMARK SMILES IDX 45 77 46 78 69 79 70 80 78 81 71 82 77 83 72 84 73 85 74 86
REMARK SMILES IDX 75 87 76 88 55 89 56 90 64 91 57 92 63 93 58 94 59 95 60 96
REMARK SMILES IDX 61 97 62 98
REMARK H PARENT 23 5 27 35 83 54 53 65
REMARK Flexibility Score: inf
ROOT
ATOM      1  C   UNL     1       2.542  -5.281  -4.119  1.00  0.00     0.118 C 
ENDROOT
BRANCH   1   2
ATOM      2  N   UNL     1       2.671  -6.599  -4.694  1.00  0.00    -0.353 N 
ATOM      3  C   UNL     1       2.904  -7.814  -4.135  1.00  0.00     0.260 C 
ATOM      4  O   UNL     1       2.723  -8.785  -4.885  1.00  0.00    -0.271 OA
ATOM      5  H   UNL     1       2.570  -6.621  -5.673  1.00  0.00     0.163 HD
BRANCH   3   6
ATOM      6  C   UNL     1       3.485  -8.047  -2.708  1.00  0.00     0.258 C 
ATOM      7  C   UNL     1       5.008  -7.931  -2.740  1.00  0.00     0.064 C 
BRANCH   6   8
ATOM      8  O   UNL     1       2.833  -7.637  -1.514  1.00  0.00    -0.481 OA
BRANCH   8   9
ATOM      9  C   UNL     1       2.883  -6.366  -1.042  1.00  0.00     0.120 A 
ATOM     10  C   UNL     1       2.699  -3.718  -0.127  1.00  0.00    -0.024 A 
ATOM     11  C   UNL     1       3.925  -4.244  -0.547  1.00  0.00     0.012 A 
ATOM     12  C   UNL     1       1.568  -4.536  -0.122  1.00  0.00     0.012 A 
ATOM     13  C   UNL     1       4.019  -5.569  -0.978  1.00  0.00     0.047 A 
ATOM     14  C   UNL     1       1.668  -5.860  -0.564  1.00  0.00     0.047 A 
BRANCH  10  15
ATOM     15  C   UNL     1       2.677  -2.380   0.467  1.00  0.00     0.029 C 
ATOM     16  N   UNL     1       3.860  -2.671   3.899  1.00  0.00    -0.257 N 
ATOM     17  C   UNL     1       3.441  -3.236   2.705  1.00  0.00     0.270 C 
ATOM     18  C   UNL     1       3.826  -1.292   3.990  1.00  0.00     0.153 C 
ATOM     19  O   UNL     1       3.297  -4.435   2.501  1.00  0.00    -0.268 OA
ATOM     20  C   UNL     1       3.061  -2.171   1.735  1.00  0.00     0.081 C 
ATOM     21  S   UNL     1       3.181  -0.626   2.480  1.00  0.00    -0.054 SA
ATOM     22  S   UNL     1       4.355  -0.301   5.226  1.00  0.00    -0.051 S 
BRANCH  16  23
ATOM     23  C   UNL     1       4.144  -3.568   4.960  1.00  0.00     0.093 A 
ATOM     24  C   UNL     1       3.336  -3.643   6.105  1.00  0.00     0.143 A 
ATOM     25  C   UNL     1       3.565  -4.643   7.055  1.00  0.00     0.048 A 
ATOM     26  C   UNL     1       4.565  -5.596   6.851  1.00  0.00     0.004 A 
ATOM     27  C   UNL     1       5.145  -4.536   4.766  1.00  0.00     0.031 A 
ATOM     28  C   UNL     1       5.357  -5.543   5.707  1.00  0.00     0.002 A 
BRANCH  24  29
ATOM     29  O   UNL     1       2.302  -2.780   6.360  1.00  0.00    -0.495 OA
ATOM     30  C   UNL     1       1.171  -3.017   5.522  1.00  0.00     0.278 C 
ENDBRANCH  24  29
ENDBRANCH  16  23
ENDBRANCH  10  15
ENDBRANCH   8   9
ENDBRANCH   6   8
ENDBRANCH   3   6
ENDBRANCH   1   2
BRANCH   1  31
ATOM     31  C   UNL     1       3.811  -4.447  -4.219  1.00  0.00     0.042 C 
BRANCH  31  32
ATOM     32  C   UNL     1       3.694  -3.329  -5.245  1.00  0.00     0.118 C 
BRANCH  32  33
ATOM     33  N   UNL     1       2.695  -2.332  -4.869  1.00  0.00    -0.352 N 
ATOM     34  C   UNL     1       2.784  -0.960  -4.810  1.00  0.00     0.251 C 
ATOM     35  H   UNL     1       1.818  -2.701  -4.617  1.00  0.00     0.163 HD
ATOM     36  O   UNL     1       1.872  -0.318  -4.311  1.00  0.00    -0.269 OA
BRANCH  34  37
ATOM     37  C   UNL     1       3.993  -0.274  -5.319  1.00  0.00     0.039 A 
ATOM     38  C   UNL     1       4.494   0.829  -4.618  1.00  0.00     0.014 A 
ATOM     39  C   UNL     1       4.633  -0.715  -6.477  1.00  0.00     0.014 A 
ATOM     40  C   UNL     1       5.679   1.438  -5.039  1.00  0.00     0.010 A 
ATOM     41  C   UNL     1       5.861  -0.176  -6.833  1.00  0.00     0.010 A 
ATOM     42  C   UNL     1       6.392   0.913  -6.126  1.00  0.00    -0.014 A 
BRANCH  42  43
ATOM     43  C   UNL     1       7.676   1.492  -6.595  1.00  0.00     0.031 A 
ATOM     44  C   UNL     1       7.773   2.012  -8.004  1.00  0.00     0.074 A 
ATOM     45  C   UNL     1       8.769   1.444  -5.809  1.00  0.00     0.049 A 
ATOM     46  N   UNL     1       8.831   2.362  -8.686  1.00  0.00    -0.248 NA
ATOM     47  C   UNL     1       6.512   2.106  -8.760  1.00  0.00     0.031 C 
ATOM     48  C   UNL     1       8.808   0.947  -4.431  1.00  0.00     0.029 A 
ATOM     49  N   UNL     1      10.068   1.803  -6.067  1.00  0.00    -0.354 N 
ATOM     50  C   UNL     1       8.369   2.676  -9.959  1.00  0.00     0.074 A 
ATOM     51  C   UNL     1       6.946   2.425  -9.969  1.00  0.00     0.031 C 
ATOM     52  C   UNL     1      10.062   1.052  -3.961  1.00  0.00     0.029 A 
ATOM     53  C   UNL     1      10.925   1.569  -5.017  1.00  0.00     0.049 A 
ATOM     54  H   UNL     1      10.359   2.192  -6.924  1.00  0.00     0.167 HD
ATOM     55  C   UNL     1       9.065   3.149 -11.020  1.00  0.00     0.031 A 
ATOM     56  C   UNL     1      12.259   1.736  -4.924  1.00  0.00     0.031 A 
ATOM     57  C   UNL     1      10.475   3.424 -10.991  1.00  0.00     0.049 A 
ATOM     58  C   UNL     1      13.015   2.259  -6.115  1.00  0.00     0.074 A 
ATOM     59  C   UNL     1      11.271   3.950 -11.992  1.00  0.00     0.029 A 
ATOM     60  N   UNL     1      11.297   3.204  -9.895  1.00  0.00    -0.354 N 
ATOM     61  N   UNL     1      12.559   2.577  -7.304  1.00  0.00    -0.248 NA
ATOM     62  C   UNL     1      14.462   2.454  -5.952  1.00  0.00     0.031 C 
ATOM     63  C   UNL     1      12.584   4.010 -11.515  1.00  0.00     0.029 A 
ATOM     64  C   UNL     1      12.594   3.576 -10.198  1.00  0.00     0.049 A 
ATOM     65  H   UNL     1      11.002   2.837  -9.031  1.00  0.00     0.167 HD
ATOM     66  C   UNL     1      13.656   3.048  -8.016  1.00  0.00     0.074 A 
ATOM     67  C   UNL     1      14.797   2.971  -7.127  1.00  0.00     0.031 C 
ATOM     68  C   UNL     1      13.711   3.511  -9.289  1.00  0.00     0.031 A 
BRANCH  55  69
ATOM     69  C   UNL     1       8.302   3.389 -12.297  1.00  0.00    -0.014 A 
ATOM     70  C   UNL     1       7.338   4.410 -12.389  1.00  0.00     0.010 A 
ATOM     71  C   UNL     1       8.557   2.588 -13.425  1.00  0.00     0.010 A 
ATOM     72  C   UNL     1       6.600   4.585 -13.562  1.00  0.00     0.020 A 
ATOM     73  C   UNL     1       7.845   2.781 -14.612  1.00  0.00     0.020 A 
ATOM     74  C   UNL     1       6.853   3.764 -14.664  1.00  0.00     0.054 A 
BRANCH  74  75
ATOM     75  S   UNL     1       5.878   4.010 -16.173  1.00  0.00     0.124 S 
ATOM     76  O   UNL     1       4.587   3.444 -15.791  1.00  0.00    -0.237 OA
ATOM     77  O   UNL     1       5.903   5.461 -16.338  1.00  0.00    -0.237 OA
ATOM     78  O   UNL     1       6.612   3.257 -17.187  1.00  0.00    -0.744 OA
ENDBRANCH  74  75
ENDBRANCH  55  69
BRANCH  56  79
ATOM     79  C   UNL     1      12.957   1.429  -3.645  1.00  0.00    -0.014 A 
ATOM     80  C   UNL     1      13.453   2.472  -2.843  1.00  0.00     0.010 A 
ATOM     81  C   UNL     1      13.105   0.101  -3.208  1.00  0.00     0.010 A 
ATOM     82  C   UNL     1      14.096   2.192  -1.634  1.00  0.00     0.020 A 
ATOM     83  C   UNL     1      13.724  -0.182  -1.986  1.00  0.00     0.020 A 
ATOM     84  C   UNL     1      14.224   0.867  -1.211  1.00  0.00     0.054 A 
BRANCH  84  85
ATOM     85  S   UNL     1      15.010   0.533   0.390  1.00  0.00     0.124 S 
ATOM     86  O   UNL     1      16.415   0.800   0.101  1.00  0.00    -0.237 OA
ATOM     87  O   UNL     1      14.350   1.494   1.271  1.00  0.00    -0.237 OA
ATOM     88  O   UNL     1      14.677  -0.867   0.648  1.00  0.00    -0.744 OA
ENDBRANCH  84  85
ENDBRANCH  56  79
BRANCH  68  89
ATOM     89  C   UNL     1      15.030   4.036  -9.787  1.00  0.00    -0.014 A 
ATOM     90  C   UNL     1      16.079   3.170 -10.137  1.00  0.00     0.010 A 
ATOM     91  C   UNL     1      15.176   5.420 -10.002  1.00  0.00     0.010 A 
ATOM     92  C   UNL     1      17.258   3.682 -10.686  1.00  0.00     0.020 A 
ATOM     93  C   UNL     1      16.343   5.931 -10.574  1.00  0.00     0.020 A 
ATOM     94  C   UNL     1      17.379   5.058 -10.907  1.00  0.00     0.054 A 
BRANCH  94  95
ATOM     95  S   UNL     1      18.885   5.686 -11.700  1.00  0.00     0.124 S 
ATOM     96  O   UNL     1      19.866   5.568 -10.625  1.00  0.00    -0.237 OA
ATOM     97  O   UNL     1      19.065   4.764 -12.820  1.00  0.00    -0.237 OA
ATOM     98  O   UNL     1      18.534   7.053 -12.077  1.00  0.00    -0.744 OA
ENDBRANCH  94  95
ENDBRANCH  68  89
ENDBRANCH  42  43
ENDBRANCH  34  37
ENDBRANCH  32  33
ENDBRANCH  31  32
ENDBRANCH   1  31
TORSDOF 18
