REMARK SMILES Cn1c(C[NH+](C)C)nnc1[C@@H]1CCC[N@@H+](Cc2ccccc2C(=O)NCCCNC(=O)c2ccc(-c3c4nc(c(-c5ccc(S(=O)(=O)[O-])cc5)c5ccc([nH]5)c(-c5ccc(S(=O)(=O)[O-])cc5)c5nc(c(-c6ccc(S(=O)(=O)[O-])cc6)c6ccc3[nH]6)C=C5)C=C4)cc2)C1
REMARK SMILES IDX 26 1 25 2 23 3 24 4 22 6 17 7 18 8 19 9 21 10 20 11 16 12
REMARK SMILES IDX 15 13 11 14 12 15 92 16 13 17 14 18 10 20 3 21 8 22 2 23
REMARK SMILES IDX 9 24 1 25 4 26 5 27 6 28 7 29 27 31 28 32 29 33 30 34 31 36
REMARK SMILES IDX 32 37 33 38 91 39 34 40 90 41 35 42 36 43 37 44 84 45 38 46
REMARK SMILES IDX 89 47 83 48 85 49 39 50 88 51 82 52 81 53 40 55 70 56 51 57
REMARK SMILES IDX 69 58 52 59 55 60 68 61 86 62 53 63 54 64 67 66 87 67 56 68
REMARK SMILES IDX 41 69 42 70 50 71 43 72 49 73 44 74 45 75 46 76 47 77 48 78
REMARK SMILES IDX 71 79 72 80 80 81 73 82 79 83 74 84 75 85 76 86 77 87 78 88
REMARK SMILES IDX 57 89 58 90 66 91 59 92 65 93 60 94 61 95 62 96 63 97 64 98
REMARK H PARENT 25 5 15 19 5 30 29 35 85 54 55 65
REMARK Flexibility Score: inf
ROOT
ATOM      1  C   UNL     1       4.615  -5.309  -1.637  1.00  0.00     0.118 C 
ENDROOT
BRANCH   1   2
ATOM      2  N   UNL     1       3.896  -5.957  -2.710  1.00  0.00    -0.352 N 
ATOM      3  C   UNL     1       3.466  -7.251  -2.834  1.00  0.00     0.251 C 
ATOM      4  O   UNL     1       2.750  -7.534  -3.795  1.00  0.00    -0.269 OA
ATOM      5  H   UNL     1       3.681  -5.375  -3.474  1.00  0.00     0.163 HD
BRANCH   3   6
ATOM      6  C   UNL     1       3.906  -8.344  -1.932  1.00  0.00     0.048 A 
ATOM      7  C   UNL     1       3.738  -8.441  -0.535  1.00  0.00     0.019 A 
ATOM      8  C   UNL     1       4.283  -9.585   0.101  1.00  0.00     0.010 A 
ATOM      9  C   UNL     1       4.910 -10.612  -0.611  1.00  0.00     0.001 A 
ATOM     10  C   UNL     1       4.499  -9.413  -2.643  1.00  0.00     0.014 A 
ATOM     11  C   UNL     1       4.997 -10.537  -1.990  1.00  0.00     0.001 A 
BRANCH   7  12
ATOM     12  C   UNL     1       3.085  -7.428   0.384  1.00  0.00     0.299 C 
BRANCH  12  13
ATOM     13  N   UNL     1       1.641  -7.199   0.345  1.00  0.00    -0.331 N 
ATOM     14  C   UNL     1      -0.369  -6.122  -0.749  1.00  0.00     0.113 C 
ATOM     15  C   UNL     1      -1.241  -7.228  -0.144  1.00  0.00     0.023 C 
ATOM     16  C   UNL     1       1.107  -6.544  -0.850  1.00  0.00     0.274 C 
ATOM     17  C   UNL     1      -0.597  -7.897   1.064  1.00  0.00     0.062 C 
ATOM     18  C   UNL     1       0.841  -8.339   0.777  1.00  0.00     0.262 C 
ATOM     19  H   UNL     1       1.532  -6.484   1.064  1.00  0.00     0.348 HD
BRANCH  14  20
ATOM     20  C   UNL     1      -0.668  -4.754  -0.182  1.00  0.00     0.141 A 
ATOM     21  C   UNL     1      -0.663  -2.812   0.887  1.00  0.00     0.187 A 
ATOM     22  N   UNL     1      -1.626  -2.788  -0.011  1.00  0.00    -0.129 NA
ATOM     23  N   UNL     1      -0.073  -4.065   0.851  1.00  0.00    -0.313 N 
ATOM     24  N   UNL     1      -1.629  -3.988  -0.671  1.00  0.00    -0.135 NA
ATOM     25  C   UNL     1       0.958  -4.496   1.755  1.00  0.00     0.153 C 
BRANCH  21  26
ATOM     26  C   UNL     1      -0.202  -1.720   1.818  1.00  0.00     0.340 C 
BRANCH  26  27
ATOM     27  N   UNL     1      -0.826  -0.387   1.761  1.00  0.00    -0.333 N 
ATOM     28  C   UNL     1      -0.417   0.381   0.589  1.00  0.00     0.332 C 
ATOM     29  C   UNL     1      -2.277  -0.429   1.875  1.00  0.00     0.332 C 
ATOM     30  H   UNL     1      -0.475   0.102   2.584  1.00  0.00     0.348 HD
ENDBRANCH  26  27
ENDBRANCH  21  26
ENDBRANCH  14  20
ENDBRANCH  12  13
ENDBRANCH   7  12
ENDBRANCH   3   6
ENDBRANCH   1   2
BRANCH   1  31
ATOM     31  C   UNL     1       5.279  -3.995  -2.010  1.00  0.00     0.042 C 
BRANCH  31  32
ATOM     32  C   UNL     1       4.363  -2.982  -2.693  1.00  0.00     0.118 C 
BRANCH  32  33
ATOM     33  N   UNL     1       3.069  -2.811  -2.051  1.00  0.00    -0.352 N 
ATOM     34  C   UNL     1       2.545  -1.748  -1.371  1.00  0.00     0.251 C 
ATOM     35  H   UNL     1       2.471  -3.590  -2.117  1.00  0.00     0.163 HD
ATOM     36  O   UNL     1       1.438  -1.845  -0.848  1.00  0.00    -0.269 OA
BRANCH  34  37
ATOM     37  C   UNL     1       3.299  -0.504  -1.203  1.00  0.00     0.039 A 
ATOM     38  C   UNL     1       3.396   0.056   0.075  1.00  0.00     0.014 A 
ATOM     39  C   UNL     1       3.887   0.117  -2.299  1.00  0.00     0.014 A 
ATOM     40  C   UNL     1       4.150   1.209   0.268  1.00  0.00     0.010 A 
ATOM     41  C   UNL     1       4.725   1.198  -2.088  1.00  0.00     0.010 A 
ATOM     42  C   UNL     1       4.869   1.751  -0.803  1.00  0.00    -0.014 A 
BRANCH  42  43
ATOM     43  C   UNL     1       5.790   2.899  -0.646  1.00  0.00     0.031 A 
ATOM     44  C   UNL     1       5.580   4.108  -1.513  1.00  0.00     0.074 A 
ATOM     45  C   UNL     1       6.877   2.783   0.141  1.00  0.00     0.049 A 
ATOM     46  N   UNL     1       6.429   5.041  -1.847  1.00  0.00    -0.248 NA
ATOM     47  C   UNL     1       4.253   4.242  -2.140  1.00  0.00     0.031 C 
ATOM     48  C   UNL     1       7.179   1.654   1.026  1.00  0.00     0.029 A 
ATOM     49  N   UNL     1       7.954   3.618   0.296  1.00  0.00    -0.354 N 
ATOM     50  C   UNL     1       5.764   5.832  -2.777  1.00  0.00     0.074 A 
ATOM     51  C   UNL     1       4.451   5.256  -2.969  1.00  0.00     0.031 C 
ATOM     52  C   UNL     1       8.355   1.871   1.637  1.00  0.00     0.029 A 
ATOM     53  C   UNL     1       8.924   3.112   1.129  1.00  0.00     0.049 A 
ATOM     54  H   UNL     1       8.025   4.495  -0.146  1.00  0.00     0.167 HD
ATOM     55  C   UNL     1       6.216   6.940  -3.409  1.00  0.00     0.031 A 
ATOM     56  C   UNL     1      10.155   3.577   1.414  1.00  0.00     0.031 A 
ATOM     57  C   UNL     1       7.507   7.520  -3.151  1.00  0.00     0.049 A 
ATOM     58  C   UNL     1      10.618   4.833   0.731  1.00  0.00     0.074 A 
ATOM     59  C   UNL     1       8.066   8.662  -3.694  1.00  0.00     0.029 A 
ATOM     60  N   UNL     1       8.428   7.014  -2.244  1.00  0.00    -0.354 N 
ATOM     61  N   UNL     1       9.996   5.553  -0.174  1.00  0.00    -0.248 NA
ATOM     62  C   UNL     1      11.944   5.338   1.103  1.00  0.00     0.031 C 
ATOM     63  C   UNL     1       9.334   8.836  -3.127  1.00  0.00     0.029 A 
ATOM     64  C   UNL     1       9.545   7.826  -2.201  1.00  0.00     0.049 A 
ATOM     65  H   UNL     1       8.303   6.196  -1.709  1.00  0.00     0.167 HD
ATOM     66  C   UNL     1      10.847   6.612  -0.461  1.00  0.00     0.074 A 
ATOM     67  C   UNL     1      12.018   6.445   0.378  1.00  0.00     0.031 C 
ATOM     68  C   UNL     1      10.683   7.631  -1.340  1.00  0.00     0.031 A 
BRANCH  55  69
ATOM     69  C   UNL     1       5.316   7.588  -4.426  1.00  0.00    -0.014 A 
ATOM     70  C   UNL     1       4.135   8.248  -4.039  1.00  0.00     0.010 A 
ATOM     71  C   UNL     1       5.671   7.571  -5.788  1.00  0.00     0.010 A 
ATOM     72  C   UNL     1       3.310   8.847  -4.995  1.00  0.00     0.020 A 
ATOM     73  C   UNL     1       4.863   8.195  -6.745  1.00  0.00     0.020 A 
ATOM     74  C   UNL     1       3.679   8.816  -6.343  1.00  0.00     0.054 A 
BRANCH  74  75
ATOM     75  S   UNL     1       2.611   9.641  -7.556  1.00  0.00     0.124 S 
ATOM     76  O   UNL     1       1.486   8.714  -7.644  1.00  0.00    -0.237 OA
ATOM     77  O   UNL     1       2.323  10.920  -6.912  1.00  0.00    -0.237 OA
ATOM     78  O   UNL     1       3.446   9.723  -8.752  1.00  0.00    -0.744 OA
ENDBRANCH  74  75
ENDBRANCH  55  69
BRANCH  56  79
ATOM     79  C   UNL     1      11.029   2.852   2.376  1.00  0.00    -0.014 A 
ATOM     80  C   UNL     1      11.292   3.401   3.643  1.00  0.00     0.010 A 
ATOM     81  C   UNL     1      11.591   1.605   2.043  1.00  0.00     0.010 A 
ATOM     82  C   UNL     1      12.119   2.733   4.550  1.00  0.00     0.020 A 
ATOM     83  C   UNL     1      12.396   0.919   2.958  1.00  0.00     0.020 A 
ATOM     84  C   UNL     1      12.667   1.495   4.201  1.00  0.00     0.054 A 
BRANCH  84  85
ATOM     85  S   UNL     1      13.702   0.623   5.409  1.00  0.00     0.124 S 
ATOM     86  O   UNL     1      14.958   1.359   5.319  1.00  0.00    -0.237 OA
ATOM     87  O   UNL     1      12.954   0.794   6.652  1.00  0.00    -0.237 OA
ATOM     88  O   UNL     1      13.739  -0.746   4.899  1.00  0.00    -0.744 OA
ENDBRANCH  84  85
ENDBRANCH  56  79
BRANCH  68  89
ATOM     89  C   UNL     1      11.772   8.663  -1.391  1.00  0.00    -0.014 A 
ATOM     90  C   UNL     1      12.999   8.395  -2.021  1.00  0.00     0.010 A 
ATOM     91  C   UNL     1      11.540   9.935  -0.838  1.00  0.00     0.010 A 
ATOM     92  C   UNL     1      13.992   9.374  -2.068  1.00  0.00     0.020 A 
ATOM     93  C   UNL     1      12.521  10.925  -0.905  1.00  0.00     0.020 A 
ATOM     94  C   UNL     1      13.747  10.633  -1.507  1.00  0.00     0.054 A 
BRANCH  94  95
ATOM     95  S   UNL     1      15.037  11.901  -1.615  1.00  0.00     0.124 S 
ATOM     96  O   UNL     1      15.982  11.458  -0.594  1.00  0.00    -0.237 OA
ATOM     97  O   UNL     1      15.497  11.776  -2.996  1.00  0.00    -0.237 OA
ATOM     98  O   UNL     1      14.327  13.142  -1.312  1.00  0.00    -0.744 OA
ENDBRANCH  94  95
ENDBRANCH  68  89
ENDBRANCH  42  43
ENDBRANCH  34  37
ENDBRANCH  32  33
ENDBRANCH  31  32
ENDBRANCH   1  31
TORSDOF 18
