REMARK SMILES O=C(NCCCNC(=O)c1ccc(F)c(S(=O)(=O)N2CCOc3ccccc32)c1)c1ccc(-c2c3nc(c(-c4ccc(S(=O)(=O)[O-])cc4)c4ccc([nH]4)c(-c4ccc(S(=O)(=O)[O-])cc4)c4nc(c(-c5ccc(S(=O)(=O)[O-])cc5)c5ccc2[nH]5)C=C4)C=C3)cc1
REMARK SMILES IDX 4 1 3 2 1 3 2 4 30 6 31 7 89 8 32 9 88 10 33 11 34 12 35 13
REMARK SMILES IDX 82 14 36 15 87 16 81 17 83 18 37 19 86 20 80 21 79 22 38 24
REMARK SMILES IDX 68 25 49 26 67 27 50 28 53 29 66 30 84 31 51 32 52 33 65 35
REMARK SMILES IDX 85 36 54 37 39 38 40 39 48 40 41 41 47 42 42 43 43 44 44 45
REMARK SMILES IDX 45 46 46 47 69 48 70 49 78 50 71 51 77 52 72 53 73 54 74 55
REMARK SMILES IDX 75 56 76 57 55 58 56 59 64 60 57 61 63 62 58 63 59 64 60 65
REMARK SMILES IDX 61 66 62 67 5 68 6 69 7 70 8 71 9 73 10 74 11 75 29 76 12 77
REMARK SMILES IDX 15 78 13 79 14 80 16 81 17 82 18 83 19 84 20 85 28 86 21 87
REMARK SMILES IDX 23 88 27 89 22 90 24 91 26 92 25 93
REMARK H PARENT 3 5 83 23 53 34 7 72
REMARK Flexibility Score: inf
ROOT
ATOM      1  C   UNL     1       4.651   0.888   1.035  1.00  0.00     0.118 C 
ENDROOT
BRANCH   1   2
ATOM      2  N   UNL     1       3.217   0.681   0.887  1.00  0.00    -0.352 N 
ATOM      3  O   UNL     1       1.301   0.134  -0.150  1.00  0.00    -0.269 OA
ATOM      4  C   UNL     1       2.518  -0.007  -0.075  1.00  0.00     0.251 C 
ATOM      5  H   UNL     1       2.662   1.099   1.584  1.00  0.00     0.163 HD
BRANCH   4   6
ATOM      6  C   UNL     1       3.225  -0.904  -1.015  1.00  0.00     0.039 A 
ATOM      7  C   UNL     1       4.266  -1.723  -0.574  1.00  0.00     0.014 A 
ATOM      8  C   UNL     1       2.801  -0.973  -2.346  1.00  0.00     0.014 A 
ATOM      9  C   UNL     1       4.968  -2.507  -1.480  1.00  0.00     0.010 A 
ATOM     10  C   UNL     1       3.444  -1.837  -3.238  1.00  0.00     0.010 A 
ATOM     11  C   UNL     1       4.540  -2.603  -2.812  1.00  0.00    -0.014 A 
BRANCH  11  12
ATOM     12  C   UNL     1       5.165  -3.615  -3.697  1.00  0.00     0.031 A 
ATOM     13  C   UNL     1       5.949  -3.217  -4.914  1.00  0.00     0.074 A 
ATOM     14  C   UNL     1       5.007  -4.915  -3.377  1.00  0.00     0.049 A 
ATOM     15  N   UNL     1       6.543  -3.988  -5.788  1.00  0.00    -0.248 NA
ATOM     16  C   UNL     1       6.080  -1.778  -5.196  1.00  0.00     0.031 C 
ATOM     17  C   UNL     1       4.246  -5.414  -2.225  1.00  0.00     0.029 A 
ATOM     18  N   UNL     1       5.475  -6.055  -3.978  1.00  0.00    -0.354 N 
ATOM     19  C   UNL     1       7.097  -3.136  -6.736  1.00  0.00     0.074 A 
ATOM     20  C   UNL     1       6.762  -1.786  -6.335  1.00  0.00     0.031 C 
ATOM     21  C   UNL     1       4.324  -6.751  -2.188  1.00  0.00     0.029 A 
ATOM     22  C   UNL     1       5.078  -7.210  -3.346  1.00  0.00     0.049 A 
ATOM     23  H   UNL     1       6.040  -6.047  -4.784  1.00  0.00     0.167 HD
ATOM     24  C   UNL     1       7.814  -3.458  -7.838  1.00  0.00     0.031 A 
ATOM     25  C   UNL     1       5.265  -8.500  -3.679  1.00  0.00     0.031 A 
ATOM     26  C   UNL     1       8.153  -4.806  -8.215  1.00  0.00     0.049 A 
ATOM     27  C   UNL     1       6.036  -8.821  -4.924  1.00  0.00     0.074 A 
ATOM     28  C   UNL     1       8.944  -5.228  -9.270  1.00  0.00     0.029 A 
ATOM     29  N   UNL     1       7.709  -5.948  -7.567  1.00  0.00    -0.354 N 
ATOM     30  N   UNL     1       6.618  -7.998  -5.762  1.00  0.00    -0.248 NA
ATOM     31  C   UNL     1       6.166 -10.241  -5.277  1.00  0.00     0.031 C 
ATOM     32  C   UNL     1       8.927  -6.626  -9.297  1.00  0.00     0.029 A 
ATOM     33  C   UNL     1       8.168  -7.075  -8.228  1.00  0.00     0.049 A 
ATOM     34  H   UNL     1       7.150  -5.957  -6.756  1.00  0.00     0.167 HD
ATOM     35  C   UNL     1       7.185  -8.800  -6.743  1.00  0.00     0.074 A 
ATOM     36  C   UNL     1       6.903 -10.174  -6.377  1.00  0.00     0.031 C 
ATOM     37  C   UNL     1       7.867  -8.433  -7.854  1.00  0.00     0.031 A 
BRANCH  24  38
ATOM     38  C   UNL     1       8.271  -2.347  -8.745  1.00  0.00    -0.014 A 
ATOM     39  C   UNL     1       9.356  -1.524  -8.401  1.00  0.00     0.010 A 
ATOM     40  C   UNL     1       7.675  -2.203 -10.012  1.00  0.00     0.010 A 
ATOM     41  C   UNL     1       9.832  -0.569  -9.306  1.00  0.00     0.020 A 
ATOM     42  C   UNL     1       8.159  -1.262 -10.925  1.00  0.00     0.020 A 
ATOM     43  C   UNL     1       9.232  -0.447 -10.564  1.00  0.00     0.054 A 
BRANCH  43  44
ATOM     44  S   UNL     1       9.913   0.754 -11.742  1.00  0.00     0.124 S 
ATOM     45  O   UNL     1       9.475   2.023 -11.165  1.00  0.00    -0.237 OA
ATOM     46  O   UNL     1      11.349   0.495 -11.669  1.00  0.00    -0.237 OA
ATOM     47  O   UNL     1       9.281   0.396 -13.009  1.00  0.00    -0.744 OA
ENDBRANCH  43  44
ENDBRANCH  24  38
BRANCH  25  48
ATOM     48  C   UNL     1       4.650  -9.575  -2.855  1.00  0.00    -0.014 A 
ATOM     49  C   UNL     1       5.446 -10.448  -2.095  1.00  0.00     0.010 A 
ATOM     50  C   UNL     1       3.250  -9.723  -2.828  1.00  0.00     0.010 A 
ATOM     51  C   UNL     1       4.854 -11.468  -1.344  1.00  0.00     0.020 A 
ATOM     52  C   UNL     1       2.654 -10.720  -2.055  1.00  0.00     0.020 A 
ATOM     53  C   UNL     1       3.461 -11.599  -1.332  1.00  0.00     0.054 A 
BRANCH  53  54
ATOM     54  S   UNL     1       2.708 -12.911  -0.330  1.00  0.00     0.124 S 
ATOM     55  O   UNL     1       2.931 -14.089  -1.161  1.00  0.00    -0.237 OA
ATOM     56  O   UNL     1       3.483 -12.852   0.907  1.00  0.00    -0.237 OA
ATOM     57  O   UNL     1       1.316 -12.485  -0.204  1.00  0.00    -0.744 OA
ENDBRANCH  53  54
ENDBRANCH  25  48
BRANCH  37  58
ATOM     58  C   UNL     1       8.352  -9.533  -8.755  1.00  0.00    -0.014 A 
ATOM     59  C   UNL     1       7.454 -10.229  -9.584  1.00  0.00     0.010 A 
ATOM     60  C   UNL     1       9.723  -9.838  -8.813  1.00  0.00     0.010 A 
ATOM     61  C   UNL     1       7.917 -11.226 -10.443  1.00  0.00     0.020 A 
ATOM     62  C   UNL     1      10.193 -10.819  -9.690  1.00  0.00     0.020 A 
ATOM     63  C   UNL     1       9.285 -11.514 -10.492  1.00  0.00     0.054 A 
BRANCH  63  64
ATOM     64  S   UNL     1       9.869 -12.774 -11.658  1.00  0.00     0.124 S 
ATOM     65  O   UNL     1       9.450 -14.010 -11.003  1.00  0.00    -0.237 OA
ATOM     66  O   UNL     1       9.149 -12.436 -12.883  1.00  0.00    -0.237 OA
ATOM     67  O   UNL     1      11.313 -12.554 -11.710  1.00  0.00    -0.744 OA
ENDBRANCH  63  64
ENDBRANCH  37  58
ENDBRANCH  11  12
ENDBRANCH   4   6
ENDBRANCH   1   2
BRANCH   1  68
ATOM     68  C   UNL     1       5.053   2.330   0.780  1.00  0.00     0.042 C 
BRANCH  68  69
ATOM     69  C   UNL     1       4.487   3.305   1.800  1.00  0.00     0.118 C 
BRANCH  69  70
ATOM     70  N   UNL     1       5.047   3.112   3.133  1.00  0.00    -0.352 N 
ATOM     71  C   UNL     1       5.859   3.941   3.868  1.00  0.00     0.251 C 
ATOM     72  H   UNL     1       4.808   2.263   3.570  1.00  0.00     0.163 HD
ATOM     73  O   UNL     1       6.371   3.558   4.913  1.00  0.00    -0.269 OA
BRANCH  71  74
ATOM     74  C   UNL     1       6.127   5.307   3.378  1.00  0.00     0.041 A 
ATOM     75  C   UNL     1       5.066   6.130   2.983  1.00  0.00     0.017 A 
ATOM     76  C   UNL     1       7.446   5.762   3.297  1.00  0.00     0.039 A 
ATOM     77  C   UNL     1       5.335   7.336   2.351  1.00  0.00     0.041 A 
ATOM     78  C   UNL     1       7.705   7.011   2.713  1.00  0.00     0.124 A 
ATOM     79  C   UNL     1       6.652   7.755   2.190  1.00  0.00     0.143 A 
ATOM     80  F   UNL     1       6.831   8.888   1.506  1.00  0.00    -0.205 F 
BRANCH  78  81
ATOM     81  S   UNL     1       9.391   7.560   2.677  1.00  0.00     0.267 S 
ATOM     82  O   UNL     1       9.722   7.879   4.053  1.00  0.00    -0.201 OA
ATOM     83  O   UNL     1      10.114   6.524   1.972  1.00  0.00    -0.201 OA
BRANCH  81  84
ATOM     84  N   UNL     1       9.383   9.010   1.811  1.00  0.00    -0.259 N 
ATOM     85  C   UNL     1       8.923  10.228   2.526  1.00  0.00     0.177 C 
ATOM     86  C   UNL     1      10.260   9.258   0.692  1.00  0.00     0.094 A 
ATOM     87  C   UNL     1      10.088  11.194   2.649  1.00  0.00     0.252 C 
ATOM     88  C   UNL     1      10.752  10.565   0.491  1.00  0.00     0.143 A 
ATOM     89  C   UNL     1      10.515   8.296  -0.290  1.00  0.00     0.031 A 
ATOM     90  O   UNL     1      10.540  11.616   1.356  1.00  0.00    -0.489 OA
ATOM     91  C   UNL     1      11.479  10.887  -0.658  1.00  0.00     0.049 A 
ATOM     92  C   UNL     1      11.275   8.613  -1.422  1.00  0.00     0.002 A 
ATOM     93  C   UNL     1      11.749   9.908  -1.610  1.00  0.00     0.004 A 
ENDBRANCH  81  84
ENDBRANCH  78  81
ENDBRANCH  71  74
ENDBRANCH  69  70
ENDBRANCH  68  69
ENDBRANCH   1  68
TORSDOF 15
