REMARK SMILES Cc1nnc(N[C@@H]2CCCCC[C@@H]2C(=O)NCCCNC(=O)c2ccc(-c3c4nc(c(-c5ccc(S(=O)(=O)[O-])cc5)c5ccc([nH]5)c(-c5ccc(S(=O)(=O)[O-])cc5)c5nc(c(-c6ccc(S(=O)(=O)[O-])cc6)c6ccc3[nH]6)C=C5)C=C4)cc2)s1
REMARK SMILES IDX 18 1 17 2 16 3 14 4 15 5 13 7 7 8 6 9 5 11 1 12 2 13 3 14
REMARK SMILES IDX 83 15 4 16 8 17 9 18 12 20 11 21 10 22 19 24 20 25 21 26
REMARK SMILES IDX 22 28 23 29 24 30 82 31 25 32 81 33 26 34 27 35 28 36 75 37
REMARK SMILES IDX 29 38 80 39 74 40 76 41 30 42 79 43 73 44 72 45 31 47 61 48
REMARK SMILES IDX 42 49 60 50 43 51 46 52 59 53 77 54 44 55 45 56 58 58 78 59
REMARK SMILES IDX 47 60 32 61 33 62 41 63 34 64 40 65 35 66 36 67 37 68 38 69
REMARK SMILES IDX 39 70 62 71 63 72 71 73 64 74 70 75 65 76 66 77 67 78 68 79
REMARK SMILES IDX 69 80 48 81 49 82 57 83 50 84 56 85 51 86 52 87 53 88 54 89
REMARK SMILES IDX 55 90
REMARK H PARENT 16 6 6 10 20 27 76 46 46 57
REMARK Flexibility Score: 100.00
ROOT
ATOM      1  C   UNL     1       0.477  -0.449  -2.272  1.00  0.00     0.042 C 
ENDROOT
BRANCH   1   2
ATOM      2  C   UNL     1       1.726   0.127  -1.650  1.00  0.00     0.117 C 
BRANCH   2   3
ATOM      3  N   UNL     1       2.779   0.579  -2.503  1.00  0.00    -0.356 N 
ATOM      4  C   UNL     1       3.676   1.552  -2.168  1.00  0.00     0.225 C 
ATOM      5  O   UNL     1       4.671   1.665  -2.896  1.00  0.00    -0.275 OA
ATOM      6  H   UNL     1       2.864   0.161  -3.390  1.00  0.00     0.163 HD
BRANCH   4   7
ATOM      7  C   UNL     1       3.426   2.594  -1.045  1.00  0.00     0.101 C 
BRANCH   7   8
ATOM      8  C   UNL     1       3.405   2.265   0.480  1.00  0.00     0.094 C 
BRANCH   8   9
ATOM      9  N   UNL     1       2.815   1.019   0.952  1.00  0.00    -0.357 N 
ATOM     10  H   UNL     1       3.461   0.281   1.028  1.00  0.00     0.163 HD
BRANCH   9  11
ATOM     11  C   UNL     1       1.547   0.673   1.310  1.00  0.00     0.205 A 
ATOM     12  C   UNL     1      -2.228   0.059   0.934  1.00  0.00     0.081 C 
ATOM     13  C   UNL     1      -0.787   0.137   1.290  1.00  0.00     0.116 A 
ATOM     14  N   UNL     1      -0.048  -0.890   1.640  1.00  0.00    -0.142 NA
ATOM     15  S   UNL     1       0.097   1.607   1.171  1.00  0.00    -0.080 S 
ATOM     16  N   UNL     1       1.290  -0.567   1.682  1.00  0.00    -0.120 NA
ENDBRANCH   9  11
ENDBRANCH   8   9
BRANCH   8  17
ATOM     17  C   UNL     1       2.997   3.438   1.393  1.00  0.00     0.026 C 
BRANCH  17  18
ATOM     18  C   UNL     1       3.732   4.743   1.101  1.00  0.00     0.002 CG0
ATOM     19  G   UNL     1       3.005   5.619   0.083  1.00  0.00     0.000 G0
ENDBRANCH  17  18
ENDBRANCH   8  17
ENDBRANCH   7   8
BRANCH   7  20
ATOM     20  C   UNL     1       2.406   3.656  -1.510  1.00  0.00     0.015 C 
BRANCH  20  21
ATOM     21  C   UNL     1       2.951   5.086  -1.348  1.00  0.00     0.001 C 
BRANCH  21  22
ATOM     22  C   UNL     1       3.005   5.619   0.083  1.00  0.00     0.000 CG0
ATOM     23  G   UNL     1       3.732   4.743   1.101  1.00  0.00     0.000 G0
ENDBRANCH  21  22
ENDBRANCH  20  21
ENDBRANCH   7  20
ENDBRANCH   4   7
ENDBRANCH   2   3
ENDBRANCH   1   2
BRANCH   1  24
ATOM     24  C   UNL     1       0.501  -1.936  -2.586  1.00  0.00     0.118 C 
BRANCH  24  25
ATOM     25  N   UNL     1       0.932  -2.816  -1.504  1.00  0.00    -0.352 N 
ATOM     26  C   UNL     1       0.325  -3.786  -0.736  1.00  0.00     0.251 C 
ATOM     27  H   UNL     1       1.879  -2.686  -1.268  1.00  0.00     0.163 HD
ATOM     28  O   UNL     1       1.026  -4.410   0.056  1.00  0.00    -0.269 OA
BRANCH  26  29
ATOM     29  C   UNL     1      -1.129  -4.093  -0.802  1.00  0.00     0.039 A 
ATOM     30  C   UNL     1      -1.760  -4.610   0.339  1.00  0.00     0.014 A 
ATOM     31  C   UNL     1      -1.886  -3.931  -1.955  1.00  0.00     0.014 A 
ATOM     32  C   UNL     1      -3.135  -4.887   0.329  1.00  0.00     0.010 A 
ATOM     33  C   UNL     1      -3.272  -4.047  -1.918  1.00  0.00     0.010 A 
ATOM     34  C   UNL     1      -3.917  -4.559  -0.788  1.00  0.00    -0.014 A 
BRANCH  34  35
ATOM     35  C   UNL     1      -5.390  -4.775  -0.829  1.00  0.00     0.031 A 
ATOM     36  C   UNL     1      -6.007  -5.605  -1.933  1.00  0.00     0.074 A 
ATOM     37  C   UNL     1      -6.186  -4.161   0.070  1.00  0.00     0.049 A 
ATOM     38  N   UNL     1      -7.271  -5.819  -2.201  1.00  0.00    -0.248 NA
ATOM     39  C   UNL     1      -5.085  -6.244  -2.890  1.00  0.00     0.031 C 
ATOM     40  C   UNL     1      -5.730  -3.287   1.154  1.00  0.00     0.029 A 
ATOM     41  N   UNL     1      -7.552  -4.173   0.212  1.00  0.00    -0.354 N 
ATOM     42  C   UNL     1      -7.290  -6.580  -3.366  1.00  0.00     0.074 A 
ATOM     43  C   UNL     1      -5.919  -6.731  -3.795  1.00  0.00     0.031 C 
ATOM     44  C   UNL     1      -6.789  -2.885   1.874  1.00  0.00     0.029 A 
ATOM     45  C   UNL     1      -8.004  -3.427   1.276  1.00  0.00     0.049 A 
ATOM     46  H   UNL     1      -8.151  -4.670  -0.390  1.00  0.00     0.167 HD
ATOM     47  C   UNL     1      -8.348  -7.132  -4.008  1.00  0.00     0.031 A 
ATOM     48  C   UNL     1      -9.256  -3.200   1.721  1.00  0.00     0.031 A 
ATOM     49  C   UNL     1      -9.709  -7.016  -3.558  1.00  0.00     0.049 A 
ATOM     50  C   UNL     1     -10.414  -3.838   1.004  1.00  0.00     0.074 A 
ATOM     51  C   UNL     1     -10.844  -7.598  -4.092  1.00  0.00     0.029 A 
ATOM     52  N   UNL     1     -10.117  -6.274  -2.460  1.00  0.00    -0.354 N 
ATOM     53  N   UNL     1     -10.403  -4.608  -0.059  1.00  0.00    -0.248 NA
ATOM     54  C   UNL     1     -11.752  -3.589   1.555  1.00  0.00     0.031 C 
ATOM     55  C   UNL     1     -11.947  -7.162  -3.352  1.00  0.00     0.029 A 
ATOM     56  C   UNL     1     -11.491  -6.363  -2.315  1.00  0.00     0.049 A 
ATOM     57  H   UNL     1      -9.519  -5.759  -1.872  1.00  0.00     0.167 HD
ATOM     58  C   UNL     1     -11.729  -4.959  -0.285  1.00  0.00     0.074 A 
ATOM     59  C   UNL     1     -12.511  -4.333   0.762  1.00  0.00     0.031 C 
ATOM     60  C   UNL     1     -12.254  -5.731  -1.269  1.00  0.00     0.031 A 
BRANCH  47  61
ATOM     61  C   UNL     1      -8.072  -7.921  -5.265  1.00  0.00    -0.014 A 
ATOM     62  C   UNL     1      -7.376  -9.144  -5.223  1.00  0.00     0.010 A 
ATOM     63  C   UNL     1      -8.552  -7.454  -6.503  1.00  0.00     0.010 A 
ATOM     64  C   UNL     1      -7.124  -9.858  -6.398  1.00  0.00     0.020 A 
ATOM     65  C   UNL     1      -8.332  -8.183  -7.676  1.00  0.00     0.020 A 
ATOM     66  C   UNL     1      -7.603  -9.373  -7.617  1.00  0.00     0.054 A 
BRANCH  66  67
ATOM     67  S   UNL     1      -7.285 -10.336  -9.121  1.00  0.00     0.124 S 
ATOM     68  O   UNL     1      -5.852 -10.127  -9.314  1.00  0.00    -0.237 OA
ATOM     69  O   UNL     1      -7.674 -11.687  -8.723  1.00  0.00    -0.237 OA
ATOM     70  O   UNL     1      -8.145  -9.712 -10.123  1.00  0.00    -0.744 OA
ENDBRANCH  66  67
ENDBRANCH  47  61
BRANCH  48  71
ATOM     71  C   UNL     1      -9.475  -2.346   2.922  1.00  0.00    -0.014 A 
ATOM     72  C   UNL     1      -9.923  -2.913   4.129  1.00  0.00     0.010 A 
ATOM     73  C   UNL     1      -9.224  -0.963   2.870  1.00  0.00     0.010 A 
ATOM     74  C   UNL     1     -10.137  -2.111   5.254  1.00  0.00     0.020 A 
ATOM     75  C   UNL     1      -9.406  -0.162   4.002  1.00  0.00     0.020 A 
ATOM     76  C   UNL     1      -9.874  -0.740   5.183  1.00  0.00     0.054 A 
BRANCH  76  77
ATOM     77  S   UNL     1     -10.113   0.275   6.669  1.00  0.00     0.124 S 
ATOM     78  O   UNL     1     -11.567   0.327   6.770  1.00  0.00    -0.237 OA
ATOM     79  O   UNL     1      -9.433  -0.509   7.697  1.00  0.00    -0.237 OA
ATOM     80  O   UNL     1      -9.462   1.538   6.327  1.00  0.00    -0.744 OA
ENDBRANCH  76  77
ENDBRANCH  48  71
BRANCH  60  81
ATOM     81  C   UNL     1     -13.740  -5.973  -1.240  1.00  0.00    -0.014 A 
ATOM     82  C   UNL     1     -14.656  -4.947  -1.532  1.00  0.00     0.010 A 
ATOM     83  C   UNL     1     -14.224  -7.264  -0.956  1.00  0.00     0.010 A 
ATOM     84  C   UNL     1     -16.030  -5.196  -1.497  1.00  0.00     0.020 A 
ATOM     85  C   UNL     1     -15.596  -7.525  -0.953  1.00  0.00     0.020 A 
ATOM     86  C   UNL     1     -16.491  -6.484  -1.205  1.00  0.00     0.054 A 
BRANCH  86  87
ATOM     87  S   UNL     1     -18.279  -6.788  -1.193  1.00  0.00     0.124 S 
ATOM     88  O   UNL     1     -18.692  -6.118   0.037  1.00  0.00    -0.237 OA
ATOM     89  O   UNL     1     -18.720  -6.153  -2.433  1.00  0.00    -0.237 OA
ATOM     90  O   UNL     1     -18.383  -8.245  -1.174  1.00  0.00    -0.744 OA
ENDBRANCH  86  87
ENDBRANCH  60  81
ENDBRANCH  34  35
ENDBRANCH  26  29
ENDBRANCH  24  25
ENDBRANCH   1  24
TORSDOF 15
