REMARK SMILES O=C(Cn1c(=O)c2c3c(sc2n(Cc2ccc(Cl)cc2Cl)c1=O)CCCC3)NCCCNC(=O)c1ccc(-c2c3nc(c(-c4ccc(S(=O)(=O)[O-])cc4)c4ccc([nH]4)c(-c4ccc(S(=O)(=O)[O-])cc4)c4nc(c(-c5ccc(S(=O)(=O)[O-])cc5)c5ccc2[nH]5)C=C4)C=C3)cc1
REMARK SMILES IDX 30 1 29 2 28 3 1 4 2 5 3 7 4 8 5 9 22 10 6 11 7 12 12 13
REMARK SMILES IDX 23 14 8 15 11 16 9 17 27 18 10 19 24 20 26 21 25 22 13 23
REMARK SMILES IDX 14 24 15 25 20 26 16 27 19 28 21 29 17 30 18 31 31 32 32 33
REMARK SMILES IDX 33 34 34 36 35 37 36 38 94 39 37 40 93 41 38 42 39 43 40 44
REMARK SMILES IDX 87 45 41 46 92 47 86 48 88 49 42 50 91 51 85 52 84 53 43 55
REMARK SMILES IDX 73 56 54 57 72 58 55 59 58 60 71 61 89 62 56 63 57 64 70 66
REMARK SMILES IDX 90 67 59 68 44 69 45 70 53 71 46 72 52 73 47 74 48 75 49 76
REMARK SMILES IDX 50 77 51 78 74 79 75 80 83 81 76 82 82 83 77 84 78 85 79 86
REMARK SMILES IDX 80 87 81 88 60 89 61 90 69 91 62 92 68 93 63 94 64 95 65 96
REMARK SMILES IDX 66 97 67 98
REMARK H PARENT 28 6 32 35 88 54 58 65
REMARK Flexibility Score: inf
ROOT
ATOM      1  C   UNL     1       3.070   2.684  -2.661  1.00  0.00     0.042 C 
ENDROOT
BRANCH   1   2
ATOM      2  C   UNL     1       2.762   1.210  -2.347  1.00  0.00     0.117 C 
BRANCH   2   3
ATOM      3  N   UNL     1       3.285   0.757  -1.067  1.00  0.00    -0.354 N 
ATOM      4  O   UNL     1       1.267   0.062  -0.204  1.00  0.00    -0.273 OA
ATOM      5  C   UNL     1       2.484   0.190  -0.089  1.00  0.00     0.240 C 
ATOM      6  H   UNL     1       4.247   0.858  -0.888  1.00  0.00     0.163 HD
BRANCH   5   7
ATOM      7  C   UNL     1       3.238  -0.316   1.149  1.00  0.00     0.230 C 
BRANCH   7   8
ATOM      8  N   UNL     1       3.918  -1.571   0.830  1.00  0.00    -0.250 N 
ATOM      9  C   UNL     1       3.241  -2.755   1.131  1.00  0.00     0.265 A 
ATOM     10  C   UNL     1       5.201  -1.476   0.264  1.00  0.00     0.332 A 
ATOM     11  O   UNL     1       2.180  -2.805   1.763  1.00  0.00    -0.268 OA
ATOM     12  C   UNL     1       3.891  -3.952   0.657  1.00  0.00     0.079 A 
ATOM     13  N   UNL     1       5.840  -2.660  -0.118  1.00  0.00    -0.280 N 
ATOM     14  O   UNL     1       5.722  -0.370   0.086  1.00  0.00    -0.247 OA
ATOM     15  C   UNL     1       3.502  -5.339   0.769  1.00  0.00    -0.019 A 
ATOM     16  C   UNL     1       5.107  -3.830   0.030  1.00  0.00     0.113 A 
ATOM     17  C   UNL     1       4.451  -6.161   0.191  1.00  0.00     0.011 A 
ATOM     18  C   UNL     1       2.301  -5.919   1.461  1.00  0.00     0.037 C 
ATOM     19  S   UNL     1       5.630  -5.286  -0.633  1.00  0.00    -0.122 S 
ATOM     20  C   UNL     1       4.470  -7.654   0.204  1.00  0.00     0.047 C 
ATOM     21  C   UNL     1       2.120  -7.414   1.118  1.00  0.00     0.005 C 
ATOM     22  C   UNL     1       3.444  -8.187   1.209  1.00  0.00     0.006 C 
BRANCH  13  23
ATOM     23  C   UNL     1       7.226  -2.595  -0.663  1.00  0.00     0.165 C 
BRANCH  23  24
ATOM     24  C   UNL     1       8.290  -3.109   0.303  1.00  0.00    -0.009 A 
ATOM     25  C   UNL     1       8.707  -2.271   1.355  1.00  0.00     0.008 A 
ATOM     26  C   UNL     1       8.885  -4.383   0.221  1.00  0.00     0.047 A 
ATOM     27  C   UNL     1       9.599  -2.728   2.334  1.00  0.00     0.021 A 
ATOM     28  C   UNL     1       9.684  -4.878   1.258  1.00  0.00     0.041 A 
ATOM     29  Cl  UNL     1       8.825  -5.364  -1.204  1.00  0.00    -0.084 Cl
ATOM     30  C   UNL     1      10.035  -4.048   2.312  1.00  0.00     0.042 A 
ATOM     31  Cl  UNL     1      11.051  -4.646   3.565  1.00  0.00    -0.084 Cl
ENDBRANCH  23  24
ENDBRANCH  13  23
ENDBRANCH   7   8
ENDBRANCH   5   7
ENDBRANCH   2   3
ENDBRANCH   1   2
BRANCH   1  32
ATOM     32  C   UNL     1       4.517   2.999  -3.100  1.00  0.00     0.118 C 
BRANCH  32  33
ATOM     33  N   UNL     1       4.815   2.424  -4.405  1.00  0.00    -0.352 N 
ATOM     34  C   UNL     1       5.450   2.870  -5.536  1.00  0.00     0.251 C 
ATOM     35  H   UNL     1       4.484   1.502  -4.496  1.00  0.00     0.163 HD
ATOM     36  O   UNL     1       5.304   2.172  -6.544  1.00  0.00    -0.269 OA
BRANCH  34  37
ATOM     37  C   UNL     1       6.290   4.095  -5.654  1.00  0.00     0.039 A 
ATOM     38  C   UNL     1       6.326   4.721  -6.917  1.00  0.00     0.014 A 
ATOM     39  C   UNL     1       7.166   4.550  -4.671  1.00  0.00     0.014 A 
ATOM     40  C   UNL     1       7.180   5.803  -7.189  1.00  0.00     0.010 A 
ATOM     41  C   UNL     1       8.031   5.633  -4.950  1.00  0.00     0.010 A 
ATOM     42  C   UNL     1       8.032   6.295  -6.201  1.00  0.00    -0.014 A 
BRANCH  42  43
ATOM     43  C   UNL     1       8.704   7.615  -6.431  1.00  0.00     0.031 A 
ATOM     44  C   UNL     1       8.530   8.557  -5.293  1.00  0.00     0.074 A 
ATOM     45  C   UNL     1       9.795   7.870  -7.200  1.00  0.00     0.049 A 
ATOM     46  N   UNL     1       9.284   8.416  -4.248  1.00  0.00    -0.248 NA
ATOM     47  C   UNL     1       7.419   9.478  -5.089  1.00  0.00     0.031 C 
ATOM     48  C   UNL     1      10.781   6.859  -7.595  1.00  0.00     0.029 A 
ATOM     49  N   UNL     1      10.378   9.070  -7.591  1.00  0.00    -0.354 N 
ATOM     50  C   UNL     1       8.746   9.164  -3.225  1.00  0.00     0.074 A 
ATOM     51  C   UNL     1       7.596   9.828  -3.799  1.00  0.00     0.031 C 
ATOM     52  C   UNL     1      11.899   7.484  -8.027  1.00  0.00     0.029 A 
ATOM     53  C   UNL     1      11.671   8.930  -8.098  1.00  0.00     0.049 A 
ATOM     54  H   UNL     1       9.921   9.939  -7.517  1.00  0.00     0.167 HD
ATOM     55  C   UNL     1       9.332   9.167  -1.996  1.00  0.00     0.031 A 
ATOM     56  C   UNL     1      12.676   9.852  -8.056  1.00  0.00     0.031 A 
ATOM     57  C   UNL     1      10.569   8.415  -1.859  1.00  0.00     0.049 A 
ATOM     58  C   UNL     1      13.068   9.868  -6.606  1.00  0.00     0.074 A 
ATOM     59  C   UNL     1      11.240   7.657  -0.920  1.00  0.00     0.029 A 
ATOM     60  N   UNL     1      11.388   8.413  -2.953  1.00  0.00    -0.354 N 
ATOM     61  N   UNL     1      13.841   9.006  -6.004  1.00  0.00    -0.248 NA
ATOM     62  C   UNL     1      12.374  10.805  -5.706  1.00  0.00     0.031 C 
ATOM     63  C   UNL     1      12.535   7.342  -1.464  1.00  0.00     0.029 A 
ATOM     64  C   UNL     1      12.648   7.966  -2.695  1.00  0.00     0.049 A 
ATOM     65  H   UNL     1      11.095   8.708  -3.845  1.00  0.00     0.167 HD
ATOM     66  C   UNL     1      13.501   9.108  -4.663  1.00  0.00     0.074 A 
ATOM     67  C   UNL     1      12.727  10.326  -4.519  1.00  0.00     0.031 C 
ATOM     68  C   UNL     1      13.597   8.077  -3.776  1.00  0.00     0.031 A 
BRANCH  55  69
ATOM     69  C   UNL     1       8.934  10.096  -0.911  1.00  0.00    -0.014 A 
ATOM     70  C   UNL     1       9.753  11.225  -0.712  1.00  0.00     0.010 A 
ATOM     71  C   UNL     1       7.912   9.823   0.007  1.00  0.00     0.010 A 
ATOM     72  C   UNL     1       9.580  12.052   0.397  1.00  0.00     0.020 A 
ATOM     73  C   UNL     1       7.732  10.654   1.124  1.00  0.00     0.020 A 
ATOM     74  C   UNL     1       8.576  11.754   1.317  1.00  0.00     0.054 A 
BRANCH  74  75
ATOM     75  S   UNL     1       8.436  12.804   2.792  1.00  0.00     0.124 S 
ATOM     76  O   UNL     1       9.743  12.638   3.420  1.00  0.00    -0.237 OA
ATOM     77  O   UNL     1       8.177  14.119   2.211  1.00  0.00    -0.237 OA
ATOM     78  O   UNL     1       7.316  12.219   3.526  1.00  0.00    -0.744 OA
ENDBRANCH  74  75
ENDBRANCH  55  69
BRANCH  56  79
ATOM     79  C   UNL     1      12.595  11.123  -8.853  1.00  0.00    -0.014 A 
ATOM     80  C   UNL     1      12.229  11.059 -10.214  1.00  0.00     0.010 A 
ATOM     81  C   UNL     1      12.947  12.392  -8.351  1.00  0.00     0.010 A 
ATOM     82  C   UNL     1      12.076  12.220 -10.988  1.00  0.00     0.020 A 
ATOM     83  C   UNL     1      12.761  13.562  -9.102  1.00  0.00     0.020 A 
ATOM     84  C   UNL     1      12.296  13.470 -10.410  1.00  0.00     0.054 A 
BRANCH  84  85
ATOM     85  S   UNL     1      11.887  14.963 -11.357  1.00  0.00     0.124 S 
ATOM     86  O   UNL     1      12.883  14.942 -12.423  1.00  0.00    -0.237 OA
ATOM     87  O   UNL     1      10.512  14.696 -11.773  1.00  0.00    -0.237 OA
ATOM     88  O   UNL     1      12.036  16.042 -10.383  1.00  0.00    -0.744 OA
ENDBRANCH  84  85
ENDBRANCH  56  79
BRANCH  68  89
ATOM     89  C   UNL     1      14.594   7.014  -4.063  1.00  0.00    -0.014 A 
ATOM     90  C   UNL     1      15.946   7.375  -4.199  1.00  0.00     0.010 A 
ATOM     91  C   UNL     1      14.235   5.659  -4.112  1.00  0.00     0.010 A 
ATOM     92  C   UNL     1      16.929   6.401  -4.347  1.00  0.00     0.020 A 
ATOM     93  C   UNL     1      15.219   4.676  -4.259  1.00  0.00     0.020 A 
ATOM     94  C   UNL     1      16.561   5.055  -4.358  1.00  0.00     0.054 A 
BRANCH  94  95
ATOM     95  S   UNL     1      17.877   3.813  -4.432  1.00  0.00     0.124 S 
ATOM     96  O   UNL     1      18.494   4.083  -5.728  1.00  0.00    -0.237 OA
ATOM     97  O   UNL     1      18.691   4.152  -3.266  1.00  0.00    -0.237 OA
ATOM     98  O   UNL     1      17.163   2.541  -4.336  1.00  0.00    -0.744 OA
ENDBRANCH  94  95
ENDBRANCH  68  89
ENDBRANCH  42  43
ENDBRANCH  34  37
ENDBRANCH  32  33
ENDBRANCH   1  32
TORSDOF 16
