REMARK SMILES CC(C)(C)OC(=O)Nc1ccc(-c2cccc(Cl)c2C(=O)NCCCNC(=O)c2ccc(-c3c4nc(c(-c5ccc(S(=O)(=O)[O-])cc5)c5ccc([nH]5)c(-c5ccc(S(=O)(=O)[O-])cc5)c5nc(c(-c6ccc(S(=O)(=O)[O-])cc6)c6ccc3[nH]6)C=C5)C=C4)cc2)cc1
REMARK SMILES IDX 23 1 22 2 20 3 21 4 19 6 13 7 14 8 15 9 17 10 16 11 18 12
REMARK SMILES IDX 12 13 9 14 10 15 90 16 11 17 89 18 8 19 6 20 7 21 5 23 2 24
REMARK SMILES IDX 1 25 3 26 4 27 24 28 25 29 26 30 27 31 28 33 29 34 30 35
REMARK SMILES IDX 88 36 31 37 87 38 32 39 33 40 34 41 81 42 35 43 86 44 80 45
REMARK SMILES IDX 82 46 36 47 85 48 79 49 78 50 37 52 67 53 48 54 66 55 49 56
REMARK SMILES IDX 52 57 65 58 83 59 50 60 51 61 64 63 84 64 53 65 38 66 39 67
REMARK SMILES IDX 47 68 40 69 46 70 41 71 42 72 43 73 44 74 45 75 68 76 69 77
REMARK SMILES IDX 77 78 70 79 76 80 71 81 72 82 73 83 74 84 75 85 54 86 55 87
REMARK SMILES IDX 63 88 56 89 62 90 57 91 58 92 59 93 60 94 61 95
REMARK H PARENT 22 5 8 22 26 32 82 51 52 62
REMARK Flexibility Score: inf
ROOT
ATOM      1  C   UNL     1       5.276   2.977   4.233  1.00  0.00     0.118 C 
ENDROOT
BRANCH   1   2
ATOM      2  N   UNL     1       6.314   2.735   5.204  1.00  0.00    -0.352 N 
ATOM      3  C   UNL     1       6.574   1.467   5.668  1.00  0.00     0.253 C 
ATOM      4  O   UNL     1       7.553   0.876   5.212  1.00  0.00    -0.269 OA
ATOM      5  H   UNL     1       6.847   3.491   5.541  1.00  0.00     0.163 HD
BRANCH   3   6
ATOM      6  C   UNL     1       5.846   0.891   6.844  1.00  0.00     0.066 A 
ATOM      7  C   UNL     1       4.464   0.554   6.911  1.00  0.00    -0.004 A 
ATOM      8  C   UNL     1       4.020  -0.237   8.000  1.00  0.00     0.009 A 
ATOM      9  C   UNL     1       4.874  -0.661   9.011  1.00  0.00     0.002 A 
ATOM     10  C   UNL     1       6.682   0.511   7.926  1.00  0.00     0.054 A 
ATOM     11  C   UNL     1       6.199  -0.265   8.986  1.00  0.00     0.021 A 
ATOM     12  Cl  UNL     1       8.335   1.033   8.094  1.00  0.00    -0.083 Cl
BRANCH   7  13
ATOM     13  C   UNL     1       3.384   1.007   6.017  1.00  0.00    -0.017 A 
ATOM     14  C   UNL     1       1.385   2.085   4.302  1.00  0.00     0.044 A 
ATOM     15  C   UNL     1       1.532   2.553   5.612  1.00  0.00     0.027 A 
ATOM     16  C   UNL     1       2.154   0.987   3.905  1.00  0.00     0.027 A 
ATOM     17  C   UNL     1       2.524   2.031   6.451  1.00  0.00     0.011 A 
ATOM     18  C   UNL     1       3.123   0.430   4.767  1.00  0.00     0.011 A 
BRANCH  14  19
ATOM     19  N   UNL     1       0.508   2.817   3.480  1.00  0.00    -0.291 N 
ATOM     20  C   UNL     1       0.149   2.695   2.166  1.00  0.00     0.412 C 
ATOM     21  O   UNL     1      -0.628   3.511   1.669  1.00  0.00    -0.224 OA
ATOM     22  H   UNL     1       0.065   3.565   3.942  1.00  0.00     0.173 HD
BRANCH  20  23
ATOM     23  O   UNL     1       0.659   1.626   1.523  1.00  0.00    -0.444 OA
BRANCH  23  24
ATOM     24  C   UNL     1       0.204   1.250   0.198  1.00  0.00     0.106 C 
ATOM     25  C   UNL     1       0.836  -0.131  -0.023  1.00  0.00     0.056 C 
ATOM     26  C   UNL     1       0.714   2.200  -0.887  1.00  0.00     0.056 C 
ATOM     27  C   UNL     1      -1.322   1.112   0.139  1.00  0.00     0.056 C 
ENDBRANCH  23  24
ENDBRANCH  20  23
ENDBRANCH  14  19
ENDBRANCH   7  13
ENDBRANCH   3   6
ENDBRANCH   1   2
BRANCH   1  28
ATOM     28  C   UNL     1       4.580   4.305   4.424  1.00  0.00     0.042 C 
BRANCH  28  29
ATOM     29  C   UNL     1       4.562   5.146   3.163  1.00  0.00     0.118 C 
BRANCH  29  30
ATOM     30  N   UNL     1       4.068   4.463   1.972  1.00  0.00    -0.352 N 
ATOM     31  C   UNL     1       3.200   4.881   0.994  1.00  0.00     0.251 C 
ATOM     32  H   UNL     1       4.416   3.550   1.849  1.00  0.00     0.163 HD
ATOM     33  O   UNL     1       2.997   4.160   0.023  1.00  0.00    -0.269 OA
BRANCH  31  34
ATOM     34  C   UNL     1       2.481   6.161   1.128  1.00  0.00     0.039 A 
ATOM     35  C   UNL     1       1.124   6.214   0.796  1.00  0.00     0.014 A 
ATOM     36  C   UNL     1       3.125   7.296   1.613  1.00  0.00     0.014 A 
ATOM     37  C   UNL     1       0.396   7.376   1.043  1.00  0.00     0.010 A 
ATOM     38  C   UNL     1       2.380   8.404   1.978  1.00  0.00     0.010 A 
ATOM     39  C   UNL     1       1.013   8.463   1.675  1.00  0.00    -0.014 A 
BRANCH  39  40
ATOM     40  C   UNL     1       0.284   9.716   1.961  1.00  0.00     0.031 A 
ATOM     41  C   UNL     1       0.742  10.982   1.290  1.00  0.00     0.074 A 
ATOM     42  C   UNL     1      -0.710   9.725   2.869  1.00  0.00     0.049 A 
ATOM     43  N   UNL     1       0.341  12.209   1.485  1.00  0.00    -0.248 NA
ATOM     44  C   UNL     1       1.825  10.856   0.296  1.00  0.00     0.031 C 
ATOM     45  C   UNL     1      -1.207   8.555   3.599  1.00  0.00     0.029 A 
ATOM     46  N   UNL     1      -1.474  10.759   3.344  1.00  0.00    -0.354 N 
ATOM     47  C   UNL     1       1.139  12.997   0.664  1.00  0.00     0.074 A 
ATOM     48  C   UNL     1       2.085  12.122   0.014  1.00  0.00     0.031 C 
ATOM     49  C   UNL     1      -2.203   8.937   4.416  1.00  0.00     0.029 A 
ATOM     50  C   UNL     1      -2.384  10.380   4.302  1.00  0.00     0.049 A 
ATOM     51  H   UNL     1      -1.379  11.687   3.029  1.00  0.00     0.167 HD
ATOM     52  C   UNL     1       1.071  14.330   0.455  1.00  0.00     0.031 A 
ATOM     53  C   UNL     1      -3.255  11.120   5.015  1.00  0.00     0.031 A 
ATOM     54  C   UNL     1       0.101  15.180   1.089  1.00  0.00     0.049 A 
ATOM     55  C   UNL     1      -3.310  12.604   4.761  1.00  0.00     0.074 A 
ATOM     56  C   UNL     1      -0.105  16.534   0.902  1.00  0.00     0.029 A 
ATOM     57  N   UNL     1      -0.825  14.755   2.029  1.00  0.00    -0.354 N 
ATOM     58  N   UNL     1      -2.595  13.325   3.928  1.00  0.00    -0.248 NA
ATOM     59  C   UNL     1      -4.297  13.372   5.530  1.00  0.00     0.031 C 
ATOM     60  C   UNL     1      -1.115  16.941   1.778  1.00  0.00     0.029 A 
ATOM     61  C   UNL     1      -1.586  15.827   2.457  1.00  0.00     0.049 A 
ATOM     62  H   UNL     1      -0.925  13.828   2.345  1.00  0.00     0.167 HD
ATOM     63  C   UNL     1      -3.067  14.627   4.053  1.00  0.00     0.074 A 
ATOM     64  C   UNL     1      -4.141  14.588   5.024  1.00  0.00     0.031 C 
ATOM     65  C   UNL     1      -2.651  15.755   3.424  1.00  0.00     0.031 A 
BRANCH  52  66
ATOM     66  C   UNL     1       2.069  14.947  -0.487  1.00  0.00    -0.014 A 
ATOM     67  C   UNL     1       2.025  14.693  -1.870  1.00  0.00     0.010 A 
ATOM     68  C   UNL     1       3.034  15.839   0.015  1.00  0.00     0.010 A 
ATOM     69  C   UNL     1       2.942  15.301  -2.730  1.00  0.00     0.020 A 
ATOM     70  C   UNL     1       3.933  16.474  -0.847  1.00  0.00     0.020 A 
ATOM     71  C   UNL     1       3.887  16.193  -2.213  1.00  0.00     0.054 A 
BRANCH  71  72
ATOM     72  S   UNL     1       5.021  17.017  -3.363  1.00  0.00     0.124 S 
ATOM     73  O   UNL     1       5.889  15.915  -3.773  1.00  0.00    -0.237 OA
ATOM     74  O   UNL     1       4.118  17.522  -4.394  1.00  0.00    -0.237 OA
ATOM     75  O   UNL     1       5.663  18.041  -2.544  1.00  0.00    -0.744 OA
ENDBRANCH  71  72
ENDBRANCH  52  66
BRANCH  53  76
ATOM     76  C   UNL     1      -4.134  10.479   6.033  1.00  0.00    -0.014 A 
ATOM     77  C   UNL     1      -5.527  10.424   5.851  1.00  0.00     0.010 A 
ATOM     78  C   UNL     1      -3.579   9.929   7.204  1.00  0.00     0.010 A 
ATOM     79  C   UNL     1      -6.351   9.863   6.834  1.00  0.00     0.020 A 
ATOM     80  C   UNL     1      -4.395   9.337   8.172  1.00  0.00     0.020 A 
ATOM     81  C   UNL     1      -5.778   9.324   7.989  1.00  0.00     0.054 A 
BRANCH  81  82
ATOM     82  S   UNL     1      -6.862   8.580   9.240  1.00  0.00     0.124 S 
ATOM     83  O   UNL     1      -7.507   9.754   9.819  1.00  0.00    -0.237 OA
ATOM     84  O   UNL     1      -7.723   7.715   8.437  1.00  0.00    -0.237 OA
ATOM     85  O   UNL     1      -5.933   7.877  10.122  1.00  0.00    -0.744 OA
ENDBRANCH  81  82
ENDBRANCH  53  76
BRANCH  65  86
ATOM     86  C   UNL     1      -3.385  17.030   3.740  1.00  0.00    -0.014 A 
ATOM     87  C   UNL     1      -3.249  17.661   4.988  1.00  0.00     0.010 A 
ATOM     88  C   UNL     1      -4.175  17.635   2.745  1.00  0.00     0.010 A 
ATOM     89  C   UNL     1      -3.923  18.856   5.249  1.00  0.00     0.020 A 
ATOM     90  C   UNL     1      -4.821  18.847   2.990  1.00  0.00     0.020 A 
ATOM     91  C   UNL     1      -4.704  19.442   4.247  1.00  0.00     0.054 A 
BRANCH  91  92
ATOM     92  S   UNL     1      -5.536  21.013   4.600  1.00  0.00     0.124 S 
ATOM     93  O   UNL     1      -6.596  20.596   5.514  1.00  0.00    -0.237 OA
ATOM     94  O   UNL     1      -4.469  21.812   5.196  1.00  0.00    -0.237 OA
ATOM     95  O   UNL     1      -5.989  21.468   3.287  1.00  0.00    -0.744 OA
ENDBRANCH  91  92
ENDBRANCH  65  86
ENDBRANCH  39  40
ENDBRANCH  31  34
ENDBRANCH  29  30
ENDBRANCH  28  29
ENDBRANCH   1  28
TORSDOF 17
