REMARK SMILES COCC1CCN(C(=O)NC[C@H]2CC[C@H](C(=O)NCCCNC(=O)c3ccc(-c4c5nc(c(-c6ccc(S(=O)(=O)[O-])cc6)c6ccc([nH]6)c(-c6ccc(S(=O)(=O)[O-])cc6)c6nc(c(-c7ccc(S(=O)(=O)[O-])cc7)c7ccc4[nH]7)C=C6)C=C5)cc3)O2)CC1
REMARK SMILES IDX 19 1 18 2 16 3 17 4 15 6 12 7 13 8 85 9 14 10 11 11 10 12
REMARK SMILES IDX 4 13 5 14 87 15 6 16 86 17 7 18 8 19 9 20 3 22 2 23 1 24
REMARK SMILES IDX 20 25 21 26 22 27 23 28 24 30 25 31 26 32 84 33 27 34 83 35
REMARK SMILES IDX 28 36 29 37 30 38 77 39 31 40 82 41 76 42 78 43 32 44 81 45
REMARK SMILES IDX 75 46 74 47 33 49 63 50 44 51 62 52 45 53 48 54 61 55 79 56
REMARK SMILES IDX 46 57 47 58 60 60 80 61 49 62 34 63 35 64 43 65 36 66 42 67
REMARK SMILES IDX 37 68 38 69 39 70 40 71 41 72 64 73 65 74 73 75 66 76 72 77
REMARK SMILES IDX 67 78 68 79 69 80 70 81 71 82 50 83 51 84 59 85 52 86 58 87
REMARK SMILES IDX 53 88 54 89 55 90 56 91 57 92
REMARK H PARENT 18 5 10 21 22 29 78 48 48 59
REMARK Flexibility Score: inf
ROOT
ATOM      1  C   UNL     1       0.728   6.059  -1.359  1.00  0.00     0.117 C 
ENDROOT
BRANCH   1   2
ATOM      2  N   UNL     1       1.770   6.622  -0.524  1.00  0.00    -0.354 N 
ATOM      3  C   UNL     1       2.007   6.482   0.810  1.00  0.00     0.249 C 
ATOM      4  O   UNL     1       3.003   7.055   1.266  1.00  0.00    -0.272 OA
ATOM      5  H   UNL     1       2.412   7.199  -0.999  1.00  0.00     0.163 HD
BRANCH   3   6
ATOM      6  C   UNL     1       1.050   5.714   1.755  1.00  0.00     0.207 C 
ATOM      7  C   UNL     1      -0.839   4.361   1.444  1.00  0.00     0.138 C 
ATOM      8  C   UNL     1      -1.336   5.792   1.553  1.00  0.00     0.037 C 
ATOM      9  O   UNL     1       0.594   4.426   1.343  1.00  0.00    -0.363 OA
ATOM     10  C   UNL     1      -0.167   6.542   2.138  1.00  0.00     0.045 C 
BRANCH   7  11
ATOM     11  C   UNL     1      -1.268   3.505   2.646  1.00  0.00     0.149 C 
BRANCH  11  12
ATOM     12  N   UNL     1      -2.689   3.199   2.604  1.00  0.00    -0.335 N 
ATOM     13  C   UNL     1      -2.279  -1.512   1.228  1.00  0.00     0.018 C 
ATOM     14  C   UNL     1      -3.747  -1.051   1.388  1.00  0.00     0.027 C 
ATOM     15  C   UNL     1      -1.324  -0.370   1.620  1.00  0.00     0.027 C 
ATOM     16  C   UNL     1      -4.012   0.311   0.729  1.00  0.00     0.121 C 
ATOM     17  C   UNL     1      -1.667   0.914   0.871  1.00  0.00     0.121 C 
ATOM     18  N   UNL     1      -3.032   1.298   1.196  1.00  0.00    -0.325 N 
ATOM     19  C   UNL     1      -3.487   2.314   1.985  1.00  0.00     0.317 C 
ATOM     20  O   UNL     1      -4.691   2.480   2.199  1.00  0.00    -0.249 OA
ATOM     21  H   UNL     1      -3.204   3.803   3.185  1.00  0.00     0.165 HD
BRANCH  13  22
ATOM     22  C   UNL     1      -2.052  -2.080  -0.187  1.00  0.00     0.163 C 
BRANCH  22  23
ATOM     23  O   UNL     1      -0.676  -2.278  -0.503  1.00  0.00    -0.384 OA
ATOM     24  C   UNL     1      -0.143  -1.300  -1.391  1.00  0.00     0.194 C 
ENDBRANCH  22  23
ENDBRANCH  13  22
ENDBRANCH  11  12
ENDBRANCH   7  11
ENDBRANCH   3   6
ENDBRANCH   1   2
BRANCH   1  25
ATOM     25  C   UNL     1      -0.380   7.064  -1.658  1.00  0.00     0.042 C 
BRANCH  25  26
ATOM     26  C   UNL     1      -0.023   8.095  -2.722  1.00  0.00     0.118 C 
BRANCH  26  27
ATOM     27  N   UNL     1       0.107   7.504  -4.046  1.00  0.00    -0.352 N 
ATOM     28  C   UNL     1      -0.608   7.727  -5.194  1.00  0.00     0.251 C 
ATOM     29  H   UNL     1       0.825   6.835  -4.130  1.00  0.00     0.163 HD
ATOM     30  O   UNL     1      -0.458   6.955  -6.145  1.00  0.00    -0.269 OA
BRANCH  28  31
ATOM     31  C   UNL     1      -1.556   8.858  -5.309  1.00  0.00     0.039 A 
ATOM     32  C   UNL     1      -2.744   8.671  -6.025  1.00  0.00     0.014 A 
ATOM     33  C   UNL     1      -1.266  10.114  -4.771  1.00  0.00     0.014 A 
ATOM     34  C   UNL     1      -3.658   9.721  -6.152  1.00  0.00     0.010 A 
ATOM     35  C   UNL     1      -2.213  11.136  -4.830  1.00  0.00     0.010 A 
ATOM     36  C   UNL     1      -3.415  10.956  -5.529  1.00  0.00    -0.014 A 
BRANCH  36  37
ATOM     37  C   UNL     1      -4.396  12.070  -5.608  1.00  0.00     0.031 A 
ATOM     38  C   UNL     1      -4.022  13.363  -6.285  1.00  0.00     0.074 A 
ATOM     39  C   UNL     1      -5.597  11.945  -5.009  1.00  0.00     0.049 A 
ATOM     40  N   UNL     1      -4.711  14.471  -6.384  1.00  0.00    -0.248 NA
ATOM     41  C   UNL     1      -2.689  13.430  -6.909  1.00  0.00     0.031 C 
ATOM     42  C   UNL     1      -6.062  10.763  -4.280  1.00  0.00     0.029 A 
ATOM     43  N   UNL     1      -6.643  12.829  -4.905  1.00  0.00    -0.354 N 
ATOM     44  C   UNL     1      -3.889  15.372  -7.053  1.00  0.00     0.074 A 
ATOM     45  C   UNL     1      -2.636  14.695  -7.303  1.00  0.00     0.031 C 
ATOM     46  C   UNL     1      -7.304  10.989  -3.819  1.00  0.00     0.029 A 
ATOM     47  C   UNL     1      -7.709  12.342  -4.185  1.00  0.00     0.049 A 
ATOM     48  H   UNL     1      -6.631  13.727  -5.309  1.00  0.00     0.167 HD
ATOM     49  C   UNL     1      -4.158  16.643  -7.437  1.00  0.00     0.031 A 
ATOM     50  C   UNL     1      -8.876  12.922  -3.845  1.00  0.00     0.031 A 
ATOM     51  C   UNL     1      -5.416  17.303  -7.214  1.00  0.00     0.049 A 
ATOM     52  C   UNL     1      -9.159  14.326  -4.303  1.00  0.00     0.074 A 
ATOM     53  C   UNL     1      -5.812  18.562  -7.633  1.00  0.00     0.029 A 
ATOM     54  N   UNL     1      -6.482  16.761  -6.513  1.00  0.00    -0.354 N 
ATOM     55  N   UNL     1      -8.396  15.134  -5.000  1.00  0.00    -0.248 NA
ATOM     56  C   UNL     1     -10.466  14.893  -3.942  1.00  0.00     0.031 C 
ATOM     57  C   UNL     1      -7.100  18.800  -7.144  1.00  0.00     0.029 A 
ATOM     58  C   UNL     1      -7.527  17.668  -6.469  1.00  0.00     0.049 A 
ATOM     59  H   UNL     1      -6.495  15.864  -6.108  1.00  0.00     0.167 HD
ATOM     60  C   UNL     1      -9.140  16.294  -5.183  1.00  0.00     0.074 A 
ATOM     61  C   UNL     1     -10.419  16.077  -4.538  1.00  0.00     0.031 C 
ATOM     62  C   UNL     1      -8.796  17.436  -5.827  1.00  0.00     0.031 A 
BRANCH  49  63
ATOM     63  C   UNL     1      -3.069  17.411  -8.140  1.00  0.00    -0.014 A 
ATOM     64  C   UNL     1      -2.686  17.093  -9.456  1.00  0.00     0.010 A 
ATOM     65  C   UNL     1      -2.465  18.508  -7.498  1.00  0.00     0.010 A 
ATOM     66  C   UNL     1      -1.697  17.837 -10.104  1.00  0.00     0.020 A 
ATOM     67  C   UNL     1      -1.493  19.271  -8.153  1.00  0.00     0.020 A 
ATOM     68  C   UNL     1      -1.106  18.921  -9.448  1.00  0.00     0.054 A 
BRANCH  68  69
ATOM     69  S   UNL     1       0.147  19.893 -10.329  1.00  0.00     0.124 S 
ATOM     70  O   UNL     1       1.293  18.987 -10.317  1.00  0.00    -0.237 OA
ATOM     71  O   UNL     1      -0.471  20.105 -11.636  1.00  0.00    -0.237 OA
ATOM     72  O   UNL     1       0.294  21.094  -9.511  1.00  0.00    -0.744 OA
ENDBRANCH  68  69
ENDBRANCH  49  63
BRANCH  50  73
ATOM     73  C   UNL     1      -9.870  12.172  -3.027  1.00  0.00    -0.014 A 
ATOM     74  C   UNL     1     -11.075  11.726  -3.596  1.00  0.00     0.010 A 
ATOM     75  C   UNL     1      -9.611  11.899  -1.671  1.00  0.00     0.010 A 
ATOM     76  C   UNL     1     -12.015  11.043  -2.819  1.00  0.00     0.020 A 
ATOM     77  C   UNL     1     -10.536  11.192  -0.898  1.00  0.00     0.020 A 
ATOM     78  C   UNL     1     -11.740  10.781  -1.474  1.00  0.00     0.054 A 
BRANCH  78  79
ATOM     79  S   UNL     1     -12.957   9.860  -0.492  1.00  0.00     0.124 S 
ATOM     80  O   UNL     1     -13.987  10.868  -0.264  1.00  0.00    -0.237 OA
ATOM     81  O   UNL     1     -13.327   8.768  -1.390  1.00  0.00    -0.237 OA
ATOM     82  O   UNL     1     -12.203   9.454   0.691  1.00  0.00    -0.744 OA
ENDBRANCH  78  79
ENDBRANCH  50  73
BRANCH  62  83
ATOM     83  C   UNL     1      -9.828  18.529  -5.901  1.00  0.00    -0.014 A 
ATOM     84  C   UNL     1     -10.156  19.299  -4.772  1.00  0.00     0.010 A 
ATOM     85  C   UNL     1     -10.433  18.826  -7.136  1.00  0.00     0.010 A 
ATOM     86  C   UNL     1     -11.095  20.329  -4.870  1.00  0.00     0.020 A 
ATOM     87  C   UNL     1     -11.352  19.872  -7.243  1.00  0.00     0.020 A 
ATOM     88  C   UNL     1     -11.688  20.609  -6.106  1.00  0.00     0.054 A 
BRANCH  88  89
ATOM     89  S   UNL     1     -12.870  21.980  -6.218  1.00  0.00     0.124 S 
ATOM     90  O   UNL     1     -14.053  21.414  -5.577  1.00  0.00    -0.237 OA
ATOM     91  O   UNL     1     -12.200  23.043  -5.472  1.00  0.00    -0.237 OA
ATOM     92  O   UNL     1     -12.991  22.216  -7.654  1.00  0.00    -0.744 OA
ENDBRANCH  88  89
ENDBRANCH  62  83
ENDBRANCH  36  37
ENDBRANCH  28  31
ENDBRANCH  26  27
ENDBRANCH  25  26
ENDBRANCH   1  25
TORSDOF 17
