REMARK SMILES C[C@H](C(=O)NCCCNC(=O)c1ccc(-c2c3nc(c(-c4ccc(S(=O)(=O)[O-])cc4)c4ccc([nH]4)c(-c4ccc(S(=O)(=O)[O-])cc4)c4nc(c(-c5ccc(S(=O)(=O)[O-])cc5)c5ccc2[nH]5)C=C4)C=C3)cc1)[C@H](C)[S@@](=O)C(C)(C)C
REMARK SMILES IDX 7 1 6 2 5 3 3 4 4 5 2 7 1 8 72 9 73 10 74 11 75 12 76 13
REMARK SMILES IDX 77 14 78 15 79 16 8 17 9 18 10 19 11 21 12 22 13 23 71 24
REMARK SMILES IDX 14 25 70 26 15 27 16 28 17 29 64 30 18 31 69 32 63 33 65 34
REMARK SMILES IDX 19 35 68 36 62 37 61 38 20 40 50 41 31 42 49 43 32 44 35 45
REMARK SMILES IDX 48 46 66 47 33 48 34 49 47 51 67 52 36 53 21 54 22 55 30 56
REMARK SMILES IDX 23 57 29 58 24 59 25 60 26 61 27 62 28 63 51 64 52 65 60 66
REMARK SMILES IDX 53 67 59 68 54 69 55 70 56 71 57 72 58 73 37 74 38 75 46 76
REMARK SMILES IDX 39 77 45 78 40 79 41 80 42 81 43 82 44 83
REMARK H PARENT 5 6 9 20 65 39 35 50
REMARK Flexibility Score: inf
ROOT
ATOM      1  C   UNL     1      -2.656   1.507   5.342  1.00  0.00     0.042 C 
ENDROOT
BRANCH   1   2
ATOM      2  C   UNL     1      -2.745   0.170   4.597  1.00  0.00     0.117 C 
BRANCH   2   3
ATOM      3  N   UNL     1      -3.470   0.291   3.338  1.00  0.00    -0.356 N 
ATOM      4  C   UNL     1      -3.057   0.350   2.037  1.00  0.00     0.224 C 
ATOM      5  O   UNL     1      -3.930   0.429   1.167  1.00  0.00    -0.275 OA
ATOM      6  H   UNL     1      -4.448   0.340   3.446  1.00  0.00     0.163 HD
BRANCH   4   7
ATOM      7  C   UNL     1      -1.584   0.173   1.651  1.00  0.00     0.090 C 
ATOM      8  C   UNL     1      -1.542  -1.186   0.916  1.00  0.00     0.019 C 
BRANCH   7   9
ATOM      9  C   UNL     1      -1.044   1.304   0.732  1.00  0.00     0.089 C 
ATOM     10  C   UNL     1       0.394   1.093   0.254  1.00  0.00     0.023 C 
BRANCH   9  11
ATOM     11  S   UNL     1      -1.312   3.026   1.289  1.00  0.00     0.030 S 
ATOM     12  O   UNL     1      -2.705   3.141   1.828  1.00  0.00    -0.259 OA
BRANCH  11  13
ATOM     13  C   UNL     1      -0.122   3.415   2.642  1.00  0.00     0.038 C 
ATOM     14  C   UNL     1       0.208   2.246   3.556  1.00  0.00     0.025 C 
ATOM     15  C   UNL     1       1.181   3.975   2.059  1.00  0.00     0.025 C 
ATOM     16  C   UNL     1      -0.774   4.543   3.480  1.00  0.00     0.025 C 
ENDBRANCH  11  13
ENDBRANCH   9  11
ENDBRANCH   7   9
ENDBRANCH   4   7
ENDBRANCH   2   3
ENDBRANCH   1   2
BRANCH   1  17
ATOM     17  C   UNL     1      -3.907   1.883   6.130  1.00  0.00     0.118 C 
BRANCH  17  18
ATOM     18  N   UNL     1      -3.787   1.543   7.541  1.00  0.00    -0.352 N 
ATOM     19  C   UNL     1      -3.408   2.281   8.639  1.00  0.00     0.251 C 
ATOM     20  H   UNL     1      -4.021   0.609   7.749  1.00  0.00     0.163 HD
ATOM     21  O   UNL     1      -3.172   1.671   9.682  1.00  0.00    -0.269 OA
BRANCH  19  22
ATOM     22  C   UNL     1      -3.256   3.763   8.622  1.00  0.00     0.039 A 
ATOM     23  C   UNL     1      -2.291   4.337   9.465  1.00  0.00     0.014 A 
ATOM     24  C   UNL     1      -4.100   4.612   7.903  1.00  0.00     0.014 A 
ATOM     25  C   UNL     1      -2.148   5.730   9.552  1.00  0.00     0.010 A 
ATOM     26  C   UNL     1      -3.911   6.001   7.936  1.00  0.00     0.010 A 
ATOM     27  C   UNL     1      -2.940   6.580   8.768  1.00  0.00    -0.014 A 
BRANCH  27  28
ATOM     28  C   UNL     1      -2.777   8.064   8.812  1.00  0.00     0.031 A 
ATOM     29  C   UNL     1      -3.903   8.949   9.291  1.00  0.00     0.074 A 
ATOM     30  C   UNL     1      -1.639   8.632   8.360  1.00  0.00     0.049 A 
ATOM     31  N   UNL     1      -3.979  10.257   9.299  1.00  0.00    -0.248 NA
ATOM     32  C   UNL     1      -5.106   8.280   9.815  1.00  0.00     0.031 C 
ATOM     33  C   UNL     1      -0.474   7.907   7.848  1.00  0.00     0.029 A 
ATOM     34  N   UNL     1      -1.283   9.955   8.238  1.00  0.00    -0.354 N 
ATOM     35  C   UNL     1      -5.243  10.566   9.791  1.00  0.00     0.074 A 
ATOM     36  C   UNL     1      -5.908   9.308  10.056  1.00  0.00     0.031 C 
ATOM     37  C   UNL     1       0.464   8.791   7.471  1.00  0.00     0.029 A 
ATOM     38  C   UNL     1      -0.045  10.145   7.668  1.00  0.00     0.049 A 
ATOM     39  H   UNL     1      -1.859  10.697   8.532  1.00  0.00     0.167 HD
ATOM     40  C   UNL     1      -5.799  11.782  10.008  1.00  0.00     0.031 A 
ATOM     41  C   UNL     1       0.601  11.274   7.311  1.00  0.00     0.031 A 
ATOM     42  C   UNL     1      -5.129  13.037   9.785  1.00  0.00     0.049 A 
ATOM     43  C   UNL     1      -0.049  12.611   7.543  1.00  0.00     0.074 A 
ATOM     44  C   UNL     1      -5.582  14.313  10.076  1.00  0.00     0.029 A 
ATOM     45  N   UNL     1      -3.878  13.179   9.210  1.00  0.00    -0.354 N 
ATOM     46  N   UNL     1      -1.210  12.877   8.091  1.00  0.00    -0.248 NA
ATOM     47  C   UNL     1       0.696  13.801   7.105  1.00  0.00     0.031 C 
ATOM     48  C   UNL     1      -4.630  15.230   9.624  1.00  0.00     0.029 A 
ATOM     49  C   UNL     1      -3.562  14.523   9.097  1.00  0.00     0.049 A 
ATOM     50  H   UNL     1      -3.299  12.436   8.924  1.00  0.00     0.167 HD
ATOM     51  C   UNL     1      -1.326  14.264   8.075  1.00  0.00     0.074 A 
ATOM     52  C   UNL     1      -0.111  14.783   7.484  1.00  0.00     0.031 C 
ATOM     53  C   UNL     1      -2.352  15.035   8.509  1.00  0.00     0.031 A 
BRANCH  40  54
ATOM     54  C   UNL     1      -7.219  11.838  10.508  1.00  0.00    -0.014 A 
ATOM     55  C   UNL     1      -7.534  11.537  11.844  1.00  0.00     0.010 A 
ATOM     56  C   UNL     1      -8.236  12.302   9.652  1.00  0.00     0.010 A 
ATOM     57  C   UNL     1      -8.844  11.679  12.310  1.00  0.00     0.020 A 
ATOM     58  C   UNL     1      -9.542  12.466  10.120  1.00  0.00     0.020 A 
ATOM     59  C   UNL     1      -9.840  12.145  11.445  1.00  0.00     0.054 A 
BRANCH  59  60
ATOM     60  S   UNL     1     -11.519  12.375  12.094  1.00  0.00     0.124 S 
ATOM     61  O   UNL     1     -11.986  10.997  12.218  1.00  0.00    -0.237 OA
ATOM     62  O   UNL     1     -11.283  13.074  13.354  1.00  0.00    -0.237 OA
ATOM     63  O   UNL     1     -12.185  13.167  11.062  1.00  0.00    -0.744 OA
ENDBRANCH  59  60
ENDBRANCH  40  54
BRANCH  41  64
ATOM     64  C   UNL     1       1.934  11.195   6.652  1.00  0.00    -0.014 A 
ATOM     65  C   UNL     1       3.093  11.623   7.323  1.00  0.00     0.010 A 
ATOM     66  C   UNL     1       2.044  10.713   5.335  1.00  0.00     0.010 A 
ATOM     67  C   UNL     1       4.335  11.593   6.679  1.00  0.00     0.020 A 
ATOM     68  C   UNL     1       3.287  10.656   4.699  1.00  0.00     0.020 A 
ATOM     69  C   UNL     1       4.423  11.112   5.370  1.00  0.00     0.054 A 
BRANCH  69  70
ATOM     70  S   UNL     1       6.046  11.048   4.561  1.00  0.00     0.124 S 
ATOM     71  O   UNL     1       6.250  12.442   4.182  1.00  0.00    -0.237 OA
ATOM     72  O   UNL     1       6.912  10.547   5.625  1.00  0.00    -0.237 OA
ATOM     73  O   UNL     1       5.836  10.119   3.453  1.00  0.00    -0.744 OA
ENDBRANCH  69  70
ENDBRANCH  41  64
BRANCH  53  74
ATOM     74  C   UNL     1      -2.211  16.527   8.379  1.00  0.00    -0.014 A 
ATOM     75  C   UNL     1      -2.348  17.159   7.131  1.00  0.00     0.010 A 
ATOM     76  C   UNL     1      -2.017  17.314   9.529  1.00  0.00     0.010 A 
ATOM     77  C   UNL     1      -2.281  18.551   7.032  1.00  0.00     0.020 A 
ATOM     78  C   UNL     1      -1.973  18.708   9.438  1.00  0.00     0.020 A 
ATOM     79  C   UNL     1      -2.098  19.318   8.188  1.00  0.00     0.054 A 
BRANCH  79  80
ATOM     80  S   UNL     1      -2.085  21.127   8.043  1.00  0.00     0.124 S 
ATOM     81  O   UNL     1      -0.772  21.376   7.456  1.00  0.00    -0.237 OA
ATOM     82  O   UNL     1      -3.225  21.387   7.167  1.00  0.00    -0.237 OA
ATOM     83  O   UNL     1      -2.249  21.585   9.421  1.00  0.00    -0.744 OA
ENDBRANCH  79  80
ENDBRANCH  53  74
ENDBRANCH  27  28
ENDBRANCH  19  22
ENDBRANCH  17  18
ENDBRANCH   1  17
TORSDOF 16
