REMARK SMILES O=C(NCCCNC(=O)c1ccc(-c2c3nc(c(-c4ccc(S(=O)(=O)[O-])cc4)c4ccc([nH]4)c(-c4ccc(S(=O)(=O)[O-])cc4)c4nc(c(-c5ccc(S(=O)(=O)[O-])cc5)c5ccc2[nH]5)C=C4)C=C3)cc1)C1=Cc2cc(S(F)(F)(F)(F)F)ccc2O[C@H]1C(F)(F)F
REMARK SMILES IDX 6 1 5 2 4 3 3 4 1 5 2 6 70 8 71 9 85 10 72 11 84 12 73 13
REMARK SMILES IDX 83 14 74 15 82 16 81 17 86 18 87 19 88 20 89 21 75 22 76 23
REMARK SMILES IDX 77 24 78 25 79 26 80 27 7 28 8 29 9 31 10 32 11 33 69 34
REMARK SMILES IDX 12 35 68 36 13 37 14 38 15 39 62 40 16 41 67 42 61 43 63 44
REMARK SMILES IDX 17 45 66 46 60 47 59 48 18 50 48 51 29 52 47 53 30 54 33 55
REMARK SMILES IDX 46 56 64 57 31 58 32 59 45 61 65 62 34 63 19 64 20 65 28 66
REMARK SMILES IDX 21 67 27 68 22 69 23 70 24 71 25 72 26 73 49 74 50 75 58 76
REMARK SMILES IDX 51 77 57 78 52 79 53 80 54 81 55 82 56 83 35 84 36 85 44 86
REMARK SMILES IDX 37 87 43 88 38 89 39 90 40 91 41 92 42 93
REMARK H PARENT 3 7 7 30 63 49 33 60
REMARK Flexibility Score: inf
ROOT
ATOM      1  C   UNL     1       4.461  -0.689   3.675  1.00  0.00     0.118 C 
ENDROOT
BRANCH   1   2
ATOM      2  C   UNL     1       4.968   0.037   2.440  1.00  0.00     0.042 C 
BRANCH   2   3
ATOM      3  C   UNL     1       4.461  -0.669   1.193  1.00  0.00     0.118 C 
BRANCH   3   4
ATOM      4  N   UNL     1       2.991  -0.669   1.193  1.00  0.00    -0.352 N 
ATOM      5  O   UNL     1       0.985  -0.023   0.096  1.00  0.00    -0.270 OA
ATOM      6  C   UNL     1       2.256  -0.023   0.096  1.00  0.00     0.251 C 
ATOM      7  H   UNL     1       2.499  -1.101   1.928  1.00  0.00     0.163 HD
BRANCH   6   8
ATOM      8  C   UNL     1       3.016   0.644  -1.038  1.00  0.00     0.067 C 
ATOM      9  C   UNL     1       4.376   0.644  -1.038  1.00  0.00     0.025 C 
ATOM     10  C   UNL     1       2.256   1.312  -2.173  1.00  0.00     0.314 C 
ATOM     11  C   UNL     1       5.136  -0.023   0.096  1.00  0.00     0.019 A 
ATOM     12  O   UNL     1       3.521  -1.765   0.162  1.00  0.00    -0.475 OA
ATOM     13  C   UNL     1       6.279   0.605   0.565  1.00  0.00     0.036 A 
ATOM     14  C   UNL     1       4.777  -1.221   0.541  1.00  0.00     0.128 A 
ATOM     15  C   UNL     1       7.140  -0.246   1.298  1.00  0.00     0.107 A 
ATOM     16  C   UNL     1       5.609  -1.940   1.365  1.00  0.00     0.048 A 
ATOM     17  C   UNL     1       6.782  -1.405   1.820  1.00  0.00     0.028 A 
BRANCH  10  18
ATOM     18  C   UNL     1       0.761   1.171  -1.933  1.00  0.00     0.429 C 
ATOM     19  F   UNL     1       0.434   1.715  -0.765  1.00  0.00    -0.167 F 
ATOM     20  F   UNL     1       0.118   1.802  -2.912  1.00  0.00    -0.167 F 
ATOM     21  F   UNL     1       0.421  -0.114  -1.936  1.00  0.00    -0.167 F 
ENDBRANCH  10  18
BRANCH  15  22
ATOM     22  S   UNL     1       8.851   0.293   1.537  1.00  0.00     0.310 S 
ATOM     23  F   UNL     1       8.695   0.292   3.116  1.00  0.00    -0.094 F 
ATOM     24  F   UNL     1       8.345   1.785   1.557  1.00  0.00    -0.094 F 
ATOM     25  F   UNL     1      10.320   0.759   1.744  1.00  0.00    -0.094 F 
ATOM     26  F   UNL     1       9.320  -1.211   1.655  1.00  0.00    -0.094 F 
ATOM     27  F   UNL     1       7.352  -0.198   1.441  1.00  0.00    -0.094 F 
ENDBRANCH  15  22
ENDBRANCH   6   8
ENDBRANCH   3   4
ENDBRANCH   2   3
ENDBRANCH   1   2
BRANCH   1  28
ATOM     28  N   UNL     1       4.951  -2.075   3.664  1.00  0.00    -0.352 N 
ATOM     29  C   UNL     1       5.796  -2.565   4.762  1.00  0.00     0.251 C 
ATOM     30  H   UNL     1       4.713  -2.675   2.921  1.00  0.00     0.163 HD
ATOM     31  O   UNL     1       6.220  -3.763   4.753  1.00  0.00    -0.269 OA
BRANCH  29  32
ATOM     32  C   UNL     1       6.163  -1.639   5.910  1.00  0.00     0.039 A 
ATOM     33  C   UNL     1       7.424  -1.723   6.477  1.00  0.00     0.014 A 
ATOM     34  C   UNL     1       5.214  -0.884   6.451  1.00  0.00     0.014 A 
ATOM     35  C   UNL     1       7.501  -1.194   7.787  1.00  0.00     0.010 A 
ATOM     36  C   UNL     1       5.407  -0.286   7.673  1.00  0.00     0.010 A 
ATOM     37  C   UNL     1       6.610  -0.377   8.318  1.00  0.00    -0.014 A 
BRANCH  37  38
ATOM     38  C   UNL     1       6.905   0.420   9.578  1.00  0.00     0.031 A 
ATOM     39  C   UNL     1       6.071   0.189  10.673  1.00  0.00     0.074 A 
ATOM     40  C   UNL     1       8.045   1.204   9.625  1.00  0.00     0.049 A 
ATOM     41  N   UNL     1       6.227   0.632  11.922  1.00  0.00    -0.248 NA
ATOM     42  C   UNL     1       4.841  -0.615  10.618  1.00  0.00     0.031 C 
ATOM     43  C   UNL     1       8.896   1.435   8.526  1.00  0.00     0.029 A 
ATOM     44  N   UNL     1       8.556   1.889  10.705  1.00  0.00    -0.354 N 
ATOM     45  C   UNL     1       5.235   0.187  12.696  1.00  0.00     0.074 A 
ATOM     46  C   UNL     1       4.326  -0.616  11.867  1.00  0.00     0.031 C 
ATOM     47  C   UNL     1       9.899   2.256   8.935  1.00  0.00     0.029 A 
ATOM     48  C   UNL     1       9.693   2.551  10.296  1.00  0.00     0.049 A 
ATOM     49  H   UNL     1       8.176   1.902  11.613  1.00  0.00     0.167 HD
ATOM     50  C   UNL     1       5.053   0.418  14.061  1.00  0.00     0.031 A 
ATOM     51  C   UNL     1      10.515   3.372  11.051  1.00  0.00     0.031 A 
ATOM     52  C   UNL     1       5.900   1.204  14.826  1.00  0.00     0.049 A 
ATOM     53  C   UNL     1      10.301   3.651  12.403  1.00  0.00     0.074 A 
ATOM     54  C   UNL     1       5.736   1.441  16.204  1.00  0.00     0.029 A 
ATOM     55  N   UNL     1       7.022   1.887  14.411  1.00  0.00    -0.354 N 
ATOM     56  N   UNL     1       9.331   3.174  13.186  1.00  0.00    -0.248 NA
ATOM     57  C   UNL     1      11.146   4.545  13.205  1.00  0.00     0.031 C 
ATOM     58  C   UNL     1       6.740   2.262  16.613  1.00  0.00     0.029 A 
ATOM     59  C   UNL     1       7.547   2.552  15.497  1.00  0.00     0.049 A 
ATOM     60  H   UNL     1       7.387   1.897  13.497  1.00  0.00     0.167 HD
ATOM     61  C   UNL     1       9.465   3.651  14.425  1.00  0.00     0.074 A 
ATOM     62  C   UNL     1      10.630   4.545  14.454  1.00  0.00     0.031 C 
ATOM     63  C   UNL     1       8.664   3.373  15.534  1.00  0.00     0.031 A 
BRANCH  50  64
ATOM     64  C   UNL     1       3.861  -0.229  14.745  1.00  0.00    -0.014 A 
ATOM     65  C   UNL     1       3.703  -1.605  14.732  1.00  0.00     0.010 A 
ATOM     66  C   UNL     1       2.964   0.562  15.323  1.00  0.00     0.010 A 
ATOM     67  C   UNL     1       2.408  -2.037  15.105  1.00  0.00     0.020 A 
ATOM     68  C   UNL     1       1.777   0.050  15.789  1.00  0.00     0.020 A 
ATOM     69  C   UNL     1       1.528  -1.294  15.752  1.00  0.00     0.054 A 
BRANCH  69  70
ATOM     70  S   UNL     1       0.072  -2.017  16.549  1.00  0.00     0.124 S 
ATOM     71  O   UNL     1      -0.784  -2.728  15.498  1.00  0.00    -0.237 OA
ATOM     72  O   UNL     1       0.518  -3.025  17.610  1.00  0.00    -0.237 OA
ATOM     73  O   UNL     1      -0.846  -0.779  17.289  1.00  0.00    -0.744 OA
ENDBRANCH  69  70
ENDBRANCH  50  64
BRANCH  51  74
ATOM     74  C   UNL     1      11.717   4.006  10.370  1.00  0.00    -0.014 A 
ATOM     75  C   UNL     1      13.002   3.726  10.805  1.00  0.00     0.010 A 
ATOM     76  C   UNL     1      11.500   4.805   9.332  1.00  0.00     0.010 A 
ATOM     77  C   UNL     1      13.991   4.574  10.254  1.00  0.00     0.020 A 
ATOM     78  C   UNL     1      12.536   5.500   8.756  1.00  0.00     0.020 A 
ATOM     79  C   UNL     1      13.824   5.317   9.175  1.00  0.00     0.054 A 
BRANCH  79  80
ATOM     80  S   UNL     1      15.226   6.053   8.298  1.00  0.00     0.124 S 
ATOM     81  O   UNL     1      15.987   6.985   9.244  1.00  0.00    -0.237 OA
ATOM     82  O   UNL     1      16.163   4.945   7.812  1.00  0.00    -0.237 OA
ATOM     83  O   UNL     1      14.654   6.946   6.957  1.00  0.00    -0.744 OA
ENDBRANCH  79  80
ENDBRANCH  51  74
BRANCH  63  84
ATOM     84  C   UNL     1       9.039   4.008  16.863  1.00  0.00    -0.014 A 
ATOM     85  C   UNL     1       9.222   5.379  16.941  1.00  0.00     0.010 A 
ATOM     86  C   UNL     1       9.320   3.216  17.891  1.00  0.00     0.010 A 
ATOM     87  C   UNL     1       9.985   5.793  18.058  1.00  0.00     0.020 A 
ATOM     88  C   UNL     1       9.945   3.715  19.008  1.00  0.00     0.020 A 
ATOM     89  C   UNL     1      10.210   5.051  19.128  1.00  0.00     0.054 A 
BRANCH  89  90
ATOM     90  S   UNL     1      10.836   5.766  20.669  1.00  0.00     0.124 S 
ATOM     91  O   UNL     1      12.194   6.421  20.412  1.00  0.00    -0.237 OA
ATOM     92  O   UNL     1       9.850   6.818  21.180  1.00  0.00    -0.237 OA
ATOM     93  O   UNL     1      11.010   4.531  21.839  1.00  0.00    -0.744 OA
ENDBRANCH  89  90
ENDBRANCH  63  84
ENDBRANCH  37  38
ENDBRANCH  29  32
ENDBRANCH   1  28
TORSDOF 15
