REMARK SMILES Cn1cc(-c2cc(C(F)(F)F)c3c(C4CC4)nn(CC(=O)NCCCNC(=O)c4ccc(-c5c6nc(c(-c7ccc(S(=O)(=O)[O-])cc7)c7ccc([nH]7)c(-c7ccc(S(=O)(=O)[O-])cc7)c7nc(c(-c8ccc(S(=O)(=O)[O-])cc8)c8ccc5[nH]8)C=C7)C=C6)cc4)c3n2)cn1
REMARK SMILES IDX 24 1 23 2 22 3 20 4 21 5 19 7 18 8 5 9 6 10 90 11 7 12 89 13
REMARK SMILES IDX 12 14 13 15 17 16 4 17 1 18 2 19 3 20 92 21 91 22 8 23 9 24
REMARK SMILES IDX 10 25 11 26 14 27 15 28 16 29 25 30 26 31 27 32 28 34 29 35
REMARK SMILES IDX 30 36 88 37 31 38 87 39 32 40 33 41 34 42 81 43 35 44 86 45
REMARK SMILES IDX 80 46 82 47 36 48 85 49 79 50 78 51 37 53 67 54 48 55 66 56
REMARK SMILES IDX 49 57 52 58 65 59 83 60 50 61 51 62 64 64 84 65 53 66 38 67
REMARK SMILES IDX 39 68 47 69 40 70 46 71 41 72 42 73 43 74 44 75 45 76 68 77
REMARK SMILES IDX 69 78 77 79 70 80 76 81 71 82 72 83 73 84 74 85 75 86 54 87
REMARK SMILES IDX 55 88 63 89 56 90 62 91 57 92 58 93 59 94 60 95 61 96
REMARK H PARENT 22 6 26 33 82 52 52 63
REMARK Flexibility Score: inf
ROOT
ATOM      1  C   UNL     1      -2.220  -3.185  -3.546  1.00  0.00     0.042 C 
ENDROOT
BRANCH   1   2
ATOM      2  C   UNL     1      -2.368  -1.684  -3.802  1.00  0.00     0.117 C 
BRANCH   2   3
ATOM      3  N   UNL     1      -3.374  -1.058  -2.962  1.00  0.00    -0.354 N 
ATOM      4  C   UNL     1      -3.168  -0.442  -1.759  1.00  0.00     0.241 C 
ATOM      5  O   UNL     1      -4.100   0.127  -1.190  1.00  0.00    -0.273 OA
ATOM      6  H   UNL     1      -4.301  -1.079  -3.294  1.00  0.00     0.163 HD
BRANCH   4   7
ATOM      7  C   UNL     1      -1.774  -0.404  -1.222  1.00  0.00     0.246 C 
BRANCH   7   8
ATOM      8  N   UNL     1      -1.280  -1.705  -0.818  1.00  0.00    -0.237 N 
ATOM      9  C   UNL     1       2.004  -1.310  -0.289  1.00  0.00     0.077 A 
ATOM     10  C   UNL     1       2.417  -2.581   0.104  1.00  0.00     0.043 A 
ATOM     11  N   UNL     1       1.033  -1.213  -1.225  1.00  0.00    -0.228 NA
ATOM     12  C   UNL     1       1.532  -3.672  -0.090  1.00  0.00     0.071 A 
ATOM     13  C   UNL     1       0.035  -2.048  -0.882  1.00  0.00     0.159 A 
ATOM     14  C   UNL     1       0.196  -3.247  -0.208  1.00  0.00     0.055 A 
ATOM     15  C   UNL     1      -1.080  -3.446   0.389  1.00  0.00     0.076 A 
ATOM     16  N   UNL     1      -1.993  -2.560  -0.051  1.00  0.00    -0.175 NA
BRANCH   9  17
ATOM     17  C   UNL     1       1.733  -0.245   0.715  1.00  0.00     0.038 A 
ATOM     18  C   UNL     1      -1.349   0.847   2.150  1.00  0.00     0.173 C 
ATOM     19  N   UNL     1       0.049   0.739   1.773  1.00  0.00    -0.275 N 
ATOM     20  C   UNL     1       0.763  -0.431   1.700  1.00  0.00     0.118 A 
ATOM     21  N   UNL     1       0.656   1.753   1.128  1.00  0.00    -0.181 NA
ATOM     22  C   UNL     1       1.624   1.144   0.431  1.00  0.00     0.145 A 
ENDBRANCH   9  17
BRANCH  12  23
ATOM     23  C   UNL     1       2.017  -5.052  -0.432  1.00  0.00     0.417 C 
ATOM     24  F   UNL     1       1.624  -6.041   0.405  1.00  0.00    -0.166 F 
ATOM     25  F   UNL     1       1.596  -5.435  -1.673  1.00  0.00    -0.166 F 
ATOM     26  F   UNL     1       3.378  -5.134  -0.476  1.00  0.00    -0.166 F 
ENDBRANCH  12  23
BRANCH  15  27
ATOM     27  C   UNL     1      -1.447  -4.283   1.616  1.00  0.00     0.041 C 
ATOM     28  C   UNL     1      -0.553  -5.298   2.276  1.00  0.00     0.011 C 
ATOM     29  C   UNL     1      -0.741  -3.976   2.931  1.00  0.00     0.011 C 
ENDBRANCH  15  27
ENDBRANCH   7   8
ENDBRANCH   4   7
ENDBRANCH   2   3
ENDBRANCH   1   2
BRANCH   1  30
ATOM     30  C   UNL     1      -3.361  -3.947  -4.167  1.00  0.00     0.118 C 
BRANCH  30  31
ATOM     31  N   UNL     1      -3.353  -3.807  -5.621  1.00  0.00    -0.352 N 
ATOM     32  C   UNL     1      -4.138  -4.457  -6.546  1.00  0.00     0.251 C 
ATOM     33  H   UNL     1      -2.703  -3.165  -5.986  1.00  0.00     0.163 HD
ATOM     34  O   UNL     1      -3.828  -4.474  -7.723  1.00  0.00    -0.269 OA
BRANCH  32  35
ATOM     35  C   UNL     1      -5.362  -5.109  -6.061  1.00  0.00     0.039 A 
ATOM     36  C   UNL     1      -5.781  -6.336  -6.572  1.00  0.00     0.014 A 
ATOM     37  C   UNL     1      -6.076  -4.461  -5.054  1.00  0.00     0.014 A 
ATOM     38  C   UNL     1      -6.928  -6.907  -6.037  1.00  0.00     0.010 A 
ATOM     39  C   UNL     1      -7.058  -5.121  -4.382  1.00  0.00     0.010 A 
ATOM     40  C   UNL     1      -7.553  -6.281  -4.946  1.00  0.00    -0.014 A 
BRANCH  40  41
ATOM     41  C   UNL     1      -8.713  -6.850  -4.297  1.00  0.00     0.031 A 
ATOM     42  C   UNL     1      -8.438  -8.164  -3.687  1.00  0.00     0.074 A 
ATOM     43  C   UNL     1      -9.851  -6.154  -4.101  1.00  0.00     0.049 A 
ATOM     44  N   UNL     1      -8.676  -9.313  -4.219  1.00  0.00    -0.248 NA
ATOM     45  C   UNL     1      -7.619  -8.223  -2.464  1.00  0.00     0.031 C 
ATOM     46  C   UNL     1     -10.117  -4.733  -4.377  1.00  0.00     0.029 A 
ATOM     47  N   UNL     1     -11.009  -6.566  -3.529  1.00  0.00    -0.354 N 
ATOM     48  C   UNL     1      -8.305 -10.238  -3.257  1.00  0.00     0.074 A 
ATOM     49  C   UNL     1      -7.446  -9.542  -2.332  1.00  0.00     0.031 C 
ATOM     50  C   UNL     1     -11.276  -4.360  -3.784  1.00  0.00     0.029 A 
ATOM     51  C   UNL     1     -11.919  -5.549  -3.258  1.00  0.00     0.049 A 
ATOM     52  H   UNL     1     -11.192  -7.511  -3.321  1.00  0.00     0.167 HD
ATOM     53  C   UNL     1      -9.012 -11.389  -3.100  1.00  0.00     0.031 A 
ATOM     54  C   UNL     1     -13.142  -5.699  -2.692  1.00  0.00     0.031 A 
ATOM     55  C   UNL     1      -9.988 -11.552  -4.147  1.00  0.00     0.049 A 
ATOM     56  C   UNL     1     -13.547  -7.097  -2.975  1.00  0.00     0.074 A 
ATOM     57  C   UNL     1      -9.977 -11.935  -5.470  1.00  0.00     0.029 A 
ATOM     58  N   UNL     1     -11.138 -10.828  -3.940  1.00  0.00    -0.354 N 
ATOM     59  N   UNL     1     -13.746  -7.548  -4.184  1.00  0.00    -0.248 NA
ATOM     60  C   UNL     1     -13.371  -8.115  -1.946  1.00  0.00     0.031 C 
ATOM     61  C   UNL     1     -11.071 -11.258  -6.091  1.00  0.00     0.029 A 
ATOM     62  C   UNL     1     -11.758 -10.525  -5.125  1.00  0.00     0.049 A 
ATOM     63  H   UNL     1     -11.474 -10.560  -3.054  1.00  0.00     0.167 HD
ATOM     64  C   UNL     1     -13.305  -8.856  -4.136  1.00  0.00     0.074 A 
ATOM     65  C   UNL     1     -13.248  -9.196  -2.720  1.00  0.00     0.031 C 
ATOM     66  C   UNL     1     -12.727  -9.451  -5.217  1.00  0.00     0.031 A 
BRANCH  53  67
ATOM     67  C   UNL     1      -9.163 -12.077  -1.773  1.00  0.00    -0.014 A 
ATOM     68  C   UNL     1      -9.604 -13.411  -1.726  1.00  0.00     0.010 A 
ATOM     69  C   UNL     1      -9.107 -11.368  -0.553  1.00  0.00     0.010 A 
ATOM     70  C   UNL     1      -9.945 -14.013  -0.507  1.00  0.00     0.020 A 
ATOM     71  C   UNL     1      -9.409 -11.969   0.668  1.00  0.00     0.020 A 
ATOM     72  C   UNL     1      -9.833 -13.290   0.684  1.00  0.00     0.054 A 
BRANCH  72  73
ATOM     73  S   UNL     1     -10.300 -14.073   2.247  1.00  0.00     0.124 S 
ATOM     74  O   UNL     1     -11.682 -14.468   1.996  1.00  0.00    -0.237 OA
ATOM     75  O   UNL     1      -9.335 -15.166   2.338  1.00  0.00    -0.237 OA
ATOM     76  O   UNL     1     -10.123 -13.009   3.232  1.00  0.00    -0.744 OA
ENDBRANCH  72  73
ENDBRANCH  53  67
BRANCH  54  77
ATOM     77  C   UNL     1     -13.766  -4.905  -1.602  1.00  0.00    -0.014 A 
ATOM     78  C   UNL     1     -15.079  -5.212  -1.187  1.00  0.00     0.010 A 
ATOM     79  C   UNL     1     -12.978  -4.108  -0.748  1.00  0.00     0.010 A 
ATOM     80  C   UNL     1     -15.539  -4.853   0.088  1.00  0.00     0.020 A 
ATOM     81  C   UNL     1     -13.437  -3.736   0.525  1.00  0.00     0.020 A 
ATOM     82  C   UNL     1     -14.698  -4.152   0.953  1.00  0.00     0.054 A 
BRANCH  82  83
ATOM     83  S   UNL     1     -15.222  -3.897   2.676  1.00  0.00     0.124 S 
ATOM     84  O   UNL     1     -16.468  -3.152   2.519  1.00  0.00    -0.237 OA
ATOM     85  O   UNL     1     -15.362  -5.267   3.160  1.00  0.00    -0.237 OA
ATOM     86  O   UNL     1     -14.118  -3.140   3.264  1.00  0.00    -0.744 OA
ENDBRANCH  82  83
ENDBRANCH  54  77
BRANCH  66  87
ATOM     87  C   UNL     1     -13.041  -8.899  -6.580  1.00  0.00    -0.014 A 
ATOM     88  C   UNL     1     -12.524  -7.700  -7.104  1.00  0.00     0.010 A 
ATOM     89  C   UNL     1     -13.833  -9.713  -7.407  1.00  0.00     0.010 A 
ATOM     90  C   UNL     1     -12.791  -7.335  -8.437  1.00  0.00     0.020 A 
ATOM     91  C   UNL     1     -14.090  -9.364  -8.731  1.00  0.00     0.020 A 
ATOM     92  C   UNL     1     -13.564  -8.179  -9.244  1.00  0.00     0.054 A 
BRANCH  92  93
ATOM     93  S   UNL     1     -13.873  -7.737 -10.979  1.00  0.00     0.124 S 
ATOM     94  O   UNL     1     -14.500  -6.422 -10.872  1.00  0.00    -0.237 OA
ATOM     95  O   UNL     1     -12.530  -7.750 -11.553  1.00  0.00    -0.237 OA
ATOM     96  O   UNL     1     -14.755  -8.801 -11.458  1.00  0.00    -0.744 OA
ENDBRANCH  92  93
ENDBRANCH  66  87
ENDBRANCH  40  41
ENDBRANCH  32  35
ENDBRANCH  30  31
ENDBRANCH   1  30
TORSDOF 17
