REMARK SMILES COCCOCC[C@@H]1CCC[C@]1([NH3+])C(=O)NCCCNC(=O)c1ccc(-c2c3nc(c(-c4ccc(S(=O)(=O)[O-])cc4)c4ccc([nH]4)c(-c4ccc(S(=O)(=O)[O-])cc4)c4nc(c(-c5ccc(S(=O)(=O)[O-])cc5)c5ccc2[nH]5)C=C4)C=C3)cc1
REMARK SMILES IDX 14 1 15 2 16 3 12 5 8 6 9 7 10 8 11 9 7 10 6 11 5 12 4 13
REMARK SMILES IDX 3 14 2 15 1 16 13 17 17 21 18 22 19 23 20 24 21 25 22 27
REMARK SMILES IDX 23 28 24 29 82 30 25 31 81 32 26 33 27 34 28 35 75 36 29 37
REMARK SMILES IDX 80 38 74 39 76 40 30 41 79 42 73 43 72 44 31 46 61 47 42 48
REMARK SMILES IDX 60 49 43 50 46 51 59 52 77 53 44 54 45 55 58 57 78 58 47 59
REMARK SMILES IDX 32 60 33 61 41 62 34 63 40 64 35 65 36 66 37 67 38 68 39 69
REMARK SMILES IDX 62 70 63 71 71 72 64 73 70 74 65 75 66 76 67 77 68 78 69 79
REMARK SMILES IDX 48 80 49 81 57 82 50 83 56 84 51 85 52 86 53 87 54 88 55 89
REMARK H PARENT 16 4 13 18 13 19 13 20 20 26 76 45 46 56
REMARK Flexibility Score: inf
ROOT
ATOM      1  C   UNL     1      -0.360  -3.809   0.272  1.00  0.00     0.281 C 
ATOM      2  O   UNL     1       0.511  -4.242   1.041  1.00  0.00    -0.268 OA
ATOM      3  N   UNL     1      -0.112  -4.009  -1.056  1.00  0.00    -0.351 N 
ATOM      4  H   UNL     1       0.833  -4.204  -1.252  1.00  0.00     0.163 HD
ENDROOT
BRANCH   1   5
ATOM      5  C   UNL     1      -1.674  -3.160   0.837  1.00  0.00     0.176 C 
ATOM      6  C   UNL     1      -1.946  -1.649   0.569  1.00  0.00     0.063 C 
ATOM      7  C   UNL     1      -1.845  -0.881   1.892  1.00  0.00     0.011 C 
ATOM      8  C   UNL     1      -1.521  -1.881   2.980  1.00  0.00     0.008 C 
ATOM      9  C   UNL     1      -1.733  -3.267   2.392  1.00  0.00     0.079 C 
BRANCH   6  10
ATOM     10  C   UNL     1      -1.284  -0.912  -0.599  1.00  0.00     0.039 C 
BRANCH  10  11
ATOM     11  C   UNL     1       0.148  -0.364  -0.508  1.00  0.00     0.161 C 
BRANCH  11  12
ATOM     12  O   UNL     1       1.181  -1.328  -0.351  1.00  0.00    -0.379 OA
BRANCH  12  13
ATOM     13  C   UNL     1       1.660  -1.492   0.986  1.00  0.00     0.188 C 
BRANCH  13  14
ATOM     14  C   UNL     1       2.702  -0.478   1.455  1.00  0.00     0.188 C 
BRANCH  14  15
ATOM     15  O   UNL     1       2.169   0.843   1.545  1.00  0.00    -0.382 OA
ATOM     16  C   UNL     1       2.709   1.694   0.540  1.00  0.00     0.195 C 
ENDBRANCH  14  15
ENDBRANCH  13  14
ENDBRANCH  12  13
ENDBRANCH  11  12
ENDBRANCH  10  11
ENDBRANCH   6  10
BRANCH   5  17
ATOM     17  N   UNL     1      -2.801  -3.998   0.332  1.00  0.00    -0.345 N 
ATOM     18  H   UNL     1      -3.685  -3.619   0.671  1.00  0.00     0.345 HD
ATOM     19  H   UNL     1      -2.690  -4.955   0.669  1.00  0.00     0.345 HD
ATOM     20  H   UNL     1      -2.797  -3.994  -0.688  1.00  0.00     0.345 HD
ENDBRANCH   5  17
ENDBRANCH   1   5
BRANCH   3  21
ATOM     21  C   UNL     1      -0.956  -3.992  -2.245  1.00  0.00     0.118 C 
BRANCH  21  22
ATOM     22  C   UNL     1      -0.469  -3.088  -3.390  1.00  0.00     0.042 C 
BRANCH  22  23
ATOM     23  C   UNL     1       1.025  -3.109  -3.692  1.00  0.00     0.118 C 
BRANCH  23  24
ATOM     24  N   UNL     1       1.361  -4.114  -4.686  1.00  0.00    -0.352 N 
ATOM     25  C   UNL     1       1.552  -3.969  -6.037  1.00  0.00     0.251 C 
ATOM     26  H   UNL     1       1.467  -5.030  -4.342  1.00  0.00     0.163 HD
ATOM     27  O   UNL     1       1.557  -4.975  -6.755  1.00  0.00    -0.269 OA
BRANCH  25  28
ATOM     28  C   UNL     1       1.742  -2.634  -6.655  1.00  0.00     0.039 A 
ATOM     29  C   UNL     1       1.099  -2.347  -7.865  1.00  0.00     0.014 A 
ATOM     30  C   UNL     1       2.616  -1.694  -6.101  1.00  0.00     0.014 A 
ATOM     31  C   UNL     1       1.299  -1.112  -8.495  1.00  0.00     0.010 A 
ATOM     32  C   UNL     1       2.772  -0.442  -6.702  1.00  0.00     0.010 A 
ATOM     33  C   UNL     1       2.126  -0.140  -7.912  1.00  0.00    -0.014 A 
BRANCH  33  34
ATOM     34  C   UNL     1       2.366   1.179  -8.559  1.00  0.00     0.031 A 
ATOM     35  C   UNL     1       3.745   1.536  -9.053  1.00  0.00     0.074 A 
ATOM     36  C   UNL     1       1.373   2.087  -8.645  1.00  0.00     0.049 A 
ATOM     37  N   UNL     1       4.189   2.678  -9.515  1.00  0.00    -0.248 NA
ATOM     38  C   UNL     1       4.762   0.473  -9.001  1.00  0.00     0.031 C 
ATOM     39  C   UNL     1      -0.007   1.879  -8.207  1.00  0.00     0.029 A 
ATOM     40  N   UNL     1       1.381   3.379  -9.116  1.00  0.00    -0.354 N 
ATOM     41  C   UNL     1       5.540   2.480  -9.781  1.00  0.00     0.074 A 
ATOM     42  C   UNL     1       5.848   1.118  -9.402  1.00  0.00     0.031 C 
ATOM     43  C   UNL     1      -0.714   2.999  -8.432  1.00  0.00     0.029 A 
ATOM     44  C   UNL     1       0.171   4.020  -8.988  1.00  0.00     0.049 A 
ATOM     45  H   UNL     1       2.177   3.804  -9.507  1.00  0.00     0.167 HD
ATOM     46  C   UNL     1       6.441   3.349 -10.300  1.00  0.00     0.031 A 
ATOM     47  C   UNL     1      -0.186   5.290  -9.265  1.00  0.00     0.031 A 
ATOM     48  C   UNL     1       6.134   4.698 -10.694  1.00  0.00     0.049 A 
ATOM     49  C   UNL     1       0.836   6.244  -9.824  1.00  0.00     0.074 A 
ATOM     50  C   UNL     1       6.974   5.640 -11.264  1.00  0.00     0.029 A 
ATOM     51  N   UNL     1       4.891   5.297 -10.566  1.00  0.00    -0.354 N 
ATOM     52  N   UNL     1       2.102   6.030 -10.091  1.00  0.00    -0.248 NA
ATOM     53  C   UNL     1       0.378   7.609 -10.128  1.00  0.00     0.031 C 
ATOM     54  C   UNL     1       6.249   6.822 -11.443  1.00  0.00     0.029 A 
ATOM     55  C   UNL     1       4.944   6.599 -11.034  1.00  0.00     0.049 A 
ATOM     56  H   UNL     1       4.089   4.862 -10.197  1.00  0.00     0.167 HD
ATOM     57  C   UNL     1       2.582   7.221 -10.627  1.00  0.00     0.074 A 
ATOM     58  C   UNL     1       1.472   8.151 -10.647  1.00  0.00     0.031 C 
ATOM     59  C   UNL     1       3.829   7.512 -11.068  1.00  0.00     0.031 A 
BRANCH  46  60
ATOM     60  C   UNL     1       7.860   2.868 -10.458  1.00  0.00    -0.014 A 
ATOM     61  C   UNL     1       8.204   1.926 -11.444  1.00  0.00     0.010 A 
ATOM     62  C   UNL     1       8.872   3.398  -9.636  1.00  0.00     0.010 A 
ATOM     63  C   UNL     1       9.525   1.489 -11.575  1.00  0.00     0.020 A 
ATOM     64  C   UNL     1      10.199   2.983  -9.781  1.00  0.00     0.020 A 
ATOM     65  C   UNL     1      10.513   2.015 -10.737  1.00  0.00     0.054 A 
BRANCH  65  66
ATOM     66  S   UNL     1      12.222   1.440 -10.934  1.00  0.00     0.124 S 
ATOM     67  O   UNL     1      12.162   0.111 -10.329  1.00  0.00    -0.237 OA
ATOM     68  O   UNL     1      12.403   1.460 -12.385  1.00  0.00    -0.237 OA
ATOM     69  O   UNL     1      13.007   2.425 -10.198  1.00  0.00    -0.744 OA
ENDBRANCH  65  66
ENDBRANCH  46  60
BRANCH  47  70
ATOM     70  C   UNL     1      -1.584   5.737  -9.018  1.00  0.00    -0.014 A 
ATOM     71  C   UNL     1      -2.455   5.980 -10.094  1.00  0.00     0.010 A 
ATOM     72  C   UNL     1      -2.055   5.909  -7.703  1.00  0.00     0.010 A 
ATOM     73  C   UNL     1      -3.768   6.400  -9.861  1.00  0.00     0.020 A 
ATOM     74  C   UNL     1      -3.375   6.304  -7.466  1.00  0.00     0.020 A 
ATOM     75  C   UNL     1      -4.220   6.558  -8.548  1.00  0.00     0.054 A 
BRANCH  75  76
ATOM     76  S   UNL     1      -5.945   7.047  -8.267  1.00  0.00     0.124 S 
ATOM     77  O   UNL     1      -5.913   8.469  -8.594  1.00  0.00    -0.237 OA
ATOM     78  O   UNL     1      -6.673   6.197  -9.206  1.00  0.00    -0.237 OA
ATOM     79  O   UNL     1      -6.163   6.732  -6.857  1.00  0.00    -0.744 OA
ENDBRANCH  75  76
ENDBRANCH  47  70
BRANCH  59  80
ATOM     80  C   UNL     1       4.064   8.871 -11.670  1.00  0.00    -0.014 A 
ATOM     81  C   UNL     1       4.172  10.019 -10.866  1.00  0.00     0.010 A 
ATOM     82  C   UNL     1       4.266   8.983 -13.058  1.00  0.00     0.010 A 
ATOM     83  C   UNL     1       4.467  11.258 -11.444  1.00  0.00     0.020 A 
ATOM     84  C   UNL     1       4.583  10.215 -13.635  1.00  0.00     0.020 A 
ATOM     85  C   UNL     1       4.674  11.348 -12.824  1.00  0.00     0.054 A 
BRANCH  85  86
ATOM     86  S   UNL     1       5.128  12.952 -13.540  1.00  0.00     0.124 S 
ATOM     87  O   UNL     1       3.855  13.666 -13.518  1.00  0.00    -0.237 OA
ATOM     88  O   UNL     1       6.141  13.444 -12.610  1.00  0.00    -0.237 OA
ATOM     89  O   UNL     1       5.627  12.609 -14.870  1.00  0.00    -0.744 OA
ENDBRANCH  85  86
ENDBRANCH  59  80
ENDBRANCH  33  34
ENDBRANCH  25  28
ENDBRANCH  23  24
ENDBRANCH  22  23
ENDBRANCH  21  22
ENDBRANCH   3  21
TORSDOF 20
