REMARK SMILES [NH3+][C@H]1COC[C@@H]1C(=O)NC1(CC(=O)NCCCNC(=O)c2ccc(-c3c4nc(c(-c5ccc(S(=O)(=O)[O-])cc5)c5ccc([nH]5)c(-c5ccc(S(=O)(=O)[O-])cc5)c5nc(c(-c6ccc(S(=O)(=O)[O-])cc6)c6ccc3[nH]6)C=C5)C=C4)cc2)CCC1
REMARK SMILES IDX 15 1 14 2 12 3 13 4 11 6 10 7 81 8 83 9 82 10 9 11 7 12 8 13
REMARK SMILES IDX 6 15 2 16 3 17 4 18 5 19 1 20 16 24 17 25 18 26 19 27 20 29
REMARK SMILES IDX 21 30 22 31 80 32 23 33 79 34 24 35 25 36 26 37 73 38 27 39
REMARK SMILES IDX 78 40 72 41 74 42 28 43 77 44 71 45 70 46 29 48 59 49 40 50
REMARK SMILES IDX 58 51 41 52 44 53 57 54 75 55 42 56 43 57 56 59 76 60 45 61
REMARK SMILES IDX 30 62 31 63 39 64 32 65 38 66 33 67 34 68 35 69 36 70 37 71
REMARK SMILES IDX 60 72 61 73 69 74 62 75 68 76 63 77 64 78 65 79 66 80 67 81
REMARK SMILES IDX 46 82 47 83 55 84 48 85 54 86 49 87 50 88 51 89 52 90 53 91
REMARK H PARENT 14 5 9 14 1 21 1 22 1 23 18 28 74 47 44 58
REMARK Flexibility Score: inf
ROOT
ATOM      1  C   UNL     1       0.736  -0.556   5.380  1.00  0.00     0.117 C 
ENDROOT
BRANCH   1   2
ATOM      2  N   UNL     1       0.020   0.001   4.258  1.00  0.00    -0.356 N 
ATOM      3  C   UNL     1       0.042  -0.278   2.942  1.00  0.00     0.222 C 
ATOM      4  O   UNL     1      -0.907   0.180   2.291  1.00  0.00    -0.275 OA
ATOM      5  H   UNL     1      -0.604   0.723   4.502  1.00  0.00     0.163 HD
BRANCH   3   6
ATOM      6  C   UNL     1       1.060  -1.153   2.259  1.00  0.00     0.128 C 
BRANCH   6   7
ATOM      7  C   UNL     1       2.579  -0.911   2.248  1.00  0.00     0.049 C 
ATOM      8  C   UNL     1       3.229  -2.127   1.447  1.00  0.00     0.029 C 
ATOM      9  C   UNL     1       3.477  -1.442   3.439  1.00  0.00     0.029 C 
ATOM     10  C   UNL     1       3.481  -2.830   2.788  1.00  0.00     0.005 C 
BRANCH   7  11
ATOM     11  N   UNL     1       3.167   0.350   1.689  1.00  0.00    -0.350 N 
ATOM     12  C   UNL     1       2.797   1.536   1.133  1.00  0.00     0.232 C 
ATOM     13  O   UNL     1       3.721   2.239   0.709  1.00  0.00    -0.274 OA
ATOM     14  H   UNL     1       4.149   0.304   1.742  1.00  0.00     0.164 HD
BRANCH  12  15
ATOM     15  C   UNL     1       1.365   1.976   0.998  1.00  0.00     0.164 C 
ATOM     16  C   UNL     1       0.827   1.603  -0.378  1.00  0.00     0.221 C 
ATOM     17  C   UNL     1       0.893   2.934  -1.134  1.00  0.00     0.225 C 
ATOM     18  O   UNL     1       0.688   3.965  -0.165  1.00  0.00    -0.374 OA
ATOM     19  C   UNL     1       1.208   3.491   1.083  1.00  0.00     0.180 C 
BRANCH  16  20
ATOM     20  N   UNL     1      -0.552   1.082  -0.362  1.00  0.00    -0.352 N 
ATOM     21  H   UNL     1      -0.841   0.856  -1.314  1.00  0.00     0.344 HD
ATOM     22  H   UNL     1      -1.178   1.789   0.024  1.00  0.00     0.344 HD
ATOM     23  H   UNL     1      -0.592   0.242   0.214  1.00  0.00     0.344 HD
ENDBRANCH  16  20
ENDBRANCH  12  15
ENDBRANCH   7  11
ENDBRANCH   6   7
ENDBRANCH   3   6
ENDBRANCH   1   2
BRANCH   1  24
ATOM     24  C   UNL     1       1.799   0.394   5.924  1.00  0.00     0.042 C 
BRANCH  24  25
ATOM     25  C   UNL     1       1.293   1.802   6.224  1.00  0.00     0.118 C 
BRANCH  25  26
ATOM     26  N   UNL     1       0.170   1.815   7.146  1.00  0.00    -0.352 N 
ATOM     27  C   UNL     1       0.127   1.950   8.508  1.00  0.00     0.251 C 
ATOM     28  H   UNL     1      -0.710   1.708   6.719  1.00  0.00     0.163 HD
ATOM     29  O   UNL     1      -0.916   1.662   9.098  1.00  0.00    -0.269 OA
BRANCH  27  30
ATOM     30  C   UNL     1       1.301   2.418   9.275  1.00  0.00     0.039 A 
ATOM     31  C   UNL     1       1.541   1.871  10.540  1.00  0.00     0.014 A 
ATOM     32  C   UNL     1       2.119   3.446   8.802  1.00  0.00     0.014 A 
ATOM     33  C   UNL     1       2.615   2.329  11.306  1.00  0.00     0.010 A 
ATOM     34  C   UNL     1       3.246   3.833   9.522  1.00  0.00     0.010 A 
ATOM     35  C   UNL     1       3.489   3.302  10.796  1.00  0.00    -0.014 A 
BRANCH  35  36
ATOM     36  C   UNL     1       4.622   3.820  11.605  1.00  0.00     0.031 A 
ATOM     37  C   UNL     1       4.660   5.273  12.006  1.00  0.00     0.074 A 
ATOM     38  C   UNL     1       5.634   2.997  11.944  1.00  0.00     0.049 A 
ATOM     39  N   UNL     1       5.578   5.920  12.678  1.00  0.00    -0.248 NA
ATOM     40  C   UNL     1       3.536   6.117  11.567  1.00  0.00     0.031 C 
ATOM     41  C   UNL     1       5.739   1.583  11.575  1.00  0.00     0.029 A 
ATOM     42  N   UNL     1       6.769   3.233  12.678  1.00  0.00    -0.354 N 
ATOM     43  C   UNL     1       5.156   7.245  12.717  1.00  0.00     0.074 A 
ATOM     44  C   UNL     1       3.929   7.321  11.955  1.00  0.00     0.031 C 
ATOM     45  C   UNL     1       6.857   1.070  12.114  1.00  0.00     0.029 A 
ATOM     46  C   UNL     1       7.562   2.122  12.839  1.00  0.00     0.049 A 
ATOM     47  H   UNL     1       6.993   4.114  13.055  1.00  0.00     0.167 HD
ATOM     48  C   UNL     1       5.722   8.302  13.349  1.00  0.00     0.031 A 
ATOM     49  C   UNL     1       8.724   1.966  13.503  1.00  0.00     0.031 A 
ATOM     50  C   UNL     1       6.924   8.217  14.134  1.00  0.00     0.049 A 
ATOM     51  C   UNL     1       9.309   3.141  14.237  1.00  0.00     0.074 A 
ATOM     52  C   UNL     1       7.551   9.213  14.862  1.00  0.00     0.029 A 
ATOM     53  N   UNL     1       7.675   7.064  14.303  1.00  0.00    -0.354 N 
ATOM     54  N   UNL     1       8.866   4.374  14.304  1.00  0.00    -0.248 NA
ATOM     55  C   UNL     1      10.538   2.896  15.002  1.00  0.00     0.031 C 
ATOM     56  C   UNL     1       8.701   8.669  15.445  1.00  0.00     0.029 A 
ATOM     57  C   UNL     1       8.762   7.323  15.120  1.00  0.00     0.049 A 
ATOM     58  H   UNL     1       7.466   6.190  13.902  1.00  0.00     0.167 HD
ATOM     59  C   UNL     1       9.746   5.046  15.144  1.00  0.00     0.074 A 
ATOM     60  C   UNL     1      10.737   4.077  15.571  1.00  0.00     0.031 C 
ATOM     61  C   UNL     1       9.736   6.346  15.531  1.00  0.00     0.031 A 
BRANCH  48  62
ATOM     62  C   UNL     1       5.037   9.637  13.218  1.00  0.00    -0.014 A 
ATOM     63  C   UNL     1       3.798   9.883  13.839  1.00  0.00     0.010 A 
ATOM     64  C   UNL     1       5.647  10.669  12.481  1.00  0.00     0.010 A 
ATOM     65  C   UNL     1       3.159  11.116  13.685  1.00  0.00     0.020 A 
ATOM     66  C   UNL     1       5.024  11.914  12.350  1.00  0.00     0.020 A 
ATOM     67  C   UNL     1       3.774  12.123  12.936  1.00  0.00     0.054 A 
BRANCH  67  68
ATOM     68  S   UNL     1       2.930  13.719  12.764  1.00  0.00     0.124 S 
ATOM     69  O   UNL     1       1.879  13.400  11.801  1.00  0.00    -0.237 OA
ATOM     70  O   UNL     1       2.473  13.990  14.125  1.00  0.00    -0.237 OA
ATOM     71  O   UNL     1       3.976  14.613  12.273  1.00  0.00    -0.744 OA
ENDBRANCH  67  68
ENDBRANCH  48  62
BRANCH  49  72
ATOM     72  C   UNL     1       9.384   0.633  13.540  1.00  0.00    -0.014 A 
ATOM     73  C   UNL     1       9.377  -0.132  14.719  1.00  0.00     0.010 A 
ATOM     74  C   UNL     1      10.007   0.114  12.391  1.00  0.00     0.010 A 
ATOM     75  C   UNL     1       9.997  -1.385  14.755  1.00  0.00     0.020 A 
ATOM     76  C   UNL     1      10.606  -1.149  12.416  1.00  0.00     0.020 A 
ATOM     77  C   UNL     1      10.607  -1.885  13.602  1.00  0.00     0.054 A 
BRANCH  77  78
ATOM     78  S   UNL     1      11.357  -3.537  13.654  1.00  0.00     0.124 S 
ATOM     79  O   UNL     1      12.597  -3.285  14.381  1.00  0.00    -0.237 OA
ATOM     80  O   UNL     1      10.351  -4.320  14.368  1.00  0.00    -0.237 OA
ATOM     81  O   UNL     1      11.515  -3.883  12.243  1.00  0.00    -0.744 OA
ENDBRANCH  77  78
ENDBRANCH  49  72
BRANCH  61  82
ATOM     82  C   UNL     1      10.806   6.781  16.494  1.00  0.00    -0.014 A 
ATOM     83  C   UNL     1      12.144   6.926  16.085  1.00  0.00     0.010 A 
ATOM     84  C   UNL     1      10.459   7.073  17.826  1.00  0.00     0.010 A 
ATOM     85  C   UNL     1      13.124   7.307  17.004  1.00  0.00     0.020 A 
ATOM     86  C   UNL     1      11.432   7.481  18.741  1.00  0.00     0.020 A 
ATOM     87  C   UNL     1      12.763   7.575  18.328  1.00  0.00     0.054 A 
BRANCH  87  88
ATOM     88  S   UNL     1      14.049   8.080  19.503  1.00  0.00     0.124 S 
ATOM     89  O   UNL     1      14.704   6.808  19.799  1.00  0.00    -0.237 OA
ATOM     90  O   UNL     1      14.842   9.029  18.725  1.00  0.00    -0.237 OA
ATOM     91  O   UNL     1      13.296   8.666  20.609  1.00  0.00    -0.744 OA
ENDBRANCH  87  88
ENDBRANCH  61  82
ENDBRANCH  35  36
ENDBRANCH  27  30
ENDBRANCH  25  26
ENDBRANCH  24  25
ENDBRANCH   1  24
TORSDOF 17
