REMARK SMILES Cc1cc(NC(=O)Nc2sc(C)c(C)c2C(=O)NCCCNC(=O)c2ccc(-c3c4nc(c(-c5ccc(S(=O)(=O)[O-])cc5)c5ccc([nH]5)c(-c5ccc(S(=O)(=O)[O-])cc5)c5nc(c(-c6ccc(S(=O)(=O)[O-])cc6)c6ccc3[nH]6)C=C5)C=C4)cc2)ccn1
REMARK SMILES IDX 20 1 19 2 18 3 16 4 17 5 15 7 9 8 10 9 11 10 13 11 12 12
REMARK SMILES IDX 14 13 8 14 5 15 6 16 7 18 4 20 1 21 2 22 3 23 87 24 86 25
REMARK SMILES IDX 85 26 21 27 22 28 23 29 24 31 25 32 26 33 84 34 27 35 83 36
REMARK SMILES IDX 28 37 29 38 30 39 77 40 31 41 82 42 76 43 78 44 32 45 81 46
REMARK SMILES IDX 75 47 74 48 33 50 63 51 44 52 62 53 45 54 48 55 61 56 79 57
REMARK SMILES IDX 46 58 47 59 60 61 80 62 49 63 34 64 35 65 43 66 36 67 42 68
REMARK SMILES IDX 37 69 38 70 39 71 40 72 41 73 64 74 65 75 73 76 66 77 72 78
REMARK SMILES IDX 67 79 68 80 69 81 70 82 71 83 50 84 51 85 59 86 52 87 58 88
REMARK SMILES IDX 53 89 54 90 55 91 56 92 57 93
REMARK H PARENT 18 6 5 17 8 19 22 30 78 49 48 60
REMARK Flexibility Score: inf
ROOT
ATOM      1  C   UNL     1      -5.271  -2.096   2.555  1.00  0.00     0.042 C 
ENDROOT
BRANCH   1   2
ATOM      2  C   UNL     1      -5.192  -1.096   1.422  1.00  0.00     0.118 C 
BRANCH   2   3
ATOM      3  N   UNL     1      -5.415   0.293   1.736  1.00  0.00    -0.352 N 
ATOM      4  C   UNL     1      -4.925   1.451   1.174  1.00  0.00     0.254 C 
ATOM      5  O   UNL     1      -5.395   2.486   1.658  1.00  0.00    -0.269 OA
ATOM      6  H   UNL     1      -6.031   0.441   2.490  1.00  0.00     0.163 HD
BRANCH   4   7
ATOM      7  C   UNL     1      -3.874   1.526   0.126  1.00  0.00     0.077 A 
ATOM      8  C   UNL     1      -3.453   0.582  -0.802  1.00  0.00     0.110 A 
ATOM      9  S   UNL     1      -2.326   1.173  -1.931  1.00  0.00    -0.122 S 
ATOM     10  C   UNL     1      -2.046   2.567  -1.006  1.00  0.00     0.007 A 
ATOM     11  C   UNL     1      -2.964   2.692   0.028  1.00  0.00    -0.022 A 
ATOM     12  C   UNL     1      -0.901   3.451  -1.371  1.00  0.00     0.057 C 
ATOM     13  C   UNL     1      -2.967   3.840   0.997  1.00  0.00     0.046 C 
BRANCH   8  14
ATOM     14  N   UNL     1      -3.862  -0.696  -1.063  1.00  0.00    -0.298 N 
ATOM     15  N   UNL     1      -1.843  -1.941  -0.613  1.00  0.00    -0.308 N 
ATOM     16  C   UNL     1      -3.129  -1.838  -1.029  1.00  0.00     0.324 C 
ATOM     17  H   UNL     1      -1.442  -2.801  -0.875  1.00  0.00     0.171 HD
ATOM     18  O   UNL     1      -3.689  -2.877  -1.397  1.00  0.00    -0.248 OA
ATOM     19  H   UNL     1      -4.810  -0.802  -1.308  1.00  0.00     0.172 HD
BRANCH  15  20
ATOM     20  C   UNL     1      -0.932  -1.134   0.098  1.00  0.00     0.046 A 
ATOM     21  C   UNL     1       2.783  -0.464  -0.101  1.00  0.00     0.067 C 
ATOM     22  C   UNL     1       1.349  -0.405   0.330  1.00  0.00     0.039 A 
ATOM     23  C   UNL     1       0.416  -1.273  -0.232  1.00  0.00     0.049 A 
ATOM     24  N   UNL     1       1.010   0.558   1.215  1.00  0.00    -0.261 NA
ATOM     25  C   UNL     1      -0.282   0.607   1.595  1.00  0.00     0.113 A 
ATOM     26  C   UNL     1      -1.267  -0.233   1.097  1.00  0.00     0.046 A 
ENDBRANCH  15  20
ENDBRANCH   8  14
ENDBRANCH   4   7
ENDBRANCH   2   3
ENDBRANCH   1   2
BRANCH   1  27
ATOM     27  C   UNL     1      -6.585  -2.170   3.298  1.00  0.00     0.118 C 
BRANCH  27  28
ATOM     28  N   UNL     1      -7.711  -2.587   2.477  1.00  0.00    -0.352 N 
ATOM     29  C   UNL     1      -8.456  -3.743   2.463  1.00  0.00     0.251 C 
ATOM     30  H   UNL     1      -7.992  -1.919   1.810  1.00  0.00     0.163 HD
ATOM     31  O   UNL     1      -9.306  -3.882   1.581  1.00  0.00    -0.269 OA
BRANCH  29  32
ATOM     32  C   UNL     1      -8.241  -4.830   3.450  1.00  0.00     0.039 A 
ATOM     33  C   UNL     1      -8.429  -6.156   3.046  1.00  0.00     0.014 A 
ATOM     34  C   UNL     1      -7.885  -4.571   4.773  1.00  0.00     0.014 A 
ATOM     35  C   UNL     1      -8.196  -7.203   3.945  1.00  0.00     0.010 A 
ATOM     36  C   UNL     1      -7.510  -5.611   5.618  1.00  0.00     0.010 A 
ATOM     37  C   UNL     1      -7.691  -6.942   5.230  1.00  0.00    -0.014 A 
BRANCH  37  38
ATOM     38  C   UNL     1      -7.390  -8.043   6.184  1.00  0.00     0.031 A 
ATOM     39  C   UNL     1      -8.087  -8.110   7.521  1.00  0.00     0.074 A 
ATOM     40  C   UNL     1      -6.463  -8.969   5.862  1.00  0.00     0.049 A 
ATOM     41  N   UNL     1      -7.973  -9.008   8.467  1.00  0.00    -0.248 NA
ATOM     42  C   UNL     1      -9.008  -7.010   7.855  1.00  0.00     0.031 C 
ATOM     43  C   UNL     1      -5.672  -8.984   4.629  1.00  0.00     0.029 A 
ATOM     44  N   UNL     1      -6.040 -10.086   6.539  1.00  0.00    -0.354 N 
ATOM     45  C   UNL     1      -8.793  -8.574   9.504  1.00  0.00     0.074 A 
ATOM     46  C   UNL     1      -9.336  -7.295   9.106  1.00  0.00     0.031 C 
ATOM     47  C   UNL     1      -4.910 -10.089   4.608  1.00  0.00     0.029 A 
ATOM     48  C   UNL     1      -5.122 -10.838   5.842  1.00  0.00     0.049 A 
ATOM     49  H   UNL     1      -6.362 -10.327   7.437  1.00  0.00     0.167 HD
ATOM     50  C   UNL     1      -9.099  -9.194  10.669  1.00  0.00     0.031 A 
ATOM     51  C   UNL     1      -4.529 -12.007   6.152  1.00  0.00     0.031 A 
ATOM     52  C   UNL     1      -8.564 -10.471  11.059  1.00  0.00     0.049 A 
ATOM     53  C   UNL     1      -4.883 -12.683   7.448  1.00  0.00     0.074 A 
ATOM     54  C   UNL     1      -8.844 -11.213  12.193  1.00  0.00     0.029 A 
ATOM     55  N   UNL     1      -7.637 -11.196  10.324  1.00  0.00    -0.354 N 
ATOM     56  N   UNL     1      -5.715 -12.289   8.383  1.00  0.00    -0.248 NA
ATOM     57  C   UNL     1      -4.233 -13.971   7.720  1.00  0.00     0.031 C 
ATOM     58  C   UNL     1      -8.042 -12.360  12.171  1.00  0.00     0.029 A 
ATOM     59  C   UNL     1      -7.317 -12.367  10.990  1.00  0.00     0.049 A 
ATOM     60  H   UNL     1      -7.261 -10.919   9.458  1.00  0.00     0.167 HD
ATOM     61  C   UNL     1      -5.715 -13.299   9.339  1.00  0.00     0.074 A 
ATOM     62  C   UNL     1      -4.810 -14.325   8.861  1.00  0.00     0.031 C 
ATOM     63  C   UNL     1      -6.408 -13.375  10.503  1.00  0.00     0.031 A 
BRANCH  50  64
ATOM     64  C   UNL     1     -10.055  -8.490  11.601  1.00  0.00    -0.014 A 
ATOM     65  C   UNL     1     -11.404  -8.291  11.249  1.00  0.00     0.010 A 
ATOM     66  C   UNL     1      -9.604  -8.029  12.851  1.00  0.00     0.010 A 
ATOM     67  C   UNL     1     -12.265  -7.593  12.099  1.00  0.00     0.020 A 
ATOM     68  C   UNL     1     -10.472  -7.361  13.721  1.00  0.00     0.020 A 
ATOM     69  C   UNL     1     -11.792  -7.127  13.329  1.00  0.00     0.054 A 
BRANCH  69  70
ATOM     70  S   UNL     1     -12.932  -6.224  14.413  1.00  0.00     0.124 S 
ATOM     71  O   UNL     1     -13.072  -4.952  13.708  1.00  0.00    -0.237 OA
ATOM     72  O   UNL     1     -14.118  -7.076  14.411  1.00  0.00    -0.237 OA
ATOM     73  O   UNL     1     -12.219  -6.155  15.686  1.00  0.00    -0.744 OA
ENDBRANCH  69  70
ENDBRANCH  50  64
BRANCH  51  74
ATOM     74  C   UNL     1      -3.580 -12.634   5.190  1.00  0.00    -0.014 A 
ATOM     75  C   UNL     1      -3.938 -13.802   4.494  1.00  0.00     0.010 A 
ATOM     76  C   UNL     1      -2.327 -12.047   4.938  1.00  0.00     0.010 A 
ATOM     77  C   UNL     1      -3.057 -14.379   3.574  1.00  0.00     0.020 A 
ATOM     78  C   UNL     1      -1.455 -12.604   3.997  1.00  0.00     0.020 A 
ATOM     79  C   UNL     1      -1.823 -13.772   3.327  1.00  0.00     0.054 A 
BRANCH  79  80
ATOM     80  S   UNL     1      -0.723 -14.502   2.082  1.00  0.00     0.124 S 
ATOM     81  O   UNL     1      -0.265 -15.714   2.753  1.00  0.00    -0.237 OA
ATOM     82  O   UNL     1      -1.623 -14.707   0.949  1.00  0.00    -0.237 OA
ATOM     83  O   UNL     1       0.296 -13.474   1.880  1.00  0.00    -0.744 OA
ENDBRANCH  79  80
ENDBRANCH  51  74
BRANCH  63  84
ATOM     84  C   UNL     1      -6.250 -14.630  11.321  1.00  0.00    -0.014 A 
ATOM     85  C   UNL     1      -5.050 -14.928  11.990  1.00  0.00     0.010 A 
ATOM     86  C   UNL     1      -7.342 -15.509  11.449  1.00  0.00     0.010 A 
ATOM     87  C   UNL     1      -4.929 -16.106  12.732  1.00  0.00     0.020 A 
ATOM     88  C   UNL     1      -7.237 -16.670  12.219  1.00  0.00     0.020 A 
ATOM     89  C   UNL     1      -6.024 -16.971  12.840  1.00  0.00     0.054 A 
BRANCH  89  90
ATOM     90  S   UNL     1      -5.849 -18.481  13.827  1.00  0.00     0.124 S 
ATOM     91  O   UNL     1      -4.998 -19.305  12.973  1.00  0.00    -0.237 OA
ATOM     92  O   UNL     1      -5.224 -17.992  15.053  1.00  0.00    -0.237 OA
ATOM     93  O   UNL     1      -7.223 -18.956  13.982  1.00  0.00    -0.744 OA
ENDBRANCH  89  90
ENDBRANCH  63  84
ENDBRANCH  37  38
ENDBRANCH  29  32
ENDBRANCH  27  28
ENDBRANCH   1  27
TORSDOF 15
