REMARK SMILES C[NH2+][C@]1(C(=O)NCCCNC(=O)c2ccc(-c3c4nc(c(-c5ccc(S(=O)(=O)[O-])cc5)c5ccc([nH]5)c(-c5ccc(S(=O)(=O)[O-])cc5)c5nc(c(-c6ccc(S(=O)(=O)[O-])cc6)c6ccc3[nH]6)C=C5)C=C4)cc2)CCC[C@@H]1CCn1nc(C)c(Cl)c1C
REMARK SMILES IDX 8 1 7 2 6 3 4 4 5 5 3 7 73 8 76 9 74 10 75 11 2 12 1 13
REMARK SMILES IDX 77 16 78 17 79 18 80 19 85 20 81 21 83 22 86 23 82 24 84 25
REMARK SMILES IDX 9 26 10 27 11 28 12 30 13 31 14 32 72 33 15 34 71 35 16 36
REMARK SMILES IDX 17 37 18 38 65 39 19 40 70 41 64 42 66 43 20 44 69 45 63 46
REMARK SMILES IDX 62 47 21 49 51 50 32 51 50 52 33 53 36 54 49 55 67 56 34 57
REMARK SMILES IDX 35 58 48 60 68 61 37 62 22 63 23 64 31 65 24 66 30 67 25 68
REMARK SMILES IDX 26 69 27 70 28 71 29 72 52 73 53 74 61 75 54 76 60 77 55 78
REMARK SMILES IDX 56 79 57 80 58 81 59 82 38 83 39 84 47 85 40 86 46 87 41 88
REMARK SMILES IDX 42 89 43 90 44 91 45 92
REMARK H PARENT 6 6 2 14 2 15 10 29 66 48 36 59
REMARK Flexibility Score: inf
ROOT
ATOM      1  C   UNL     1       1.085   0.501  -2.237  1.00  0.00     0.042 C 
ENDROOT
BRANCH   1   2
ATOM      2  C   UNL     1       0.665  -0.754  -1.494  1.00  0.00     0.118 C 
BRANCH   2   3
ATOM      3  N   UNL     1       1.151  -0.772  -0.124  1.00  0.00    -0.351 N 
ATOM      4  C   UNL     1       0.533  -0.798   1.088  1.00  0.00     0.281 C 
ATOM      5  O   UNL     1       1.292  -0.689   2.061  1.00  0.00    -0.268 OA
ATOM      6  H   UNL     1       2.133  -0.764  -0.060  1.00  0.00     0.163 HD
BRANCH   4   7
ATOM      7  C   UNL     1      -1.029  -0.935   1.272  1.00  0.00     0.178 C 
ATOM      8  C   UNL     1      -1.753   0.263   0.624  1.00  0.00     0.079 C 
ATOM      9  C   UNL     1      -1.576  -2.153   0.484  1.00  0.00     0.062 C 
ATOM     10  C   UNL     1      -3.090  -0.264   0.107  1.00  0.00     0.008 C 
ATOM     11  C   UNL     1      -3.024  -1.794   0.139  1.00  0.00     0.011 C 
BRANCH   7  12
ATOM     12  N   UNL     1      -1.274  -0.940   2.736  1.00  0.00    -0.336 N 
ATOM     13  C   UNL     1      -2.574  -1.243   3.280  1.00  0.00     0.331 C 
ATOM     14  H   UNL     1      -0.628  -1.622   3.134  1.00  0.00     0.346 HD
ATOM     15  H   UNL     1      -1.156   0.043   2.982  1.00  0.00     0.346 HD
ENDBRANCH   7  12
BRANCH   9  16
ATOM     16  C   UNL     1      -1.353  -3.535   1.117  1.00  0.00     0.034 C 
BRANCH  16  17
ATOM     17  C   UNL     1      -1.411  -4.705   0.121  1.00  0.00     0.145 C 
BRANCH  17  18
ATOM     18  N   UNL     1      -0.366  -4.707  -0.892  1.00  0.00    -0.268 N 
ATOM     19  N   UNL     1       0.831  -5.246  -0.574  1.00  0.00    -0.176 NA
ATOM     20  C   UNL     1      -0.435  -4.288  -2.201  1.00  0.00     0.054 A 
ATOM     21  C   UNL     1       1.552  -5.156  -1.700  1.00  0.00     0.078 A 
ATOM     22  C   UNL     1       0.811  -4.545  -2.733  1.00  0.00     0.084 A 
ATOM     23  C   UNL     1      -1.620  -3.674  -2.849  1.00  0.00     0.068 C 
ATOM     24  C   UNL     1       2.937  -5.688  -1.740  1.00  0.00     0.070 C 
ATOM     25  Cl  UNL     1       1.347  -4.206  -4.307  1.00  0.00    -0.080 Cl
ENDBRANCH  17  18
ENDBRANCH  16  17
ENDBRANCH   9  16
ENDBRANCH   4   7
ENDBRANCH   2   3
ENDBRANCH   1   2
BRANCH   1  26
ATOM     26  C   UNL     1       2.584   0.602  -2.461  1.00  0.00     0.118 C 
BRANCH  26  27
ATOM     27  N   UNL     1       3.092  -0.445  -3.337  1.00  0.00    -0.352 N 
ATOM     28  C   UNL     1       3.665  -0.354  -4.584  1.00  0.00     0.251 C 
ATOM     29  H   UNL     1       3.014  -1.359  -2.981  1.00  0.00     0.163 HD
ATOM     30  O   UNL     1       3.866  -1.371  -5.237  1.00  0.00    -0.269 OA
BRANCH  28  31
ATOM     31  C   UNL     1       4.014   0.969  -5.144  1.00  0.00     0.039 A 
ATOM     32  C   UNL     1       3.752   1.225  -6.493  1.00  0.00     0.014 A 
ATOM     33  C   UNL     1       4.601   1.955  -4.348  1.00  0.00     0.014 A 
ATOM     34  C   UNL     1       4.015   2.492  -7.020  1.00  0.00     0.010 A 
ATOM     35  C   UNL     1       4.762   3.243  -4.845  1.00  0.00     0.010 A 
ATOM     36  C   UNL     1       4.484   3.523  -6.190  1.00  0.00    -0.014 A 
BRANCH  36  37
ATOM     37  C   UNL     1       4.711   4.896  -6.708  1.00  0.00     0.031 A 
ATOM     38  C   UNL     1       6.091   5.498  -6.665  1.00  0.00     0.074 A 
ATOM     39  C   UNL     1       3.668   5.625  -7.153  1.00  0.00     0.049 A 
ATOM     40  N   UNL     1       6.478   6.700  -7.008  1.00  0.00    -0.248 NA
ATOM     41  C   UNL     1       7.174   4.648  -6.141  1.00  0.00     0.031 C 
ATOM     42  C   UNL     1       2.276   5.170  -7.207  1.00  0.00     0.029 A 
ATOM     43  N   UNL     1       3.615   6.906  -7.641  1.00  0.00    -0.354 N 
ATOM     44  C   UNL     1       7.837   6.756  -6.721  1.00  0.00     0.074 A 
ATOM     45  C   UNL     1       8.197   5.490  -6.124  1.00  0.00     0.031 C 
ATOM     46  C   UNL     1       1.515   6.143  -7.731  1.00  0.00     0.029 A 
ATOM     47  C   UNL     1       2.351   7.307  -8.006  1.00  0.00     0.049 A 
ATOM     48  H   UNL     1       4.408   7.484  -7.723  1.00  0.00     0.167 HD
ATOM     49  C   UNL     1       8.713   7.762  -6.954  1.00  0.00     0.031 A 
ATOM     50  C   UNL     1       1.911   8.482  -8.498  1.00  0.00     0.031 A 
ATOM     51  C   UNL     1       8.352   9.016  -7.560  1.00  0.00     0.049 A 
ATOM     52  C   UNL     1       2.901   9.590  -8.735  1.00  0.00     0.074 A 
ATOM     53  C   UNL     1       9.175  10.077  -7.894  1.00  0.00     0.029 A 
ATOM     54  N   UNL     1       7.063   9.379  -7.919  1.00  0.00    -0.354 N 
ATOM     55  N   UNL     1       4.195   9.599  -8.523  1.00  0.00    -0.248 NA
ATOM     56  C   UNL     1       2.372  10.844  -9.289  1.00  0.00     0.031 C 
ATOM     57  C   UNL     1       8.374  11.107  -8.399  1.00  0.00     0.029 A 
ATOM     58  C   UNL     1       7.062  10.660  -8.445  1.00  0.00     0.049 A 
ATOM     59  H   UNL     1       6.266   8.811  -7.816  1.00  0.00     0.167 HD
ATOM     60  C   UNL     1       4.640  10.847  -8.946  1.00  0.00     0.074 A 
ATOM     61  C   UNL     1       3.478  11.558  -9.440  1.00  0.00     0.031 C 
ATOM     62  C   UNL     1       5.897  11.356  -8.931  1.00  0.00     0.031 A 
BRANCH  49  63
ATOM     63  C   UNL     1      10.147   7.549  -6.539  1.00  0.00    -0.014 A 
ATOM     64  C   UNL     1      10.965   6.610  -7.193  1.00  0.00     0.010 A 
ATOM     65  C   UNL     1      10.695   8.324  -5.500  1.00  0.00     0.010 A 
ATOM     66  C   UNL     1      12.287   6.415  -6.786  1.00  0.00     0.020 A 
ATOM     67  C   UNL     1      12.027   8.156  -5.111  1.00  0.00     0.020 A 
ATOM     68  C   UNL     1      12.810   7.189  -5.745  1.00  0.00     0.054 A 
BRANCH  68  69
ATOM     69  S   UNL     1      14.535   6.928  -5.251  1.00  0.00     0.124 S 
ATOM     70  O   UNL     1      14.464   5.630  -4.585  1.00  0.00    -0.237 OA
ATOM     71  O   UNL     1      15.239   6.939  -6.531  1.00  0.00    -0.237 OA
ATOM     72  O   UNL     1      14.821   8.062  -4.375  1.00  0.00    -0.744 OA
ENDBRANCH  68  69
ENDBRANCH  49  63
BRANCH  50  73
ATOM     73  C   UNL     1       0.468   8.662  -8.817  1.00  0.00    -0.014 A 
ATOM     74  C   UNL     1       0.039   8.769 -10.152  1.00  0.00     0.010 A 
ATOM     75  C   UNL     1      -0.489   8.712  -7.787  1.00  0.00     0.010 A 
ATOM     76  C   UNL     1      -1.316   8.941 -10.450  1.00  0.00     0.020 A 
ATOM     77  C   UNL     1      -1.848   8.853  -8.082  1.00  0.00     0.020 A 
ATOM     78  C   UNL     1      -2.252   8.979  -9.412  1.00  0.00     0.054 A 
BRANCH  78  79
ATOM     79  S   UNL     1      -4.010   9.149  -9.827  1.00  0.00     0.124 S 
ATOM     80  O   UNL     1      -4.087  10.540 -10.262  1.00  0.00    -0.237 OA
ATOM     81  O   UNL     1      -4.185   8.147 -10.874  1.00  0.00    -0.237 OA
ATOM     82  O   UNL     1      -4.689   8.848  -8.568  1.00  0.00    -0.744 OA
ENDBRANCH  78  79
ENDBRANCH  50  73
BRANCH  62  83
ATOM     83  C   UNL     1       6.094  12.736  -9.501  1.00  0.00    -0.014 A 
ATOM     84  C   UNL     1       5.621  13.879  -8.832  1.00  0.00     0.010 A 
ATOM     85  C   UNL     1       6.817  12.893 -10.698  1.00  0.00     0.010 A 
ATOM     86  C   UNL     1       5.840  15.151  -9.368  1.00  0.00     0.020 A 
ATOM     87  C   UNL     1       7.066  14.164 -11.220  1.00  0.00     0.020 A 
ATOM     88  C   UNL     1       6.562  15.285 -10.559  1.00  0.00     0.054 A 
BRANCH  88  89
ATOM     89  S   UNL     1       6.871  16.950 -11.209  1.00  0.00     0.124 S 
ATOM     90  O   UNL     1       5.550  17.335 -11.697  1.00  0.00    -0.237 OA
ATOM     91  O   UNL     1       7.340  17.672 -10.029  1.00  0.00    -0.237 OA
ATOM     92  O   UNL     1       7.880  16.737 -12.244  1.00  0.00    -0.744 OA
ENDBRANCH  88  89
ENDBRANCH  62  83
ENDBRANCH  36  37
ENDBRANCH  28  31
ENDBRANCH  26  27
ENDBRANCH   1  26
TORSDOF 17
