REMARK SMILES Cc1ccc(C(N)=O)c(NCc2ccc(C(=O)NCCCNC(=O)c3ccc(-c4c5nc(c(-c6ccc(S(=O)(=O)[O-])cc6)c6ccc([nH]6)c(-c6ccc(S(=O)(=O)[O-])cc6)c6nc(c(-c7ccc(S(=O)(=O)[O-])cc7)c7ccc4[nH]7)C=C6)C=C5)cc3)o2)n1
REMARK SMILES IDX 19 1 18 2 16 3 17 4 15 6 12 7 13 8 85 9 14 10 11 11 10 12
REMARK SMILES IDX 9 14 1 15 2 16 3 17 86 18 4 19 5 20 6 21 7 22 8 23 20 26
REMARK SMILES IDX 21 27 22 28 23 29 24 31 25 32 26 33 84 34 27 35 83 36 28 37
REMARK SMILES IDX 29 38 30 39 77 40 31 41 82 42 76 43 78 44 32 45 81 46 75 47
REMARK SMILES IDX 74 48 33 50 63 51 44 52 62 53 45 54 48 55 61 56 79 57 46 58
REMARK SMILES IDX 47 59 60 61 80 62 49 63 34 64 35 65 43 66 36 67 42 68 37 69
REMARK SMILES IDX 38 70 39 71 40 72 41 73 64 74 65 75 73 76 66 77 72 78 67 79
REMARK SMILES IDX 68 80 69 81 70 82 71 83 50 84 51 85 59 86 52 87 58 88 53 89
REMARK SMILES IDX 54 90 55 91 56 92 57 93
REMARK H PARENT 18 5 10 13 7 24 7 25 22 30 78 49 48 60
REMARK Flexibility Score: inf
ROOT
ATOM      1  C   UNL     1      -1.030   7.034  -5.478  1.00  0.00     0.118 C 
ENDROOT
BRANCH   1   2
ATOM      2  N   UNL     1      -1.006   7.799  -4.247  1.00  0.00    -0.349 N 
ATOM      3  C   UNL     1      -1.023   7.393  -2.932  1.00  0.00     0.286 C 
ATOM      4  O   UNL     1      -0.855   8.285  -2.097  1.00  0.00    -0.266 OA
ATOM      5  H   UNL     1      -0.973   8.775  -4.374  1.00  0.00     0.163 HD
BRANCH   3   6
ATOM      6  C   UNL     1      -1.206   5.999  -2.572  1.00  0.00     0.191 A 
ATOM      7  C   UNL     1      -1.065   4.307  -1.147  1.00  0.00     0.124 A 
ATOM      8  C   UNL     1      -1.589   3.791  -2.310  1.00  0.00     0.048 A 
ATOM      9  O   UNL     1      -0.826   5.638  -1.300  1.00  0.00    -0.454 OA
ATOM     10  C   UNL     1      -1.722   4.880  -3.204  1.00  0.00     0.056 A 
BRANCH   7  11
ATOM     11  C   UNL     1      -0.755   3.723   0.191  1.00  0.00     0.190 C 
BRANCH  11  12
ATOM     12  N   UNL     1      -1.534   2.532   0.492  1.00  0.00    -0.362 N 
ATOM     13  H   UNL     1      -2.448   2.628   0.846  1.00  0.00     0.162 HD
BRANCH  12  14
ATOM     14  C   UNL     1      -1.011   1.266   0.290  1.00  0.00     0.139 A 
ATOM     15  C   UNL     1       2.395  -0.102  -0.051  1.00  0.00     0.067 C 
ATOM     16  C   UNL     1       0.899  -0.063   0.026  1.00  0.00     0.040 A 
ATOM     17  C   UNL     1       0.148  -1.224  -0.063  1.00  0.00     0.024 A 
ATOM     18  N   UNL     1       0.335   1.159   0.181  1.00  0.00    -0.236 NA
ATOM     19  C   UNL     1      -1.234  -1.119   0.019  1.00  0.00     0.019 A 
ATOM     20  C   UNL     1      -1.833   0.136   0.188  1.00  0.00     0.081 A 
BRANCH  20  21
ATOM     21  C   UNL     1      -3.318   0.170   0.226  1.00  0.00     0.252 C 
ATOM     22  N   UNL     1      -3.944   1.315  -0.179  1.00  0.00    -0.365 N 
ATOM     23  O   UNL     1      -3.967  -0.809   0.573  1.00  0.00    -0.269 OA
ATOM     24  H   UNL     1      -3.412   2.096  -0.455  1.00  0.00     0.159 HD
ATOM     25  H   UNL     1      -4.927   1.359  -0.196  1.00  0.00     0.159 HD
ENDBRANCH  20  21
ENDBRANCH  12  14
ENDBRANCH  11  12
ENDBRANCH   7  11
ENDBRANCH   3   6
ENDBRANCH   1   2
BRANCH   1  26
ATOM     26  C   UNL     1      -2.410   7.049  -6.131  1.00  0.00     0.042 C 
BRANCH  26  27
ATOM     27  C   UNL     1      -2.727   8.365  -6.841  1.00  0.00     0.118 C 
BRANCH  27  28
ATOM     28  N   UNL     1      -1.863   8.582  -7.995  1.00  0.00    -0.352 N 
ATOM     29  C   UNL     1      -2.174   8.738  -9.323  1.00  0.00     0.251 C 
ATOM     30  H   UNL     1      -0.902   8.624  -7.789  1.00  0.00     0.163 HD
ATOM     31  O   UNL     1      -1.275   8.671 -10.158  1.00  0.00    -0.269 OA
BRANCH  29  32
ATOM     32  C   UNL     1      -3.568   8.980  -9.755  1.00  0.00     0.039 A 
ATOM     33  C   UNL     1      -4.025   8.369 -10.927  1.00  0.00     0.014 A 
ATOM     34  C   UNL     1      -4.405   9.847  -9.048  1.00  0.00     0.014 A 
ATOM     35  C   UNL     1      -5.337   8.583 -11.357  1.00  0.00     0.010 A 
ATOM     36  C   UNL     1      -5.733  10.005  -9.440  1.00  0.00     0.010 A 
ATOM     37  C   UNL     1      -6.212   9.379 -10.601  1.00  0.00    -0.014 A 
BRANCH  37  38
ATOM     38  C   UNL     1      -7.630   9.564 -11.003  1.00  0.00     0.031 A 
ATOM     39  C   UNL     1      -8.141  10.929 -11.379  1.00  0.00     0.074 A 
ATOM     40  C   UNL     1      -8.473   8.514 -10.962  1.00  0.00     0.049 A 
ATOM     41  N   UNL     1      -9.359  11.297 -11.687  1.00  0.00    -0.248 NA
ATOM     42  C   UNL     1      -7.163  12.030 -11.386  1.00  0.00     0.031 C 
ATOM     43  C   UNL     1      -8.107   7.148 -10.576  1.00  0.00     0.029 A 
ATOM     44  N   UNL     1      -9.815   8.431 -11.238  1.00  0.00    -0.354 N 
ATOM     45  C   UNL     1      -9.299  12.669 -11.901  1.00  0.00     0.074 A 
ATOM     46  C   UNL     1      -7.934  13.076 -11.648  1.00  0.00     0.031 C 
ATOM     47  C   UNL     1      -9.192   6.362 -10.660  1.00  0.00     0.029 A 
ATOM     48  C   UNL     1     -10.337   7.171 -11.064  1.00  0.00     0.049 A 
ATOM     49  H   UNL     1     -10.353   9.201 -11.532  1.00  0.00     0.167 HD
ATOM     50  C   UNL     1     -10.287  13.512 -12.287  1.00  0.00     0.031 A 
ATOM     51  C   UNL     1     -11.598   6.717 -11.203  1.00  0.00     0.031 A 
ATOM     52  C   UNL     1     -11.640  13.100 -12.553  1.00  0.00     0.049 A 
ATOM     53  C   UNL     1     -12.678   7.673 -11.632  1.00  0.00     0.074 A 
ATOM     54  C   UNL     1     -12.697  13.866 -13.012  1.00  0.00     0.029 A 
ATOM     55  N   UNL     1     -12.124  11.811 -12.383  1.00  0.00    -0.354 N 
ATOM     56  N   UNL     1     -12.585   8.954 -11.896  1.00  0.00    -0.248 NA
ATOM     57  C   UNL     1     -14.029   7.118 -11.793  1.00  0.00     0.031 C 
ATOM     58  C   UNL     1     -13.834  13.052 -13.070  1.00  0.00     0.029 A 
ATOM     59  C   UNL     1     -13.470  11.766 -12.703  1.00  0.00     0.049 A 
ATOM     60  H   UNL     1     -11.589  11.043 -12.079  1.00  0.00     0.167 HD
ATOM     61  C   UNL     1     -13.860   9.353 -12.281  1.00  0.00     0.074 A 
ATOM     62  C   UNL     1     -14.701   8.175 -12.229  1.00  0.00     0.031 C 
ATOM     63  C   UNL     1     -14.294  10.585 -12.646  1.00  0.00     0.031 A 
BRANCH  50  64
ATOM     64  C   UNL     1      -9.943  14.971 -12.437  1.00  0.00    -0.014 A 
ATOM     65  C   UNL     1      -9.119  15.421 -13.485  1.00  0.00     0.010 A 
ATOM     66  C   UNL     1     -10.487  15.912 -11.545  1.00  0.00     0.010 A 
ATOM     67  C   UNL     1      -8.812  16.779 -13.612  1.00  0.00     0.020 A 
ATOM     68  C   UNL     1     -10.206  17.275 -11.685  1.00  0.00     0.020 A 
ATOM     69  C   UNL     1      -9.356  17.697 -12.709  1.00  0.00     0.054 A 
BRANCH  69  70
ATOM     70  S   UNL     1      -8.959  19.455 -12.911  1.00  0.00     0.124 S 
ATOM     71  O   UNL     1      -7.570  19.503 -12.460  1.00  0.00    -0.237 OA
ATOM     72  O   UNL     1      -9.161  19.667 -14.342  1.00  0.00    -0.237 OA
ATOM     73  O   UNL     1      -9.919  20.131 -12.042  1.00  0.00    -0.744 OA
ENDBRANCH  69  70
ENDBRANCH  50  64
BRANCH  51  74
ATOM     74  C   UNL     1     -11.905   5.284 -10.942  1.00  0.00    -0.014 A 
ATOM     75  C   UNL     1     -12.227   4.419 -12.002  1.00  0.00     0.010 A 
ATOM     76  C   UNL     1     -11.864   4.774  -9.631  1.00  0.00     0.010 A 
ATOM     77  C   UNL     1     -12.521   3.075 -11.755  1.00  0.00     0.020 A 
ATOM     78  C   UNL     1     -12.131   3.425  -9.384  1.00  0.00     0.020 A 
ATOM     79  C   UNL     1     -12.470   2.586 -10.447  1.00  0.00     0.054 A 
BRANCH  79  80
ATOM     80  S   UNL     1     -12.807   0.827 -10.155  1.00  0.00     0.124 S 
ATOM     81  O   UNL     1     -14.255   0.765 -10.319  1.00  0.00    -0.237 OA
ATOM     82  O   UNL     1     -12.022   0.178 -11.202  1.00  0.00    -0.237 OA
ATOM     83  O   UNL     1     -12.319   0.608  -8.796  1.00  0.00    -0.744 OA
ENDBRANCH  79  80
ENDBRANCH  51  74
BRANCH  63  84
ATOM     84  C   UNL     1     -15.738  10.717 -13.052  1.00  0.00    -0.014 A 
ATOM     85  C   UNL     1     -16.772  10.657 -12.102  1.00  0.00     0.010 A 
ATOM     86  C   UNL     1     -16.058  10.961 -14.401  1.00  0.00     0.010 A 
ATOM     87  C   UNL     1     -18.103  10.808 -12.498  1.00  0.00     0.020 A 
ATOM     88  C   UNL     1     -17.385  11.140 -14.796  1.00  0.00     0.020 A 
ATOM     89  C   UNL     1     -18.401  11.049 -13.843  1.00  0.00     0.054 A 
BRANCH  89  90
ATOM     90  S   UNL     1     -20.134  11.286 -14.325  1.00  0.00     0.124 S 
ATOM     91  O   UNL     1     -20.657   9.925 -14.256  1.00  0.00    -0.237 OA
ATOM     92  O   UNL     1     -20.629  12.203 -13.300  1.00  0.00    -0.237 OA
ATOM     93  O   UNL     1     -20.045  11.853 -15.669  1.00  0.00    -0.744 OA
ENDBRANCH  89  90
ENDBRANCH  63  84
ENDBRANCH  37  38
ENDBRANCH  29  32
ENDBRANCH  27  28
ENDBRANCH  26  27
ENDBRANCH   1  26
TORSDOF 17
