REMARK SMILES CCCC[C@H]1C(=S)c2cc(C(=O)NCCCNC(=O)c3ccc(-c4c5nc(c(-c6ccc(S(=O)(=O)[O-])cc6)c6ccc([nH]6)c(-c6ccc(S(=O)(=O)[O-])cc6)c6nc(c(-c7ccc(S(=O)(=O)[O-])cc7)c7ccc4[nH]7)C=C6)C=C5)cc3)ccc2N=C1C
REMARK SMILES IDX 15 1 14 2 13 3 11 4 12 5 10 7 5 8 6 9 84 10 7 11 8 12 83 13
REMARK SMILES IDX 85 14 9 15 82 16 81 17 80 18 4 19 3 20 2 21 1 22 16 23 17 24
REMARK SMILES IDX 18 25 19 27 20 28 21 29 79 30 22 31 78 32 23 33 24 34 25 35
REMARK SMILES IDX 72 36 26 37 77 38 71 39 73 40 27 41 76 42 70 43 69 44 28 46
REMARK SMILES IDX 58 47 39 48 57 49 40 50 43 51 56 52 74 53 41 54 42 55 55 57
REMARK SMILES IDX 75 58 44 59 29 60 30 61 38 62 31 63 37 64 32 65 33 66 34 67
REMARK SMILES IDX 35 68 36 69 59 70 60 71 68 72 61 73 67 74 62 75 63 76 64 77
REMARK SMILES IDX 65 78 66 79 45 80 46 81 54 82 47 83 53 84 48 85 49 86 50 87
REMARK SMILES IDX 51 88 52 89
REMARK H PARENT 13 6 17 26 73 45 43 56
REMARK Flexibility Score: inf
ROOT
ATOM      1  C   UNL     1      -5.269   2.464   9.142  1.00  0.00     0.042 C 
ENDROOT
BRANCH   1   2
ATOM      2  C   UNL     1      -5.814   2.559   7.720  1.00  0.00     0.118 C 
BRANCH   2   3
ATOM      3  N   UNL     1      -4.965   3.390   6.889  1.00  0.00    -0.352 N 
ATOM      4  C   UNL     1      -3.919   3.126   6.048  1.00  0.00     0.251 C 
ATOM      5  O   UNL     1      -3.424   4.094   5.468  1.00  0.00    -0.269 OA
ATOM      6  H   UNL     1      -5.189   4.348   6.941  1.00  0.00     0.163 HD
BRANCH   4   7
ATOM      7  C   UNL     1      -3.381   1.762   5.759  1.00  0.00     0.040 A 
ATOM      8  C   UNL     1      -0.805  -1.120   2.578  1.00  0.00     0.075 C 
ATOM      9  C   UNL     1      -0.995   0.278   3.167  1.00  0.00     0.033 C 
ATOM     10  C   UNL     1      -1.156  -2.215   3.575  1.00  0.00     0.024 C 
ATOM     11  S   UNL     1      -0.015   1.554   2.649  1.00  0.00    -0.083 S 
ATOM     12  C   UNL     1      -1.990   0.412   4.260  1.00  0.00     0.016 A 
ATOM     13  N   UNL     1      -1.847  -2.023   4.653  1.00  0.00    -0.257 NA
ATOM     14  C   UNL     1      -0.725  -3.631   3.281  1.00  0.00     0.062 C 
ATOM     15  C   UNL     1      -2.555   1.645   4.626  1.00  0.00     0.025 A 
ATOM     16  C   UNL     1      -2.301  -0.742   4.979  1.00  0.00     0.071 A 
ATOM     17  C   UNL     1      -3.085  -0.620   6.126  1.00  0.00     0.030 A 
ATOM     18  C   UNL     1      -3.590   0.621   6.532  1.00  0.00     0.016 A 
BRANCH   8  19
ATOM     19  C   UNL     1      -1.631  -1.330   1.290  1.00  0.00     0.015 C 
BRANCH  19  20
ATOM     20  C   UNL     1      -1.102  -0.645   0.019  1.00  0.00     0.001 C 
BRANCH  20  21
ATOM     21  C   UNL     1       0.372  -0.880  -0.327  1.00  0.00    -0.003 C 
ATOM     22  C   UNL     1       0.725  -2.339  -0.556  1.00  0.00     0.004 C 
ENDBRANCH  20  21
ENDBRANCH  19  20
ENDBRANCH   8  19
ENDBRANCH   4   7
ENDBRANCH   2   3
ENDBRANCH   1   2
BRANCH   1  23
ATOM     23  C   UNL     1      -5.451   3.754   9.937  1.00  0.00     0.118 C 
BRANCH  23  24
ATOM     24  N   UNL     1      -6.851   4.014  10.248  1.00  0.00    -0.352 N 
ATOM     25  C   UNL     1      -7.477   4.132  11.467  1.00  0.00     0.251 C 
ATOM     26  H   UNL     1      -7.439   4.122   9.466  1.00  0.00     0.163 HD
ATOM     27  O   UNL     1      -8.699   4.129  11.524  1.00  0.00    -0.269 OA
BRANCH  25  28
ATOM     28  C   UNL     1      -6.671   4.242  12.703  1.00  0.00     0.039 A 
ATOM     29  C   UNL     1      -5.535   5.054  12.742  1.00  0.00     0.014 A 
ATOM     30  C   UNL     1      -7.064   3.532  13.841  1.00  0.00     0.014 A 
ATOM     31  C   UNL     1      -4.706   5.026  13.856  1.00  0.00     0.010 A 
ATOM     32  C   UNL     1      -6.274   3.576  14.994  1.00  0.00     0.010 A 
ATOM     33  C   UNL     1      -5.065   4.288  14.996  1.00  0.00    -0.014 A 
BRANCH  33  34
ATOM     34  C   UNL     1      -4.161   4.283  16.176  1.00  0.00     0.031 A 
ATOM     35  C   UNL     1      -3.489   3.013  16.622  1.00  0.00     0.074 A 
ATOM     36  C   UNL     1      -3.901   5.446  16.807  1.00  0.00     0.049 A 
ATOM     37  N   UNL     1      -2.648   2.834  17.608  1.00  0.00    -0.248 NA
ATOM     38  C   UNL     1      -3.795   1.785  15.869  1.00  0.00     0.031 C 
ATOM     39  C   UNL     1      -4.478   6.743  16.446  1.00  0.00     0.029 A 
ATOM     40  N   UNL     1      -3.065   5.736  17.856  1.00  0.00    -0.354 N 
ATOM     41  C   UNL     1      -2.336   1.479  17.604  1.00  0.00     0.074 A 
ATOM     42  C   UNL     1      -3.103   0.873  16.539  1.00  0.00     0.031 C 
ATOM     43  C   UNL     1      -3.931   7.696  17.213  1.00  0.00     0.029 A 
ATOM     44  C   UNL     1      -3.022   7.074  18.171  1.00  0.00     0.049 A 
ATOM     45  H   UNL     1      -2.545   5.051  18.336  1.00  0.00     0.167 HD
ATOM     46  C   UNL     1      -1.476   0.809  18.406  1.00  0.00     0.031 A 
ATOM     47  C   UNL     1      -2.338   7.734  19.127  1.00  0.00     0.031 A 
ATOM     48  C   UNL     1      -0.706   1.427  19.454  1.00  0.00     0.049 A 
ATOM     49  C   UNL     1      -1.428   6.960  20.036  1.00  0.00     0.074 A 
ATOM     50  C   UNL     1       0.203   0.832  20.311  1.00  0.00     0.029 A 
ATOM     51  N   UNL     1      -0.744   2.774  19.784  1.00  0.00    -0.354 N 
ATOM     52  N   UNL     1      -1.147   5.679  20.014  1.00  0.00    -0.248 NA
ATOM     53  C   UNL     1      -0.746   7.711  21.098  1.00  0.00     0.031 C 
ATOM     54  C   UNL     1       0.664   1.804  21.201  1.00  0.00     0.029 A 
ATOM     55  C   UNL     1       0.102   3.022  20.851  1.00  0.00     0.049 A 
ATOM     56  H   UNL     1      -1.292   3.453  19.327  1.00  0.00     0.167 HD
ATOM     57  C   UNL     1      -0.249   5.470  21.054  1.00  0.00     0.074 A 
ATOM     58  C   UNL     1      -0.016   6.761  21.671  1.00  0.00     0.031 C 
ATOM     59  C   UNL     1       0.322   4.311  21.461  1.00  0.00     0.031 A 
BRANCH  46  60
ATOM     60  C   UNL     1      -1.308  -0.675  18.197  1.00  0.00    -0.014 A 
ATOM     61  C   UNL     1      -1.736  -1.573  19.193  1.00  0.00     0.010 A 
ATOM     62  C   UNL     1      -0.620  -1.176  17.077  1.00  0.00     0.010 A 
ATOM     63  C   UNL     1      -1.454  -2.938  19.090  1.00  0.00     0.020 A 
ATOM     64  C   UNL     1      -0.361  -2.545  16.956  1.00  0.00     0.020 A 
ATOM     65  C   UNL     1      -0.759  -3.414  17.975  1.00  0.00     0.054 A 
BRANCH  65  66
ATOM     66  S   UNL     1      -0.380  -5.185  17.869  1.00  0.00     0.124 S 
ATOM     67  O   UNL     1       0.718  -5.324  18.821  1.00  0.00    -0.237 OA
ATOM     68  O   UNL     1      -1.642  -5.807  18.263  1.00  0.00    -0.237 OA
ATOM     69  O   UNL     1      -0.018  -5.373  16.465  1.00  0.00    -0.744 OA
ENDBRANCH  65  66
ENDBRANCH  46  60
BRANCH  47  70
ATOM     70  C   UNL     1      -2.498   9.211  19.239  1.00  0.00    -0.014 A 
ATOM     71  C   UNL     1      -3.738   9.764  19.611  1.00  0.00     0.010 A 
ATOM     72  C   UNL     1      -1.450  10.072  18.872  1.00  0.00     0.010 A 
ATOM     73  C   UNL     1      -3.951  11.143  19.544  1.00  0.00     0.020 A 
ATOM     74  C   UNL     1      -1.649  11.457  18.837  1.00  0.00     0.020 A 
ATOM     75  C   UNL     1      -2.909  11.979  19.139  1.00  0.00     0.054 A 
BRANCH  75  76
ATOM     76  S   UNL     1      -3.229  13.759  18.990  1.00  0.00     0.124 S 
ATOM     77  O   UNL     1      -3.983  13.822  17.741  1.00  0.00    -0.237 OA
ATOM     78  O   UNL     1      -3.991  14.049  20.201  1.00  0.00    -0.237 OA
ATOM     79  O   UNL     1      -1.891  14.344  18.944  1.00  0.00    -0.744 OA
ENDBRANCH  75  76
ENDBRANCH  47  70
BRANCH  59  80
ATOM     80  C   UNL     1       1.259   4.356  22.640  1.00  0.00    -0.014 A 
ATOM     81  C   UNL     1       2.627   4.082  22.454  1.00  0.00     0.010 A 
ATOM     82  C   UNL     1       0.763   4.522  23.945  1.00  0.00     0.010 A 
ATOM     83  C   UNL     1       3.474   3.929  23.554  1.00  0.00     0.020 A 
ATOM     84  C   UNL     1       1.614   4.399  25.046  1.00  0.00     0.020 A 
ATOM     85  C   UNL     1       2.958   4.075  24.844  1.00  0.00     0.054 A 
BRANCH  85  86
ATOM     86  S   UNL     1       4.062   3.822  26.261  1.00  0.00     0.124 S 
ATOM     87  O   UNL     1       4.186   2.368  26.298  1.00  0.00    -0.237 OA
ATOM     88  O   UNL     1       5.267   4.547  25.863  1.00  0.00    -0.237 OA
ATOM     89  O   UNL     1       3.329   4.415  27.377  1.00  0.00    -0.744 OA
ENDBRANCH  85  86
ENDBRANCH  59  80
ENDBRANCH  33  34
ENDBRANCH  25  28
ENDBRANCH  23  24
ENDBRANCH   1  23
TORSDOF 16
