REMARK SMILES CNC(=O)c1ccc(Cl)cc1NC(=O)[C@H]1[C@@H](C(=O)NCCCNC(=O)c2ccc(-c3c4nc(c(-c5ccc(S(=O)(=O)[O-])cc5)c5ccc([nH]5)c(-c5ccc(S(=O)(=O)[O-])cc5)c5nc(c(-c6ccc(S(=O)(=O)[O-])cc6)c6ccc3[nH]6)C=C5)C=C4)cc2)[C@H]2C=C[C@@H]1C2
REMARK SMILES IDX 21 1 20 2 19 3 17 4 18 5 16 7 15 8 89 9 86 10 88 11 90 12
REMARK SMILES IDX 87 13 13 14 12 15 14 17 11 18 5 19 6 20 7 21 10 22 8 23 9 24
REMARK SMILES IDX 3 25 1 26 2 27 4 29 22 30 23 31 24 32 25 34 26 35 27 36
REMARK SMILES IDX 85 37 28 38 84 39 29 40 30 41 31 42 78 43 32 44 83 45 77 46
REMARK SMILES IDX 79 47 33 48 82 49 76 50 75 51 34 53 64 54 45 55 63 56 46 57
REMARK SMILES IDX 49 58 62 59 80 60 47 61 48 62 61 64 81 65 50 66 35 67 36 68
REMARK SMILES IDX 44 69 37 70 43 71 38 72 39 73 40 74 41 75 42 76 65 77 66 78
REMARK SMILES IDX 74 79 67 80 73 81 68 82 69 83 70 84 71 85 72 86 51 87 52 88
REMARK SMILES IDX 60 89 53 90 59 91 54 92 55 93 56 94 57 95 58 96
REMARK H PARENT 19 6 12 16 2 28 23 33 79 52 49 63
REMARK Flexibility Score: inf
ROOT
ATOM      1  C   UNL     1      -2.352   0.106   7.754  1.00  0.00     0.042 C 
ENDROOT
BRANCH   1   2
ATOM      2  C   UNL     1      -1.703  -0.145   6.387  1.00  0.00     0.117 C 
BRANCH   2   3
ATOM      3  N   UNL     1      -1.923   0.811   5.305  1.00  0.00    -0.356 N 
ATOM      4  C   UNL     1      -1.028   1.713   4.783  1.00  0.00     0.224 C 
ATOM      5  O   UNL     1      -0.958   1.838   3.561  1.00  0.00    -0.275 OA
ATOM      6  H   UNL     1      -2.821   0.809   4.901  1.00  0.00     0.163 HD
BRANCH   4   7
ATOM      7  C   UNL     1      -0.095   2.441   5.707  1.00  0.00     0.098 C 
ATOM      8  C   UNL     1      -0.647   3.055   6.993  1.00  0.00     0.099 C 
ATOM      9  C   UNL     1       0.361   4.214   7.283  1.00  0.00     0.025 C 
ATOM     10  C   UNL     1       0.834   3.583   5.189  1.00  0.00     0.025 C 
ATOM     11  C   UNL     1      -0.047   5.359   6.407  1.00  0.00    -0.027 C 
ATOM     12  C   UNL     1       1.618   3.802   6.500  1.00  0.00     0.017 C 
ATOM     13  C   UNL     1       0.185   4.965   5.146  1.00  0.00    -0.027 C 
BRANCH   8  14
ATOM     14  C   UNL     1      -2.084   3.513   7.261  1.00  0.00     0.228 C 
ATOM     15  N   UNL     1      -3.187   3.673   6.504  1.00  0.00    -0.325 N 
ATOM     16  H   UNL     1      -3.933   3.848   7.121  1.00  0.00     0.169 HD
ATOM     17  O   UNL     1      -2.316   3.746   8.467  1.00  0.00    -0.274 OA
BRANCH  15  18
ATOM     18  C   UNL     1      -3.726   3.695   5.193  1.00  0.00     0.055 A 
ATOM     19  C   UNL     1      -5.142   3.596   5.065  1.00  0.00     0.063 A 
ATOM     20  C   UNL     1      -5.802   3.770   3.837  1.00  0.00     0.017 A 
ATOM     21  C   UNL     1      -5.062   3.877   2.673  1.00  0.00     0.021 A 
ATOM     22  C   UNL     1      -3.014   3.857   4.010  1.00  0.00     0.047 A 
ATOM     23  C   UNL     1      -3.673   3.882   2.762  1.00  0.00     0.043 A 
ATOM     24  Cl  UNL     1      -2.763   3.912   1.299  1.00  0.00    -0.084 Cl
BRANCH  19  25
ATOM     25  C   UNL     1      -5.985   3.219   6.228  1.00  0.00     0.253 C 
ATOM     26  C   UNL     1      -6.974   1.201   5.026  1.00  0.00     0.143 C 
ATOM     27  N   UNL     1      -6.859   2.160   6.106  1.00  0.00    -0.355 N 
ATOM     28  H   UNL     1      -7.489   2.038   6.853  1.00  0.00     0.163 HD
ATOM     29  O   UNL     1      -5.849   3.807   7.287  1.00  0.00    -0.269 OA
ENDBRANCH  19  25
ENDBRANCH  15  18
ENDBRANCH   8  14
ENDBRANCH   4   7
ENDBRANCH   2   3
ENDBRANCH   1   2
BRANCH   1  30
ATOM     30  C   UNL     1      -3.808   0.550   7.799  1.00  0.00     0.118 C 
BRANCH  30  31
ATOM     31  N   UNL     1      -4.754  -0.471   7.404  1.00  0.00    -0.352 N 
ATOM     32  C   UNL     1      -5.832  -0.998   8.071  1.00  0.00     0.251 C 
ATOM     33  H   UNL     1      -4.599  -0.851   6.509  1.00  0.00     0.163 HD
ATOM     34  O   UNL     1      -6.508  -1.851   7.497  1.00  0.00    -0.269 OA
BRANCH  32  35
ATOM     35  C   UNL     1      -6.184  -0.613   9.463  1.00  0.00     0.039 A 
ATOM     36  C   UNL     1      -6.466  -1.650  10.360  1.00  0.00     0.014 A 
ATOM     37  C   UNL     1      -6.326   0.712   9.889  1.00  0.00     0.014 A 
ATOM     38  C   UNL     1      -6.844  -1.368  11.678  1.00  0.00     0.010 A 
ATOM     39  C   UNL     1      -6.671   0.993  11.224  1.00  0.00     0.010 A 
ATOM     40  C   UNL     1      -6.930  -0.043  12.136  1.00  0.00    -0.014 A 
BRANCH  40  41
ATOM     41  C   UNL     1      -7.239   0.225  13.572  1.00  0.00     0.031 A 
ATOM     42  C   UNL     1      -8.551   0.833  14.002  1.00  0.00     0.074 A 
ATOM     43  C   UNL     1      -6.328  -0.099  14.514  1.00  0.00     0.049 A 
ATOM     44  N   UNL     1      -9.003   1.040  15.216  1.00  0.00    -0.248 NA
ATOM     45  C   UNL     1      -9.470   1.270  12.941  1.00  0.00     0.031 C 
ATOM     46  C   UNL     1      -5.001  -0.659  14.247  1.00  0.00     0.029 A 
ATOM     47  N   UNL     1      -6.380  -0.014  15.886  1.00  0.00    -0.354 N 
ATOM     48  C   UNL     1     -10.252   1.635  15.067  1.00  0.00     0.074 A 
ATOM     49  C   UNL     1     -10.473   1.782  13.643  1.00  0.00     0.031 C 
ATOM     50  C   UNL     1      -4.378  -0.893  15.414  1.00  0.00     0.029 A 
ATOM     51  C   UNL     1      -5.246  -0.478  16.513  1.00  0.00     0.049 A 
ATOM     52  H   UNL     1      -7.156   0.344  16.373  1.00  0.00     0.167 HD
ATOM     53  C   UNL     1     -11.137   2.013  16.023  1.00  0.00     0.031 A 
ATOM     54  C   UNL     1      -4.933  -0.566  17.821  1.00  0.00     0.031 A 
ATOM     55  C   UNL     1     -10.928   1.867  17.442  1.00  0.00     0.049 A 
ATOM     56  C   UNL     1      -5.936  -0.138  18.858  1.00  0.00     0.074 A 
ATOM     57  C   UNL     1     -11.805   2.162  18.474  1.00  0.00     0.029 A 
ATOM     58  N   UNL     1      -9.765   1.400  18.034  1.00  0.00    -0.354 N 
ATOM     59  N   UNL     1      -7.150   0.330  18.690  1.00  0.00    -0.248 NA
ATOM     60  C   UNL     1      -5.531  -0.269  20.266  1.00  0.00     0.031 C 
ATOM     61  C   UNL     1     -11.154   1.923  19.690  1.00  0.00     0.029 A 
ATOM     62  C   UNL     1      -9.892   1.426  19.415  1.00  0.00     0.049 A 
ATOM     63  H   UNL     1      -8.967   1.094  17.546  1.00  0.00     0.167 HD
ATOM     64  C   UNL     1      -7.660   0.522  19.971  1.00  0.00     0.074 A 
ATOM     65  C   UNL     1      -6.635   0.098  20.900  1.00  0.00     0.031 C 
ATOM     66  C   UNL     1      -8.871   1.008  20.340  1.00  0.00     0.031 A 
BRANCH  53  67
ATOM     67  C   UNL     1     -12.438   2.633  15.577  1.00  0.00    -0.014 A 
ATOM     68  C   UNL     1     -13.456   1.849  15.006  1.00  0.00     0.010 A 
ATOM     69  C   UNL     1     -12.685   3.996  15.830  1.00  0.00     0.010 A 
ATOM     70  C   UNL     1     -14.689   2.420  14.678  1.00  0.00     0.020 A 
ATOM     71  C   UNL     1     -13.925   4.565  15.525  1.00  0.00     0.020 A 
ATOM     72  C   UNL     1     -14.917   3.775  14.941  1.00  0.00     0.054 A 
BRANCH  72  73
ATOM     73  S   UNL     1     -16.547   4.474  14.557  1.00  0.00     0.124 S 
ATOM     74  O   UNL     1     -16.512   4.536  13.098  1.00  0.00    -0.237 OA
ATOM     75  O   UNL     1     -17.462   3.484  15.121  1.00  0.00    -0.237 OA
ATOM     76  O   UNL     1     -16.540   5.768  15.235  1.00  0.00    -0.744 OA
ENDBRANCH  72  73
ENDBRANCH  53  67
BRANCH  54  77
ATOM     77  C   UNL     1      -3.604  -1.091  18.241  1.00  0.00    -0.014 A 
ATOM     78  C   UNL     1      -3.496  -2.330  18.898  1.00  0.00     0.010 A 
ATOM     79  C   UNL     1      -2.441  -0.332  18.017  1.00  0.00     0.010 A 
ATOM     80  C   UNL     1      -2.256  -2.783  19.358  1.00  0.00     0.020 A 
ATOM     81  C   UNL     1      -1.195  -0.795  18.449  1.00  0.00     0.020 A 
ATOM     82  C   UNL     1      -1.114  -2.009  19.134  1.00  0.00     0.054 A 
BRANCH  82  83
ATOM     83  S   UNL     1       0.490  -2.620  19.722  1.00  0.00     0.124 S 
ATOM     84  O   UNL     1       0.414  -2.342  21.153  1.00  0.00    -0.237 OA
ATOM     85  O   UNL     1       0.450  -4.032  19.348  1.00  0.00    -0.237 OA
ATOM     86  O   UNL     1       1.455  -1.814  18.976  1.00  0.00    -0.744 OA
ENDBRANCH  82  83
ENDBRANCH  54  77
BRANCH  66  87
ATOM     87  C   UNL     1      -9.166   1.075  21.817  1.00  0.00    -0.014 A 
ATOM     88  C   UNL     1      -8.517   2.002  22.652  1.00  0.00     0.010 A 
ATOM     89  C   UNL     1     -10.115   0.200  22.377  1.00  0.00     0.010 A 
ATOM     90  C   UNL     1      -8.771   2.017  24.027  1.00  0.00     0.020 A 
ATOM     91  C   UNL     1     -10.393   0.230  23.747  1.00  0.00     0.020 A 
ATOM     92  C   UNL     1      -9.702   1.124  24.567  1.00  0.00     0.054 A 
BRANCH  92  93
ATOM     93  S   UNL     1     -10.019   1.161  26.353  1.00  0.00     0.124 S 
ATOM     94  O   UNL     1      -8.839   0.484  26.885  1.00  0.00    -0.237 OA
ATOM     95  O   UNL     1     -10.103   2.592  26.638  1.00  0.00    -0.237 OA
ATOM     96  O   UNL     1     -11.275   0.429  26.497  1.00  0.00    -0.744 OA
ENDBRANCH  92  93
ENDBRANCH  66  87
ENDBRANCH  40  41
ENDBRANCH  32  35
ENDBRANCH  30  31
ENDBRANCH   1  30
TORSDOF 16
