REMARK SMILES CC[NH2+][C@@]1(C(=O)NCCCNC(=O)c2ccc(-c3c4nc(c(-c5ccc(S(=O)(=O)[O-])cc5)c5ccc([nH]5)c(-c5ccc(S(=O)(=O)[O-])cc5)c5nc(c(-c6ccc(S(=O)(=O)[O-])cc6)c6ccc3[nH]6)C=C5)C=C4)cc2)CC[C@H]([NH+]2CCC(C(C)(C)C)CC2)C1
REMARK SMILES IDX 9 1 8 2 7 3 5 4 6 5 4 7 74 8 87 9 75 10 76 11 3 12 2 15 1 16
REMARK SMILES IDX 77 17 78 18 86 19 79 21 85 22 80 23 81 24 82 25 83 26 84 27
REMARK SMILES IDX 10 28 11 29 12 30 13 32 14 33 15 34 73 35 16 36 72 37 17 38
REMARK SMILES IDX 18 39 19 40 66 41 20 42 71 43 65 44 67 45 21 46 70 47 64 48
REMARK SMILES IDX 63 49 22 51 52 52 33 53 51 54 34 55 37 56 50 57 68 58 35 59
REMARK SMILES IDX 36 60 49 62 69 63 38 64 23 65 24 66 32 67 25 68 31 69 26 70
REMARK SMILES IDX 27 71 28 72 29 73 30 74 53 75 54 76 62 77 55 78 61 79 56 80
REMARK SMILES IDX 57 81 58 82 59 83 60 84 39 85 40 86 48 87 41 88 47 89 42 90
REMARK SMILES IDX 43 91 44 92 45 93 46 94
REMARK H PARENT 7 6 3 13 3 14 77 20 11 31 67 50 37 61
REMARK Flexibility Score: inf
ROOT
ATOM      1  C   UNL     1      -1.204   6.461   3.695  1.00  0.00     0.042 C 
ENDROOT
BRANCH   1   2
ATOM      2  C   UNL     1       0.235   6.056   2.206  1.00  0.00     0.118 C 
BRANCH   2   3
ATOM      3  N   UNL     1       1.205   4.836   1.932  1.00  0.00    -0.351 N 
ATOM      4  C   UNL     1       1.288   3.719   1.180  1.00  0.00     0.281 C 
ATOM      5  O   UNL     1       2.286   3.019   1.416  1.00  0.00    -0.268 OA
ATOM      6  H   UNL     1       2.010   4.919   2.493  1.00  0.00     0.163 HD
BRANCH   4   7
ATOM      7  C   UNL     1       0.326   3.358   0.019  1.00  0.00     0.181 C 
ATOM      8  C   UNL     1       0.468   4.503  -0.992  1.00  0.00     0.085 C 
ATOM      9  C   UNL     1      -1.177   3.294   0.299  1.00  0.00     0.144 C 
ATOM     10  C   UNL     1      -0.768   5.382  -0.776  1.00  0.00     0.072 C 
ATOM     11  C   UNL     1      -1.636   4.734   0.366  1.00  0.00     0.191 C 
BRANCH   7  12
ATOM     12  N   UNL     1       0.824   2.084  -0.593  1.00  0.00    -0.334 N 
ATOM     13  H   UNL     1       0.487   2.029  -1.554  1.00  0.00     0.347 HD
ATOM     14  H   UNL     1       1.844   2.099  -0.554  1.00  0.00     0.347 HD
BRANCH  12  15
ATOM     15  C   UNL     1       0.366   0.893   0.137  1.00  0.00     0.257 C 
ATOM     16  C   UNL     1       1.067  -0.351  -0.382  1.00  0.00     0.071 C 
ENDBRANCH  12  15
ENDBRANCH   7  12
BRANCH  11  17
ATOM     17  N   UNL     1      -1.718   5.296   1.749  1.00  0.00    -0.332 N 
ATOM     18  C   UNL     1      -1.711   7.110   1.648  1.00  0.00     0.262 C 
ATOM     19  C   UNL     1      -0.804   4.463   3.137  1.00  0.00     0.262 C 
ATOM     20  H   UNL     1      -2.619   5.010   2.132  1.00  0.00     0.348 HD
ATOM     21  C   UNL     1      -0.340   8.166   2.473  1.00  0.00     0.066 C 
ATOM     22  C   UNL     1       0.594   5.437   4.171  1.00  0.00     0.066 C 
ATOM     23  C   UNL     1       0.784   7.374   3.857  1.00  0.00     0.005 C 
BRANCH  23  24
ATOM     24  C   UNL     1       2.288   7.927   3.715  1.00  0.00    -0.035 C 
ATOM     25  C   UNL     1       2.243   9.454   3.954  1.00  0.00     0.011 C 
ATOM     26  C   UNL     1       3.189   7.273   4.768  1.00  0.00     0.011 C 
ATOM     27  C   UNL     1       2.991   7.748   2.340  1.00  0.00     0.011 C 
ENDBRANCH  23  24
ENDBRANCH  11  17
ENDBRANCH   4   7
ENDBRANCH   2   3
ENDBRANCH   1   2
BRANCH   1  28
ATOM     28  C   UNL     1      -1.500   6.118   5.331  1.00  0.00     0.118 C 
BRANCH  28  29
ATOM     29  N   UNL     1      -0.778   6.912   6.334  1.00  0.00    -0.352 N 
ATOM     30  C   UNL     1      -1.258   7.902   7.143  1.00  0.00     0.251 C 
ATOM     31  H   UNL     1       0.178   6.703   6.437  1.00  0.00     0.163 HD
ATOM     32  O   UNL     1      -0.501   8.766   7.602  1.00  0.00    -0.269 OA
BRANCH  30  33
ATOM     33  C   UNL     1      -2.677   7.876   7.508  1.00  0.00     0.039 A 
ATOM     34  C   UNL     1      -3.427   9.051   7.538  1.00  0.00     0.014 A 
ATOM     35  C   UNL     1      -3.249   6.641   7.835  1.00  0.00     0.014 A 
ATOM     36  C   UNL     1      -4.776   8.978   7.877  1.00  0.00     0.010 A 
ATOM     37  C   UNL     1      -4.606   6.560   8.071  1.00  0.00     0.010 A 
ATOM     38  C   UNL     1      -5.372   7.730   8.131  1.00  0.00    -0.014 A 
BRANCH  38  39
ATOM     39  C   UNL     1      -6.793   7.615   8.518  1.00  0.00     0.031 A 
ATOM     40  C   UNL     1      -7.143   7.059   9.871  1.00  0.00     0.074 A 
ATOM     41  C   UNL     1      -7.745   7.935   7.625  1.00  0.00     0.049 A 
ATOM     42  N   UNL     1      -8.320   6.816  10.383  1.00  0.00    -0.248 NA
ATOM     43  C   UNL     1      -6.019   6.684  10.748  1.00  0.00     0.031 C 
ATOM     44  C   UNL     1      -7.501   8.429   6.267  1.00  0.00     0.029 A 
ATOM     45  N   UNL     1      -9.109   7.896   7.725  1.00  0.00    -0.354 N 
ATOM     46  C   UNL     1      -8.075   6.235  11.622  1.00  0.00     0.074 A 
ATOM     47  C   UNL     1      -6.644   6.093  11.753  1.00  0.00     0.031 C 
ATOM     48  C   UNL     1      -8.678   8.697   5.680  1.00  0.00     0.029 A 
ATOM     49  C   UNL     1      -9.755   8.351   6.601  1.00  0.00     0.049 A 
ATOM     50  H   UNL     1      -9.583   7.572   8.525  1.00  0.00     0.167 HD
ATOM     51  C   UNL     1      -8.965   5.880  12.579  1.00  0.00     0.031 A 
ATOM     52  C   UNL     1     -11.070   8.482   6.351  1.00  0.00     0.031 A 
ATOM     53  C   UNL     1     -10.385   6.048  12.431  1.00  0.00     0.049 A 
ATOM     54  C   UNL     1     -12.043   8.094   7.429  1.00  0.00     0.074 A 
ATOM     55  C   UNL     1     -11.386   5.789  13.347  1.00  0.00     0.029 A 
ATOM     56  N   UNL     1     -11.003   6.523  11.281  1.00  0.00    -0.354 N 
ATOM     57  N   UNL     1     -11.797   7.614   8.626  1.00  0.00    -0.248 NA
ATOM     58  C   UNL     1     -13.467   8.279   7.130  1.00  0.00     0.031 C 
ATOM     59  C   UNL     1     -12.614   6.054  12.731  1.00  0.00     0.029 A 
ATOM     60  C   UNL     1     -12.375   6.542  11.454  1.00  0.00     0.049 A 
ATOM     61  H   UNL     1     -10.533   6.805  10.463  1.00  0.00     0.167 HD
ATOM     62  C   UNL     1     -13.037   7.461   9.235  1.00  0.00     0.074 A 
ATOM     63  C   UNL     1     -14.027   7.916   8.277  1.00  0.00     0.031 C 
ATOM     64  C   UNL     1     -13.333   6.992  10.473  1.00  0.00     0.031 A 
BRANCH  51  65
ATOM     65  C   UNL     1      -8.415   5.271  13.844  1.00  0.00    -0.014 A 
ATOM     66  C   UNL     1      -7.600   6.013  14.721  1.00  0.00     0.010 A 
ATOM     67  C   UNL     1      -8.698   3.929  14.154  1.00  0.00     0.010 A 
ATOM     68  C   UNL     1      -7.021   5.407  15.839  1.00  0.00     0.020 A 
ATOM     69  C   UNL     1      -8.151   3.328  15.293  1.00  0.00     0.020 A 
ATOM     70  C   UNL     1      -7.293   4.065  16.113  1.00  0.00     0.054 A 
BRANCH  70  71
ATOM     71  S   UNL     1      -6.516   3.298  17.561  1.00  0.00     0.124 S 
ATOM     72  O   UNL     1      -5.128   3.165  17.122  1.00  0.00    -0.237 OA
ATOM     73  O   UNL     1      -6.749   4.287  18.611  1.00  0.00    -0.237 OA
ATOM     74  O   UNL     1      -7.242   2.041  17.721  1.00  0.00    -0.744 OA
ENDBRANCH  70  71
ENDBRANCH  51  65
BRANCH  52  75
ATOM     75  C   UNL     1     -11.519   9.056   5.055  1.00  0.00    -0.014 A 
ATOM     76  C   UNL     1     -12.055  10.355   5.005  1.00  0.00     0.010 A 
ATOM     77  C   UNL     1     -11.352   8.339   3.856  1.00  0.00     0.010 A 
ATOM     78  C   UNL     1     -12.416  10.926   3.781  1.00  0.00     0.020 A 
ATOM     79  C   UNL     1     -11.687   8.917   2.627  1.00  0.00     0.020 A 
ATOM     80  C   UNL     1     -12.222  10.206   2.599  1.00  0.00     0.054 A 
BRANCH  80  81
ATOM     81  S   UNL     1     -12.623  11.002   1.018  1.00  0.00     0.124 S 
ATOM     82  O   UNL     1     -14.082  11.040   1.058  1.00  0.00    -0.237 OA
ATOM     83  O   UNL     1     -11.952  12.294   1.139  1.00  0.00    -0.237 OA
ATOM     84  O   UNL     1     -12.046  10.100   0.024  1.00  0.00    -0.744 OA
ENDBRANCH  80  81
ENDBRANCH  52  75
BRANCH  64  85
ATOM     85  C   UNL     1     -14.784   6.971  10.868  1.00  0.00    -0.014 A 
ATOM     86  C   UNL     1     -15.680   6.048  10.303  1.00  0.00     0.010 A 
ATOM     87  C   UNL     1     -15.239   7.852  11.867  1.00  0.00     0.010 A 
ATOM     88  C   UNL     1     -17.017   6.028  10.707  1.00  0.00     0.020 A 
ATOM     89  C   UNL     1     -16.566   7.813  12.296  1.00  0.00     0.020 A 
ATOM     90  C   UNL     1     -17.450   6.910  11.703  1.00  0.00     0.054 A 
BRANCH  90  91
ATOM     91  S   UNL     1     -19.179   6.830  12.243  1.00  0.00     0.124 S 
ATOM     92  O   UNL     1     -19.880   7.414  11.102  1.00  0.00    -0.237 OA
ATOM     93  O   UNL     1     -19.385   5.398  12.443  1.00  0.00    -0.237 OA
ATOM     94  O   UNL     1     -19.198   7.633  13.464  1.00  0.00    -0.744 OA
ENDBRANCH  90  91
ENDBRANCH  64  85
ENDBRANCH  38  39
ENDBRANCH  30  33
ENDBRANCH  28  29
ENDBRANCH   1  28
TORSDOF 17
