REMARK SMILES O=C(CCCC(=O)Nc1ccccc1F)NCCCNC(=O)c1ccc(-c2c3nc(c(-c4ccc(S(=O)(=O)[O-])cc4)c4ccc([nH]4)c(-c4ccc(S(=O)(=O)[O-])cc4)c4nc(c(-c5ccc(S(=O)(=O)[O-])cc5)c5ccc2[nH]5)C=C4)C=C3)cc1
REMARK SMILES IDX 17 1 16 2 1 3 2 4 3 6 4 7 5 8 6 9 7 10 8 11 9 13 10 14 14 15
REMARK SMILES IDX 11 16 13 17 15 18 12 19 18 20 19 21 20 22 21 23 22 25 23 26
REMARK SMILES IDX 24 27 82 28 25 29 81 30 26 31 27 32 28 33 75 34 29 35 80 36
REMARK SMILES IDX 74 37 76 38 30 39 79 40 73 41 72 42 31 44 61 45 42 46 60 47
REMARK SMILES IDX 43 48 46 49 59 50 77 51 44 52 45 53 58 55 78 56 47 57 32 58
REMARK SMILES IDX 33 59 41 60 34 61 40 62 35 63 36 64 37 65 38 66 39 67 62 68
REMARK SMILES IDX 63 69 71 70 64 71 70 72 65 73 66 74 67 75 68 76 69 77 48 78
REMARK SMILES IDX 49 79 57 80 50 81 56 82 51 83 52 84 53 85 54 86 55 87
REMARK H PARENT 16 5 8 12 20 24 76 43 46 54
REMARK Flexibility Score: inf
ROOT
ATOM      1  C   UNL     1       1.974   0.759  -2.818  1.00  0.00     0.117 C 
ENDROOT
BRANCH   1   2
ATOM      2  N   UNL     1       2.361   0.119  -1.577  1.00  0.00    -0.356 N 
ATOM      3  O   UNL     1       1.520  -1.936  -2.142  1.00  0.00    -0.275 OA
ATOM      4  C   UNL     1       2.111  -1.215  -1.344  1.00  0.00     0.220 C 
ATOM      5  H   UNL     1       2.815   0.651  -0.884  1.00  0.00     0.163 HD
BRANCH   4   6
ATOM      6  C   UNL     1       2.581  -1.728   0.005  1.00  0.00     0.100 C 
BRANCH   6   7
ATOM      7  C   UNL     1       4.080  -2.011   0.154  1.00  0.00     0.020 C 
BRANCH   7   8
ATOM      8  C   UNL     1       5.075  -0.920  -0.232  1.00  0.00     0.101 C 
BRANCH   8   9
ATOM      9  C   UNL     1       5.714  -0.066   0.864  1.00  0.00     0.224 C 
ATOM     10  O   UNL     1       6.772  -0.400   1.396  1.00  0.00    -0.275 OA
ATOM     11  N   UNL     1       5.231   1.209   1.035  1.00  0.00    -0.324 N 
ATOM     12  H   UNL     1       5.887   1.940   0.967  1.00  0.00     0.170 HD
BRANCH  11  13
ATOM     13  C   UNL     1       3.903   1.580   1.296  1.00  0.00     0.077 A 
ATOM     14  C   UNL     1       3.431   2.788   0.780  1.00  0.00     0.029 A 
ATOM     15  C   UNL     1       3.061   0.817   2.108  1.00  0.00     0.146 A 
ATOM     16  C   UNL     1       2.091   3.149   0.964  1.00  0.00     0.002 A 
ATOM     17  C   UNL     1       1.735   1.188   2.320  1.00  0.00     0.041 A 
ATOM     18  F   UNL     1       3.517  -0.296   2.701  1.00  0.00    -0.205 F 
ATOM     19  C   UNL     1       1.240   2.342   1.720  1.00  0.00     0.003 A 
ENDBRANCH  11  13
ENDBRANCH   8   9
ENDBRANCH   7   8
ENDBRANCH   6   7
ENDBRANCH   4   6
ENDBRANCH   1   2
BRANCH   1  20
ATOM     20  C   UNL     1       2.381   2.229  -2.902  1.00  0.00     0.042 C 
BRANCH  20  21
ATOM     21  C   UNL     1       3.886   2.490  -2.903  1.00  0.00     0.118 C 
BRANCH  21  22
ATOM     22  N   UNL     1       4.550   2.011  -4.101  1.00  0.00    -0.352 N 
ATOM     23  C   UNL     1       5.227   2.690  -5.086  1.00  0.00     0.251 C 
ATOM     24  H   UNL     1       4.509   1.036  -4.231  1.00  0.00     0.163 HD
ATOM     25  O   UNL     1       5.575   2.083  -6.096  1.00  0.00    -0.269 OA
BRANCH  23  26
ATOM     26  C   UNL     1       5.525   4.139  -4.969  1.00  0.00     0.039 A 
ATOM     27  C   UNL     1       5.365   4.942  -6.103  1.00  0.00     0.014 A 
ATOM     28  C   UNL     1       6.020   4.703  -3.790  1.00  0.00     0.014 A 
ATOM     29  C   UNL     1       5.643   6.312  -6.040  1.00  0.00     0.010 A 
ATOM     30  C   UNL     1       6.241   6.082  -3.712  1.00  0.00     0.010 A 
ATOM     31  C   UNL     1       6.056   6.903  -4.835  1.00  0.00    -0.014 A 
BRANCH  31  32
ATOM     32  C   UNL     1       6.287   8.371  -4.742  1.00  0.00     0.031 A 
ATOM     33  C   UNL     1       7.665   8.918  -4.468  1.00  0.00     0.074 A 
ATOM     34  C   UNL     1       5.247   9.222  -4.859  1.00  0.00     0.049 A 
ATOM     35  N   UNL     1       8.041  10.162  -4.309  1.00  0.00    -0.248 NA
ATOM     36  C   UNL     1       8.756   7.940  -4.339  1.00  0.00     0.031 C 
ATOM     37  C   UNL     1       3.856   8.830  -5.099  1.00  0.00     0.029 A 
ATOM     38  N   UNL     1       5.196  10.593  -4.789  1.00  0.00    -0.354 N 
ATOM     39  C   UNL     1       9.406  10.117  -4.047  1.00  0.00     0.074 A 
ATOM     40  C   UNL     1       9.782   8.719  -4.027  1.00  0.00     0.031 C 
ATOM     41  C   UNL     1       3.095   9.934  -5.177  1.00  0.00     0.029 A 
ATOM     42  C   UNL     1       3.932  11.109  -4.955  1.00  0.00     0.049 A 
ATOM     43  H   UNL     1       5.990  11.153  -4.633  1.00  0.00     0.167 HD
ATOM     44  C   UNL     1      10.272  11.142  -3.855  1.00  0.00     0.031 A 
ATOM     45  C   UNL     1       3.489  12.382  -4.926  1.00  0.00     0.031 A 
ATOM     46  C   UNL     1       9.906  12.534  -3.887  1.00  0.00     0.049 A 
ATOM     47  C   UNL     1       4.466  13.502  -4.697  1.00  0.00     0.074 A 
ATOM     48  C   UNL     1      10.726  13.642  -3.756  1.00  0.00     0.029 A 
ATOM     49  N   UNL     1       8.616  13.011  -4.059  1.00  0.00    -0.354 N 
ATOM     50  N   UNL     1       5.762  13.438  -4.506  1.00  0.00    -0.248 NA
ATOM     51  C   UNL     1       3.922  14.867  -4.689  1.00  0.00     0.031 C 
ATOM     52  C   UNL     1       9.925  14.788  -3.801  1.00  0.00     0.029 A 
ATOM     53  C   UNL     1       8.614  14.396  -4.014  1.00  0.00     0.049 A 
ATOM     54  H   UNL     1       7.819  12.450  -4.194  1.00  0.00     0.167 HD
ATOM     55  C   UNL     1       6.191  14.755  -4.379  1.00  0.00     0.074 A 
ATOM     56  C   UNL     1       5.020  15.594  -4.528  1.00  0.00     0.031 C 
ATOM     57  C   UNL     1       7.443  15.224  -4.160  1.00  0.00     0.031 A 
BRANCH  44  58
ATOM     58  C   UNL     1      11.713  10.794  -3.583  1.00  0.00    -0.014 A 
ATOM     59  C   UNL     1      12.538  10.275  -4.596  1.00  0.00     0.010 A 
ATOM     60  C   UNL     1      12.260  11.028  -2.308  1.00  0.00     0.010 A 
ATOM     61  C   UNL     1      13.872   9.954  -4.328  1.00  0.00     0.020 A 
ATOM     62  C   UNL     1      13.601  10.734  -2.043  1.00  0.00     0.020 A 
ATOM     63  C   UNL     1      14.393  10.180  -3.050  1.00  0.00     0.054 A 
BRANCH  63  64
ATOM     64  S   UNL     1      16.130   9.767  -2.733  1.00  0.00     0.124 S 
ATOM     65  O   UNL     1      16.084   8.308  -2.669  1.00  0.00    -0.237 OA
ATOM     66  O   UNL     1      16.812  10.322  -3.899  1.00  0.00    -0.237 OA
ATOM     67  O   UNL     1      16.421  10.437  -1.468  1.00  0.00    -0.744 OA
ENDBRANCH  63  64
ENDBRANCH  44  58
BRANCH  45  68
ATOM     68  C   UNL     1       2.043  12.667  -5.129  1.00  0.00    -0.014 A 
ATOM     69  C   UNL     1       1.593  13.265  -6.319  1.00  0.00     0.010 A 
ATOM     70  C   UNL     1       1.106  12.330  -4.135  1.00  0.00     0.010 A 
ATOM     71  C   UNL     1       0.234  13.534  -6.506  1.00  0.00     0.020 A 
ATOM     72  C   UNL     1      -0.256  12.573  -4.329  1.00  0.00     0.020 A 
ATOM     73  C   UNL     1      -0.682  13.184  -5.510  1.00  0.00     0.054 A 
BRANCH  73  74
ATOM     74  S   UNL     1      -2.448  13.489  -5.796  1.00  0.00     0.124 S 
ATOM     75  O   UNL     1      -2.541  14.933  -5.603  1.00  0.00    -0.237 OA
ATOM     76  O   UNL     1      -2.632  13.020  -7.167  1.00  0.00    -0.237 OA
ATOM     77  O   UNL     1      -3.103  12.675  -4.774  1.00  0.00    -0.744 OA
ENDBRANCH  73  74
ENDBRANCH  45  68
BRANCH  57  78
ATOM     78  C   UNL     1       7.624  16.717  -4.095  1.00  0.00    -0.014 A 
ATOM     79  C   UNL     1       7.189  17.455  -2.980  1.00  0.00     0.010 A 
ATOM     80  C   UNL     1       8.290  17.383  -5.141  1.00  0.00     0.010 A 
ATOM     81  C   UNL     1       7.392  18.837  -2.925  1.00  0.00     0.020 A 
ATOM     82  C   UNL     1       8.517  18.761  -5.077  1.00  0.00     0.020 A 
ATOM     83  C   UNL     1       8.055  19.482  -3.974  1.00  0.00     0.054 A 
BRANCH  83  84
ATOM     84  S   UNL     1       8.350  21.268  -3.857  1.00  0.00     0.124 S 
ATOM     85  O   UNL     1       7.023  21.813  -4.130  1.00  0.00    -0.237 OA
ATOM     86  O   UNL     1       8.824  21.426  -2.484  1.00  0.00    -0.237 OA
ATOM     87  O   UNL     1       9.352  21.522  -4.889  1.00  0.00    -0.744 OA
ENDBRANCH  83  84
ENDBRANCH  57  78
ENDBRANCH  31  32
ENDBRANCH  23  26
ENDBRANCH  21  22
ENDBRANCH  20  21
ENDBRANCH   1  20
TORSDOF 17
