REMARK SMILES CC(C)CS(=O)(=O)Cc1c(C(=O)NCCCNC(=O)c2ccc(-c3c4nc(c(-c5ccc(S(=O)(=O)[O-])cc5)c5ccc([nH]5)c(-c5ccc(S(=O)(=O)[O-])cc5)c5nc(c(-c6ccc(S(=O)(=O)[O-])cc6)c6ccc3[nH]6)C=C5)C=C4)cc2)oc2ccccc12
REMARK SMILES IDX 14 1 13 2 11 3 12 4 10 6 9 7 86 8 80 9 81 10 85 11 82 12
REMARK SMILES IDX 84 13 83 14 8 15 5 16 6 17 7 18 4 19 2 20 1 21 3 22 15 23
REMARK SMILES IDX 16 24 17 25 18 26 19 28 20 29 21 30 79 31 22 32 78 33 23 34
REMARK SMILES IDX 24 35 25 36 72 37 26 38 77 39 71 40 73 41 27 42 76 43 70 44
REMARK SMILES IDX 69 45 28 47 58 48 39 49 57 50 40 51 43 52 56 53 74 54 41 55
REMARK SMILES IDX 42 56 55 58 75 59 44 60 29 61 30 62 38 63 31 64 37 65 32 66
REMARK SMILES IDX 33 67 34 68 35 69 36 70 59 71 60 72 68 73 61 74 67 75 62 76
REMARK SMILES IDX 63 77 64 78 65 79 66 80 45 81 46 82 54 83 47 84 53 85 48 86
REMARK SMILES IDX 49 87 50 88 51 89 52 90
REMARK H PARENT 13 5 17 27 73 46 43 57
REMARK Flexibility Score: inf
ROOT
ATOM      1  C   UNL     1      -0.744  -4.343   2.042  1.00  0.00     0.118 C 
ENDROOT
BRANCH   1   2
ATOM      2  N   UNL     1      -0.172  -3.290   1.236  1.00  0.00    -0.349 N 
ATOM      3  C   UNL     1      -0.601  -2.028   0.967  1.00  0.00     0.287 C 
ATOM      4  O   UNL     1      -0.142  -1.556  -0.070  1.00  0.00    -0.266 OA
ATOM      5  H   UNL     1       0.680  -3.528   0.805  1.00  0.00     0.163 HD
BRANCH   3   6
ATOM      6  C   UNL     1      -1.435  -1.242   1.835  1.00  0.00     0.196 A 
ATOM      7  C   UNL     1      -1.657   0.138   1.836  1.00  0.00     0.027 A 
ATOM      8  C   UNL     1      -2.387   0.397   3.052  1.00  0.00     0.025 A 
ATOM      9  O   UNL     1      -2.019  -1.819   2.919  1.00  0.00    -0.451 OA
ATOM     10  C   UNL     1      -2.549  -0.831   3.678  1.00  0.00     0.135 A 
ATOM     11  C   UNL     1      -2.845   1.543   3.735  1.00  0.00     0.012 A 
ATOM     12  C   UNL     1      -3.120  -1.014   4.935  1.00  0.00     0.048 A 
ATOM     13  C   UNL     1      -3.416   1.395   5.010  1.00  0.00     0.001 A 
ATOM     14  C   UNL     1      -3.545   0.137   5.601  1.00  0.00     0.004 A 
BRANCH   7  15
ATOM     15  C   UNL     1      -1.015   1.191   0.968  1.00  0.00     0.177 C 
BRANCH  15  16
ATOM     16  S   UNL     1      -1.516   1.481  -0.732  1.00  0.00     0.154 S 
ATOM     17  O   UNL     1      -1.042   2.818  -1.065  1.00  0.00    -0.228 OA
ATOM     18  O   UNL     1      -2.943   1.214  -0.818  1.00  0.00    -0.228 OA
BRANCH  16  19
ATOM     19  C   UNL     1      -0.713   0.386  -1.895  1.00  0.00     0.140 C 
BRANCH  19  20
ATOM     20  C   UNL     1       0.822   0.401  -2.068  1.00  0.00    -0.002 C 
ATOM     21  C   UNL     1       1.702   0.643  -0.843  1.00  0.00     0.008 C 
ATOM     22  C   UNL     1       1.266  -0.904  -2.757  1.00  0.00     0.008 C 
ENDBRANCH  19  20
ENDBRANCH  16  19
ENDBRANCH  15  16
ENDBRANCH   7  15
ENDBRANCH   3   6
ENDBRANCH   1   2
BRANCH   1  23
ATOM     23  C   UNL     1      -1.719  -5.171   1.209  1.00  0.00     0.042 C 
BRANCH  23  24
ATOM     24  C   UNL     1      -1.148  -5.645  -0.131  1.00  0.00     0.118 C 
BRANCH  24  25
ATOM     25  N   UNL     1       0.072  -6.430   0.019  1.00  0.00    -0.352 N 
ATOM     26  C   UNL     1       0.281  -7.775  -0.157  1.00  0.00     0.251 C 
ATOM     27  H   UNL     1       0.868  -5.916   0.288  1.00  0.00     0.163 HD
ATOM     28  O   UNL     1       1.331  -8.284   0.225  1.00  0.00    -0.269 OA
BRANCH  26  29
ATOM     29  C   UNL     1      -0.766  -8.606  -0.783  1.00  0.00     0.039 A 
ATOM     30  C   UNL     1      -1.116  -9.819  -0.187  1.00  0.00     0.014 A 
ATOM     31  C   UNL     1      -1.394  -8.191  -1.960  1.00  0.00     0.014 A 
ATOM     32  C   UNL     1      -2.148 -10.584  -0.734  1.00  0.00     0.010 A 
ATOM     33  C   UNL     1      -2.472  -8.915  -2.458  1.00  0.00     0.010 A 
ATOM     34  C   UNL     1      -2.860 -10.120  -1.852  1.00  0.00    -0.014 A 
BRANCH  34  35
ATOM     35  C   UNL     1      -4.011 -10.875  -2.409  1.00  0.00     0.031 A 
ATOM     36  C   UNL     1      -3.947 -11.418  -3.811  1.00  0.00     0.074 A 
ATOM     37  C   UNL     1      -5.140 -11.005  -1.683  1.00  0.00     0.049 A 
ATOM     38  N   UNL     1      -4.880 -12.014  -4.508  1.00  0.00    -0.248 NA
ATOM     39  C   UNL     1      -2.676 -11.245  -4.534  1.00  0.00     0.031 C 
ATOM     40  C   UNL     1      -5.339 -10.495  -0.324  1.00  0.00     0.029 A 
ATOM     41  N   UNL     1      -6.339 -11.597  -1.993  1.00  0.00    -0.354 N 
ATOM     42  C   UNL     1      -4.318 -12.267  -5.754  1.00  0.00     0.074 A 
ATOM     43  C   UNL     1      -2.980 -11.719  -5.734  1.00  0.00     0.031 C 
ATOM     44  C   UNL     1      -6.577 -10.814   0.088  1.00  0.00     0.029 A 
ATOM     45  C   UNL     1      -7.275 -11.508  -0.989  1.00  0.00     0.049 A 
ATOM     46  H   UNL     1      -6.513 -12.043  -2.853  1.00  0.00     0.167 HD
ATOM     47  C   UNL     1      -4.861 -12.912  -6.814  1.00  0.00     0.031 A 
ATOM     48  C   UNL     1      -8.556 -11.925  -0.944  1.00  0.00     0.031 A 
ATOM     49  C   UNL     1      -6.188 -13.468  -6.825  1.00  0.00     0.049 A 
ATOM     50  C   UNL     1      -9.140 -12.627  -2.139  1.00  0.00     0.074 A 
ATOM     51  C   UNL     1      -6.810 -14.185  -7.832  1.00  0.00     0.029 A 
ATOM     52  N   UNL     1      -7.096 -13.371  -5.782  1.00  0.00    -0.354 N 
ATOM     53  N   UNL     1      -8.574 -12.906  -3.289  1.00  0.00    -0.248 NA
ATOM     54  C   UNL     1     -10.534 -13.081  -2.027  1.00  0.00     0.031 C 
ATOM     55  C   UNL     1      -8.113 -14.479  -7.416  1.00  0.00     0.029 A 
ATOM     56  C   UNL     1      -8.280 -13.998  -6.127  1.00  0.00     0.049 A 
ATOM     57  H   UNL     1      -6.924 -12.923  -4.922  1.00  0.00     0.167 HD
ATOM     58  C   UNL     1      -9.531 -13.598  -4.024  1.00  0.00     0.074 A 
ATOM     59  C   UNL     1     -10.707 -13.703  -3.186  1.00  0.00     0.031 C 
ATOM     60  C   UNL     1      -9.440 -14.104  -5.278  1.00  0.00     0.031 A 
BRANCH  47  61
ATOM     61  C   UNL     1      -4.018 -13.048  -8.055  1.00  0.00    -0.014 A 
ATOM     62  C   UNL     1      -2.890 -13.889  -8.078  1.00  0.00     0.010 A 
ATOM     63  C   UNL     1      -4.382 -12.361  -9.227  1.00  0.00     0.010 A 
ATOM     64  C   UNL     1      -2.119 -14.008  -9.237  1.00  0.00     0.020 A 
ATOM     65  C   UNL     1      -3.630 -12.500 -10.398  1.00  0.00     0.020 A 
ATOM     66  C   UNL     1      -2.493 -13.310 -10.390  1.00  0.00     0.054 A 
BRANCH  66  67
ATOM     67  S   UNL     1      -1.487 -13.503 -11.886  1.00  0.00     0.124 S 
ATOM     68  O   UNL     1      -0.286 -12.747 -11.540  1.00  0.00    -0.237 OA
ATOM     69  O   UNL     1      -1.314 -14.951 -11.971  1.00  0.00    -0.237 OA
ATOM     70  O   UNL     1      -2.312 -12.914 -12.938  1.00  0.00    -0.744 OA
ENDBRANCH  66  67
ENDBRANCH  47  61
BRANCH  48  71
ATOM     71  C   UNL     1      -9.370 -11.699   0.282  1.00  0.00    -0.014 A 
ATOM     72  C   UNL     1      -9.739 -12.780   1.102  1.00  0.00     0.010 A 
ATOM     73  C   UNL     1      -9.774 -10.400   0.642  1.00  0.00     0.010 A 
ATOM     74  C   UNL     1     -10.516 -12.570   2.246  1.00  0.00     0.020 A 
ATOM     75  C   UNL     1     -10.526 -10.182   1.800  1.00  0.00     0.020 A 
ATOM     76  C   UNL     1     -10.903 -11.271   2.588  1.00  0.00     0.054 A 
BRANCH  76  77
ATOM     77  S   UNL     1     -11.872 -11.018   4.101  1.00  0.00     0.124 S 
ATOM     78  O   UNL     1     -13.182 -11.528   3.712  1.00  0.00    -0.237 OA
ATOM     79  O   UNL     1     -11.144 -11.823   5.080  1.00  0.00    -0.237 OA
ATOM     80  O   UNL     1     -11.798  -9.575   4.316  1.00  0.00    -0.744 OA
ENDBRANCH  76  77
ENDBRANCH  48  71
BRANCH  60  81
ATOM     81  C   UNL     1     -10.626 -14.864  -5.812  1.00  0.00    -0.014 A 
ATOM     82  C   UNL     1     -11.805 -14.204  -6.199  1.00  0.00     0.010 A 
ATOM     83  C   UNL     1     -10.526 -16.256  -5.995  1.00  0.00     0.010 A 
ATOM     84  C   UNL     1     -12.872 -14.927  -6.739  1.00  0.00     0.020 A 
ATOM     85  C   UNL     1     -11.579 -16.977  -6.561  1.00  0.00     0.020 A 
ATOM     86  C   UNL     1     -12.751 -16.309  -6.919  1.00  0.00     0.054 A 
BRANCH  86  87
ATOM     87  S   UNL     1     -14.127 -17.214  -7.678  1.00  0.00     0.124 S 
ATOM     88  O   UNL     1     -15.111 -17.232  -6.599  1.00  0.00    -0.237 OA
ATOM     89  O   UNL     1     -14.468 -16.377  -8.826  1.00  0.00    -0.237 OA
ATOM     90  O   UNL     1     -13.546 -18.513  -8.012  1.00  0.00    -0.744 OA
ENDBRANCH  86  87
ENDBRANCH  60  81
ENDBRANCH  34  35
ENDBRANCH  26  29
ENDBRANCH  24  25
ENDBRANCH  23  24
ENDBRANCH   1  23
TORSDOF 17
