REMARK SMILES O=C(CCc1nc(-c2ccccc2)c(-c2ccccc2)o1)NCCCNC(=O)c1ccc(-c2c3nc(c(-c4ccc(S(=O)(=O)[O-])cc4)c4ccc([nH]4)c(-c4ccc(S(=O)(=O)[O-])cc4)c4nc(c(-c5ccc(S(=O)(=O)[O-])cc5)c5ccc2[nH]5)C=C4)C=C3)cc1
REMARK SMILES IDX 24 1 23 2 22 3 1 4 2 5 3 7 4 8 5 9 6 10 21 11 7 12 14 13
REMARK SMILES IDX 8 14 9 15 13 16 10 17 12 18 11 19 15 20 16 21 20 22 17 23
REMARK SMILES IDX 19 24 18 25 25 26 26 27 27 28 28 30 29 31 30 32 88 33 31 34
REMARK SMILES IDX 87 35 32 36 33 37 34 38 81 39 35 40 86 41 80 42 82 43 36 44
REMARK SMILES IDX 85 45 79 46 78 47 37 49 67 50 48 51 66 52 49 53 52 54 65 55
REMARK SMILES IDX 83 56 50 57 51 58 64 60 84 61 53 62 38 63 39 64 47 65 40 66
REMARK SMILES IDX 46 67 41 68 42 69 43 70 44 71 45 72 68 73 69 74 77 75 70 76
REMARK SMILES IDX 76 77 71 78 72 79 73 80 74 81 75 82 54 83 55 84 63 85 56 86
REMARK SMILES IDX 62 87 57 88 58 89 59 90 60 91 61 92
REMARK H PARENT 22 6 26 29 82 48 52 59
REMARK Flexibility Score: inf
ROOT
ATOM      1  C   UNL     1       2.320   1.613   3.113  1.00  0.00     0.042 C 
ENDROOT
BRANCH   1   2
ATOM      2  C   UNL     1       2.064   1.733   1.616  1.00  0.00     0.117 C 
BRANCH   2   3
ATOM      3  N   UNL     1       2.778   0.733   0.850  1.00  0.00    -0.356 N 
ATOM      4  O   UNL     1       1.033   0.180  -0.541  1.00  0.00    -0.275 OA
ATOM      5  C   UNL     1       2.205   0.058  -0.202  1.00  0.00     0.220 C 
ATOM      6  H   UNL     1       3.710   0.529   1.092  1.00  0.00     0.163 HD
BRANCH   5   7
ATOM      7  C   UNL     1       3.161  -0.845  -0.951  1.00  0.00     0.110 C 
BRANCH   7   8
ATOM      8  C   UNL     1       4.028  -0.043  -1.917  1.00  0.00     0.107 C 
BRANCH   8   9
ATOM      9  C   UNL     1       5.082   0.727  -1.202  1.00  0.00     0.196 A 
ATOM     10  N   UNL     1       6.081   0.265  -0.479  1.00  0.00    -0.213 NA
ATOM     11  O   UNL     1       4.953   2.089  -1.195  1.00  0.00    -0.440 OA
ATOM     12  C   UNL     1       6.670   1.401   0.029  1.00  0.00     0.117 A 
ATOM     13  C   UNL     1       5.995   2.523  -0.417  1.00  0.00     0.162 A 
BRANCH  12  14
ATOM     14  C   UNL     1       7.805   1.390   0.930  1.00  0.00     0.004 A 
ATOM     15  C   UNL     1       7.759   2.086   2.146  1.00  0.00     0.010 A 
ATOM     16  C   UNL     1       8.975   0.712   0.578  1.00  0.00     0.010 A 
ATOM     17  C   UNL     1       8.868   2.117   2.992  1.00  0.00     0.001 A 
ATOM     18  C   UNL     1      10.091   0.754   1.420  1.00  0.00     0.001 A 
ATOM     19  C   UNL     1      10.036   1.456   2.625  1.00  0.00     0.000 A 
ENDBRANCH  12  14
BRANCH  13  20
ATOM     20  C   UNL     1       6.137   3.958  -0.243  1.00  0.00     0.020 A 
ATOM     21  C   UNL     1       5.024   4.761   0.034  1.00  0.00     0.012 A 
ATOM     22  C   UNL     1       7.409   4.550  -0.269  1.00  0.00     0.012 A 
ATOM     23  C   UNL     1       5.188   6.114   0.341  1.00  0.00     0.001 A 
ATOM     24  C   UNL     1       7.570   5.906   0.021  1.00  0.00     0.001 A 
ATOM     25  C   UNL     1       6.461   6.683   0.340  1.00  0.00     0.000 A 
ENDBRANCH  13  20
ENDBRANCH   8   9
ENDBRANCH   7   8
ENDBRANCH   5   7
ENDBRANCH   2   3
ENDBRANCH   1   2
BRANCH   1  26
ATOM     26  C   UNL     1       3.769   1.824   3.538  1.00  0.00     0.118 C 
BRANCH  26  27
ATOM     27  N   UNL     1       4.258   3.166   3.264  1.00  0.00    -0.352 N 
ATOM     28  C   UNL     1       4.987   4.024   4.046  1.00  0.00     0.251 C 
ATOM     29  H   UNL     1       4.030   3.514   2.371  1.00  0.00     0.163 HD
ATOM     30  O   UNL     1       5.176   5.175   3.649  1.00  0.00    -0.269 OA
BRANCH  28  31
ATOM     31  C   UNL     1       5.527   3.610   5.360  1.00  0.00     0.039 A 
ATOM     32  C   UNL     1       5.558   4.564   6.383  1.00  0.00     0.014 A 
ATOM     33  C   UNL     1       6.024   2.325   5.599  1.00  0.00     0.014 A 
ATOM     34  C   UNL     1       6.015   4.211   7.653  1.00  0.00     0.010 A 
ATOM     35  C   UNL     1       6.412   1.952   6.885  1.00  0.00     0.010 A 
ATOM     36  C   UNL     1       6.404   2.890   7.925  1.00  0.00    -0.014 A 
BRANCH  36  37
ATOM     37  C   UNL     1       6.754   2.480   9.307  1.00  0.00     0.031 A 
ATOM     38  C   UNL     1       8.147   2.033   9.649  1.00  0.00     0.074 A 
ATOM     39  C   UNL     1       5.787   2.477  10.246  1.00  0.00     0.049 A 
ATOM     40  N   UNL     1       8.631   1.668  10.808  1.00  0.00    -0.248 NA
ATOM     41  C   UNL     1       9.119   1.968   8.545  1.00  0.00     0.031 C 
ATOM     42  C   UNL     1       4.385   2.837  10.016  1.00  0.00     0.029 A 
ATOM     43  N   UNL     1       5.833   2.166  11.581  1.00  0.00    -0.354 N 
ATOM     44  C   UNL     1       9.958   1.328  10.576  1.00  0.00     0.074 A 
ATOM     45  C   UNL     1      10.189   1.478   9.155  1.00  0.00     0.031 C 
ATOM     46  C   UNL     1       3.715   2.765  11.177  1.00  0.00     0.029 A 
ATOM     47  C   UNL     1       4.627   2.318  12.224  1.00  0.00     0.049 A 
ATOM     48  H   UNL     1       6.652   1.863  12.036  1.00  0.00     0.167 HD
ATOM     49  C   UNL     1      10.903   0.943  11.468  1.00  0.00     0.031 A 
ATOM     50  C   UNL     1       4.291   2.122  13.513  1.00  0.00     0.031 A 
ATOM     51  C   UNL     1      10.659   0.788  12.879  1.00  0.00     0.049 A 
ATOM     52  C   UNL     1       5.356   1.691  14.482  1.00  0.00     0.074 A 
ATOM     53  C   UNL     1      11.557   0.452  13.877  1.00  0.00     0.029 A 
ATOM     54  N   UNL     1       9.425   0.951  13.493  1.00  0.00    -0.354 N 
ATOM     55  N   UNL     1       6.627   1.452  14.257  1.00  0.00    -0.248 NA
ATOM     56  C   UNL     1       4.947   1.522  15.882  1.00  0.00     0.031 C 
ATOM     57  C   UNL     1      10.855   0.354  15.083  1.00  0.00     0.029 A 
ATOM     58  C   UNL     1       9.533   0.697  14.850  1.00  0.00     0.049 A 
ATOM     59  H   UNL     1       8.594   1.210  13.031  1.00  0.00     0.167 HD
ATOM     60  C   UNL     1       7.175   1.130  15.493  1.00  0.00     0.074 A 
ATOM     61  C   UNL     1       6.102   1.228  16.463  1.00  0.00     0.031 C 
ATOM     62  C   UNL     1       8.451   0.788  15.800  1.00  0.00     0.031 A 
BRANCH  49  63
ATOM     63  C   UNL     1      12.286   0.657  10.942  1.00  0.00    -0.014 A 
ATOM     64  C   UNL     1      13.103   1.689  10.444  1.00  0.00     0.010 A 
ATOM     65  C   UNL     1      12.796  -0.654  10.985  1.00  0.00     0.010 A 
ATOM     66  C   UNL     1      14.384   1.410   9.960  1.00  0.00     0.020 A 
ATOM     67  C   UNL     1      14.089  -0.933  10.531  1.00  0.00     0.020 A 
ATOM     68  C   UNL     1      14.869   0.099  10.005  1.00  0.00     0.054 A 
BRANCH  68  69
ATOM     69  S   UNL     1      16.544  -0.228   9.391  1.00  0.00     0.124 S 
ATOM     70  O   UNL     1      16.371  -0.069   7.949  1.00  0.00    -0.237 OA
ATOM     71  O   UNL     1      17.334   0.810  10.047  1.00  0.00    -0.237 OA
ATOM     72  O   UNL     1      16.818  -1.592   9.837  1.00  0.00    -0.744 OA
ENDBRANCH  68  69
ENDBRANCH  49  63
BRANCH  50  73
ATOM     73  C   UNL     1       2.890   2.357  13.960  1.00  0.00    -0.014 A 
ATOM     74  C   UNL     1       2.579   3.441  14.800  1.00  0.00     0.010 A 
ATOM     75  C   UNL     1       1.855   1.505  13.533  1.00  0.00     0.010 A 
ATOM     76  C   UNL     1       1.263   3.655  15.223  1.00  0.00     0.020 A 
ATOM     77  C   UNL     1       0.534   1.735  13.927  1.00  0.00     0.020 A 
ATOM     78  C   UNL     1       0.248   2.802  14.781  1.00  0.00     0.054 A 
BRANCH  78  79
ATOM     79  S   UNL     1      -1.458   3.127  15.304  1.00  0.00     0.124 S 
ATOM     80  O   UNL     1      -1.425   2.735  16.709  1.00  0.00    -0.237 OA
ATOM     81  O   UNL     1      -1.597   4.559  15.049  1.00  0.00    -0.237 OA
ATOM     82  O   UNL     1      -2.253   2.267  14.431  1.00  0.00    -0.744 OA
ENDBRANCH  78  79
ENDBRANCH  50  73
BRANCH  62  83
ATOM     83  C   UNL     1       8.762   0.524  17.250  1.00  0.00    -0.014 A 
ATOM     84  C   UNL     1       8.265  -0.614  17.911  1.00  0.00     0.010 A 
ATOM     85  C   UNL     1       9.588   1.419  17.954  1.00  0.00     0.010 A 
ATOM     86  C   UNL     1       8.550  -0.825  19.263  1.00  0.00     0.020 A 
ATOM     87  C   UNL     1       9.903   1.193  19.296  1.00  0.00     0.020 A 
ATOM     88  C   UNL     1       9.365   0.082  19.947  1.00  0.00     0.054 A 
BRANCH  88  89
ATOM     89  S   UNL     1       9.736  -0.226  21.695  1.00  0.00     0.124 S 
ATOM     90  O   UNL     1       8.465   0.100  22.337  1.00  0.00    -0.237 OA
ATOM     91  O   UNL     1      10.099  -1.641  21.701  1.00  0.00    -0.237 OA
ATOM     92  O   UNL     1      10.834   0.694  21.984  1.00  0.00    -0.744 OA
ENDBRANCH  88  89
ENDBRANCH  62  83
ENDBRANCH  36  37
ENDBRANCH  28  31
ENDBRANCH  26  27
ENDBRANCH   1  26
TORSDOF 17
