REMARK SMILES Cc1ccc(C)c([C@@H](O)[C@@H](C)[C@@H](C)C(=O)NCCCNC(=O)c2ccc(-c3c4nc(c(-c5ccc(S(=O)(=O)[O-])cc5)c5ccc([nH]5)c(-c5ccc(S(=O)(=O)[O-])cc5)c5nc(c(-c6ccc(S(=O)(=O)[O-])cc6)c6ccc3[nH]6)C=C5)C=C4)cc2)c1
REMARK SMILES IDX 18 1 17 2 16 3 14 4 15 5 12 7 13 8 10 9 11 10 8 11 7 12 1 13
REMARK SMILES IDX 2 14 3 15 83 16 4 17 5 18 6 19 9 20 19 22 20 23 21 24 22 26
REMARK SMILES IDX 23 27 24 28 82 29 25 30 81 31 26 32 27 33 28 34 75 35 29 36
REMARK SMILES IDX 80 37 74 38 76 39 30 40 79 41 73 42 72 43 31 45 61 46 42 47
REMARK SMILES IDX 60 48 43 49 46 50 59 51 77 52 44 53 45 54 58 56 78 57 47 58
REMARK SMILES IDX 32 59 33 60 41 61 34 62 40 63 35 64 36 65 37 66 38 67 39 68
REMARK SMILES IDX 62 69 63 70 71 71 64 72 70 73 65 74 66 75 67 76 68 77 69 78
REMARK SMILES IDX 48 79 49 80 57 81 50 82 56 83 51 84 52 85 53 86 54 87 55 88
REMARK H PARENT 16 6 9 21 20 25 76 44 46 55
REMARK Flexibility Score: inf
ROOT
ATOM      1  C   UNL     1      -5.217   0.529   1.385  1.00  0.00     0.042 C 
ENDROOT
BRANCH   1   2
ATOM      2  C   UNL     1      -5.540   2.007   1.155  1.00  0.00     0.117 C 
BRANCH   2   3
ATOM      3  N   UNL     1      -5.094   2.917   2.200  1.00  0.00    -0.356 N 
ATOM      4  C   UNL     1      -4.109   3.860   2.234  1.00  0.00     0.223 C 
ATOM      5  O   UNL     1      -4.101   4.621   3.205  1.00  0.00    -0.275 OA
ATOM      6  H   UNL     1      -5.599   2.837   3.041  1.00  0.00     0.163 HD
BRANCH   4   7
ATOM      7  C   UNL     1      -3.027   3.989   1.152  1.00  0.00     0.081 C 
ATOM      8  C   UNL     1      -3.630   4.541  -0.138  1.00  0.00     0.018 C 
BRANCH   7   9
ATOM      9  C   UNL     1      -2.152   2.701   1.097  1.00  0.00     0.031 C 
ATOM     10  C   UNL     1      -1.276   2.653   2.369  1.00  0.00     0.011 C 
BRANCH   9  11
ATOM     11  C   UNL     1      -1.283   2.491  -0.170  1.00  0.00     0.148 C 
BRANCH  11  12
ATOM     12  C   UNL     1      -0.546   1.148  -0.196  1.00  0.00    -0.016 A 
ATOM     13  C   UNL     1       3.112   0.031   0.082  1.00  0.00     0.044 C 
ATOM     14  C   UNL     1       1.618  -0.007  -0.038  1.00  0.00    -0.051 A 
ATOM     15  C   UNL     1       0.968  -1.237  -0.112  1.00  0.00     0.004 A 
ATOM     16  C   UNL     1       0.859   1.172  -0.067  1.00  0.00     0.010 A 
ATOM     17  C   UNL     1      -0.413  -1.286  -0.256  1.00  0.00     0.004 A 
ATOM     18  C   UNL     1      -1.181  -0.109  -0.327  1.00  0.00    -0.045 A 
ATOM     19  C   UNL     1      -2.652  -0.316  -0.543  1.00  0.00     0.045 C 
ENDBRANCH  11  12
BRANCH  11  20
ATOM     20  O   UNL     1      -2.052   2.581  -1.368  1.00  0.00    -0.388 OA
ATOM     21  H   UNL     1      -2.699   1.858  -1.392  1.00  0.00     0.211 HD
ENDBRANCH  11  20
ENDBRANCH   9  11
ENDBRANCH   7   9
ENDBRANCH   4   7
ENDBRANCH   2   3
ENDBRANCH   1   2
BRANCH   1  22
ATOM     22  C   UNL     1      -5.946  -0.157   2.519  1.00  0.00     0.118 C 
BRANCH  22  23
ATOM     23  N   UNL     1      -7.399  -0.213   2.344  1.00  0.00    -0.352 N 
ATOM     24  C   UNL     1      -8.450  -0.236   3.254  1.00  0.00     0.251 C 
ATOM     25  H   UNL     1      -7.687  -0.238   1.403  1.00  0.00     0.163 HD
ATOM     26  O   UNL     1      -9.564  -0.547   2.873  1.00  0.00    -0.269 OA
BRANCH  24  27
ATOM     27  C   UNL     1      -8.222   0.113   4.676  1.00  0.00     0.039 A 
ATOM     28  C   UNL     1      -9.214   0.133   5.659  1.00  0.00     0.014 A 
ATOM     29  C   UNL     1      -6.995   0.638   5.009  1.00  0.00     0.014 A 
ATOM     30  C   UNL     1      -8.918   0.749   6.888  1.00  0.00     0.010 A 
ATOM     31  C   UNL     1      -6.606   0.690   6.303  1.00  0.00     0.010 A 
ATOM     32  C   UNL     1      -7.596   1.111   7.153  1.00  0.00    -0.014 A 
BRANCH  32  33
ATOM     33  C   UNL     1      -7.097   1.812   8.317  1.00  0.00     0.031 A 
ATOM     34  C   UNL     1      -6.787   0.938   9.463  1.00  0.00     0.074 A 
ATOM     35  C   UNL     1      -6.507   3.025   8.236  1.00  0.00     0.049 A 
ATOM     36  N   UNL     1      -7.532   0.704  10.490  1.00  0.00    -0.248 NA
ATOM     37  C   UNL     1      -5.608   0.058   9.357  1.00  0.00     0.031 C 
ATOM     38  C   UNL     1      -6.218   3.833   7.045  1.00  0.00     0.029 A 
ATOM     39  N   UNL     1      -5.917   3.735   9.234  1.00  0.00    -0.354 N 
ATOM     40  C   UNL     1      -6.788  -0.169  11.270  1.00  0.00     0.074 A 
ATOM     41  C   UNL     1      -5.816  -0.761  10.387  1.00  0.00     0.031 C 
ATOM     42  C   UNL     1      -5.352   4.821   7.372  1.00  0.00     0.029 A 
ATOM     43  C   UNL     1      -5.132   4.798   8.809  1.00  0.00     0.049 A 
ATOM     44  H   UNL     1      -6.038   3.513  10.185  1.00  0.00     0.167 HD
ATOM     45  C   UNL     1      -6.781  -0.097  12.630  1.00  0.00     0.031 A 
ATOM     46  C   UNL     1      -4.325   5.558   9.593  1.00  0.00     0.031 A 
ATOM     47  C   UNL     1      -7.745   0.864  13.114  1.00  0.00     0.049 A 
ATOM     48  C   UNL     1      -4.745   5.333  11.003  1.00  0.00     0.074 A 
ATOM     49  C   UNL     1      -9.105   1.044  12.960  1.00  0.00     0.029 A 
ATOM     50  N   UNL     1      -7.243   2.079  13.530  1.00  0.00    -0.354 N 
ATOM     51  N   UNL     1      -5.901   5.697  11.486  1.00  0.00    -0.248 NA
ATOM     52  C   UNL     1      -4.039   4.331  11.789  1.00  0.00     0.031 C 
ATOM     53  C   UNL     1      -9.286   2.455  12.857  1.00  0.00     0.029 A 
ATOM     54  C   UNL     1      -8.041   3.069  13.012  1.00  0.00     0.049 A 
ATOM     55  H   UNL     1      -6.451   2.213  14.099  1.00  0.00     0.167 HD
ATOM     56  C   UNL     1      -6.255   4.691  12.376  1.00  0.00     0.074 A 
ATOM     57  C   UNL     1      -5.020   3.951  12.614  1.00  0.00     0.031 C 
ATOM     58  C   UNL     1      -7.566   4.381  12.605  1.00  0.00     0.031 A 
BRANCH  45  59
ATOM     59  C   UNL     1      -5.638  -0.575  13.491  1.00  0.00    -0.014 A 
ATOM     60  C   UNL     1      -5.821  -0.624  14.885  1.00  0.00     0.010 A 
ATOM     61  C   UNL     1      -4.325  -0.768  13.012  1.00  0.00     0.010 A 
ATOM     62  C   UNL     1      -4.736  -0.805  15.753  1.00  0.00     0.020 A 
ATOM     63  C   UNL     1      -3.247  -1.006  13.862  1.00  0.00     0.020 A 
ATOM     64  C   UNL     1      -3.454  -0.985  15.232  1.00  0.00     0.054 A 
BRANCH  64  65
ATOM     65  S   UNL     1      -2.044  -1.117  16.355  1.00  0.00     0.124 S 
ATOM     66  O   UNL     1      -1.967   0.237  16.893  1.00  0.00    -0.237 OA
ATOM     67  O   UNL     1      -2.486  -2.149  17.289  1.00  0.00    -0.237 OA
ATOM     68  O   UNL     1      -0.944  -1.508  15.477  1.00  0.00    -0.744 OA
ENDBRANCH  64  65
ENDBRANCH  45  59
BRANCH  46  69
ATOM     69  C   UNL     1      -3.070   6.269   9.245  1.00  0.00    -0.014 A 
ATOM     70  C   UNL     1      -2.511   7.213  10.129  1.00  0.00     0.010 A 
ATOM     71  C   UNL     1      -2.270   5.827   8.172  1.00  0.00     0.010 A 
ATOM     72  C   UNL     1      -1.180   7.639   9.990  1.00  0.00     0.020 A 
ATOM     73  C   UNL     1      -0.944   6.255   8.020  1.00  0.00     0.020 A 
ATOM     74  C   UNL     1      -0.396   7.137   8.948  1.00  0.00     0.054 A 
BRANCH  74  75
ATOM     75  S   UNL     1       1.377   7.535   8.895  1.00  0.00     0.124 S 
ATOM     76  O   UNL     1       1.372   8.938   8.492  1.00  0.00    -0.237 OA
ATOM     77  O   UNL     1       1.804   7.273  10.267  1.00  0.00    -0.237 OA
ATOM     78  O   UNL     1       1.910   6.605   7.899  1.00  0.00    -0.744 OA
ENDBRANCH  74  75
ENDBRANCH  46  69
BRANCH  58  79
ATOM     79  C   UNL     1      -8.624   5.374  12.169  1.00  0.00    -0.014 A 
ATOM     80  C   UNL     1      -8.806   5.792  10.836  1.00  0.00     0.010 A 
ATOM     81  C   UNL     1      -9.561   5.792  13.132  1.00  0.00     0.010 A 
ATOM     82  C   UNL     1      -9.880   6.624  10.483  1.00  0.00     0.020 A 
ATOM     83  C   UNL     1     -10.644   6.604  12.784  1.00  0.00     0.020 A 
ATOM     84  C   UNL     1     -10.794   7.024  11.462  1.00  0.00     0.054 A 
BRANCH  84  85
ATOM     85  S   UNL     1     -12.215   8.049  10.989  1.00  0.00     0.124 S 
ATOM     86  O   UNL     1     -11.593   9.335  10.687  1.00  0.00    -0.237 OA
ATOM     87  O   UNL     1     -12.767   7.332   9.841  1.00  0.00    -0.237 OA
ATOM     88  O   UNL     1     -13.065   8.038  12.180  1.00  0.00    -0.744 OA
ENDBRANCH  84  85
ENDBRANCH  58  79
ENDBRANCH  32  33
ENDBRANCH  24  27
ENDBRANCH  22  23
ENDBRANCH   1  22
TORSDOF 17
