REMARK SMILES CC(C)(Cn1ccc(=O)nc1SCC(=O)NCCCNC(=O)c1ccc(-c2c3nc(c(-c4ccc(S(=O)(=O)[O-])cc4)c4ccc([nH]4)c(-c4ccc(S(=O)(=O)[O-])cc4)c4nc(c(-c5ccc(S(=O)(=O)[O-])cc5)c5ccc2[nH]5)C=C4)C=C3)cc1)S(C)(=O)=O
REMARK SMILES IDX 17 1 16 2 14 3 15 4 13 6 12 7 11 8 5 9 6 10 7 11 10 12 8 13
REMARK SMILES IDX 9 14 4 15 2 16 1 17 3 18 83 19 84 20 85 21 86 22 18 23 19 24
REMARK SMILES IDX 20 25 21 26 22 28 23 29 24 30 82 31 25 32 81 33 26 34 27 35
REMARK SMILES IDX 28 36 75 37 29 38 80 39 74 40 76 41 30 42 79 43 73 44 72 45
REMARK SMILES IDX 31 47 61 48 42 49 60 50 43 51 46 52 59 53 77 54 44 55 45 56
REMARK SMILES IDX 58 58 78 59 47 60 32 61 33 62 41 63 34 64 40 65 35 66 36 67
REMARK SMILES IDX 37 68 38 69 39 70 62 71 63 72 71 73 64 74 70 75 65 76 66 77
REMARK SMILES IDX 67 78 68 79 69 80 48 81 49 82 57 83 50 84 56 85 51 86 52 87
REMARK SMILES IDX 53 88 54 89 55 90
REMARK H PARENT 16 5 20 27 76 46 46 57
REMARK Flexibility Score: inf
ROOT
ATOM      1  C   UNL     1      -5.256   1.544   1.528  1.00  0.00     0.117 C 
ENDROOT
BRANCH   1   2
ATOM      2  N   UNL     1      -4.323   0.824   2.367  1.00  0.00    -0.355 N 
ATOM      3  C   UNL     1      -2.972   0.809   2.350  1.00  0.00     0.230 C 
ATOM      4  O   UNL     1      -2.414   0.174   3.251  1.00  0.00    -0.274 OA
ATOM      5  H   UNL     1      -4.737   0.257   3.057  1.00  0.00     0.163 HD
BRANCH   3   6
ATOM      6  C   UNL     1      -2.173   1.624   1.361  1.00  0.00     0.178 C 
BRANCH   6   7
ATOM      7  S   UNL     1      -2.178   1.164  -0.361  1.00  0.00    -0.078 SA
BRANCH   7   8
ATOM      8  C   UNL     1      -2.170  -0.563  -0.674  1.00  0.00     0.172 A 
ATOM      9  N   UNL     1      -1.589  -1.577   0.096  1.00  0.00    -0.326 N 
ATOM     10  C   UNL     1      -1.965  -2.875  -0.236  1.00  0.00     0.094 A 
ATOM     11  C   UNL     1      -2.585  -3.176  -1.377  1.00  0.00     0.091 A 
ATOM     12  N   UNL     1      -2.758  -0.795  -1.809  1.00  0.00    -0.185 NA
ATOM     13  C   UNL     1      -2.785  -2.065  -2.328  1.00  0.00     0.273 A 
ATOM     14  O   UNL     1      -2.966  -2.323  -3.507  1.00  0.00    -0.267 OA
BRANCH   9  15
ATOM     15  C   UNL     1      -0.710  -1.388   1.254  1.00  0.00     0.146 C 
BRANCH  15  16
ATOM     16  C   UNL     1       0.805  -1.271   1.010  1.00  0.00     0.084 C 
ATOM     17  C   UNL     1       1.177  -0.285  -0.100  1.00  0.00     0.030 C 
ATOM     18  C   UNL     1       1.390  -0.721   2.343  1.00  0.00     0.030 C 
BRANCH  16  19
ATOM     19  S   UNL     1       1.572  -2.898   0.732  1.00  0.00     0.154 S 
ATOM     20  C   UNL     1       1.387  -3.308  -0.989  1.00  0.00     0.158 C 
ATOM     21  O   UNL     1       3.001  -2.751   0.953  1.00  0.00    -0.229 OA
ATOM     22  O   UNL     1       0.833  -3.888   1.494  1.00  0.00    -0.229 OA
ENDBRANCH  16  19
ENDBRANCH  15  16
ENDBRANCH   9  15
ENDBRANCH   7   8
ENDBRANCH   6   7
ENDBRANCH   3   6
ENDBRANCH   1   2
BRANCH   1  23
ATOM     23  C   UNL     1      -6.073   0.596   0.666  1.00  0.00     0.042 C 
BRANCH  23  24
ATOM     24  C   UNL     1      -6.810  -0.478   1.462  1.00  0.00     0.118 C 
BRANCH  24  25
ATOM     25  N   UNL     1      -7.776   0.065   2.414  1.00  0.00    -0.352 N 
ATOM     26  C   UNL     1      -9.149  -0.033   2.422  1.00  0.00     0.251 C 
ATOM     27  H   UNL     1      -7.387   0.575   3.161  1.00  0.00     0.163 HD
ATOM     28  O   UNL     1      -9.812   0.616   3.224  1.00  0.00    -0.269 OA
BRANCH  26  29
ATOM     29  C   UNL     1      -9.808  -0.892   1.420  1.00  0.00     0.039 A 
ATOM     30  C   UNL     1      -9.345  -2.190   1.206  1.00  0.00     0.014 A 
ATOM     31  C   UNL     1     -10.819  -0.356   0.620  1.00  0.00     0.014 A 
ATOM     32  C   UNL     1      -9.723  -2.863   0.052  1.00  0.00     0.010 A 
ATOM     33  C   UNL     1     -11.275  -1.084  -0.480  1.00  0.00     0.010 A 
ATOM     34  C   UNL     1     -10.678  -2.311  -0.815  1.00  0.00    -0.014 A 
BRANCH  34  35
ATOM     35  C   UNL     1     -11.014  -3.001  -2.087  1.00  0.00     0.031 A 
ATOM     36  C   UNL     1     -10.754  -2.325  -3.410  1.00  0.00     0.074 A 
ATOM     37  C   UNL     1     -11.523  -4.249  -2.053  1.00  0.00     0.049 A 
ATOM     38  N   UNL     1     -11.066  -2.733  -4.612  1.00  0.00    -0.248 NA
ATOM     39  C   UNL     1     -10.057  -1.026  -3.385  1.00  0.00     0.031 C 
ATOM     40  C   UNL     1     -11.773  -5.021  -0.834  1.00  0.00     0.029 A 
ATOM     41  N   UNL     1     -11.914  -5.090  -3.065  1.00  0.00    -0.354 N 
ATOM     42  C   UNL     1     -10.630  -1.736  -5.479  1.00  0.00     0.074 A 
ATOM     43  C   UNL     1     -10.052  -0.690  -4.669  1.00  0.00     0.031 C 
ATOM     44  C   UNL     1     -12.250  -6.228  -1.169  1.00  0.00     0.029 A 
ATOM     45  C   UNL     1     -12.427  -6.286  -2.617  1.00  0.00     0.049 A 
ATOM     46  H   UNL     1     -11.836  -4.861  -4.019  1.00  0.00     0.167 HD
ATOM     47  C   UNL     1     -10.699  -1.710  -6.830  1.00  0.00     0.031 A 
ATOM     48  C   UNL     1     -13.017  -7.301  -3.281  1.00  0.00     0.031 A 
ATOM     49  C   UNL     1     -11.239  -2.782  -7.626  1.00  0.00     0.049 A 
ATOM     50  C   UNL     1     -13.136  -7.220  -4.776  1.00  0.00     0.074 A 
ATOM     51  C   UNL     1     -11.320  -2.857  -9.005  1.00  0.00     0.029 A 
ATOM     52  N   UNL     1     -11.775  -3.959  -7.127  1.00  0.00    -0.354 N 
ATOM     53  N   UNL     1     -12.711  -6.274  -5.579  1.00  0.00    -0.248 NA
ATOM     54  C   UNL     1     -13.806  -8.334  -5.461  1.00  0.00     0.031 C 
ATOM     55  C   UNL     1     -11.980  -4.038  -9.337  1.00  0.00     0.029 A 
ATOM     56  C   UNL     1     -12.225  -4.747  -8.172  1.00  0.00     0.049 A 
ATOM     57  H   UNL     1     -11.827  -4.198  -6.173  1.00  0.00     0.167 HD
ATOM     58  C   UNL     1     -13.047  -6.685  -6.863  1.00  0.00     0.074 A 
ATOM     59  C   UNL     1     -13.692  -7.974  -6.735  1.00  0.00     0.031 C 
ATOM     60  C   UNL     1     -12.845  -6.043  -8.037  1.00  0.00     0.031 A 
BRANCH  47  61
ATOM     61  C   UNL     1     -10.178  -0.506  -7.576  1.00  0.00    -0.014 A 
ATOM     62  C   UNL     1     -11.078   0.285  -8.318  1.00  0.00     0.010 A 
ATOM     63  C   UNL     1      -8.797  -0.284  -7.717  1.00  0.00     0.010 A 
ATOM     64  C   UNL     1     -10.607   1.224  -9.239  1.00  0.00     0.020 A 
ATOM     65  C   UNL     1      -8.323   0.677  -8.617  1.00  0.00     0.020 A 
ATOM     66  C   UNL     1      -9.230   1.397  -9.398  1.00  0.00     0.054 A 
BRANCH  66  67
ATOM     67  S   UNL     1      -8.640   2.541 -10.678  1.00  0.00     0.124 S 
ATOM     68  O   UNL     1      -8.974   1.829 -11.907  1.00  0.00    -0.237 OA
ATOM     69  O   UNL     1      -9.423   3.745 -10.412  1.00  0.00    -0.237 OA
ATOM     70  O   UNL     1      -7.211   2.664 -10.396  1.00  0.00    -0.744 OA
ENDBRANCH  66  67
ENDBRANCH  47  61
BRANCH  48  71
ATOM     71  C   UNL     1     -13.559  -8.453  -2.506  1.00  0.00    -0.014 A 
ATOM     72  C   UNL     1     -14.606  -8.251  -1.583  1.00  0.00     0.010 A 
ATOM     73  C   UNL     1     -12.984  -9.730  -2.611  1.00  0.00     0.010 A 
ATOM     74  C   UNL     1     -15.019  -9.280  -0.736  1.00  0.00     0.020 A 
ATOM     75  C   UNL     1     -13.425 -10.777  -1.792  1.00  0.00     0.020 A 
ATOM     76  C   UNL     1     -14.416 -10.534  -0.837  1.00  0.00     0.054 A 
BRANCH  76  77
ATOM     77  S   UNL     1     -14.934 -11.840   0.310  1.00  0.00     0.124 S 
ATOM     78  O   UNL     1     -14.303 -11.411   1.556  1.00  0.00    -0.237 OA
ATOM     79  O   UNL     1     -16.390 -11.736   0.274  1.00  0.00    -0.237 OA
ATOM     80  O   UNL     1     -14.384 -13.056  -0.283  1.00  0.00    -0.744 OA
ENDBRANCH  76  77
ENDBRANCH  48  71
BRANCH  60  81
ATOM     81  C   UNL     1     -13.307  -6.697  -9.314  1.00  0.00    -0.014 A 
ATOM     82  C   UNL     1     -12.357  -7.076 -10.282  1.00  0.00     0.010 A 
ATOM     83  C   UNL     1     -14.673  -6.736  -9.641  1.00  0.00     0.010 A 
ATOM     84  C   UNL     1     -12.759  -7.407 -11.577  1.00  0.00     0.020 A 
ATOM     85  C   UNL     1     -15.081  -7.101 -10.927  1.00  0.00     0.020 A 
ATOM     86  C   UNL     1     -14.119  -7.396 -11.897  1.00  0.00     0.054 A 
BRANCH  86  87
ATOM     87  S   UNL     1     -14.612  -7.720 -13.612  1.00  0.00     0.124 S 
ATOM     88  O   UNL     1     -14.168  -6.508 -14.294  1.00  0.00    -0.237 OA
ATOM     89  O   UNL     1     -13.866  -8.934 -13.934  1.00  0.00    -0.237 OA
ATOM     90  O   UNL     1     -16.061  -7.893 -13.527  1.00  0.00    -0.744 OA
ENDBRANCH  86  87
ENDBRANCH  60  81
ENDBRANCH  34  35
ENDBRANCH  26  29
ENDBRANCH  24  25
ENDBRANCH  23  24
ENDBRANCH   1  23
TORSDOF 18
