REMARK SMILES Cc1c(C(=O)N[C@H]2C=C[C@@H](C(=O)NCCCNC(=O)c3ccc(-c4c5nc(c(-c6ccc(S(=O)(=O)[O-])cc6)c6ccc([nH]6)c(-c6ccc(S(=O)(=O)[O-])cc6)c6nc(c(-c7ccc(S(=O)(=O)[O-])cc7)c7ccc4[nH]7)C=C6)C=C5)cc3)C2)oc2ccccc12
REMARK SMILES IDX 15 1 14 2 13 3 11 4 12 5 10 7 7 8 8 9 80 10 9 11 6 12 4 13
REMARK SMILES IDX 5 14 3 16 1 17 2 18 87 19 81 20 82 21 86 22 83 23 85 24
REMARK SMILES IDX 84 25 16 26 17 27 18 28 19 30 20 31 21 32 79 33 22 34 78 35
REMARK SMILES IDX 23 36 24 37 25 38 72 39 26 40 77 41 71 42 73 43 27 44 76 45
REMARK SMILES IDX 70 46 69 47 28 49 58 50 39 51 57 52 40 53 43 54 56 55 74 56
REMARK SMILES IDX 41 57 42 58 55 60 75 61 44 62 29 63 30 64 38 65 31 66 37 67
REMARK SMILES IDX 32 68 33 69 34 70 35 71 36 72 59 73 60 74 68 75 61 76 67 77
REMARK SMILES IDX 62 78 63 79 64 80 65 81 66 82 45 83 46 84 54 85 47 86 53 87
REMARK SMILES IDX 48 88 49 89 50 90 51 91 52 92
REMARK H PARENT 13 6 6 15 17 29 73 48 43 59
REMARK Flexibility Score: inf
ROOT
ATOM      1  C   UNL     1       8.144  -1.921   2.054  1.00  0.00     0.042 C 
ENDROOT
BRANCH   1   2
ATOM      2  C   UNL     1       7.571  -2.907   1.060  1.00  0.00     0.117 C 
BRANCH   2   3
ATOM      3  N   UNL     1       6.702  -3.873   1.707  1.00  0.00    -0.356 N 
ATOM      4  C   UNL     1       5.369  -4.078   1.567  1.00  0.00     0.227 C 
ATOM      5  O   UNL     1       4.826  -4.907   2.303  1.00  0.00    -0.274 OA
ATOM      6  H   UNL     1       7.151  -4.473   2.347  1.00  0.00     0.163 HD
BRANCH   4   7
ATOM      7  C   UNL     1       4.547  -3.286   0.564  1.00  0.00     0.103 C 
ATOM      8  C   UNL     1       3.994  -1.167  -0.312  1.00  0.00     0.106 C 
ATOM      9  C   UNL     1       4.969  -1.809  -1.227  1.00  0.00    -0.006 C 
ATOM     10  C   UNL     1       4.287  -1.849   1.015  1.00  0.00     0.047 C 
ATOM     11  C   UNL     1       5.166  -3.070  -0.800  1.00  0.00    -0.016 C 
BRANCH   8  12
ATOM     12  N   UNL     1       3.961   0.239  -0.250  1.00  0.00    -0.343 N 
ATOM     13  C   UNL     1       2.830   1.014  -0.065  1.00  0.00     0.287 C 
ATOM     14  O   UNL     1       3.070   2.222   0.042  1.00  0.00    -0.266 OA
ATOM     15  H   UNL     1       4.819   0.713  -0.346  1.00  0.00     0.164 HD
BRANCH  13  16
ATOM     16  C   UNL     1       1.442   0.491  -0.027  1.00  0.00     0.195 A 
ATOM     17  C   UNL     1       1.078  -2.166  -0.024  1.00  0.00     0.049 C 
ATOM     18  C   UNL     1       0.712  -0.720  -0.030  1.00  0.00     0.008 A 
ATOM     19  C   UNL     1      -0.678  -0.365  -0.034  1.00  0.00     0.024 A 
ATOM     20  O   UNL     1       0.512   1.521   0.024  1.00  0.00    -0.451 OA
ATOM     21  C   UNL     1      -0.736   1.008   0.021  1.00  0.00     0.135 A 
ATOM     22  C   UNL     1      -1.885  -1.092  -0.066  1.00  0.00     0.012 A 
ATOM     23  C   UNL     1      -1.921   1.737   0.067  1.00  0.00     0.048 A 
ATOM     24  C   UNL     1      -3.095  -0.397  -0.026  1.00  0.00     0.001 A 
ATOM     25  C   UNL     1      -3.110   0.997   0.044  1.00  0.00     0.004 A 
ENDBRANCH  13  16
ENDBRANCH   8  12
ENDBRANCH   4   7
ENDBRANCH   2   3
ENDBRANCH   1   2
BRANCH   1  26
ATOM     26  C   UNL     1       9.048  -2.593   3.065  1.00  0.00     0.118 C 
BRANCH  26  27
ATOM     27  N   UNL     1      10.143  -3.300   2.412  1.00  0.00    -0.352 N 
ATOM     28  C   UNL     1      11.472  -2.966   2.342  1.00  0.00     0.251 C 
ATOM     29  H   UNL     1       9.894  -4.136   1.956  1.00  0.00     0.163 HD
ATOM     30  O   UNL     1      12.183  -3.469   1.481  1.00  0.00    -0.269 OA
BRANCH  28  31
ATOM     31  C   UNL     1      12.025  -2.013   3.322  1.00  0.00     0.039 A 
ATOM     32  C   UNL     1      13.040  -1.136   2.937  1.00  0.00     0.014 A 
ATOM     33  C   UNL     1      11.557  -2.017   4.639  1.00  0.00     0.014 A 
ATOM     34  C   UNL     1      13.571  -0.256   3.878  1.00  0.00     0.010 A 
ATOM     35  C   UNL     1      11.982  -1.048   5.529  1.00  0.00     0.010 A 
ATOM     36  C   UNL     1      13.039  -0.204   5.177  1.00  0.00    -0.014 A 
BRANCH  36  37
ATOM     37  C   UNL     1      13.639   0.648   6.226  1.00  0.00     0.031 A 
ATOM     38  C   UNL     1      14.243   0.000   7.446  1.00  0.00     0.074 A 
ATOM     39  C   UNL     1      13.600   1.987   6.101  1.00  0.00     0.049 A 
ATOM     40  N   UNL     1      14.814   0.560   8.480  1.00  0.00    -0.248 NA
ATOM     41  C   UNL     1      14.161  -1.469   7.534  1.00  0.00     0.031 C 
ATOM     42  C   UNL     1      12.992   2.719   4.987  1.00  0.00     0.029 A 
ATOM     43  N   UNL     1      14.095   2.969   6.916  1.00  0.00    -0.354 N 
ATOM     44  C   UNL     1      15.125  -0.483   9.347  1.00  0.00     0.074 A 
ATOM     45  C   UNL     1      14.614  -1.696   8.756  1.00  0.00     0.031 C 
ATOM     46  C   UNL     1      13.209   4.033   5.158  1.00  0.00     0.029 A 
ATOM     47  C   UNL     1      13.935   4.234   6.407  1.00  0.00     0.049 A 
ATOM     48  H   UNL     1      14.525   2.786   7.782  1.00  0.00     0.167 HD
ATOM     49  C   UNL     1      15.806  -0.441  10.516  1.00  0.00     0.031 A 
ATOM     50  C   UNL     1      14.353   5.420   6.887  1.00  0.00     0.031 A 
ATOM     51  C   UNL     1      16.337   0.770  11.077  1.00  0.00     0.049 A 
ATOM     52  C   UNL     1      15.133   5.444   8.172  1.00  0.00     0.074 A 
ATOM     53  C   UNL     1      17.099   0.932  12.219  1.00  0.00     0.029 A 
ATOM     54  N   UNL     1      16.161   2.032  10.527  1.00  0.00    -0.354 N 
ATOM     55  N   UNL     1      15.479   4.443   8.947  1.00  0.00    -0.248 NA
ATOM     56  C   UNL     1      15.597   6.758   8.633  1.00  0.00     0.031 C 
ATOM     57  C   UNL     1      17.347   2.300  12.383  1.00  0.00     0.029 A 
ATOM     58  C   UNL     1      16.787   2.982  11.312  1.00  0.00     0.049 A 
ATOM     59  H   UNL     1      15.663   2.222   9.699  1.00  0.00     0.167 HD
ATOM     60  C   UNL     1      16.236   5.002   9.970  1.00  0.00     0.074 A 
ATOM     61  C   UNL     1      16.300   6.427   9.708  1.00  0.00     0.031 C 
ATOM     62  C   UNL     1      16.832   4.394  11.027  1.00  0.00     0.031 A 
BRANCH  49  63
ATOM     63  C   UNL     1      15.994  -1.744  11.250  1.00  0.00    -0.014 A 
ATOM     64  C   UNL     1      16.793  -2.775  10.720  1.00  0.00     0.010 A 
ATOM     65  C   UNL     1      15.338  -1.953  12.476  1.00  0.00     0.010 A 
ATOM     66  C   UNL     1      16.873  -4.013  11.362  1.00  0.00     0.020 A 
ATOM     67  C   UNL     1      15.444  -3.179  13.141  1.00  0.00     0.020 A 
ATOM     68  C   UNL     1      16.187  -4.211  12.564  1.00  0.00     0.054 A 
BRANCH  68  69
ATOM     69  S   UNL     1      16.287  -5.834  13.367  1.00  0.00     0.124 S 
ATOM     70  O   UNL     1      15.404  -6.639  12.526  1.00  0.00    -0.237 OA
ATOM     71  O   UNL     1      17.708  -6.155  13.271  1.00  0.00    -0.237 OA
ATOM     72  O   UNL     1      15.798  -5.581  14.720  1.00  0.00    -0.744 OA
ENDBRANCH  68  69
ENDBRANCH  49  63
BRANCH  50  73
ATOM     73  C   UNL     1      14.113   6.659   6.102  1.00  0.00    -0.014 A 
ATOM     74  C   UNL     1      15.180   7.286   5.433  1.00  0.00     0.010 A 
ATOM     75  C   UNL     1      12.819   7.196   5.980  1.00  0.00     0.010 A 
ATOM     76  C   UNL     1      14.961   8.433   4.667  1.00  0.00     0.020 A 
ATOM     77  C   UNL     1      12.591   8.330   5.194  1.00  0.00     0.020 A 
ATOM     78  C   UNL     1      13.666   8.946   4.549  1.00  0.00     0.054 A 
BRANCH  78  79
ATOM     79  S   UNL     1      13.398  10.400   3.497  1.00  0.00     0.124 S 
ATOM     80  O   UNL     1      13.985  11.468   4.300  1.00  0.00    -0.237 OA
ATOM     81  O   UNL     1      14.128  10.047   2.281  1.00  0.00    -0.237 OA
ATOM     82  O   UNL     1      11.946  10.452   3.350  1.00  0.00    -0.744 OA
ENDBRANCH  78  79
ENDBRANCH  50  73
BRANCH  62  83
ATOM     83  C   UNL     1      17.643   5.264  11.947  1.00  0.00    -0.014 A 
ATOM     84  C   UNL     1      17.031   6.179  12.820  1.00  0.00     0.010 A 
ATOM     85  C   UNL     1      19.044   5.135  11.956  1.00  0.00     0.010 A 
ATOM     86  C   UNL     1      17.810   6.985  13.653  1.00  0.00     0.020 A 
ATOM     87  C   UNL     1      19.824   5.917  12.809  1.00  0.00     0.020 A 
ATOM     88  C   UNL     1      19.202   6.852  13.638  1.00  0.00     0.054 A 
BRANCH  88  89
ATOM     89  S   UNL     1      20.193   7.895  14.742  1.00  0.00     0.124 S 
ATOM     90  O   UNL     1      20.143   9.187  14.062  1.00  0.00    -0.237 OA
ATOM     91  O   UNL     1      19.457   7.819  16.002  1.00  0.00    -0.237 OA
ATOM     92  O   UNL     1      21.501   7.244  14.751  1.00  0.00    -0.744 OA
ENDBRANCH  88  89
ENDBRANCH  62  83
ENDBRANCH  36  37
ENDBRANCH  28  31
ENDBRANCH  26  27
ENDBRANCH   1  26
TORSDOF 15
