REMARK SMILES O=C(NCCCNC(=O)[C@H]1C=C[C@H](NC(=O)c2cccc(C(F)(F)F)c2)C1)c1ccc(-c2c3nc(c(-c4ccc(S(=O)(=O)[O-])cc4)c4ccc([nH]4)c(-c4ccc(S(=O)(=O)[O-])cc4)c4nc(c(-c5ccc(S(=O)(=O)[O-])cc5)c5ccc2[nH]5)C=C4)C=C3)cc1
REMARK SMILES IDX 5 1 4 2 3 3 1 4 2 5 28 7 29 8 87 9 30 10 86 11 31 12 32 13
REMARK SMILES IDX 33 14 80 15 34 16 85 17 79 18 81 19 35 20 84 21 78 22 77 23
REMARK SMILES IDX 36 25 66 26 47 27 65 28 48 29 51 30 64 31 82 32 49 33 50 34
REMARK SMILES IDX 63 36 83 37 52 38 37 39 38 40 46 41 39 42 45 43 40 44 41 45
REMARK SMILES IDX 42 46 43 47 44 48 67 49 68 50 76 51 69 52 75 53 70 54 71 55
REMARK SMILES IDX 72 56 73 57 74 58 53 59 54 60 62 61 55 62 61 63 56 64 57 65
REMARK SMILES IDX 58 66 59 67 60 68 6 69 7 70 8 71 9 73 10 74 11 75 27 76
REMARK SMILES IDX 12 77 13 78 14 79 15 80 16 82 17 83 18 84 26 85 19 86 21 87
REMARK SMILES IDX 20 88 22 89 23 90 24 91 25 92
REMARK H PARENT 3 6 81 24 51 35 7 72 14 81
REMARK Flexibility Score: inf
ROOT
ATOM      1  C   UNL     1       4.995  -2.141   0.974  1.00  0.00     0.042 C 
ENDROOT
BRANCH   1   2
ATOM      2  C   UNL     1       4.567  -1.307  -0.224  1.00  0.00     0.118 C 
BRANCH   2   3
ATOM      3  N   UNL     1       3.122  -1.139  -0.308  1.00  0.00    -0.352 N 
ATOM      4  O   UNL     1       1.135  -0.107  -0.080  1.00  0.00    -0.269 OA
ATOM      5  C   UNL     1       2.353  -0.009  -0.146  1.00  0.00     0.251 C 
ATOM      6  H   UNL     1       2.619  -1.960  -0.513  1.00  0.00     0.163 HD
BRANCH   5   7
ATOM      7  C   UNL     1       3.005   1.314  -0.021  1.00  0.00     0.039 A 
ATOM      8  C   UNL     1       4.077   1.657  -0.845  1.00  0.00     0.014 A 
ATOM      9  C   UNL     1       2.539   2.223   0.933  1.00  0.00     0.014 A 
ATOM     10  C   UNL     1       4.799   2.814  -0.591  1.00  0.00     0.010 A 
ATOM     11  C   UNL     1       3.198   3.444   1.108  1.00  0.00     0.010 A 
ATOM     12  C   UNL     1       4.358   3.733   0.374  1.00  0.00    -0.014 A 
BRANCH  12  13
ATOM     13  C   UNL     1       5.096   5.012   0.540  1.00  0.00     0.031 A 
ATOM     14  C   UNL     1       5.772   5.366   1.836  1.00  0.00     0.074 A 
ATOM     15  C   UNL     1       5.188   5.840  -0.520  1.00  0.00     0.049 A 
ATOM     16  N   UNL     1       6.485   6.426   2.125  1.00  0.00    -0.248 NA
ATOM     17  C   UNL     1       5.628   4.419   2.952  1.00  0.00     0.031 C 
ATOM     18  C   UNL     1       4.570   5.604  -1.829  1.00  0.00     0.029 A 
ATOM     19  N   UNL     1       5.858   7.024  -0.680  1.00  0.00    -0.354 N 
ATOM     20  C   UNL     1       6.849   6.290   3.460  1.00  0.00     0.074 A 
ATOM     21  C   UNL     1       6.264   5.051   3.930  1.00  0.00     0.031 C 
ATOM     22  C   UNL     1       4.948   6.571  -2.675  1.00  0.00     0.029 A 
ATOM     23  C   UNL     1       5.767   7.537  -1.953  1.00  0.00     0.049 A 
ATOM     24  H   UNL     1       6.356   7.466   0.045  1.00  0.00     0.167 HD
ATOM     25  C   UNL     1       7.602   7.120   4.223  1.00  0.00     0.031 A 
ATOM     26  C   UNL     1       6.270   8.666  -2.484  1.00  0.00     0.031 A 
ATOM     27  C   UNL     1       8.184   8.349   3.747  1.00  0.00     0.049 A 
ATOM     28  C   UNL     1       7.081   9.577  -1.614  1.00  0.00     0.074 A 
ATOM     29  C   UNL     1       8.983   9.246   4.434  1.00  0.00     0.029 A 
ATOM     30  N   UNL     1       8.026   8.857   2.466  1.00  0.00    -0.354 N 
ATOM     31  N   UNL     1       7.426   9.421  -0.358  1.00  0.00    -0.248 NA
ATOM     32  C   UNL     1       7.565  10.819  -2.228  1.00  0.00     0.031 C 
ATOM     33  C   UNL     1       9.270  10.319   3.583  1.00  0.00     0.029 A 
ATOM     34  C   UNL     1       8.692  10.066   2.349  1.00  0.00     0.049 A 
ATOM     35  H   UNL     1       7.515   8.422   1.745  1.00  0.00     0.167 HD
ATOM     36  C   UNL     1       8.174  10.544  -0.031  1.00  0.00     0.074 A 
ATOM     37  C   UNL     1       8.250  11.358  -1.229  1.00  0.00     0.031 C 
ATOM     38  C   UNL     1       8.743  10.872   1.154  1.00  0.00     0.031 A 
BRANCH  25  39
ATOM     39  C   UNL     1       7.807   6.743   5.667  1.00  0.00    -0.014 A 
ATOM     40  C   UNL     1       8.646   5.675   6.033  1.00  0.00     0.010 A 
ATOM     41  C   UNL     1       7.169   7.487   6.677  1.00  0.00     0.010 A 
ATOM     42  C   UNL     1       8.803   5.327   7.379  1.00  0.00     0.020 A 
ATOM     43  C   UNL     1       7.343   7.158   8.025  1.00  0.00     0.020 A 
ATOM     44  C   UNL     1       8.142   6.066   8.366  1.00  0.00     0.054 A 
BRANCH  44  45
ATOM     45  S   UNL     1       8.357   5.590  10.103  1.00  0.00     0.124 S 
ATOM     46  O   UNL     1       7.524   4.393  10.191  1.00  0.00    -0.237 OA
ATOM     47  O   UNL     1       9.796   5.361  10.200  1.00  0.00    -0.237 OA
ATOM     48  O   UNL     1       7.862   6.749  10.844  1.00  0.00    -0.744 OA
ENDBRANCH  44  45
ENDBRANCH  25  39
BRANCH  26  49
ATOM     49  C   UNL     1       5.999   8.985  -3.910  1.00  0.00    -0.014 A 
ATOM     50  C   UNL     1       7.020   8.888  -4.870  1.00  0.00     0.010 A 
ATOM     51  C   UNL     1       4.697   9.325  -4.323  1.00  0.00     0.010 A 
ATOM     52  C   UNL     1       6.743   9.123  -6.220  1.00  0.00     0.020 A 
ATOM     53  C   UNL     1       4.411   9.533  -5.674  1.00  0.00     0.020 A 
ATOM     54  C   UNL     1       5.438   9.437  -6.614  1.00  0.00     0.054 A 
BRANCH  54  55
ATOM     55  S   UNL     1       5.082   9.651  -8.380  1.00  0.00     0.124 S 
ATOM     56  O   UNL     1       5.626  10.980  -8.638  1.00  0.00    -0.237 OA
ATOM     57  O   UNL     1       5.809   8.539  -8.987  1.00  0.00    -0.237 OA
ATOM     58  O   UNL     1       3.627   9.543  -8.449  1.00  0.00    -0.744 OA
ENDBRANCH  54  55
ENDBRANCH  26  49
BRANCH  38  59
ATOM     59  C   UNL     1       9.509  12.164   1.207  1.00  0.00    -0.014 A 
ATOM     60  C   UNL     1       8.841  13.402   1.222  1.00  0.00     0.010 A 
ATOM     61  C   UNL     1      10.913  12.138   1.274  1.00  0.00     0.010 A 
ATOM     62  C   UNL     1       9.568  14.594   1.272  1.00  0.00     0.020 A 
ATOM     63  C   UNL     1      11.642  13.328   1.348  1.00  0.00     0.020 A 
ATOM     64  C   UNL     1      10.964  14.549   1.331  1.00  0.00     0.054 A 
BRANCH  64  65
ATOM     65  S   UNL     1      11.886  16.108   1.430  1.00  0.00     0.124 S 
ATOM     66  O   UNL     1      11.810  16.592   0.055  1.00  0.00    -0.237 OA
ATOM     67  O   UNL     1      11.119  16.874   2.410  1.00  0.00    -0.237 OA
ATOM     68  O   UNL     1      13.215  15.695   1.875  1.00  0.00    -0.744 OA
ENDBRANCH  64  65
ENDBRANCH  38  59
ENDBRANCH  12  13
ENDBRANCH   5   7
ENDBRANCH   2   3
ENDBRANCH   1   2
BRANCH   1  69
ATOM     69  C   UNL     1       4.606  -3.605   0.860  1.00  0.00     0.117 C 
BRANCH  69  70
ATOM     70  N   UNL     1       5.300  -4.269  -0.232  1.00  0.00    -0.356 N 
ATOM     71  C   UNL     1       5.858  -5.516  -0.254  1.00  0.00     0.227 C 
ATOM     72  H   UNL     1       5.378  -3.751  -1.065  1.00  0.00     0.163 HD
ATOM     73  O   UNL     1       6.350  -5.917  -1.308  1.00  0.00    -0.274 OA
BRANCH  71  74
ATOM     74  C   UNL     1       5.809  -6.346   1.024  1.00  0.00     0.103 C 
ATOM     75  C   UNL     1       4.427  -6.920   1.186  1.00  0.00    -0.016 C 
ATOM     76  C   UNL     1       6.681  -7.607   0.977  1.00  0.00     0.047 C 
ATOM     77  C   UNL     1       4.462  -8.214   1.521  1.00  0.00    -0.006 C 
ATOM     78  C   UNL     1       5.855  -8.707   1.650  1.00  0.00     0.106 C 
BRANCH  78  79
ATOM     79  N   UNL     1       6.276  -9.006   3.015  1.00  0.00    -0.346 N 
ATOM     80  C   UNL     1       6.242  -8.329   4.209  1.00  0.00     0.251 C 
ATOM     81  H   UNL     1       6.678  -9.901   3.100  1.00  0.00     0.164 HD
ATOM     82  O   UNL     1       7.079  -8.605   5.068  1.00  0.00    -0.269 OA
BRANCH  80  83
ATOM     83  C   UNL     1       5.213  -7.321   4.533  1.00  0.00     0.040 A 
ATOM     84  C   UNL     1       5.598  -6.105   5.105  1.00  0.00     0.014 A 
ATOM     85  C   UNL     1       3.856  -7.617   4.389  1.00  0.00     0.027 A 
ATOM     86  C   UNL     1       4.629  -5.157   5.446  1.00  0.00     0.001 A 
ATOM     87  C   UNL     1       2.879  -6.646   4.655  1.00  0.00     0.056 A 
ATOM     88  C   UNL     1       3.279  -5.417   5.200  1.00  0.00     0.013 A 
BRANCH  87  89
ATOM     89  C   UNL     1       1.430  -6.903   4.325  1.00  0.00     0.416 C 
ATOM     90  F   UNL     1       0.630  -6.934   5.424  1.00  0.00    -0.166 F 
ATOM     91  F   UNL     1       0.912  -5.946   3.505  1.00  0.00    -0.166 F 
ATOM     92  F   UNL     1       1.225  -8.086   3.678  1.00  0.00    -0.166 F 
ENDBRANCH  87  89
ENDBRANCH  80  83
ENDBRANCH  78  79
ENDBRANCH  71  74
ENDBRANCH  69  70
ENDBRANCH   1  69
TORSDOF 16
