REMARK SMILES C=CC[C@@]1(C(=O)NCCCNC(=O)c2ccc(-c3c4nc(c(-c5ccc(S(=O)(=O)[O-])cc5)c5ccc([nH]5)c(-c5ccc(S(=O)(=O)[O-])cc5)c5nc(c(-c6ccc(S(=O)(=O)[O-])cc6)c6ccc3[nH]6)C=C5)C=C4)cc2)CCCN(C(=O)c2ccc3c(c2)OCO3)C1
REMARK SMILES IDX 9 1 8 2 7 3 5 4 6 5 4 7 74 8 89 9 75 10 77 11 76 12 3 13
REMARK SMILES IDX 2 14 1 15 78 16 79 17 80 18 81 19 85 20 82 21 84 22 83 23
REMARK SMILES IDX 86 24 88 25 87 26 10 27 11 28 12 29 13 31 14 32 15 33 73 34
REMARK SMILES IDX 16 35 72 36 17 37 18 38 19 39 66 40 20 41 71 42 65 43 67 44
REMARK SMILES IDX 21 45 70 46 64 47 63 48 22 50 52 51 33 52 51 53 34 54 37 55
REMARK SMILES IDX 50 56 68 57 35 58 36 59 49 61 69 62 38 63 23 64 24 65 32 66
REMARK SMILES IDX 25 67 31 68 26 69 27 70 28 71 29 72 30 73 53 74 54 75 62 76
REMARK SMILES IDX 55 77 61 78 56 79 57 80 58 81 59 82 60 83 39 84 40 85 48 86
REMARK SMILES IDX 41 87 47 88 42 89 43 90 44 91 45 92 46 93
REMARK H PARENT 7 6 11 30 67 49 37 60
REMARK Flexibility Score: inf
ROOT
ATOM      1  C   UNL     1       1.472   1.944   1.643  1.00  0.00     0.042 C 
ENDROOT
BRANCH   1   2
ATOM      2  C   UNL     1       1.101   2.205   0.212  1.00  0.00     0.117 C 
BRANCH   2   3
ATOM      3  N   UNL     1       0.328   1.179  -0.403  1.00  0.00    -0.355 N 
ATOM      4  C   UNL     1      -0.888   1.316  -0.979  1.00  0.00     0.228 C 
ATOM      5  O   UNL     1      -1.131   0.488  -1.870  1.00  0.00    -0.274 OA
ATOM      6  H   UNL     1       0.719   0.276  -0.410  1.00  0.00     0.163 HD
BRANCH   4   7
ATOM      7  C   UNL     1      -1.988   2.321  -0.515  1.00  0.00     0.070 C 
ATOM      8  C   UNL     1      -2.721   2.730  -1.825  1.00  0.00     0.021 C 
ATOM      9  C   UNL     1      -1.669   3.676   0.164  1.00  0.00     0.137 C 
ATOM     10  C   UNL     1      -1.782   3.589  -2.703  1.00  0.00     0.023 C 
ATOM     11  N   UNL     1      -0.846   4.598  -0.614  1.00  0.00    -0.338 N 
ATOM     12  C   UNL     1      -1.267   4.847  -1.992  1.00  0.00     0.120 C 
BRANCH   7  13
ATOM     13  C   UNL     1      -2.907   1.577   0.519  1.00  0.00     0.045 C 
BRANCH  13  14
ATOM     14  C   UNL     1      -2.767   0.083   0.657  1.00  0.00    -0.034 C 
ATOM     15  C   UNL     1      -2.038  -0.505   1.618  1.00  0.00     0.004 C 
ENDBRANCH  13  14
ENDBRANCH   7  13
BRANCH  11  16
ATOM     16  C   UNL     1       0.100   5.347   0.106  1.00  0.00     0.254 C 
ATOM     17  O   UNL     1       0.268   5.258   1.320  1.00  0.00    -0.269 OA
BRANCH  16  18
ATOM     18  C   UNL     1       0.955   6.295  -0.604  1.00  0.00     0.043 A 
ATOM     19  C   UNL     1       1.974   5.867  -1.483  1.00  0.00     0.018 A 
ATOM     20  C   UNL     1       0.671   7.641  -0.392  1.00  0.00     0.064 A 
ATOM     21  C   UNL     1       2.647   6.808  -2.264  1.00  0.00     0.051 A 
ATOM     22  C   UNL     1       1.301   8.524  -1.222  1.00  0.00     0.166 A 
ATOM     23  C   UNL     1       2.240   8.121  -2.150  1.00  0.00     0.165 A 
ATOM     24  O   UNL     1       1.004   9.848  -1.325  1.00  0.00    -0.454 OA
ATOM     25  O   UNL     1       2.616   9.153  -2.957  1.00  0.00    -0.454 OA
ATOM     26  C   UNL     1       1.593  10.111  -2.610  1.00  0.00     0.468 C 
ENDBRANCH  16  18
ENDBRANCH  11  16
ENDBRANCH   4   7
ENDBRANCH   2   3
ENDBRANCH   1   2
BRANCH   1  27
ATOM     27  C   UNL     1       2.853   1.338   1.707  1.00  0.00     0.118 C 
BRANCH  27  28
ATOM     28  N   UNL     1       3.858   2.210   1.080  1.00  0.00    -0.352 N 
ATOM     29  C   UNL     1       4.748   3.089   1.648  1.00  0.00     0.251 C 
ATOM     30  H   UNL     1       3.899   2.155   0.098  1.00  0.00     0.163 HD
ATOM     31  O   UNL     1       5.262   3.971   0.975  1.00  0.00    -0.269 OA
BRANCH  29  32
ATOM     32  C   UNL     1       5.083   2.919   3.071  1.00  0.00     0.039 A 
ATOM     33  C   UNL     1       5.324   4.021   3.890  1.00  0.00     0.014 A 
ATOM     34  C   UNL     1       5.135   1.626   3.588  1.00  0.00     0.014 A 
ATOM     35  C   UNL     1       5.549   3.811   5.250  1.00  0.00     0.010 A 
ATOM     36  C   UNL     1       5.158   1.438   4.951  1.00  0.00     0.010 A 
ATOM     37  C   UNL     1       5.426   2.520   5.793  1.00  0.00    -0.014 A 
BRANCH  37  38
ATOM     38  C   UNL     1       5.638   2.231   7.226  1.00  0.00     0.031 A 
ATOM     39  C   UNL     1       6.684   1.218   7.621  1.00  0.00     0.074 A 
ATOM     40  C   UNL     1       4.832   2.794   8.144  1.00  0.00     0.049 A 
ATOM     41  N   UNL     1       6.951   0.727   8.802  1.00  0.00    -0.248 NA
ATOM     42  C   UNL     1       7.499   0.636   6.537  1.00  0.00     0.031 C 
ATOM     43  C   UNL     1       3.739   3.728   7.859  1.00  0.00     0.029 A 
ATOM     44  N   UNL     1       4.804   2.655   9.506  1.00  0.00    -0.354 N 
ATOM     45  C   UNL     1       7.934  -0.233   8.593  1.00  0.00     0.074 A 
ATOM     46  C   UNL     1       8.149  -0.327   7.170  1.00  0.00     0.031 C 
ATOM     47  C   UNL     1       3.179   4.114   9.016  1.00  0.00     0.029 A 
ATOM     48  C   UNL     1       3.836   3.417  10.115  1.00  0.00     0.049 A 
ATOM     49  H   UNL     1       5.418   2.067  10.001  1.00  0.00     0.167 HD
ATOM     50  C   UNL     1       8.629  -0.946   9.508  1.00  0.00     0.031 A 
ATOM     51  C   UNL     1       3.516   3.533  11.417  1.00  0.00     0.031 A 
ATOM     52  C   UNL     1       8.424  -0.816  10.923  1.00  0.00     0.049 A 
ATOM     53  C   UNL     1       4.312   2.749  12.422  1.00  0.00     0.074 A 
ATOM     54  C   UNL     1       9.108  -1.433  11.954  1.00  0.00     0.029 A 
ATOM     55  N   UNL     1       7.460  -0.004  11.505  1.00  0.00    -0.354 N 
ATOM     56  N   UNL     1       5.292   1.899  12.215  1.00  0.00    -0.248 NA
ATOM     57  C   UNL     1       3.974   2.950  13.836  1.00  0.00     0.031 C 
ATOM     58  C   UNL     1       8.520  -1.036  13.159  1.00  0.00     0.029 A 
ATOM     59  C   UNL     1       7.515  -0.120  12.882  1.00  0.00     0.049 A 
ATOM     60  H   UNL     1       6.830   0.569  11.011  1.00  0.00     0.167 HD
ATOM     61  C   UNL     1       5.704   1.481  13.475  1.00  0.00     0.074 A 
ATOM     62  C   UNL     1       4.878   2.188  14.436  1.00  0.00     0.031 C 
ATOM     63  C   UNL     1       6.675   0.595  13.810  1.00  0.00     0.031 A 
BRANCH  50  64
ATOM     64  C   UNL     1       9.671  -1.908   8.996  1.00  0.00    -0.014 A 
ATOM     65  C   UNL     1      10.820  -1.449   8.323  1.00  0.00     0.010 A 
ATOM     66  C   UNL     1       9.502  -3.290   9.187  1.00  0.00     0.010 A 
ATOM     67  C   UNL     1      11.749  -2.353   7.803  1.00  0.00     0.020 A 
ATOM     68  C   UNL     1      10.449  -4.198   8.701  1.00  0.00     0.020 A 
ATOM     69  C   UNL     1      11.555  -3.724   7.994  1.00  0.00     0.054 A 
BRANCH  69  70
ATOM     70  S   UNL     1      12.784  -4.874   7.320  1.00  0.00     0.124 S 
ATOM     71  O   UNL     1      12.527  -4.782   5.885  1.00  0.00    -0.237 OA
ATOM     72  O   UNL     1      14.046  -4.292   7.769  1.00  0.00    -0.237 OA
ATOM     73  O   UNL     1      12.437  -6.153   7.934  1.00  0.00    -0.744 OA
ENDBRANCH  69  70
ENDBRANCH  50  64
BRANCH  51  74
ATOM     74  C   UNL     1       2.416   4.447  11.828  1.00  0.00    -0.014 A 
ATOM     75  C   UNL     1       2.696   5.645  12.507  1.00  0.00     0.010 A 
ATOM     76  C   UNL     1       1.081   4.146  11.497  1.00  0.00     0.010 A 
ATOM     77  C   UNL     1       1.663   6.518  12.861  1.00  0.00     0.020 A 
ATOM     78  C   UNL     1       0.049   5.030  11.822  1.00  0.00     0.020 A 
ATOM     79  C   UNL     1       0.346   6.207  12.511  1.00  0.00     0.054 A 
BRANCH  79  80
ATOM     80  S   UNL     1      -0.970   7.384  12.929  1.00  0.00     0.124 S 
ATOM     81  O   UNL     1      -1.056   7.243  14.379  1.00  0.00    -0.237 OA
ATOM     82  O   UNL     1      -0.424   8.651  12.448  1.00  0.00    -0.237 OA
ATOM     83  O   UNL     1      -2.124   6.888  12.182  1.00  0.00    -0.744 OA
ENDBRANCH  79  80
ENDBRANCH  51  74
BRANCH  63  84
ATOM     84  C   UNL     1       6.918   0.364  15.277  1.00  0.00    -0.014 A 
ATOM     85  C   UNL     1       5.995  -0.342  16.067  1.00  0.00     0.010 A 
ATOM     86  C   UNL     1       8.123   0.807  15.853  1.00  0.00     0.010 A 
ATOM     87  C   UNL     1       6.259  -0.573  17.419  1.00  0.00     0.020 A 
ATOM     88  C   UNL     1       8.405   0.548  17.195  1.00  0.00     0.020 A 
ATOM     89  C   UNL     1       7.463  -0.128  17.973  1.00  0.00     0.054 A 
BRANCH  89  90
ATOM     90  S   UNL     1       7.800  -0.482  19.718  1.00  0.00     0.124 S 
ATOM     91  O   UNL     1       6.876   0.423  20.396  1.00  0.00    -0.237 OA
ATOM     92  O   UNL     1       7.479  -1.903  19.823  1.00  0.00    -0.237 OA
ATOM     93  O   UNL     1       9.216  -0.156  19.872  1.00  0.00    -0.744 OA
ENDBRANCH  89  90
ENDBRANCH  63  84
ENDBRANCH  37  38
ENDBRANCH  29  32
ENDBRANCH  27  28
ENDBRANCH   1  27
TORSDOF 17
