REMARK SMILES O=C(NCCCNC(=O)[C@@H]1[C@@H](C(=O)NCCCn2ccnc2)[C@@H]2C=C[C@H]1C2)c1ccc(-c2c3nc(c(-c4ccc(S(=O)(=O)[O-])cc4)c4ccc([nH]4)c(-c4ccc(S(=O)(=O)[O-])cc4)c4nc(c(-c5ccc(S(=O)(=O)[O-])cc5)c5ccc2[nH]5)C=C4)C=C3)cc1
REMARK SMILES IDX 6 1 5 2 4 3 3 4 1 5 2 6 28 8 29 9 87 10 30 11 86 12 31 13
REMARK SMILES IDX 32 14 33 15 80 16 34 17 85 18 79 19 81 20 35 21 84 22 78 23
REMARK SMILES IDX 77 24 36 26 66 27 47 28 65 29 48 30 51 31 64 32 82 33 49 34
REMARK SMILES IDX 50 35 63 37 83 38 52 39 37 40 38 41 46 42 39 43 45 44 40 45
REMARK SMILES IDX 41 46 42 47 43 48 44 49 67 50 68 51 76 52 69 53 75 54 70 55
REMARK SMILES IDX 71 56 72 57 73 58 74 59 53 60 54 61 62 62 55 63 61 64 56 65
REMARK SMILES IDX 57 66 58 67 59 68 60 69 7 70 8 71 9 73 10 74 11 75 26 76
REMARK SMILES IDX 23 77 25 78 27 79 24 80 12 81 13 82 14 83 15 85 16 86 17 87
REMARK SMILES IDX 18 88 19 89 22 90 20 91 21 92
REMARK H PARENT 3 7 81 25 51 36 7 72 14 84
REMARK Flexibility Score: inf
ROOT
ATOM      1  C   UNL     1       3.949   2.064   2.906  1.00  0.00     0.117 C 
ENDROOT
BRANCH   1   2
ATOM      2  C   UNL     1       4.611   1.757   1.561  1.00  0.00     0.042 C 
BRANCH   2   3
ATOM      3  C   UNL     1       4.396   0.345   1.019  1.00  0.00     0.118 C 
BRANCH   3   4
ATOM      4  N   UNL     1       3.015  -0.073   0.892  1.00  0.00    -0.352 N 
ATOM      5  O   UNL     1       0.973  -0.509   0.201  1.00  0.00    -0.269 OA
ATOM      6  C   UNL     1       2.001   0.146   0.001  1.00  0.00     0.251 C 
ATOM      7  H   UNL     1       2.737  -0.661   1.631  1.00  0.00     0.163 HD
BRANCH   6   8
ATOM      8  C   UNL     1       2.021   1.113  -1.135  1.00  0.00     0.039 A 
ATOM      9  C   UNL     1       3.151   1.735  -1.664  1.00  0.00     0.014 A 
ATOM     10  C   UNL     1       0.772   1.384  -1.732  1.00  0.00     0.014 A 
ATOM     11  C   UNL     1       3.029   2.628  -2.736  1.00  0.00     0.010 A 
ATOM     12  C   UNL     1       0.648   2.263  -2.809  1.00  0.00     0.010 A 
ATOM     13  C   UNL     1       1.779   2.897  -3.310  1.00  0.00    -0.014 A 
BRANCH  13  14
ATOM     14  C   UNL     1       1.731   3.713  -4.529  1.00  0.00     0.031 A 
ATOM     15  C   UNL     1       2.399   3.124  -5.726  1.00  0.00     0.074 A 
ATOM     16  C   UNL     1       1.009   4.838  -4.708  1.00  0.00     0.049 A 
ATOM     17  N   UNL     1       3.451   3.550  -6.347  1.00  0.00    -0.248 NA
ATOM     18  C   UNL     1       1.854   1.868  -6.259  1.00  0.00     0.031 C 
ATOM     19  C   UNL     1      -0.002   5.415  -3.822  1.00  0.00     0.029 A 
ATOM     20  N   UNL     1       0.972   5.660  -5.802  1.00  0.00    -0.354 N 
ATOM     21  C   UNL     1       3.598   2.731  -7.466  1.00  0.00     0.074 A 
ATOM     22  C   UNL     1       2.670   1.640  -7.289  1.00  0.00     0.031 C 
ATOM     23  C   UNL     1      -0.693   6.364  -4.496  1.00  0.00     0.029 A 
ATOM     24  C   UNL     1      -0.086   6.558  -5.805  1.00  0.00     0.049 A 
ATOM     25  H   UNL     1       1.639   5.617  -6.525  1.00  0.00     0.167 HD
ATOM     26  C   UNL     1       4.333   3.101  -8.553  1.00  0.00     0.031 A 
ATOM     27  C   UNL     1      -0.465   7.371  -6.822  1.00  0.00     0.031 A 
ATOM     28  C   UNL     1       5.178   4.235  -8.282  1.00  0.00     0.049 A 
ATOM     29  C   UNL     1       0.687   7.527  -7.741  1.00  0.00     0.074 A 
ATOM     30  C   UNL     1       6.182   4.521  -7.377  1.00  0.00     0.029 A 
ATOM     31  N   UNL     1       4.808   5.443  -8.822  1.00  0.00    -0.354 N 
ATOM     32  N   UNL     1       1.774   8.179  -7.444  1.00  0.00    -0.248 NA
ATOM     33  C   UNL     1       0.776   6.667  -8.909  1.00  0.00     0.031 C 
ATOM     34  C   UNL     1       6.032   5.908  -7.080  1.00  0.00     0.029 A 
ATOM     35  C   UNL     1       4.971   6.391  -7.846  1.00  0.00     0.049 A 
ATOM     36  H   UNL     1       4.487   5.598  -9.740  1.00  0.00     0.167 HD
ATOM     37  C   UNL     1       2.787   7.517  -8.120  1.00  0.00     0.074 A 
ATOM     38  C   UNL     1       2.097   6.678  -9.096  1.00  0.00     0.031 C 
ATOM     39  C   UNL     1       4.069   7.505  -7.646  1.00  0.00     0.031 A 
BRANCH  26  40
ATOM     40  C   UNL     1       4.029   2.667  -9.973  1.00  0.00    -0.014 A 
ATOM     41  C   UNL     1       4.902   3.061 -11.010  1.00  0.00     0.010 A 
ATOM     42  C   UNL     1       2.781   2.138 -10.360  1.00  0.00     0.010 A 
ATOM     43  C   UNL     1       4.510   3.014 -12.355  1.00  0.00     0.020 A 
ATOM     44  C   UNL     1       2.399   2.039 -11.702  1.00  0.00     0.020 A 
ATOM     45  C   UNL     1       3.249   2.521 -12.688  1.00  0.00     0.054 A 
BRANCH  45  46
ATOM     46  S   UNL     1       2.694   2.592 -14.411  1.00  0.00     0.124 S 
ATOM     47  O   UNL     1       2.516   4.026 -14.607  1.00  0.00    -0.237 OA
ATOM     48  O   UNL     1       3.814   1.987 -15.125  1.00  0.00    -0.237 OA
ATOM     49  O   UNL     1       1.465   1.800 -14.405  1.00  0.00    -0.744 OA
ENDBRANCH  45  46
ENDBRANCH  26  40
BRANCH  27  50
ATOM     50  C   UNL     1      -1.824   7.847  -7.180  1.00  0.00    -0.014 A 
ATOM     51  C   UNL     1      -2.005   8.888  -8.113  1.00  0.00     0.010 A 
ATOM     52  C   UNL     1      -2.956   7.089  -6.819  1.00  0.00     0.010 A 
ATOM     53  C   UNL     1      -3.255   9.114  -8.713  1.00  0.00     0.020 A 
ATOM     54  C   UNL     1      -4.207   7.317  -7.404  1.00  0.00     0.020 A 
ATOM     55  C   UNL     1      -4.345   8.311  -8.369  1.00  0.00     0.054 A 
BRANCH  55  56
ATOM     56  S   UNL     1      -5.905   8.479  -9.285  1.00  0.00     0.124 S 
ATOM     57  O   UNL     1      -6.422   9.751  -8.790  1.00  0.00    -0.237 OA
ATOM     58  O   UNL     1      -5.461   8.475 -10.676  1.00  0.00    -0.237 OA
ATOM     59  O   UNL     1      -6.670   7.300  -8.880  1.00  0.00    -0.744 OA
ENDBRANCH  55  56
ENDBRANCH  27  50
BRANCH  39  60
ATOM     60  C   UNL     1       4.491   8.568  -6.658  1.00  0.00    -0.014 A 
ATOM     61  C   UNL     1       3.828   8.834  -5.444  1.00  0.00     0.010 A 
ATOM     62  C   UNL     1       5.664   9.291  -6.945  1.00  0.00     0.010 A 
ATOM     63  C   UNL     1       4.278   9.850  -4.585  1.00  0.00     0.020 A 
ATOM     64  C   UNL     1       6.129  10.290  -6.085  1.00  0.00     0.020 A 
ATOM     65  C   UNL     1       5.411  10.591  -4.925  1.00  0.00     0.054 A 
BRANCH  65  66
ATOM     66  S   UNL     1       5.961  11.972  -3.881  1.00  0.00     0.124 S 
ATOM     67  O   UNL     1       5.217  13.098  -4.450  1.00  0.00    -0.237 OA
ATOM     68  O   UNL     1       5.537  11.591  -2.527  1.00  0.00    -0.237 OA
ATOM     69  O   UNL     1       7.398  12.015  -4.090  1.00  0.00    -0.744 OA
ENDBRANCH  65  66
ENDBRANCH  39  60
ENDBRANCH  13  14
ENDBRANCH   6   8
ENDBRANCH   3   4
ENDBRANCH   2   3
ENDBRANCH   1   2
BRANCH   1  70
ATOM     70  N   UNL     1       4.389   1.241   4.012  1.00  0.00    -0.356 N 
ATOM     71  C   UNL     1       5.163   1.483   5.095  1.00  0.00     0.224 C 
ATOM     72  H   UNL     1       4.055   0.316   3.968  1.00  0.00     0.163 HD
ATOM     73  O   UNL     1       4.973   0.713   6.049  1.00  0.00    -0.275 OA
BRANCH  71  74
ATOM     74  C   UNL     1       6.255   2.551   5.225  1.00  0.00     0.098 C 
ATOM     75  C   UNL     1       6.759   3.421   4.032  1.00  0.00     0.098 C 
ATOM     76  C   UNL     1       7.562   1.783   5.647  1.00  0.00     0.025 C 
ATOM     77  C   UNL     1       8.240   2.954   3.878  1.00  0.00     0.025 C 
ATOM     78  C   UNL     1       7.885   0.784   4.554  1.00  0.00    -0.027 C 
ATOM     79  C   UNL     1       8.679   2.774   5.338  1.00  0.00     0.017 C 
ATOM     80  C   UNL     1       8.256   1.491   3.477  1.00  0.00    -0.027 C 
BRANCH  75  81
ATOM     81  C   UNL     1       6.772   4.910   4.387  1.00  0.00     0.224 C 
ATOM     82  O   UNL     1       7.158   5.330   5.480  1.00  0.00    -0.275 OA
ATOM     83  N   UNL     1       6.442   5.856   3.474  1.00  0.00    -0.356 N 
ATOM     84  H   UNL     1       6.885   6.726   3.599  1.00  0.00     0.163 HD
BRANCH  83  85
ATOM     85  C   UNL     1       5.539   5.787   2.341  1.00  0.00     0.117 C 
BRANCH  85  86
ATOM     86  C   UNL     1       4.794   7.117   2.154  1.00  0.00     0.043 C 
BRANCH  86  87
ATOM     87  C   UNL     1       5.677   8.324   1.808  1.00  0.00     0.125 C 
BRANCH  87  88
ATOM     88  N   UNL     1       6.308   8.216   0.513  1.00  0.00    -0.337 N 
ATOM     89  C   UNL     1       7.425   7.483   0.217  1.00  0.00     0.107 A 
ATOM     90  C   UNL     1       5.895   8.826  -0.634  1.00  0.00     0.199 A 
ATOM     91  C   UNL     1       7.568   7.599  -1.144  1.00  0.00     0.130 A 
ATOM     92  N   UNL     1       6.594   8.400  -1.661  1.00  0.00    -0.245 NA
ENDBRANCH  87  88
ENDBRANCH  86  87
ENDBRANCH  85  86
ENDBRANCH  83  85
ENDBRANCH  75  81
ENDBRANCH  71  74
ENDBRANCH   1  70
TORSDOF 18
