REMARK SMILES O=C(NCCCNC(=O)[C@@H]1CC2(CCN(C(=O)C3(c4ccccc4F)CC3)CC2)C[NH2+]1)c1ccc(-c2c3nc(c(-c4ccc(S(=O)(=O)[O-])cc4)c4ccc([nH]4)c(-c4ccc(S(=O)(=O)[O-])cc4)c4nc(c(-c5ccc(S(=O)(=O)[O-])cc5)c5ccc2[nH]5)C=C4)C=C3)cc1
REMARK SMILES IDX 4 1 3 2 1 3 2 4 32 6 33 7 91 8 34 9 90 10 35 11 36 12 37 13
REMARK SMILES IDX 84 14 38 15 89 16 83 17 85 18 39 19 88 20 82 21 81 22 40 24
REMARK SMILES IDX 70 25 51 26 69 27 52 28 55 29 68 30 86 31 53 32 54 33 67 35
REMARK SMILES IDX 87 36 56 37 41 38 42 39 50 40 43 41 49 42 44 43 45 44 46 45
REMARK SMILES IDX 47 46 48 47 71 48 72 49 80 50 73 51 79 52 74 53 75 54 76 55
REMARK SMILES IDX 77 56 78 57 57 58 58 59 66 60 59 61 65 62 60 63 61 64 62 65
REMARK SMILES IDX 63 66 64 67 5 68 6 69 7 70 8 71 9 73 10 74 11 75 31 76 12 77
REMARK SMILES IDX 30 78 13 81 29 82 14 83 28 84 15 85 16 86 17 87 18 88 26 89
REMARK SMILES IDX 27 90 19 91 20 92 24 93 21 94 23 95 25 96 22 97
REMARK H PARENT 3 5 85 23 55 34 7 72 31 79 31 80
REMARK Flexibility Score: inf
ROOT
ATOM      1  C   UNL     1       3.658   1.914  -0.131  1.00  0.00     0.118 C 
ENDROOT
BRANCH   1   2
ATOM      2  N   UNL     1       2.381   1.290   0.173  1.00  0.00    -0.352 N 
ATOM      3  O   UNL     1       0.839  -0.302   0.396  1.00  0.00    -0.269 OA
ATOM      4  C   UNL     1       2.033  -0.013   0.451  1.00  0.00     0.251 C 
ATOM      5  H   UNL     1       1.622   1.918   0.183  1.00  0.00     0.163 HD
BRANCH   4   6
ATOM      6  C   UNL     1       3.023  -1.067   0.816  1.00  0.00     0.039 A 
ATOM      7  C   UNL     1       4.204  -0.784   1.496  1.00  0.00     0.014 A 
ATOM      8  C   UNL     1       2.688  -2.415   0.602  1.00  0.00     0.014 A 
ATOM      9  C   UNL     1       5.083  -1.804   1.858  1.00  0.00     0.010 A 
ATOM     10  C   UNL     1       3.509  -3.449   1.085  1.00  0.00     0.010 A 
ATOM     11  C   UNL     1       4.716  -3.153   1.729  1.00  0.00    -0.014 A 
BRANCH  11  12
ATOM     12  C   UNL     1       5.551  -4.184   2.416  1.00  0.00     0.031 A 
ATOM     13  C   UNL     1       6.225  -5.300   1.666  1.00  0.00     0.074 A 
ATOM     14  C   UNL     1       5.743  -4.066   3.749  1.00  0.00     0.049 A 
ATOM     15  N   UNL     1       7.022  -6.232   2.128  1.00  0.00    -0.248 NA
ATOM     16  C   UNL     1       5.968  -5.395   0.223  1.00  0.00     0.031 C 
ATOM     17  C   UNL     1       5.119  -3.047   4.603  1.00  0.00     0.029 A 
ATOM     18  N   UNL     1       6.542  -4.768   4.617  1.00  0.00    -0.354 N 
ATOM     19  C   UNL     1       7.353  -7.031   1.039  1.00  0.00     0.074 A 
ATOM     20  C   UNL     1       6.645  -6.490  -0.102  1.00  0.00     0.031 C 
ATOM     21  C   UNL     1       5.624  -3.134   5.841  1.00  0.00     0.029 A 
ATOM     22  C   UNL     1       6.537  -4.268   5.900  1.00  0.00     0.049 A 
ATOM     23  H   UNL     1       7.070  -5.554   4.347  1.00  0.00     0.167 HD
ATOM     24  C   UNL     1       8.179  -8.106   0.992  1.00  0.00     0.031 A 
ATOM     25  C   UNL     1       7.175  -4.677   7.013  1.00  0.00     0.031 A 
ATOM     26  C   UNL     1       8.898  -8.629   2.128  1.00  0.00     0.049 A 
ATOM     27  C   UNL     1       8.079  -5.873   6.930  1.00  0.00     0.074 A 
ATOM     28  C   UNL     1       9.775  -9.702   2.173  1.00  0.00     0.029 A 
ATOM     29  N   UNL     1       8.836  -8.117   3.416  1.00  0.00    -0.354 N 
ATOM     30  N   UNL     1       8.385  -6.601   5.883  1.00  0.00    -0.248 NA
ATOM     31  C   UNL     1       8.723  -6.303   8.177  1.00  0.00     0.031 C 
ATOM     32  C   UNL     1      10.203  -9.868   3.494  1.00  0.00     0.029 A 
ATOM     33  C   UNL     1       9.645  -8.861   4.263  1.00  0.00     0.049 A 
ATOM     34  H   UNL     1       8.297  -7.340   3.689  1.00  0.00     0.167 HD
ATOM     35  C   UNL     1       9.264  -7.573   6.346  1.00  0.00     0.074 A 
ATOM     36  C   UNL     1       9.473  -7.311   7.755  1.00  0.00     0.031 C 
ATOM     37  C   UNL     1       9.837  -8.597   5.667  1.00  0.00     0.031 A 
BRANCH  24  38
ATOM     38  C   UNL     1       8.357  -8.804  -0.335  1.00  0.00    -0.014 A 
ATOM     39  C   UNL     1       9.075  -8.202  -1.384  1.00  0.00     0.010 A 
ATOM     40  C   UNL     1       7.876 -10.117  -0.507  1.00  0.00     0.010 A 
ATOM     41  C   UNL     1       9.289  -8.887  -2.584  1.00  0.00     0.020 A 
ATOM     42  C   UNL     1       8.112 -10.816  -1.695  1.00  0.00     0.020 A 
ATOM     43  C   UNL     1       8.810 -10.193  -2.731  1.00  0.00     0.054 A 
BRANCH  43  44
ATOM     44  S   UNL     1       9.154 -11.076  -4.278  1.00  0.00     0.124 S 
ATOM     45  O   UNL     1       8.303 -10.366  -5.230  1.00  0.00    -0.237 OA
ATOM     46  O   UNL     1      10.590 -10.873  -4.449  1.00  0.00    -0.237 OA
ATOM     47  O   UNL     1       8.752 -12.451  -3.992  1.00  0.00    -0.744 OA
ENDBRANCH  43  44
ENDBRANCH  24  38
BRANCH  25  48
ATOM     48  C   UNL     1       6.945  -3.978   8.309  1.00  0.00    -0.014 A 
ATOM     49  C   UNL     1       7.982  -3.285   8.958  1.00  0.00     0.010 A 
ATOM     50  C   UNL     1       5.672  -4.016   8.909  1.00  0.00     0.010 A 
ATOM     51  C   UNL     1       7.759  -2.675  10.197  1.00  0.00     0.020 A 
ATOM     52  C   UNL     1       5.435  -3.374  10.126  1.00  0.00     0.020 A 
ATOM     53  C   UNL     1       6.486  -2.725  10.773  1.00  0.00     0.054 A 
BRANCH  53  54
ATOM     54  S   UNL     1       6.211  -1.912  12.371  1.00  0.00     0.124 S 
ATOM     55  O   UNL     1       6.879  -2.824  13.293  1.00  0.00    -0.237 OA
ATOM     56  O   UNL     1       6.856  -0.616  12.182  1.00  0.00    -0.237 OA
ATOM     57  O   UNL     1       4.754  -1.863  12.482  1.00  0.00    -0.744 OA
ENDBRANCH  53  54
ENDBRANCH  25  48
BRANCH  37  58
ATOM     58  C   UNL     1      10.763  -9.495   6.445  1.00  0.00    -0.014 A 
ATOM     59  C   UNL     1      10.273 -10.365   7.436  1.00  0.00     0.010 A 
ATOM     60  C   UNL     1      12.144  -9.469   6.180  1.00  0.00     0.010 A 
ATOM     61  C   UNL     1      11.153 -11.152   8.184  1.00  0.00     0.020 A 
ATOM     62  C   UNL     1      13.024 -10.279   6.902  1.00  0.00     0.020 A 
ATOM     63  C   UNL     1      12.524 -11.100   7.915  1.00  0.00     0.054 A 
BRANCH  63  64
ATOM     64  S   UNL     1      13.644 -12.136   8.895  1.00  0.00     0.124 S 
ATOM     65  O   UNL     1      13.650 -11.445  10.181  1.00  0.00    -0.237 OA
ATOM     66  O   UNL     1      12.975 -13.434   8.881  1.00  0.00    -0.237 OA
ATOM     67  O   UNL     1      14.902 -12.083   8.153  1.00  0.00    -0.744 OA
ENDBRANCH  63  64
ENDBRANCH  37  58
ENDBRANCH  11  12
ENDBRANCH   4   6
ENDBRANCH   1   2
BRANCH   1  68
ATOM     68  C   UNL     1       4.066   1.671  -1.577  1.00  0.00     0.042 C 
BRANCH  68  69
ATOM     69  C   UNL     1       3.864   2.891  -2.478  1.00  0.00     0.118 C 
BRANCH  69  70
ATOM     70  N   UNL     1       4.978   3.814  -2.337  1.00  0.00    -0.351 N 
ATOM     71  C   UNL     1       6.027   4.155  -3.125  1.00  0.00     0.278 C 
ATOM     72  H   UNL     1       4.968   4.300  -1.481  1.00  0.00     0.163 HD
ATOM     73  O   UNL     1       6.875   4.882  -2.583  1.00  0.00    -0.268 OA
BRANCH  71  74
ATOM     74  C   UNL     1       6.169   3.825  -4.639  1.00  0.00     0.273 C 
ATOM     75  C   UNL     1       5.857   2.470  -5.240  1.00  0.00     0.088 C 
ATOM     76  N   UNL     1       7.604   3.952  -5.027  1.00  0.00    -0.336 N 
ATOM     77  C   UNL     1       7.086   1.593  -4.953  1.00  0.00     0.029 C 
ATOM     78  C   UNL     1       8.225   2.625  -4.885  1.00  0.00     0.268 C 
ATOM     79  H   UNL     1       8.070   4.622  -4.415  1.00  0.00     0.346 HD
ATOM     80  H   UNL     1       7.686   4.284  -5.987  1.00  0.00     0.346 HD
ATOM     81  C   UNL     1       7.294   0.519  -6.036  1.00  0.00     0.034 C 
ATOM     82  C   UNL     1       6.993   0.836  -3.623  1.00  0.00     0.034 C 
ATOM     83  C   UNL     1       6.189  -0.551  -6.048  1.00  0.00     0.120 C 
ATOM     84  C   UNL     1       5.850  -0.163  -3.626  1.00  0.00     0.120 C 
ATOM     85  N   UNL     1       5.862  -1.104  -4.732  1.00  0.00    -0.342 N 
ATOM     86  C   UNL     1       4.996  -2.200  -4.514  1.00  0.00     0.233 C 
ATOM     87  O   UNL     1       4.204  -2.148  -3.562  1.00  0.00    -0.274 OA
BRANCH  86  88
ATOM     88  C   UNL     1       5.002  -3.486  -5.333  1.00  0.00     0.077 C 
ATOM     89  C   UNL     1       5.068  -3.508  -6.855  1.00  0.00     0.023 C 
ATOM     90  C   UNL     1       6.274  -3.910  -6.058  1.00  0.00     0.023 C 
BRANCH  88  91
ATOM     91  C   UNL     1       4.149  -4.606  -4.695  1.00  0.00     0.003 A 
ATOM     92  C   UNL     1       2.810  -4.818  -5.081  1.00  0.00     0.008 A 
ATOM     93  C   UNL     1       4.629  -5.377  -3.624  1.00  0.00     0.127 A 
ATOM     94  C   UNL     1       1.997  -5.745  -4.421  1.00  0.00     0.001 A 
ATOM     95  C   UNL     1       3.828  -6.306  -2.963  1.00  0.00     0.039 A 
ATOM     96  F   UNL     1       5.886  -5.191  -3.191  1.00  0.00    -0.207 F 
ATOM     97  C   UNL     1       2.505  -6.486  -3.357  1.00  0.00     0.003 A 
ENDBRANCH  88  91
ENDBRANCH  86  88
ENDBRANCH  71  74
ENDBRANCH  69  70
ENDBRANCH  68  69
ENDBRANCH   1  68
TORSDOF 15
