REMARK SMILES Nc1nccc(N2CCC[C@@](Cc3ccc(F)cc3F)(C(=O)NCCCNC(=O)c3ccc(-c4c5nc(c(-c6ccc(S(=O)(=O)[O-])cc6)c6ccc([nH]6)c(-c6ccc(S(=O)(=O)[O-])cc6)c6nc(c(-c7ccc(S(=O)(=O)[O-])cc7)c7ccc4[nH]7)C=C6)C=C5)cc3)C2)n1
REMARK SMILES IDX 25 1 24 2 23 3 21 4 22 5 11 7 7 8 8 9 90 10 9 11 10 12 6 13
REMARK SMILES IDX 2 14 3 15 91 16 4 17 5 18 1 19 12 22 13 23 14 24 19 25 15 26
REMARK SMILES IDX 18 27 20 28 16 29 17 30 26 31 27 32 28 33 29 35 30 36 31 37
REMARK SMILES IDX 89 38 32 39 88 40 33 41 34 42 35 43 82 44 36 45 87 46 81 47
REMARK SMILES IDX 83 48 37 49 86 50 80 51 79 52 38 54 68 55 49 56 67 57 50 58
REMARK SMILES IDX 53 59 66 60 84 61 51 62 52 63 65 65 85 66 54 67 39 68 40 69
REMARK SMILES IDX 48 70 41 71 47 72 42 73 43 74 44 75 45 76 46 77 69 78 70 79
REMARK SMILES IDX 78 80 71 81 77 82 72 83 73 84 74 85 75 86 76 87 55 88 56 89
REMARK SMILES IDX 64 90 57 91 63 92 58 93 59 94 60 95 61 96 62 97
REMARK H PARENT 23 6 1 20 1 21 27 34 83 53 53 64
REMARK Flexibility Score: inf
ROOT
ATOM      1  C   UNL     1       5.472  -7.107  -2.820  1.00  0.00     0.042 C 
ENDROOT
BRANCH   1   2
ATOM      2  C   UNL     1       4.837  -5.770  -3.106  1.00  0.00     0.117 C 
BRANCH   2   3
ATOM      3  N   UNL     1       3.395  -5.761  -3.142  1.00  0.00    -0.355 N 
ATOM      4  C   UNL     1       2.529  -4.799  -2.714  1.00  0.00     0.228 C 
ATOM      5  O   UNL     1       1.403  -4.834  -3.220  1.00  0.00    -0.274 OA
ATOM      6  H   UNL     1       2.977  -6.562  -3.532  1.00  0.00     0.163 HD
BRANCH   4   7
ATOM      7  C   UNL     1       2.913  -3.734  -1.663  1.00  0.00     0.071 C 
ATOM      8  N   UNL     1       1.805  -2.292  -0.014  1.00  0.00    -0.355 N 
ATOM      9  C   UNL     1       2.342  -2.897   1.187  1.00  0.00     0.118 C 
ATOM     10  C   UNL     1       1.538  -3.185  -1.136  1.00  0.00     0.135 C 
ATOM     11  C   UNL     1       3.684  -3.515   0.827  1.00  0.00     0.023 C 
ATOM     12  C   UNL     1       3.611  -4.389  -0.429  1.00  0.00     0.021 C 
BRANCH   8  13
ATOM     13  C   UNL     1       1.081  -1.125   0.089  1.00  0.00     0.134 A 
ATOM     14  C   UNL     1      -0.900   0.009   0.015  1.00  0.00     0.221 A 
ATOM     15  N   UNL     1      -0.322   1.207   0.142  1.00  0.00    -0.222 NA
ATOM     16  N   UNL     1      -0.253  -1.158  -0.036  1.00  0.00    -0.196 NA
ATOM     17  C   UNL     1       1.016   1.206   0.246  1.00  0.00     0.119 A 
ATOM     18  C   UNL     1       1.768   0.061   0.247  1.00  0.00     0.067 A 
BRANCH  14  19
ATOM     19  N   UNL     1      -2.262  -0.024  -0.059  1.00  0.00    -0.368 N 
ATOM     20  H   UNL     1      -2.777   0.815  -0.025  1.00  0.00     0.159 HD
ATOM     21  H   UNL     1      -2.730  -0.886  -0.146  1.00  0.00     0.159 HD
ENDBRANCH  14  19
ENDBRANCH   8  13
BRANCH   7  22
ATOM     22  C   UNL     1       3.638  -2.496  -2.305  1.00  0.00     0.057 C 
BRANCH  22  23
ATOM     23  C   UNL     1       4.977  -2.642  -2.987  1.00  0.00    -0.011 A 
ATOM     24  C   UNL     1       5.058  -2.858  -4.374  1.00  0.00     0.010 A 
ATOM     25  C   UNL     1       6.170  -2.598  -2.250  1.00  0.00     0.129 A 
ATOM     26  C   UNL     1       6.293  -3.123  -4.974  1.00  0.00     0.040 A 
ATOM     27  C   UNL     1       7.401  -2.859  -2.841  1.00  0.00     0.078 A 
ATOM     28  F   UNL     1       6.133  -2.346  -0.936  1.00  0.00    -0.207 F 
ATOM     29  C   UNL     1       7.448  -3.141  -4.198  1.00  0.00     0.126 A 
ATOM     30  F   UNL     1       8.620  -3.451  -4.765  1.00  0.00    -0.207 F 
ENDBRANCH  22  23
ENDBRANCH   7  22
ENDBRANCH   4   7
ENDBRANCH   2   3
ENDBRANCH   1   2
BRANCH   1  31
ATOM     31  C   UNL     1       5.452  -8.027  -4.027  1.00  0.00     0.118 C 
BRANCH  31  32
ATOM     32  N   UNL     1       6.110  -7.452  -5.202  1.00  0.00    -0.352 N 
ATOM     33  C   UNL     1       7.225  -7.854  -5.894  1.00  0.00     0.251 C 
ATOM     34  H   UNL     1       5.681  -6.639  -5.555  1.00  0.00     0.163 HD
ATOM     35  O   UNL     1       7.713  -7.114  -6.745  1.00  0.00    -0.269 OA
BRANCH  33  36
ATOM     36  C   UNL     1       7.833  -9.165  -5.604  1.00  0.00     0.039 A 
ATOM     37  C   UNL     1       9.223  -9.293  -5.586  1.00  0.00     0.014 A 
ATOM     38  C   UNL     1       7.022 -10.266  -5.325  1.00  0.00     0.014 A 
ATOM     39  C   UNL     1       9.791 -10.507  -5.201  1.00  0.00     0.010 A 
ATOM     40  C   UNL     1       7.585 -11.421  -4.809  1.00  0.00     0.010 A 
ATOM     41  C   UNL     1       8.976 -11.563  -4.757  1.00  0.00    -0.014 A 
BRANCH  41  42
ATOM     42  C   UNL     1       9.556 -12.824  -4.234  1.00  0.00     0.031 A 
ATOM     43  C   UNL     1       9.212 -14.139  -4.885  1.00  0.00     0.074 A 
ATOM     44  C   UNL     1      10.329 -12.786  -3.130  1.00  0.00     0.049 A 
ATOM     45  N   UNL     1       9.588 -15.345  -4.546  1.00  0.00    -0.248 NA
ATOM     46  C   UNL     1       8.300 -14.104  -6.043  1.00  0.00     0.031 C 
ATOM     47  C   UNL     1      10.660 -11.579  -2.365  1.00  0.00     0.029 A 
ATOM     48  N   UNL     1      10.975 -13.789  -2.454  1.00  0.00    -0.354 N 
ATOM     49  C   UNL     1       8.941 -16.204  -5.427  1.00  0.00     0.074 A 
ATOM     50  C   UNL     1       8.105 -15.393  -6.280  1.00  0.00     0.031 C 
ATOM     51  C   UNL     1      11.480 -11.907  -1.354  1.00  0.00     0.029 A 
ATOM     52  C   UNL     1      11.696 -13.349  -1.368  1.00  0.00     0.049 A 
ATOM     53  H   UNL     1      10.927 -14.736  -2.720  1.00  0.00     0.167 HD
ATOM     54  C   UNL     1       9.056 -17.548  -5.533  1.00  0.00     0.031 A 
ATOM     55  C   UNL     1      12.445 -14.031  -0.481  1.00  0.00     0.031 A 
ATOM     56  C   UNL     1       9.921 -18.343  -4.705  1.00  0.00     0.049 A 
ATOM     57  C   UNL     1      12.582 -15.520  -0.647  1.00  0.00     0.074 A 
ATOM     58  C   UNL     1      10.181 -19.699  -4.790  1.00  0.00     0.029 A 
ATOM     59  N   UNL     1      10.664 -17.856  -3.641  1.00  0.00    -0.354 N 
ATOM     60  N   UNL     1      12.043 -16.301  -1.555  1.00  0.00    -0.248 NA
ATOM     61  C   UNL     1      13.439 -16.219   0.319  1.00  0.00     0.031 C 
ATOM     62  C   UNL     1      11.033 -20.044  -3.737  1.00  0.00     0.029 A 
ATOM     63  C   UNL     1      11.358 -18.891  -3.039  1.00  0.00     0.049 A 
ATOM     64  H   UNL     1      10.694 -16.914  -3.356  1.00  0.00     0.167 HD
ATOM     65  C   UNL     1      12.516 -17.579  -1.281  1.00  0.00     0.074 A 
ATOM     66  C   UNL     1      13.407 -17.459  -0.145  1.00  0.00     0.031 C 
ATOM     67  C   UNL     1      12.235 -18.749  -1.906  1.00  0.00     0.031 A 
BRANCH  54  68
ATOM     68  C   UNL     1       8.237 -18.251  -6.584  1.00  0.00    -0.014 A 
ATOM     69  C   UNL     1       8.525 -18.103  -7.953  1.00  0.00     0.010 A 
ATOM     70  C   UNL     1       7.220 -19.140  -6.191  1.00  0.00     0.010 A 
ATOM     71  C   UNL     1       7.803 -18.822  -8.910  1.00  0.00     0.020 A 
ATOM     72  C   UNL     1       6.515 -19.882  -7.143  1.00  0.00     0.020 A 
ATOM     73  C   UNL     1       6.808 -19.713  -8.498  1.00  0.00     0.054 A 
BRANCH  73  74
ATOM     74  S   UNL     1       5.943 -20.690  -9.758  1.00  0.00     0.124 S 
ATOM     75  O   UNL     1       5.130 -19.674 -10.422  1.00  0.00    -0.237 OA
ATOM     76  O   UNL     1       7.043 -21.231 -10.551  1.00  0.00    -0.237 OA
ATOM     77  O   UNL     1       5.194 -21.675  -8.981  1.00  0.00    -0.744 OA
ENDBRANCH  73  74
ENDBRANCH  54  68
BRANCH  55  78
ATOM     78  C   UNL     1      13.119 -13.320   0.641  1.00  0.00    -0.014 A 
ATOM     79  C   UNL     1      14.521 -13.234   0.703  1.00  0.00     0.010 A 
ATOM     80  C   UNL     1      12.355 -12.738   1.670  1.00  0.00     0.010 A 
ATOM     81  C   UNL     1      15.147 -12.618   1.792  1.00  0.00     0.020 A 
ATOM     82  C   UNL     1      12.976 -12.090   2.741  1.00  0.00     0.020 A 
ATOM     83  C   UNL     1      14.370 -12.053   2.806  1.00  0.00     0.054 A 
BRANCH  83  84
ATOM     84  S   UNL     1      15.200 -11.247   4.203  1.00  0.00     0.124 S 
ATOM     85  O   UNL     1      15.725 -12.389   4.943  1.00  0.00    -0.237 OA
ATOM     86  O   UNL     1      16.196 -10.410   3.538  1.00  0.00    -0.237 OA
ATOM     87  O   UNL     1      14.122 -10.513   4.863  1.00  0.00    -0.744 OA
ENDBRANCH  83  84
ENDBRANCH  55  78
BRANCH  67  88
ATOM     88  C   UNL     1      12.922 -19.985  -1.391  1.00  0.00    -0.014 A 
ATOM     89  C   UNL     1      12.594 -20.533  -0.138  1.00  0.00     0.010 A 
ATOM     90  C   UNL     1      13.888 -20.625  -2.188  1.00  0.00     0.010 A 
ATOM     91  C   UNL     1      13.257 -21.669   0.330  1.00  0.00     0.020 A 
ATOM     92  C   UNL     1      14.528 -21.781  -1.739  1.00  0.00     0.020 A 
ATOM     93  C   UNL     1      14.223 -22.284  -0.473  1.00  0.00     0.054 A 
BRANCH  93  94
ATOM     94  S   UNL     1      15.059 -23.766   0.152  1.00  0.00     0.124 S 
ATOM     95  O   UNL     1      15.940 -23.208   1.174  1.00  0.00    -0.237 OA
ATOM     96  O   UNL     1      13.949 -24.573   0.650  1.00  0.00    -0.237 OA
ATOM     97  O   UNL     1      15.735 -24.305  -1.026  1.00  0.00    -0.744 OA
ENDBRANCH  93  94
ENDBRANCH  67  88
ENDBRANCH  41  42
ENDBRANCH  33  36
ENDBRANCH  31  32
ENDBRANCH   1  31
TORSDOF 17
