REMARK SMILES Cc1oc(C[N@H+]2C[C@@H](C)[C@@H](C)C2)cc1C(=O)NCCCNC(=O)c1ccc(-c2c3nc(c(-c4ccc(S(=O)(=O)[O-])cc4)c4ccc([nH]4)c(-c4ccc(S(=O)(=O)[O-])cc4)c4nc(c(-c5ccc(S(=O)(=O)[O-])cc5)c5ccc2[nH]5)C=C4)C=C3)cc1
REMARK SMILES IDX 19 1 18 2 17 3 15 4 16 5 14 7 1 8 2 9 3 10 4 11 13 12 5 13
REMARK SMILES IDX 6 14 7 15 12 16 8 18 10 19 9 20 11 21 20 22 21 23 22 24
REMARK SMILES IDX 23 26 24 27 25 28 83 29 26 30 82 31 27 32 28 33 29 34 76 35
REMARK SMILES IDX 30 36 81 37 75 38 77 39 31 40 80 41 74 42 73 43 32 45 62 46
REMARK SMILES IDX 43 47 61 48 44 49 47 50 60 51 78 52 45 53 46 54 59 56 79 57
REMARK SMILES IDX 48 58 33 59 34 60 42 61 35 62 41 63 36 64 37 65 38 66 39 67
REMARK SMILES IDX 40 68 63 69 64 70 72 71 65 72 71 73 66 74 67 75 68 76 69 77
REMARK SMILES IDX 70 78 49 79 50 80 58 81 51 82 57 83 52 84 53 85 54 86 55 87
REMARK SMILES IDX 56 88
REMARK H PARENT 17 6 6 17 21 25 77 44 47 55
REMARK Flexibility Score: inf
ROOT
ATOM      1  C   UNL     1       3.513  -2.512   0.641  1.00  0.00     0.042 C 
ENDROOT
BRANCH   1   2
ATOM      2  C   UNL     1       2.614  -2.663  -0.586  1.00  0.00     0.118 C 
BRANCH   2   3
ATOM      3  N   UNL     1       1.308  -3.137  -0.210  1.00  0.00    -0.352 N 
ATOM      4  C   UNL     1       0.111  -2.518  -0.010  1.00  0.00     0.254 C 
ATOM      5  O   UNL     1      -0.822  -3.286   0.257  1.00  0.00    -0.269 OA
ATOM      6  H   UNL     1       1.272  -4.111  -0.068  1.00  0.00     0.163 HD
BRANCH   4   7
ATOM      7  C   UNL     1      -0.145  -1.081  -0.118  1.00  0.00     0.081 A 
ATOM      8  C   UNL     1       2.034   0.517  -0.092  1.00  0.00     0.088 C 
ATOM      9  C   UNL     1       0.625   0.080  -0.162  1.00  0.00     0.114 A 
ATOM     10  O   UNL     1      -0.186   1.174  -0.234  1.00  0.00    -0.460 OA
ATOM     11  C   UNL     1      -1.468   0.775  -0.099  1.00  0.00     0.159 A 
ATOM     12  C   UNL     1      -1.508  -0.595  -0.103  1.00  0.00     0.066 A 
BRANCH  11  13
ATOM     13  C   UNL     1      -2.486   1.843   0.119  1.00  0.00     0.338 C 
BRANCH  13  14
ATOM     14  N   UNL     1      -2.333   2.588   1.378  1.00  0.00    -0.328 N 
ATOM     15  C   UNL     1      -2.272   1.751   2.577  1.00  0.00     0.266 C 
ATOM     16  C   UNL     1      -1.199   3.521   1.409  1.00  0.00     0.266 C 
ATOM     17  H   UNL     1      -3.199   3.128   1.397  1.00  0.00     0.348 HD
ATOM     18  C   UNL     1      -1.672   2.687   3.621  1.00  0.00     0.049 C 
ATOM     19  C   UNL     1      -0.606   3.453   2.826  1.00  0.00     0.049 C 
ATOM     20  C   UNL     1      -1.187   1.944   4.858  1.00  0.00     0.014 C 
ATOM     21  C   UNL     1       0.775   2.796   2.823  1.00  0.00     0.014 C 
ENDBRANCH  13  14
ENDBRANCH  11  13
ENDBRANCH   4   7
ENDBRANCH   2   3
ENDBRANCH   1   2
BRANCH   1  22
ATOM     22  C   UNL     1       4.189  -3.811   1.059  1.00  0.00     0.118 C 
BRANCH  22  23
ATOM     23  N   UNL     1       5.160  -4.240   0.061  1.00  0.00    -0.352 N 
ATOM     24  C   UNL     1       6.505  -4.458   0.180  1.00  0.00     0.251 C 
ATOM     25  H   UNL     1       4.791  -4.397  -0.838  1.00  0.00     0.163 HD
ATOM     26  O   UNL     1       7.190  -4.543  -0.844  1.00  0.00    -0.269 OA
BRANCH  24  27
ATOM     27  C   UNL     1       7.137  -4.589   1.508  1.00  0.00     0.039 A 
ATOM     28  C   UNL     1       8.420  -4.068   1.700  1.00  0.00     0.014 A 
ATOM     29  C   UNL     1       6.494  -5.267   2.547  1.00  0.00     0.014 A 
ATOM     30  C   UNL     1       9.038  -4.191   2.945  1.00  0.00     0.010 A 
ATOM     31  C   UNL     1       7.077  -5.316   3.809  1.00  0.00     0.010 A 
ATOM     32  C   UNL     1       8.360  -4.792   4.017  1.00  0.00    -0.014 A 
BRANCH  32  33
ATOM     33  C   UNL     1       8.981  -4.891   5.360  1.00  0.00     0.031 A 
ATOM     34  C   UNL     1       9.277  -6.240   5.959  1.00  0.00     0.074 A 
ATOM     35  C   UNL     1       9.223  -3.766   6.061  1.00  0.00     0.049 A 
ATOM     36  N   UNL     1       9.766  -6.529   7.137  1.00  0.00    -0.248 NA
ATOM     37  C   UNL     1       8.957  -7.420   5.137  1.00  0.00     0.031 C 
ATOM     38  C   UNL     1       8.939  -2.404   5.601  1.00  0.00     0.029 A 
ATOM     39  N   UNL     1       9.758  -3.588   7.311  1.00  0.00    -0.354 N 
ATOM     40  C   UNL     1       9.795  -7.917   7.205  1.00  0.00     0.074 A 
ATOM     41  C   UNL     1       9.226  -8.413   5.971  1.00  0.00     0.031 C 
ATOM     42  C   UNL     1       9.330  -1.531   6.543  1.00  0.00     0.029 A 
ATOM     43  C   UNL     1       9.849  -2.269   7.689  1.00  0.00     0.049 A 
ATOM     44  H   UNL     1      10.049  -4.334   7.884  1.00  0.00     0.167 HD
ATOM     45  C   UNL     1      10.271  -8.707   8.197  1.00  0.00     0.031 A 
ATOM     46  C   UNL     1      10.295  -1.716   8.833  1.00  0.00     0.031 A 
ATOM     47  C   UNL     1      10.845  -8.204   9.416  1.00  0.00     0.049 A 
ATOM     48  C   UNL     1      10.813  -2.614   9.922  1.00  0.00     0.074 A 
ATOM     49  C   UNL     1      11.406  -8.917  10.461  1.00  0.00     0.029 A 
ATOM     50  N   UNL     1      10.930  -6.862   9.756  1.00  0.00    -0.354 N 
ATOM     51  N   UNL     1      10.893  -3.924   9.941  1.00  0.00    -0.248 NA
ATOM     52  C   UNL     1      11.314  -1.960  11.138  1.00  0.00     0.031 C 
ATOM     53  C   UNL     1      11.781  -8.009  11.456  1.00  0.00     0.029 A 
ATOM     54  C   UNL     1      11.512  -6.726  11.005  1.00  0.00     0.049 A 
ATOM     55  H   UNL     1      10.621  -6.116   9.193  1.00  0.00     0.167 HD
ATOM     56  C   UNL     1      11.478  -4.249  11.159  1.00  0.00     0.074 A 
ATOM     57  C   UNL     1      11.747  -2.998  11.840  1.00  0.00     0.031 C 
ATOM     58  C   UNL     1      11.769  -5.472  11.668  1.00  0.00     0.031 A 
BRANCH  45  59
ATOM     59  C   UNL     1      10.183 -10.200   8.004  1.00  0.00    -0.014 A 
ATOM     60  C   UNL     1      10.970 -10.857   7.039  1.00  0.00     0.010 A 
ATOM     61  C   UNL     1       9.331 -10.963   8.822  1.00  0.00     0.010 A 
ATOM     62  C   UNL     1      10.873 -12.240   6.867  1.00  0.00     0.020 A 
ATOM     63  C   UNL     1       9.254 -12.351   8.675  1.00  0.00     0.020 A 
ATOM     64  C   UNL     1      10.013 -12.978   7.685  1.00  0.00     0.054 A 
BRANCH  64  65
ATOM     65  S   UNL     1       9.924 -14.775   7.453  1.00  0.00     0.124 S 
ATOM     66  O   UNL     1       9.200 -14.880   6.189  1.00  0.00    -0.237 OA
ATOM     67  O   UNL     1      11.332 -15.161   7.404  1.00  0.00    -0.237 OA
ATOM     68  O   UNL     1       9.194 -15.242   8.629  1.00  0.00    -0.744 OA
ENDBRANCH  64  65
ENDBRANCH  45  59
BRANCH  46  69
ATOM     69  C   UNL     1      10.283  -0.236   8.995  1.00  0.00    -0.014 A 
ATOM     70  C   UNL     1      11.486   0.490   9.013  1.00  0.00     0.010 A 
ATOM     71  C   UNL     1       9.064   0.457   9.113  1.00  0.00     0.010 A 
ATOM     72  C   UNL     1      11.473   1.880   9.165  1.00  0.00     0.020 A 
ATOM     73  C   UNL     1       9.045   1.849   9.235  1.00  0.00     0.020 A 
ATOM     74  C   UNL     1      10.252   2.551   9.272  1.00  0.00     0.054 A 
BRANCH  74  75
ATOM     75  S   UNL     1      10.257   4.359   9.417  1.00  0.00     0.124 S 
ATOM     76  O   UNL     1      10.732   4.553  10.783  1.00  0.00    -0.237 OA
ATOM     77  O   UNL     1      11.185   4.757   8.361  1.00  0.00    -0.237 OA
ATOM     78  O   UNL     1       8.862   4.725   9.180  1.00  0.00    -0.744 OA
ENDBRANCH  74  75
ENDBRANCH  46  69
BRANCH  58  79
ATOM     79  C   UNL     1      12.444  -5.518  13.013  1.00  0.00    -0.014 A 
ATOM     80  C   UNL     1      11.748  -5.195  14.191  1.00  0.00     0.010 A 
ATOM     81  C   UNL     1      13.783  -5.943  13.100  1.00  0.00     0.010 A 
ATOM     82  C   UNL     1      12.390  -5.263  15.430  1.00  0.00     0.020 A 
ATOM     83  C   UNL     1      14.418  -6.042  14.340  1.00  0.00     0.020 A 
ATOM     84  C   UNL     1      13.722  -5.686  15.496  1.00  0.00     0.054 A 
BRANCH  84  85
ATOM     85  S   UNL     1      14.519  -5.806  17.120  1.00  0.00     0.124 S 
ATOM     86  O   UNL     1      14.725  -4.401  17.462  1.00  0.00    -0.237 OA
ATOM     87  O   UNL     1      13.516  -6.507  17.919  1.00  0.00    -0.237 OA
ATOM     88  O   UNL     1      15.738  -6.567  16.853  1.00  0.00    -0.744 OA
ENDBRANCH  84  85
ENDBRANCH  58  79
ENDBRANCH  32  33
ENDBRANCH  24  27
ENDBRANCH  22  23
ENDBRANCH   1  22
TORSDOF 15
