REMARK SMILES CC(C)C[C@@H](NC(=O)Cn1nc(O)ccc1=O)C(=O)NCCCNC(=O)c1ccc(-c2c3nc(c(-c4ccc(S(=O)(=O)[O-])cc4)c4ccc([nH]4)c(-c4ccc(S(=O)(=O)[O-])cc4)c4nc(c(-c5ccc(S(=O)(=O)[O-])cc5)c5ccc2[nH]5)C=C4)C=C3)cc1
REMARK SMILES IDX 21 1 20 2 18 3 19 4 5 6 4 7 2 8 1 9 3 10 6 11 7 12 8 14 9 15
REMARK SMILES IDX 10 16 11 17 16 18 12 19 15 20 17 21 14 22 13 23 22 25 23 26
REMARK SMILES IDX 24 27 25 28 26 30 27 31 28 32 86 33 29 34 85 35 30 36 31 37
REMARK SMILES IDX 32 38 79 39 33 40 84 41 78 42 80 43 34 44 83 45 77 46 76 47
REMARK SMILES IDX 35 49 65 50 46 51 64 52 47 53 50 54 63 55 81 56 48 57 49 58
REMARK SMILES IDX 62 60 82 61 51 62 36 63 37 64 45 65 38 66 44 67 39 68 40 69
REMARK SMILES IDX 41 70 42 71 43 72 66 73 67 74 75 75 68 76 74 77 69 78 70 79
REMARK SMILES IDX 71 80 72 81 73 82 52 83 53 84 61 85 54 86 60 87 55 88 56 89
REMARK SMILES IDX 57 90 58 91 59 92
REMARK H PARENT 20 5 6 13 13 24 24 29 80 48 50 59
REMARK Flexibility Score: inf
ROOT
ATOM      1  C   UNL     1      -4.013  -0.958  -3.835  1.00  0.00     0.117 C 
ENDROOT
BRANCH   1   2
ATOM      2  N   UNL     1      -3.673  -0.191  -1.920  1.00  0.00    -0.354 N 
ATOM      3  C   UNL     1      -2.804   0.524  -1.048  1.00  0.00     0.242 C 
ATOM      4  O   UNL     1      -3.343   0.742   0.055  1.00  0.00    -0.273 OA
ATOM      5  H   UNL     1      -4.464  -0.429  -1.385  1.00  0.00     0.163 HD
BRANCH   3   6
ATOM      6  C   UNL     1      -1.262   0.917  -1.193  1.00  0.00     0.171 C 
BRANCH   6   7
ATOM      7  C   UNL     1      -0.436  -0.340  -0.795  1.00  0.00     0.038 C 
BRANCH   7   8
ATOM      8  C   UNL     1       1.099  -0.309  -0.778  1.00  0.00    -0.015 C 
ATOM      9  C   UNL     1       1.635   0.404   0.451  1.00  0.00     0.007 C 
ATOM     10  C   UNL     1       1.609  -1.762  -0.821  1.00  0.00     0.007 C 
ENDBRANCH   7   8
ENDBRANCH   6   7
BRANCH   6  11
ATOM     11  N   UNL     1      -0.668   1.569  -2.372  1.00  0.00    -0.343 N 
ATOM     12  C   UNL     1      -1.237   2.252  -3.401  1.00  0.00     0.242 C 
ATOM     13  H   UNL     1       0.313   1.497  -2.425  1.00  0.00     0.164 HD
ATOM     14  O   UNL     1      -0.521   3.020  -4.051  1.00  0.00    -0.273 OA
BRANCH  12  15
ATOM     15  C   UNL     1      -2.721   2.193  -3.639  1.00  0.00     0.248 C 
BRANCH  15  16
ATOM     16  N   UNL     1      -3.258   0.875  -3.452  1.00  0.00    -0.217 N 
ATOM     17  N   UNL     1      -2.141  -0.600  -3.140  1.00  0.00    -0.131 NA
ATOM     18  C   UNL     1      -5.006   0.770  -3.045  1.00  0.00     0.267 A 
ATOM     19  C   UNL     1      -2.728  -1.804  -2.407  1.00  0.00     0.229 A 
ATOM     20  C   UNL     1      -5.588  -0.953  -2.339  1.00  0.00     0.079 A 
ATOM     21  O   UNL     1      -5.791   1.697  -3.209  1.00  0.00    -0.268 OA
ATOM     22  C   UNL     1      -4.596  -2.050  -2.013  1.00  0.00     0.075 A 
BRANCH  19  23
ATOM     23  O   UNL     1      -2.075  -2.910  -2.000  1.00  0.00    -0.492 OA
ATOM     24  H   UNL     1      -1.147  -2.974  -2.111  1.00  0.00     0.295 HD
ENDBRANCH  19  23
ENDBRANCH  15  16
ENDBRANCH  12  15
ENDBRANCH   6  11
ENDBRANCH   3   6
ENDBRANCH   1   2
BRANCH   1  25
ATOM     25  C   UNL     1      -3.678  -2.474  -4.506  1.00  0.00     0.042 C 
BRANCH  25  26
ATOM     26  C   UNL     1      -4.922  -3.155  -5.019  1.00  0.00     0.118 C 
BRANCH  26  27
ATOM     27  N   UNL     1      -5.625  -2.482  -6.093  1.00  0.00    -0.352 N 
ATOM     28  C   UNL     1      -6.662  -3.054  -6.808  1.00  0.00     0.251 C 
ATOM     29  H   UNL     1      -5.348  -1.567  -6.328  1.00  0.00     0.163 HD
ATOM     30  O   UNL     1      -7.223  -2.480  -7.728  1.00  0.00    -0.269 OA
BRANCH  28  31
ATOM     31  C   UNL     1      -6.999  -4.441  -6.422  1.00  0.00     0.039 A 
ATOM     32  C   UNL     1      -7.424  -4.670  -5.113  1.00  0.00     0.014 A 
ATOM     33  C   UNL     1      -6.515  -5.480  -7.219  1.00  0.00     0.014 A 
ATOM     34  C   UNL     1      -7.167  -5.906  -4.537  1.00  0.00     0.010 A 
ATOM     35  C   UNL     1      -6.402  -6.759  -6.672  1.00  0.00     0.010 A 
ATOM     36  C   UNL     1      -6.686  -6.976  -5.314  1.00  0.00    -0.014 A 
BRANCH  36  37
ATOM     37  C   UNL     1      -6.561  -8.332  -4.715  1.00  0.00     0.031 A 
ATOM     38  C   UNL     1      -5.263  -9.098  -4.736  1.00  0.00     0.074 A 
ATOM     39  C   UNL     1      -7.663  -8.880  -4.163  1.00  0.00     0.049 A 
ATOM     40  N   UNL     1      -5.038 -10.335  -4.372  1.00  0.00    -0.248 NA
ATOM     41  C   UNL     1      -4.065  -8.399  -5.232  1.00  0.00     0.031 C 
ATOM     42  C   UNL     1      -8.969  -8.221  -4.064  1.00  0.00     0.029 A 
ATOM     43  N   UNL     1      -7.868 -10.100  -3.571  1.00  0.00    -0.354 N 
ATOM     44  C   UNL     1      -3.692 -10.577  -4.628  1.00  0.00     0.074 A 
ATOM     45  C   UNL     1      -3.150  -9.361  -5.195  1.00  0.00     0.031 C 
ATOM     46  C   UNL     1      -9.813  -9.009  -3.392  1.00  0.00     0.029 A 
ATOM     47  C   UNL     1      -9.157 -10.280  -3.128  1.00  0.00     0.049 A 
ATOM     48  H   UNL     1      -7.162 -10.779  -3.473  1.00  0.00     0.167 HD
ATOM     49  C   UNL     1      -2.984 -11.710  -4.404  1.00  0.00     0.031 A 
ATOM     50  C   UNL     1      -9.774 -11.359  -2.610  1.00  0.00     0.031 A 
ATOM     51  C   UNL     1      -3.547 -12.903  -3.816  1.00  0.00     0.049 A 
ATOM     52  C   UNL     1      -8.984 -12.616  -2.430  1.00  0.00     0.074 A 
ATOM     53  C   UNL     1      -2.907 -14.095  -3.522  1.00  0.00     0.029 A 
ATOM     54  N   UNL     1      -4.870 -13.057  -3.426  1.00  0.00    -0.354 N 
ATOM     55  N   UNL     1      -7.713 -12.825  -2.679  1.00  0.00    -0.248 NA
ATOM     56  C   UNL     1      -9.701 -13.783  -1.904  1.00  0.00     0.031 C 
ATOM     57  C   UNL     1      -3.857 -14.993  -3.034  1.00  0.00     0.029 A 
ATOM     58  C   UNL     1      -5.072 -14.335  -2.930  1.00  0.00     0.049 A 
ATOM     59  H   UNL     1      -5.563 -12.361  -3.492  1.00  0.00     0.167 HD
ATOM     60  C   UNL     1      -7.473 -14.146  -2.327  1.00  0.00     0.074 A 
ATOM     61  C   UNL     1      -8.724 -14.677  -1.821  1.00  0.00     0.031 C 
ATOM     62  C   UNL     1      -6.322 -14.854  -2.425  1.00  0.00     0.031 A 
BRANCH  49  63
ATOM     63  C   UNL     1      -1.520 -11.750  -4.782  1.00  0.00    -0.014 A 
ATOM     64  C   UNL     1      -1.075 -12.662  -5.760  1.00  0.00     0.010 A 
ATOM     65  C   UNL     1      -0.562 -11.006  -4.068  1.00  0.00     0.010 A 
ATOM     66  C   UNL     1       0.291 -12.865  -5.984  1.00  0.00     0.020 A 
ATOM     67  C   UNL     1       0.805 -11.181  -4.313  1.00  0.00     0.020 A 
ATOM     68  C   UNL     1       1.223 -12.130  -5.249  1.00  0.00     0.054 A 
BRANCH  68  69
ATOM     69  S   UNL     1       2.991 -12.445  -5.513  1.00  0.00     0.124 S 
ATOM     70  O   UNL     1       3.166 -13.758  -4.901  1.00  0.00    -0.237 OA
ATOM     71  O   UNL     1       3.106 -12.405  -6.969  1.00  0.00    -0.237 OA
ATOM     72  O   UNL     1       3.643 -11.338  -4.815  1.00  0.00    -0.744 OA
ENDBRANCH  68  69
ENDBRANCH  49  63
BRANCH  50  73
ATOM     73  C   UNL     1     -11.211 -11.253  -2.233  1.00  0.00    -0.014 A 
ATOM     74  C   UNL     1     -12.192 -10.990  -3.212  1.00  0.00     0.010 A 
ATOM     75  C   UNL     1     -11.589 -11.281  -0.881  1.00  0.00     0.010 A 
ATOM     76  C   UNL     1     -13.499 -10.671  -2.840  1.00  0.00     0.020 A 
ATOM     77  C   UNL     1     -12.908 -11.006  -0.507  1.00  0.00     0.020 A 
ATOM     78  C   UNL     1     -13.844 -10.666  -1.487  1.00  0.00     0.054 A 
BRANCH  78  79
ATOM     79  S   UNL     1     -15.526 -10.172  -1.023  1.00  0.00     0.124 S 
ATOM     80  O   UNL     1     -15.493  -8.733  -1.271  1.00  0.00    -0.237 OA
ATOM     81  O   UNL     1     -16.350 -10.951  -1.943  1.00  0.00    -0.237 OA
ATOM     82  O   UNL     1     -15.622 -10.562   0.381  1.00  0.00    -0.744 OA
ENDBRANCH  78  79
ENDBRANCH  50  73
BRANCH  62  83
ATOM     83  C   UNL     1      -6.339 -16.292  -1.977  1.00  0.00    -0.014 A 
ATOM     84  C   UNL     1      -5.549 -16.691  -0.881  1.00  0.00     0.010 A 
ATOM     85  C   UNL     1      -7.025 -17.270  -2.718  1.00  0.00     0.010 A 
ATOM     86  C   UNL     1      -5.401 -18.043  -0.569  1.00  0.00     0.020 A 
ATOM     87  C   UNL     1      -6.911 -18.622  -2.384  1.00  0.00     0.020 A 
ATOM     88  C   UNL     1      -6.074 -19.001  -1.332  1.00  0.00     0.054 A 
BRANCH  88  89
ATOM     89  S   UNL     1      -5.820 -20.755  -0.948  1.00  0.00     0.124 S 
ATOM     90  O   UNL     1      -4.458 -20.978  -1.424  1.00  0.00    -0.237 OA
ATOM     91  O   UNL     1      -5.995 -20.792   0.502  1.00  0.00    -0.237 OA
ATOM     92  O   UNL     1      -6.866 -21.430  -1.712  1.00  0.00    -0.744 OA
ENDBRANCH  88  89
ENDBRANCH  62  83
ENDBRANCH  36  37
ENDBRANCH  28  31
ENDBRANCH  26  27
ENDBRANCH  25  26
ENDBRANCH   1  25
TORSDOF 19
