REMARK SMILES Cc1cc2nc(NC(=O)[C@H]3[C@@H](C(=O)NCCCNC(=O)c4ccc(-c5c6nc(c(-c7ccc(S(=O)(=O)[O-])cc7)c7ccc([nH]7)c(-c7ccc(S(=O)(=O)[O-])cc7)c7nc(c(-c8ccc(S(=O)(=O)[O-])cc8)c8ccc5[nH]8)C=C7)C=C6)cc4)[C@@H]4C=C[C@H]3C4)sc2cc1C
REMARK SMILES IDX 16 1 15 2 14 3 12 4 13 5 11 7 10 8 84 9 81 10 83 11 85 12
REMARK SMILES IDX 82 13 8 14 7 15 9 17 6 18 1 19 2 20 3 21 89 22 4 23 88 24
REMARK SMILES IDX 90 25 5 26 87 27 86 28 17 29 18 30 19 31 20 33 21 34 22 35
REMARK SMILES IDX 80 36 23 37 79 38 24 39 25 40 26 41 73 42 27 43 78 44 72 45
REMARK SMILES IDX 74 46 28 47 77 48 71 49 70 50 29 52 59 53 40 54 58 55 41 56
REMARK SMILES IDX 44 57 57 58 75 59 42 60 43 61 56 63 76 64 45 65 30 66 31 67
REMARK SMILES IDX 39 68 32 69 38 70 33 71 34 72 35 73 36 74 37 75 60 76 61 77
REMARK SMILES IDX 69 78 62 79 68 80 63 81 64 82 65 83 66 84 67 85 46 86 47 87
REMARK SMILES IDX 55 88 48 89 54 90 49 91 50 92 51 93 52 94 53 95
REMARK H PARENT 14 6 7 16 18 32 74 51 44 62
REMARK Flexibility Score: inf
ROOT
ATOM      1  C   UNL     1      -3.145   6.237  -0.693  1.00  0.00     0.042 C 
ENDROOT
BRANCH   1   2
ATOM      2  C   UNL     1      -2.087   5.135  -0.768  1.00  0.00     0.117 C 
BRANCH   2   3
ATOM      3  N   UNL     1      -0.998   5.468  -1.670  1.00  0.00    -0.356 N 
ATOM      4  C   UNL     1       0.256   5.929  -1.405  1.00  0.00     0.224 C 
ATOM      5  O   UNL     1       1.003   6.130  -2.364  1.00  0.00    -0.275 OA
ATOM      6  H   UNL     1      -1.198   5.339  -2.626  1.00  0.00     0.163 HD
BRANCH   4   7
ATOM      7  C   UNL     1       0.704   6.079   0.042  1.00  0.00     0.098 C 
ATOM      8  C   UNL     1       1.782   7.191   0.337  1.00  0.00     0.099 C 
ATOM      9  C   UNL     1       2.954   6.360   0.896  1.00  0.00     0.025 C 
ATOM     10  C   UNL     1       1.423   4.772   0.486  1.00  0.00     0.025 C 
ATOM     11  C   UNL     1       2.530   5.765   2.231  1.00  0.00    -0.027 C 
ATOM     12  C   UNL     1       2.865   5.065   0.075  1.00  0.00     0.017 C 
ATOM     13  C   UNL     1       1.623   4.810   1.980  1.00  0.00    -0.027 C 
BRANCH   8  14
ATOM     14  C   UNL     1       1.899   8.255  -0.769  1.00  0.00     0.230 C 
ATOM     15  N   UNL     1       2.822   8.371  -1.751  1.00  0.00    -0.302 N 
ATOM     16  H   UNL     1       2.625   9.059  -2.427  1.00  0.00     0.172 HD
ATOM     17  O   UNL     1       0.966   9.079  -0.840  1.00  0.00    -0.274 OA
BRANCH  15  18
ATOM     18  C   UNL     1       3.977   7.688  -1.950  1.00  0.00     0.190 A 
ATOM     19  C   UNL     1       7.459   2.951  -1.444  1.00  0.00     0.044 C 
ATOM     20  C   UNL     1       7.035   4.263  -2.049  1.00  0.00    -0.046 A 
ATOM     21  C   UNL     1       6.202   5.059  -1.248  1.00  0.00     0.033 A 
ATOM     22  C   UNL     1       7.305   4.669  -3.368  1.00  0.00    -0.047 A 
ATOM     23  C   UNL     1       5.542   6.176  -1.784  1.00  0.00     0.084 A 
ATOM     24  C   UNL     1       6.661   5.811  -3.908  1.00  0.00     0.025 A 
ATOM     25  C   UNL     1       8.278   3.958  -4.269  1.00  0.00     0.044 C 
ATOM     26  N   UNL     1       4.629   6.945  -1.110  1.00  0.00    -0.220 NA
ATOM     27  C   UNL     1       5.742   6.516  -3.117  1.00  0.00     0.057 A 
ATOM     28  S   UNL     1       4.676   7.826  -3.504  1.00  0.00    -0.097 S 
ENDBRANCH  15  18
ENDBRANCH   8  14
ENDBRANCH   4   7
ENDBRANCH   2   3
ENDBRANCH   1   2
BRANCH   1  29
ATOM     29  C   UNL     1      -3.795   6.586  -2.035  1.00  0.00     0.118 C 
BRANCH  29  30
ATOM     30  N   UNL     1      -4.286   5.447  -2.788  1.00  0.00    -0.352 N 
ATOM     31  C   UNL     1      -5.446   4.727  -2.832  1.00  0.00     0.251 C 
ATOM     32  H   UNL     1      -3.617   5.109  -3.426  1.00  0.00     0.163 HD
ATOM     33  O   UNL     1      -5.508   3.881  -3.730  1.00  0.00    -0.269 OA
BRANCH  31  34
ATOM     34  C   UNL     1      -6.580   4.838  -1.875  1.00  0.00     0.039 A 
ATOM     35  C   UNL     1      -6.688   5.761  -0.836  1.00  0.00     0.014 A 
ATOM     36  C   UNL     1      -7.601   3.876  -2.024  1.00  0.00     0.014 A 
ATOM     37  C   UNL     1      -7.733   5.662   0.084  1.00  0.00     0.010 A 
ATOM     38  C   UNL     1      -8.653   3.783  -1.119  1.00  0.00     0.010 A 
ATOM     39  C   UNL     1      -8.693   4.648  -0.034  1.00  0.00    -0.014 A 
BRANCH  39  40
ATOM     40  C   UNL     1      -9.775   4.600   0.949  1.00  0.00     0.031 A 
ATOM     41  C   UNL     1     -10.642   5.805   0.976  1.00  0.00     0.074 A 
ATOM     42  C   UNL     1     -10.070   3.536   1.726  1.00  0.00     0.049 A 
ATOM     43  N   UNL     1     -10.735   6.688   1.913  1.00  0.00    -0.248 NA
ATOM     44  C   UNL     1     -11.417   6.126  -0.232  1.00  0.00     0.031 C 
ATOM     45  C   UNL     1      -9.532   2.176   1.617  1.00  0.00     0.029 A 
ATOM     46  N   UNL     1     -10.990   3.421   2.732  1.00  0.00    -0.354 N 
ATOM     47  C   UNL     1     -11.743   7.561   1.513  1.00  0.00     0.074 A 
ATOM     48  C   UNL     1     -12.005   7.268   0.127  1.00  0.00     0.031 C 
ATOM     49  C   UNL     1     -10.291   1.332   2.353  1.00  0.00     0.029 A 
ATOM     50  C   UNL     1     -11.243   2.113   3.124  1.00  0.00     0.049 A 
ATOM     51  H   UNL     1     -11.434   4.199   3.143  1.00  0.00     0.167 HD
ATOM     52  C   UNL     1     -12.456   8.281   2.422  1.00  0.00     0.031 A 
ATOM     53  C   UNL     1     -12.165   1.688   4.021  1.00  0.00     0.031 A 
ATOM     54  C   UNL     1     -11.838   8.262   3.720  1.00  0.00     0.049 A 
ATOM     55  C   UNL     1     -12.458   2.804   4.945  1.00  0.00     0.074 A 
ATOM     56  C   UNL     1     -10.823   8.931   4.364  1.00  0.00     0.029 A 
ATOM     57  N   UNL     1     -12.123   7.141   4.453  1.00  0.00    -0.354 N 
ATOM     58  N   UNL     1     -11.576   3.310   5.761  1.00  0.00    -0.248 NA
ATOM     59  C   UNL     1     -13.683   3.578   4.781  1.00  0.00     0.031 C 
ATOM     60  C   UNL     1     -10.398   8.083   5.429  1.00  0.00     0.029 A 
ATOM     61  C   UNL     1     -11.187   6.935   5.433  1.00  0.00     0.049 A 
ATOM     62  H   UNL     1     -12.901   6.558   4.296  1.00  0.00     0.167 HD
ATOM     63  C   UNL     1     -11.946   4.633   5.879  1.00  0.00     0.074 A 
ATOM     64  C   UNL     1     -13.322   4.699   5.407  1.00  0.00     0.031 C 
ATOM     65  C   UNL     1     -11.021   5.621   6.025  1.00  0.00     0.031 A 
BRANCH  52  66
ATOM     66  C   UNL     1     -13.919   8.636   2.269  1.00  0.00    -0.014 A 
ATOM     67  C   UNL     1     -14.763   8.035   1.313  1.00  0.00     0.010 A 
ATOM     68  C   UNL     1     -14.548   9.398   3.278  1.00  0.00     0.010 A 
ATOM     69  C   UNL     1     -16.150   8.201   1.337  1.00  0.00     0.020 A 
ATOM     70  C   UNL     1     -15.944   9.541   3.333  1.00  0.00     0.020 A 
ATOM     71  C   UNL     1     -16.735   8.947   2.353  1.00  0.00     0.054 A 
BRANCH  71  72
ATOM     72  S   UNL     1     -18.541   9.066   2.397  1.00  0.00     0.124 S 
ATOM     73  O   UNL     1     -18.814   9.872   1.206  1.00  0.00    -0.237 OA
ATOM     74  O   UNL     1     -18.947   7.663   2.307  1.00  0.00    -0.237 OA
ATOM     75  O   UNL     1     -18.816   9.716   3.668  1.00  0.00    -0.744 OA
ENDBRANCH  71  72
ENDBRANCH  52  66
BRANCH  53  76
ATOM     76  C   UNL     1     -13.063   0.510   3.925  1.00  0.00    -0.014 A 
ATOM     77  C   UNL     1     -13.511   0.085   2.659  1.00  0.00     0.010 A 
ATOM     78  C   UNL     1     -13.750   0.041   5.063  1.00  0.00     0.010 A 
ATOM     79  C   UNL     1     -14.664  -0.697   2.526  1.00  0.00     0.020 A 
ATOM     80  C   UNL     1     -14.907  -0.744   4.936  1.00  0.00     0.020 A 
ATOM     81  C   UNL     1     -15.379  -1.072   3.664  1.00  0.00     0.054 A 
BRANCH  81  82
ATOM     82  S   UNL     1     -16.981  -1.900   3.442  1.00  0.00     0.124 S 
ATOM     83  O   UNL     1     -17.784  -0.847   2.827  1.00  0.00    -0.237 OA
ATOM     84  O   UNL     1     -16.638  -3.019   2.568  1.00  0.00    -0.237 OA
ATOM     85  O   UNL     1     -17.371  -2.272   4.800  1.00  0.00    -0.744 OA
ENDBRANCH  81  82
ENDBRANCH  53  76
BRANCH  65  86
ATOM     86  C   UNL     1      -9.696   5.297   6.656  1.00  0.00    -0.014 A 
ATOM     87  C   UNL     1      -9.361   6.016   7.818  1.00  0.00     0.010 A 
ATOM     88  C   UNL     1      -8.738   4.429   6.100  1.00  0.00     0.010 A 
ATOM     89  C   UNL     1      -8.091   5.922   8.382  1.00  0.00     0.020 A 
ATOM     90  C   UNL     1      -7.463   4.311   6.678  1.00  0.00     0.020 A 
ATOM     91  C   UNL     1      -7.141   5.083   7.800  1.00  0.00     0.054 A 
BRANCH  91  92
ATOM     92  S   UNL     1      -5.480   5.051   8.526  1.00  0.00     0.124 S 
ATOM     93  O   UNL     1      -4.957   6.364   8.156  1.00  0.00    -0.237 OA
ATOM     94  O   UNL     1      -5.754   4.869   9.950  1.00  0.00    -0.237 OA
ATOM     95  O   UNL     1      -4.829   3.918   7.873  1.00  0.00    -0.744 OA
ENDBRANCH  91  92
ENDBRANCH  65  86
ENDBRANCH  39  40
ENDBRANCH  31  34
ENDBRANCH  29  30
ENDBRANCH   1  29
TORSDOF 15
