REMARK SMILES O=C(NCc1ccc(C(=O)NCCCNC(=O)c2ccc(-c3c4nc(c(-c5ccc(S(=O)(=O)[O-])cc5)c5ccc([nH]5)c(-c5ccc(S(=O)(=O)[O-])cc5)c5nc(c(-c6ccc(S(=O)(=O)[O-])cc6)c6ccc3[nH]6)C=C5)C=C4)cc2)o1)N[C@@H]1CCS(=O)(=O)C1
REMARK SMILES IDX 13 1 12 2 11 3 9 4 10 5 8 7 5 8 6 9 78 10 7 11 4 12 3 13
REMARK SMILES IDX 1 14 2 15 79 16 80 19 81 20 86 21 82 22 83 23 84 24 85 25
REMARK SMILES IDX 14 26 15 27 16 28 17 30 18 31 19 32 77 33 20 34 76 35 21 36
REMARK SMILES IDX 22 37 23 38 70 39 24 40 75 41 69 42 71 43 25 44 74 45 68 46
REMARK SMILES IDX 67 47 26 49 56 50 37 51 55 52 38 53 41 54 54 55 72 56 39 57
REMARK SMILES IDX 40 58 53 60 73 61 42 62 27 63 28 64 36 65 29 66 35 67 30 68
REMARK SMILES IDX 31 69 32 70 33 71 34 72 57 73 58 74 66 75 59 76 65 77 60 78
REMARK SMILES IDX 61 79 62 80 63 81 64 82 43 83 44 84 52 85 45 86 51 87 46 88
REMARK SMILES IDX 47 89 48 90 49 91 50 92
REMARK H PARENT 11 6 3 17 79 18 15 29 71 48 41 59
REMARK Flexibility Score: inf
ROOT
ATOM      1  C   UNL     1       7.214  -7.051   0.933  1.00  0.00     0.042 C 
ENDROOT
BRANCH   1   2
ATOM      2  C   UNL     1       6.969  -6.620  -0.510  1.00  0.00     0.118 C 
BRANCH   2   3
ATOM      3  N   UNL     1       5.556  -6.496  -0.803  1.00  0.00    -0.349 N 
ATOM      4  C   UNL     1       4.755  -5.389  -0.952  1.00  0.00     0.286 C 
ATOM      5  O   UNL     1       3.606  -5.617  -1.340  1.00  0.00    -0.266 OA
ATOM      6  H   UNL     1       5.088  -7.354  -0.915  1.00  0.00     0.163 HD
BRANCH   4   7
ATOM      7  C   UNL     1       5.242  -4.046  -0.687  1.00  0.00     0.191 A 
ATOM      8  C   UNL     1       5.059  -1.838  -0.832  1.00  0.00     0.124 A 
ATOM      9  C   UNL     1       6.211  -2.083  -0.121  1.00  0.00     0.048 A 
ATOM     10  O   UNL     1       4.482  -3.018  -1.193  1.00  0.00    -0.454 OA
ATOM     11  C   UNL     1       6.310  -3.493  -0.001  1.00  0.00     0.056 A 
BRANCH   8  12
ATOM     12  C   UNL     1       4.365  -0.602  -1.268  1.00  0.00     0.193 C 
BRANCH  12  13
ATOM     13  N   UNL     1       2.963  -0.698  -0.911  1.00  0.00    -0.331 N 
ATOM     14  O   UNL     1       1.019  -0.212   0.075  1.00  0.00    -0.249 OA
ATOM     15  C   UNL     1       2.231  -0.040   0.012  1.00  0.00     0.315 C 
ATOM     16  N   UNL     1       2.898   0.827   0.820  1.00  0.00    -0.334 N 
ATOM     17  H   UNL     1       2.456  -1.359  -1.435  1.00  0.00     0.165 HD
ATOM     18  H   UNL     1       3.874   0.909   0.728  1.00  0.00     0.165 HD
BRANCH  16  19
ATOM     19  C   UNL     1       2.212   1.640   1.819  1.00  0.00     0.099 C 
ATOM     20  C   UNL     1       1.303   2.706   1.183  1.00  0.00     0.042 C 
ATOM     21  C   UNL     1       3.200   2.426   2.677  1.00  0.00     0.161 C 
ATOM     22  C   UNL     1       2.220   3.765   0.584  1.00  0.00     0.139 C 
ATOM     23  S   UNL     1       3.628   3.841   1.679  1.00  0.00     0.152 S 
ATOM     24  O   UNL     1       4.822   3.517   0.921  1.00  0.00    -0.229 OA
ATOM     25  O   UNL     1       3.531   5.034   2.492  1.00  0.00    -0.229 OA
ENDBRANCH  16  19
ENDBRANCH  12  13
ENDBRANCH   8  12
ENDBRANCH   4   7
ENDBRANCH   2   3
ENDBRANCH   1   2
BRANCH   1  26
ATOM     26  C   UNL     1       6.966  -8.542   1.168  1.00  0.00     0.118 C 
BRANCH  26  27
ATOM     27  N   UNL     1       7.904  -9.375   0.424  1.00  0.00    -0.352 N 
ATOM     28  C   UNL     1       8.852 -10.264   0.863  1.00  0.00     0.251 C 
ATOM     29  H   UNL     1       7.846  -9.285  -0.554  1.00  0.00     0.163 HD
ATOM     30  O   UNL     1       9.701 -10.667   0.071  1.00  0.00    -0.269 OA
BRANCH  28  31
ATOM     31  C   UNL     1       8.866 -10.736   2.264  1.00  0.00     0.039 A 
ATOM     32  C   UNL     1      10.097 -10.939   2.895  1.00  0.00     0.014 A 
ATOM     33  C   UNL     1       7.680 -11.035   2.940  1.00  0.00     0.014 A 
ATOM     34  C   UNL     1      10.135 -11.388   4.217  1.00  0.00     0.010 A 
ATOM     35  C   UNL     1       7.717 -11.405   4.282  1.00  0.00     0.010 A 
ATOM     36  C   UNL     1       8.944 -11.593   4.934  1.00  0.00    -0.014 A 
BRANCH  36  37
ATOM     37  C   UNL     1       8.969 -11.997   6.363  1.00  0.00     0.031 A 
ATOM     38  C   UNL     1       8.381 -13.314   6.794  1.00  0.00     0.074 A 
ATOM     39  C   UNL     1       9.471 -11.147   7.282  1.00  0.00     0.049 A 
ATOM     40  N   UNL     1       8.274 -13.813   7.999  1.00  0.00    -0.248 NA
ATOM     41  C   UNL     1       7.816 -14.173   5.739  1.00  0.00     0.031 C 
ATOM     42  C   UNL     1      10.029  -9.823   6.995  1.00  0.00     0.029 A 
ATOM     43  N   UNL     1       9.588 -11.265   8.645  1.00  0.00    -0.354 N 
ATOM     44  C   UNL     1       7.616 -15.029   7.851  1.00  0.00     0.074 A 
ATOM     45  C   UNL     1       7.306 -15.172   6.445  1.00  0.00     0.031 C 
ATOM     46  C   UNL     1      10.452  -9.265   8.140  1.00  0.00     0.029 A 
ATOM     47  C   UNL     1      10.154 -10.166   9.248  1.00  0.00     0.049 A 
ATOM     48  H   UNL     1       9.293 -12.061   9.143  1.00  0.00     0.167 HD
ATOM     49  C   UNL     1       7.312 -15.950   8.796  1.00  0.00     0.031 A 
ATOM     50  C   UNL     1      10.397  -9.905  10.547  1.00  0.00     0.031 A 
ATOM     51  C   UNL     1       7.633 -15.805  10.192  1.00  0.00     0.049 A 
ATOM     52  C   UNL     1      10.043 -10.941  11.579  1.00  0.00     0.074 A 
ATOM     53  C   UNL     1       7.428 -16.711  11.218  1.00  0.00     0.029 A 
ATOM     54  N   UNL     1       8.218 -14.684  10.760  1.00  0.00    -0.354 N 
ATOM     55  N   UNL     1       9.495 -12.121  11.406  1.00  0.00    -0.248 NA
ATOM     56  C   UNL     1      10.353 -10.618  12.978  1.00  0.00     0.031 C 
ATOM     57  C   UNL     1       7.826 -16.111  12.416  1.00  0.00     0.029 A 
ATOM     58  C   UNL     1       8.350 -14.861  12.127  1.00  0.00     0.049 A 
ATOM     59  H   UNL     1       8.498 -13.880  10.265  1.00  0.00     0.167 HD
ATOM     60  C   UNL     1       9.422 -12.693  12.672  1.00  0.00     0.074 A 
ATOM     61  C   UNL     1       9.998 -11.737  13.596  1.00  0.00     0.031 C 
ATOM     62  C   UNL     1       8.925 -13.901  13.036  1.00  0.00     0.031 A 
BRANCH  49  63
ATOM     63  C   UNL     1       6.582 -17.194   8.359  1.00  0.00    -0.014 A 
ATOM     64  C   UNL     1       7.207 -18.168   7.558  1.00  0.00     0.010 A 
ATOM     65  C   UNL     1       5.266 -17.422   8.806  1.00  0.00     0.010 A 
ATOM     66  C   UNL     1       6.519 -19.325   7.183  1.00  0.00     0.020 A 
ATOM     67  C   UNL     1       4.586 -18.593   8.459  1.00  0.00     0.020 A 
ATOM     68  C   UNL     1       5.213 -19.531   7.637  1.00  0.00     0.054 A 
BRANCH  68  69
ATOM     69  S   UNL     1       4.359 -21.059   7.162  1.00  0.00     0.124 S 
ATOM     70  O   UNL     1       4.117 -20.839   5.738  1.00  0.00    -0.237 OA
ATOM     71  O   UNL     1       5.347 -22.087   7.478  1.00  0.00    -0.237 OA
ATOM     72  O   UNL     1       3.165 -21.066   8.002  1.00  0.00    -0.744 OA
ENDBRANCH  68  69
ENDBRANCH  49  63
BRANCH  50  73
ATOM     73  C   UNL     1      11.007  -8.605  10.944  1.00  0.00    -0.014 A 
ATOM     74  C   UNL     1      12.311  -8.550  11.465  1.00  0.00     0.010 A 
ATOM     75  C   UNL     1      10.282  -7.408  10.795  1.00  0.00     0.010 A 
ATOM     76  C   UNL     1      12.870  -7.328  11.851  1.00  0.00     0.020 A 
ATOM     77  C   UNL     1      10.849  -6.181  11.148  1.00  0.00     0.020 A 
ATOM     78  C   UNL     1      12.135  -6.150  11.688  1.00  0.00     0.054 A 
BRANCH  78  79
ATOM     79  S   UNL     1      12.896  -4.571  12.155  1.00  0.00     0.124 S 
ATOM     80  O   UNL     1      12.896  -4.653  13.612  1.00  0.00    -0.237 OA
ATOM     81  O   UNL     1      14.207  -4.653  11.515  1.00  0.00    -0.237 OA
ATOM     82  O   UNL     1      11.994  -3.574  11.582  1.00  0.00    -0.744 OA
ENDBRANCH  78  79
ENDBRANCH  50  73
BRANCH  62  83
ATOM     83  C   UNL     1       9.017 -14.281  14.491  1.00  0.00    -0.014 A 
ATOM     84  C   UNL     1       8.225 -13.650  15.466  1.00  0.00     0.010 A 
ATOM     85  C   UNL     1       9.871 -15.331  14.876  1.00  0.00     0.010 A 
ATOM     86  C   UNL     1       8.312 -14.039  16.806  1.00  0.00     0.020 A 
ATOM     87  C   UNL     1       9.936 -15.745  16.208  1.00  0.00     0.020 A 
ATOM     88  C   UNL     1       9.166 -15.086  17.168  1.00  0.00     0.054 A 
BRANCH  88  89
ATOM     89  S   UNL     1       9.226 -15.601  18.905  1.00  0.00     0.124 S 
ATOM     90  O   UNL     1       9.933 -14.485  19.529  1.00  0.00    -0.237 OA
ATOM     91  O   UNL     1       7.812 -15.722  19.252  1.00  0.00    -0.237 OA
ATOM     92  O   UNL     1       9.963 -16.862  18.869  1.00  0.00    -0.744 OA
ENDBRANCH  88  89
ENDBRANCH  62  83
ENDBRANCH  36  37
ENDBRANCH  28  31
ENDBRANCH  26  27
ENDBRANCH   1  26
TORSDOF 16
