REMARK SMILES C=C(C)COc1ccc2nc(C)n(-c3cccc(C(=O)NCCCNC(=O)c4ccc(-c5c6nc(c(-c7ccc(S(=O)(=O)[O-])cc7)c7ccc([nH]7)c(-c7ccc(S(=O)(=O)[O-])cc7)c7nc(c(-c8ccc(S(=O)(=O)[O-])cc8)c8ccc5[nH]8)C=C7)C=C6)cc4)c3)c(=O)c2c1
REMARK SMILES IDX 22 1 21 2 19 3 20 4 18 6 14 7 15 8 88 9 16 10 17 11 13 12
REMARK SMILES IDX 6 13 7 14 92 15 8 16 91 17 9 18 89 19 10 20 90 21 11 22
REMARK SMILES IDX 12 23 5 24 4 25 2 26 1 27 3 28 23 29 24 30 25 31 26 32 27 34
REMARK SMILES IDX 28 35 29 36 87 37 30 38 86 39 31 40 32 41 33 42 80 43 34 44
REMARK SMILES IDX 85 45 79 46 81 47 35 48 84 49 78 50 77 51 36 53 66 54 47 55
REMARK SMILES IDX 65 56 48 57 51 58 64 59 82 60 49 61 50 62 63 64 83 65 52 66
REMARK SMILES IDX 37 67 38 68 46 69 39 70 45 71 40 72 41 73 42 74 43 75 44 76
REMARK SMILES IDX 67 77 68 78 76 79 69 80 75 81 70 82 71 83 72 84 73 85 74 86
REMARK SMILES IDX 53 87 54 88 62 89 55 90 61 91 56 92 57 93 58 94 59 95 60 96
REMARK H PARENT 21 5 25 33 81 52 51 63
REMARK Flexibility Score: inf
ROOT
ATOM      1  C   UNL     1      -0.145  10.197   0.084  1.00  0.00     0.118 C 
ENDROOT
BRANCH   1   2
ATOM      2  N   UNL     1       0.433  11.488   0.453  1.00  0.00    -0.352 N 
ATOM      3  C   UNL     1       1.328  11.895   1.416  1.00  0.00     0.251 C 
ATOM      4  O   UNL     1       1.617  13.092   1.458  1.00  0.00    -0.269 OA
ATOM      5  H   UNL     1       0.112  12.228  -0.112  1.00  0.00     0.163 HD
BRANCH   3   6
ATOM      6  C   UNL     1       1.901  10.986   2.445  1.00  0.00     0.041 A 
ATOM      7  C   UNL     1       2.262   8.761   3.332  1.00  0.00     0.051 A 
ATOM      8  C   UNL     1       2.635   9.313   4.562  1.00  0.00     0.027 A 
ATOM      9  C   UNL     1       2.058   9.619   2.245  1.00  0.00     0.040 A 
ATOM     10  C   UNL     1       2.661  10.697   4.732  1.00  0.00     0.003 A 
ATOM     11  C   UNL     1       2.245  11.528   3.691  1.00  0.00     0.014 A 
BRANCH   7  12
ATOM     12  N   UNL     1       1.880   7.384   3.197  1.00  0.00    -0.264 N 
ATOM     13  C   UNL     1       1.579   3.254   0.637  1.00  0.00     0.120 A 
ATOM     14  C   UNL     1       0.690   2.778   1.601  1.00  0.00     0.049 A 
ATOM     15  C   UNL     1       2.150   4.518   0.785  1.00  0.00     0.062 A 
ATOM     16  C   UNL     1       0.343   3.574   2.690  1.00  0.00     0.033 A 
ATOM     17  C   UNL     1       1.794   5.310   1.887  1.00  0.00     0.070 A 
ATOM     18  C   UNL     1       0.896   4.843   2.839  1.00  0.00     0.078 A 
ATOM     19  C   UNL     1       2.335   6.671   2.073  1.00  0.00     0.266 A 
ATOM     20  N   UNL     1       0.493   5.609   3.926  1.00  0.00    -0.234 NA
ATOM     21  O   UNL     1       3.139   7.094   1.242  1.00  0.00    -0.268 OA
ATOM     22  C   UNL     1       0.943   6.814   4.053  1.00  0.00     0.113 A 
ATOM     23  C   UNL     1       0.313   7.607   5.184  1.00  0.00     0.088 C 
BRANCH  13  24
ATOM     24  O   UNL     1       1.987   2.493  -0.427  1.00  0.00    -0.489 OA
BRANCH  24  25
ATOM     25  C   UNL     1       0.902   2.039  -1.255  1.00  0.00     0.260 C 
BRANCH  25  26
ATOM     26  C   UNL     1       0.334   0.704  -0.821  1.00  0.00    -0.043 C 
ATOM     27  C   UNL     1       1.077  -0.277  -0.280  1.00  0.00     0.011 C 
ATOM     28  C   UNL     1      -1.158   0.567  -0.965  1.00  0.00     0.042 C 
ENDBRANCH  25  26
ENDBRANCH  24  25
ENDBRANCH  13  24
ENDBRANCH   7  12
ENDBRANCH   3   6
ENDBRANCH   1   2
BRANCH   1  29
ATOM     29  C   UNL     1      -1.665  10.171   0.061  1.00  0.00     0.042 C 
BRANCH  29  30
ATOM     30  C   UNL     1      -2.309  11.128  -0.927  1.00  0.00     0.118 C 
BRANCH  30  31
ATOM     31  N   UNL     1      -2.063  10.780  -2.321  1.00  0.00    -0.352 N 
ATOM     32  C   UNL     1      -2.830  10.124  -3.260  1.00  0.00     0.251 C 
ATOM     33  H   UNL     1      -1.183  11.069  -2.655  1.00  0.00     0.163 HD
ATOM     34  O   UNL     1      -2.327   9.841  -4.341  1.00  0.00    -0.269 OA
BRANCH  32  35
ATOM     35  C   UNL     1      -4.225   9.711  -2.969  1.00  0.00     0.039 A 
ATOM     36  C   UNL     1      -5.091  10.519  -2.239  1.00  0.00     0.014 A 
ATOM     37  C   UNL     1      -4.687   8.484  -3.460  1.00  0.00     0.014 A 
ATOM     38  C   UNL     1      -6.310  10.011  -1.799  1.00  0.00     0.010 A 
ATOM     39  C   UNL     1      -5.967   8.026  -3.121  1.00  0.00     0.010 A 
ATOM     40  C   UNL     1      -6.766   8.755  -2.229  1.00  0.00    -0.014 A 
BRANCH  40  41
ATOM     41  C   UNL     1      -8.064   8.234  -1.717  1.00  0.00     0.031 A 
ATOM     42  C   UNL     1      -8.116   6.970  -0.896  1.00  0.00     0.074 A 
ATOM     43  C   UNL     1      -9.189   8.953  -1.906  1.00  0.00     0.049 A 
ATOM     44  N   UNL     1      -9.149   6.405  -0.322  1.00  0.00    -0.248 NA
ATOM     45  C   UNL     1      -6.851   6.244  -0.688  1.00  0.00     0.031 C 
ATOM     46  C   UNL     1      -9.265  10.212  -2.651  1.00  0.00     0.029 A 
ATOM     47  N   UNL     1     -10.469   8.765  -1.446  1.00  0.00    -0.354 N 
ATOM     48  C   UNL     1      -8.663   5.260   0.301  1.00  0.00     0.074 A 
ATOM     49  C   UNL     1      -7.250   5.186   0.004  1.00  0.00     0.031 C 
ATOM     50  C   UNL     1     -10.493  10.730  -2.515  1.00  0.00     0.029 A 
ATOM     51  C   UNL     1     -11.320   9.803  -1.747  1.00  0.00     0.049 A 
ATOM     52  H   UNL     1     -10.751   7.964  -0.948  1.00  0.00     0.167 HD
ATOM     53  C   UNL     1      -9.328   4.362   1.067  1.00  0.00     0.031 A 
ATOM     54  C   UNL     1     -12.620  10.000  -1.446  1.00  0.00     0.031 A 
ATOM     55  C   UNL     1     -10.733   4.442   1.369  1.00  0.00     0.049 A 
ATOM     56  C   UNL     1     -13.352   8.960  -0.649  1.00  0.00     0.074 A 
ATOM     57  C   UNL     1     -11.501   3.564   2.115  1.00  0.00     0.029 A 
ATOM     58  N   UNL     1     -11.579   5.461   0.957  1.00  0.00    -0.354 N 
ATOM     59  N   UNL     1     -12.882   7.862  -0.109  1.00  0.00    -0.248 NA
ATOM     60  C   UNL     1     -14.788   9.177  -0.429  1.00  0.00     0.031 C 
ATOM     61  C   UNL     1     -12.819   4.024   2.111  1.00  0.00     0.029 A 
ATOM     62  C   UNL     1     -12.863   5.225   1.420  1.00  0.00     0.049 A 
ATOM     63  H   UNL     1     -11.307   6.237   0.416  1.00  0.00     0.167 HD
ATOM     64  C   UNL     1     -13.963   7.256   0.519  1.00  0.00     0.074 A 
ATOM     65  C   UNL     1     -15.107   8.121   0.311  1.00  0.00     0.031 C 
ATOM     66  C   UNL     1     -13.999   6.086   1.200  1.00  0.00     0.031 A 
BRANCH  53  67
ATOM     67  C   UNL     1      -8.549   3.204   1.637  1.00  0.00    -0.014 A 
ATOM     68  C   UNL     1      -8.799   1.897   1.180  1.00  0.00     0.010 A 
ATOM     69  C   UNL     1      -7.631   3.397   2.686  1.00  0.00     0.010 A 
ATOM     70  C   UNL     1      -8.157   0.803   1.767  1.00  0.00     0.020 A 
ATOM     71  C   UNL     1      -6.965   2.308   3.257  1.00  0.00     0.020 A 
ATOM     72  C   UNL     1      -7.246   1.016   2.805  1.00  0.00     0.054 A 
BRANCH  72  73
ATOM     73  S   UNL     1      -6.405  -0.413   3.544  1.00  0.00     0.124 S 
ATOM     74  O   UNL     1      -7.437  -0.959   4.420  1.00  0.00    -0.237 OA
ATOM     75  O   UNL     1      -6.068  -1.225   2.378  1.00  0.00    -0.237 OA
ATOM     76  O   UNL     1      -5.257   0.184   4.224  1.00  0.00    -0.744 OA
ENDBRANCH  72  73
ENDBRANCH  53  67
BRANCH  54  77
ATOM     77  C   UNL     1     -13.280  11.258  -1.890  1.00  0.00    -0.014 A 
ATOM     78  C   UNL     1     -13.485  11.512  -3.259  1.00  0.00     0.010 A 
ATOM     79  C   UNL     1     -13.597  12.259  -0.955  1.00  0.00     0.010 A 
ATOM     80  C   UNL     1     -13.921  12.766  -3.691  1.00  0.00     0.020 A 
ATOM     81  C   UNL     1     -14.063  13.507  -1.382  1.00  0.00     0.020 A 
ATOM     82  C   UNL     1     -14.186  13.763  -2.750  1.00  0.00     0.054 A 
BRANCH  82  83
ATOM     83  S   UNL     1     -14.667  15.411  -3.337  1.00  0.00     0.124 S 
ATOM     84  O   UNL     1     -13.386  15.954  -3.780  1.00  0.00    -0.237 OA
ATOM     85  O   UNL     1     -15.622  15.107  -4.399  1.00  0.00    -0.237 OA
ATOM     86  O   UNL     1     -15.239  16.043  -2.151  1.00  0.00    -0.744 OA
ENDBRANCH  82  83
ENDBRANCH  54  77
BRANCH  66  87
ATOM     87  C   UNL     1     -15.316   5.642   1.779  1.00  0.00    -0.014 A 
ATOM     88  C   UNL     1     -15.492   5.620   3.175  1.00  0.00     0.010 A 
ATOM     89  C   UNL     1     -16.325   5.121   0.951  1.00  0.00     0.010 A 
ATOM     90  C   UNL     1     -16.637   5.050   3.736  1.00  0.00     0.020 A 
ATOM     91  C   UNL     1     -17.485   4.573   1.508  1.00  0.00     0.020 A 
ATOM     92  C   UNL     1     -17.620   4.518   2.897  1.00  0.00     0.054 A 
BRANCH  92  93
ATOM     93  S   UNL     1     -19.081   3.743   3.643  1.00  0.00     0.124 S 
ATOM     94  O   UNL     1     -18.558   2.448   4.069  1.00  0.00    -0.237 OA
ATOM     95  O   UNL     1     -19.423   4.669   4.721  1.00  0.00    -0.237 OA
ATOM     96  O   UNL     1     -20.043   3.698   2.544  1.00  0.00    -0.744 OA
ENDBRANCH  92  93
ENDBRANCH  66  87
ENDBRANCH  40  41
ENDBRANCH  32  35
ENDBRANCH  30  31
ENDBRANCH  29  30
ENDBRANCH   1  29
TORSDOF 17
