REMARK SMILES O=C(NCCCNC(=O)c1nnn(-c2cccc(C(F)(F)F)c2)c1[C@@H]1COc2ccccc2O1)c1ccc(-c2c3nc(c(-c4ccc(S(=O)(=O)[O-])cc4)c4ccc([nH]4)c(-c4ccc(S(=O)(=O)[O-])cc4)c4nc(c(-c5ccc(S(=O)(=O)[O-])cc5)c5ccc2[nH]5)C=C4)C=C3)cc1
REMARK SMILES IDX 4 1 3 2 1 3 2 4 35 6 36 7 94 8 37 9 93 10 38 11 39 12 40 13
REMARK SMILES IDX 87 14 41 15 92 16 86 17 88 18 42 19 91 20 85 21 84 22 43 24
REMARK SMILES IDX 73 25 54 26 72 27 55 28 58 29 71 30 89 31 56 32 57 33 70 35
REMARK SMILES IDX 90 36 59 37 44 38 45 39 53 40 46 41 52 42 47 43 48 44 49 45
REMARK SMILES IDX 50 46 51 47 74 48 75 49 83 50 76 51 82 52 77 53 78 54 79 55
REMARK SMILES IDX 80 56 81 57 60 58 61 59 69 60 62 61 68 62 63 63 64 64 65 65
REMARK SMILES IDX 66 66 67 67 5 68 6 69 7 70 8 71 9 73 10 74 11 75 24 76 12 77
REMARK SMILES IDX 13 78 25 79 26 80 34 81 27 82 33 83 28 84 32 85 29 86 31 87
REMARK SMILES IDX 30 88 14 89 15 90 23 91 16 92 18 93 17 94 19 95 20 96 21 97
REMARK SMILES IDX 22 98
REMARK H PARENT 3 5 88 23 58 34 7 72
REMARK Flexibility Score: inf
ROOT
ATOM      1  C   UNL     1       4.782   0.344  -1.299  1.00  0.00     0.118 C 
ENDROOT
BRANCH   1   2
ATOM      2  N   UNL     1       3.360   0.620  -1.332  1.00  0.00    -0.352 N 
ATOM      3  O   UNL     1       1.251   0.977  -0.834  1.00  0.00    -0.269 OA
ATOM      4  C   UNL     1       2.314   0.469  -0.465  1.00  0.00     0.251 C 
ATOM      5  H   UNL     1       3.078   1.013  -2.189  1.00  0.00     0.163 HD
BRANCH   4   6
ATOM      6  C   UNL     1       2.337  -0.295   0.814  1.00  0.00     0.039 A 
ATOM      7  C   UNL     1       3.453  -0.892   1.404  1.00  0.00     0.014 A 
ATOM      8  C   UNL     1       1.083  -0.462   1.433  1.00  0.00     0.014 A 
ATOM      9  C   UNL     1       3.305  -1.725   2.515  1.00  0.00     0.010 A 
ATOM     10  C   UNL     1       0.932  -1.272   2.548  1.00  0.00     0.010 A 
ATOM     11  C   UNL     1       2.039  -1.945   3.058  1.00  0.00    -0.014 A 
BRANCH  11  12
ATOM     12  C   UNL     1       1.896  -2.803   4.234  1.00  0.00     0.031 A 
ATOM     13  C   UNL     1       2.442  -2.244   5.507  1.00  0.00     0.074 A 
ATOM     14  C   UNL     1       1.127  -3.912   4.213  1.00  0.00     0.049 A 
ATOM     15  N   UNL     1       3.301  -2.768   6.323  1.00  0.00    -0.248 NA
ATOM     16  C   UNL     1       2.033  -0.876   5.874  1.00  0.00     0.031 C 
ATOM     17  C   UNL     1       0.285  -4.394   3.112  1.00  0.00     0.029 A 
ATOM     18  N   UNL     1       0.815  -4.766   5.229  1.00  0.00    -0.354 N 
ATOM     19  C   UNL     1       3.405  -1.882   7.396  1.00  0.00     0.074 A 
ATOM     20  C   UNL     1       2.718  -0.679   7.000  1.00  0.00     0.031 C 
ATOM     21  C   UNL     1      -0.618  -5.276   3.596  1.00  0.00     0.029 A 
ATOM     22  C   UNL     1      -0.333  -5.518   5.000  1.00  0.00     0.049 A 
ATOM     23  H   UNL     1       1.353  -4.843   6.049  1.00  0.00     0.167 HD
ATOM     24  C   UNL     1       3.864  -2.256   8.624  1.00  0.00     0.031 A 
ATOM     25  C   UNL     1      -1.053  -6.213   5.920  1.00  0.00     0.031 A 
ATOM     26  C   UNL     1       4.575  -3.503   8.586  1.00  0.00     0.049 A 
ATOM     27  C   UNL     1      -0.177  -6.426   7.097  1.00  0.00     0.074 A 
ATOM     28  C   UNL     1       5.720  -3.953   7.962  1.00  0.00     0.029 A 
ATOM     29  N   UNL     1       3.902  -4.630   8.992  1.00  0.00    -0.354 N 
ATOM     30  N   UNL     1       0.903  -7.155   7.065  1.00  0.00    -0.248 NA
ATOM     31  C   UNL     1      -0.246  -5.463   8.185  1.00  0.00     0.031 C 
ATOM     32  C   UNL     1       5.424  -5.295   7.582  1.00  0.00     0.029 A 
ATOM     33  C   UNL     1       4.143  -5.597   8.049  1.00  0.00     0.049 A 
ATOM     34  H   UNL     1       3.353  -4.726   9.803  1.00  0.00     0.167 HD
ATOM     35  C   UNL     1       1.821  -6.469   7.847  1.00  0.00     0.074 A 
ATOM     36  C   UNL     1       1.029  -5.486   8.584  1.00  0.00     0.031 C 
ATOM     37  C   UNL     1       3.165  -6.574   7.620  1.00  0.00     0.031 A 
BRANCH  24  38
ATOM     38  C   UNL     1       3.345  -1.670   9.916  1.00  0.00    -0.014 A 
ATOM     39  C   UNL     1       3.954  -2.030  11.135  1.00  0.00     0.010 A 
ATOM     40  C   UNL     1       2.103  -1.005   9.994  1.00  0.00     0.010 A 
ATOM     41  C   UNL     1       3.317  -1.797  12.363  1.00  0.00     0.020 A 
ATOM     42  C   UNL     1       1.481  -0.728  11.213  1.00  0.00     0.020 A 
ATOM     43  C   UNL     1       2.075  -1.161  12.390  1.00  0.00     0.054 A 
BRANCH  43  44
ATOM     44  S   UNL     1       1.199  -0.983  13.964  1.00  0.00     0.124 S 
ATOM     45  O   UNL     1       0.913  -2.372  14.307  1.00  0.00    -0.237 OA
ATOM     46  O   UNL     1       2.194  -0.315  14.798  1.00  0.00    -0.237 OA
ATOM     47  O   UNL     1       0.035  -0.170  13.618  1.00  0.00    -0.744 OA
ENDBRANCH  43  44
ENDBRANCH  24  38
BRANCH  25  48
ATOM     48  C   UNL     1      -2.533  -6.351   5.978  1.00  0.00    -0.014 A 
ATOM     49  C   UNL     1      -3.156  -7.303   6.807  1.00  0.00     0.010 A 
ATOM     50  C   UNL     1      -3.350  -5.352   5.407  1.00  0.00     0.010 A 
ATOM     51  C   UNL     1      -4.535  -7.229   7.088  1.00  0.00     0.020 A 
ATOM     52  C   UNL     1      -4.721  -5.275   5.676  1.00  0.00     0.020 A 
ATOM     53  C   UNL     1      -5.305  -6.203   6.533  1.00  0.00     0.054 A 
BRANCH  53  54
ATOM     54  S   UNL     1      -7.045  -6.012   7.025  1.00  0.00     0.124 S 
ATOM     55  O   UNL     1      -7.677  -7.164   6.389  1.00  0.00    -0.237 OA
ATOM     56  O   UNL     1      -6.971  -6.055   8.482  1.00  0.00    -0.237 OA
ATOM     57  O   UNL     1      -7.421  -4.714   6.465  1.00  0.00    -0.744 OA
ENDBRANCH  53  54
ENDBRANCH  25  48
BRANCH  37  58
ATOM     58  C   UNL     1       3.648  -7.620   6.639  1.00  0.00    -0.014 A 
ATOM     59  C   UNL     1       3.309  -7.609   5.270  1.00  0.00     0.010 A 
ATOM     60  C   UNL     1       4.610  -8.544   7.080  1.00  0.00     0.010 A 
ATOM     61  C   UNL     1       3.900  -8.512   4.374  1.00  0.00     0.020 A 
ATOM     62  C   UNL     1       5.215  -9.437   6.189  1.00  0.00     0.020 A 
ATOM     63  C   UNL     1       4.852  -9.421   4.840  1.00  0.00     0.054 A 
BRANCH  63  64
ATOM     64  S   UNL     1       5.657 -10.552   3.669  1.00  0.00     0.124 S 
ATOM     65  O   UNL     1       4.564 -11.450   3.292  1.00  0.00    -0.237 OA
ATOM     66  O   UNL     1       6.113  -9.652   2.607  1.00  0.00    -0.237 OA
ATOM     67  O   UNL     1       6.722 -11.166   4.449  1.00  0.00    -0.744 OA
ENDBRANCH  63  64
ENDBRANCH  37  58
ENDBRANCH  11  12
ENDBRANCH   4   6
ENDBRANCH   1   2
BRANCH   1  68
ATOM     68  C   UNL     1       5.149  -1.089  -1.652  1.00  0.00     0.042 C 
BRANCH  68  69
ATOM     69  C   UNL     1       4.616  -1.584  -2.992  1.00  0.00     0.118 C 
BRANCH  69  70
ATOM     70  N   UNL     1       5.414  -1.238  -4.150  1.00  0.00    -0.351 N 
ATOM     71  C   UNL     1       5.964  -1.866  -5.248  1.00  0.00     0.273 C 
ATOM     72  H   UNL     1       5.625  -0.276  -4.155  1.00  0.00     0.163 HD
ATOM     73  O   UNL     1       6.532  -1.063  -6.001  1.00  0.00    -0.267 OA
BRANCH  71  74
ATOM     74  C   UNL     1       5.959  -3.304  -5.604  1.00  0.00     0.178 A 
ATOM     75  N   UNL     1       6.820  -3.691  -6.625  1.00  0.00    -0.124 NA
ATOM     76  C   UNL     1       5.329  -4.465  -5.147  1.00  0.00     0.122 A 
ATOM     77  N   UNL     1       6.772  -5.003  -6.779  1.00  0.00    -0.061 NA
ATOM     78  N   UNL     1       5.818  -5.476  -5.962  1.00  0.00    -0.213 N 
BRANCH  76  79
ATOM     79  C   UNL     1       4.536  -4.721  -3.912  1.00  0.00     0.262 C 
ATOM     80  C   UNL     1       5.510  -4.855  -2.719  1.00  0.00     0.281 C 
ATOM     81  O   UNL     1       3.584  -5.780  -4.026  1.00  0.00    -0.477 OA
ATOM     82  O   UNL     1       6.045  -6.178  -2.648  1.00  0.00    -0.485 OA
ATOM     83  C   UNL     1       3.744  -6.761  -3.082  1.00  0.00     0.162 A 
ATOM     84  C   UNL     1       4.978  -7.021  -2.476  1.00  0.00     0.161 A 
ATOM     85  C   UNL     1       2.644  -7.555  -2.788  1.00  0.00     0.050 A 
ATOM     86  C   UNL     1       5.153  -8.137  -1.672  1.00  0.00     0.050 A 
ATOM     87  C   UNL     1       2.797  -8.640  -1.925  1.00  0.00     0.004 A 
ATOM     88  C   UNL     1       4.054  -8.948  -1.393  1.00  0.00     0.004 A 
ENDBRANCH  76  79
BRANCH  78  89
ATOM     89  C   UNL     1       5.400  -6.816  -6.058  1.00  0.00     0.067 A 
ATOM     90  C   UNL     1       6.204  -7.827  -5.528  1.00  0.00     0.028 A 
ATOM     91  C   UNL     1       4.104  -7.084  -6.514  1.00  0.00     0.041 A 
ATOM     92  C   UNL     1       5.656  -9.100  -5.355  1.00  0.00     0.003 A 
ATOM     93  C   UNL     1       3.562  -8.367  -6.365  1.00  0.00     0.058 A 
ATOM     94  C   UNL     1       4.341  -9.364  -5.755  1.00  0.00     0.013 A 
BRANCH  93  95
ATOM     95  C   UNL     1       2.139  -8.649  -6.772  1.00  0.00     0.416 C 
ATOM     96  F   UNL     1       2.018  -9.792  -7.504  1.00  0.00    -0.166 F 
ATOM     97  F   UNL     1       1.298  -8.791  -5.711  1.00  0.00    -0.166 F 
ATOM     98  F   UNL     1       1.595  -7.663  -7.544  1.00  0.00    -0.166 F 
ENDBRANCH  93  95
ENDBRANCH  78  89
ENDBRANCH  71  74
ENDBRANCH  69  70
ENDBRANCH  68  69
ENDBRANCH   1  68
TORSDOF 16
