REMARK SMILES O=C(NCCCNC(=O)c1ccc(-c2c3nc(c(-c4ccc(S(=O)(=O)[O-])cc4)c4ccc([nH]4)c(-c4ccc(S(=O)(=O)[O-])cc4)c4nc(c(-c5ccc(S(=O)(=O)[O-])cc5)c5ccc2[nH]5)C=C4)C=C3)cc1)C1=Cc2cc(Cl)cc(-c3ccccc3)c2O[C@@H]1C(F)(F)F
REMARK SMILES IDX 6 1 5 2 4 3 3 4 1 5 2 6 70 8 71 9 86 10 72 11 85 12 73 13
REMARK SMILES IDX 84 14 74 15 77 16 75 17 76 18 87 19 88 20 89 21 90 22 78 23
REMARK SMILES IDX 79 24 83 25 80 26 82 27 81 28 7 29 8 30 9 32 10 33 11 34
REMARK SMILES IDX 69 35 12 36 68 37 13 38 14 39 15 40 62 41 16 42 67 43 61 44
REMARK SMILES IDX 63 45 17 46 66 47 60 48 59 49 18 51 48 52 29 53 47 54 30 55
REMARK SMILES IDX 33 56 46 57 64 58 31 59 32 60 45 62 65 63 34 64 19 65 20 66
REMARK SMILES IDX 28 67 21 68 27 69 22 70 23 71 24 72 25 73 26 74 49 75 50 76
REMARK SMILES IDX 58 77 51 78 57 79 52 80 53 81 54 82 55 83 56 84 35 85 36 86
REMARK SMILES IDX 44 87 37 88 43 89 38 90 39 91 40 92 41 93 42 94
REMARK H PARENT 3 7 7 31 63 50 33 61
REMARK Flexibility Score: inf
ROOT
ATOM      1  C   UNL     1       4.429  -0.429   3.950  1.00  0.00     0.118 C 
ENDROOT
BRANCH   1   2
ATOM      2  C   UNL     1       3.935   0.485   2.832  1.00  0.00     0.042 C 
BRANCH   2   3
ATOM      3  C   UNL     1       2.921  -0.208   1.919  1.00  0.00     0.118 C 
BRANCH   3   4
ATOM      4  N   UNL     1       2.075   0.743   1.189  1.00  0.00    -0.352 N 
ATOM      5  O   UNL     1       1.165   1.730  -0.644  1.00  0.00    -0.270 OA
ATOM      6  C   UNL     1       2.072   1.080  -0.140  1.00  0.00     0.251 C 
ATOM      7  H   UNL     1       1.406   1.212   1.738  1.00  0.00     0.163 HD
BRANCH   6   8
ATOM      8  C   UNL     1       3.178   0.558  -0.954  1.00  0.00     0.067 C 
ATOM      9  C   UNL     1       4.414   0.975  -0.662  1.00  0.00     0.025 C 
ATOM     10  C   UNL     1       2.905  -0.645  -1.796  1.00  0.00     0.314 C 
ATOM     11  C   UNL     1       5.439  -0.070  -0.750  1.00  0.00     0.019 A 
ATOM     12  O   UNL     1       3.792  -1.737  -1.453  1.00  0.00    -0.475 OA
ATOM     13  C   UNL     1       6.701   0.217  -0.226  1.00  0.00     0.032 A 
ATOM     14  C   UNL     1       5.032  -1.409  -0.947  1.00  0.00     0.135 A 
ATOM     15  C   UNL     1       7.509  -0.827   0.207  1.00  0.00     0.042 A 
ATOM     16  C   UNL     1       5.822  -2.465  -0.454  1.00  0.00     0.026 A 
ATOM     17  Cl  UNL     1       8.996  -0.469   0.994  1.00  0.00    -0.084 Cl
ATOM     18  C   UNL     1       7.067  -2.147   0.123  1.00  0.00     0.033 A 
BRANCH  10  19
ATOM     19  C   UNL     1       2.944  -0.312  -3.297  1.00  0.00     0.429 C 
ATOM     20  F   UNL     1       2.594  -1.386  -4.048  1.00  0.00    -0.167 F 
ATOM     21  F   UNL     1       2.077   0.679  -3.616  1.00  0.00    -0.167 F 
ATOM     22  F   UNL     1       4.170   0.082  -3.716  1.00  0.00    -0.167 F 
ENDBRANCH  10  19
BRANCH  16  23
ATOM     23  C   UNL     1       5.311  -3.843  -0.335  1.00  0.00    -0.015 A 
ATOM     24  C   UNL     1       4.996  -4.361   0.933  1.00  0.00     0.009 A 
ATOM     25  C   UNL     1       5.138  -4.683  -1.439  1.00  0.00     0.009 A 
ATOM     26  C   UNL     1       4.575  -5.677   1.113  1.00  0.00     0.001 A 
ATOM     27  C   UNL     1       4.708  -6.006  -1.266  1.00  0.00     0.001 A 
ATOM     28  C   UNL     1       4.439  -6.505   0.009  1.00  0.00     0.000 A 
ENDBRANCH  16  23
ENDBRANCH   6   8
ENDBRANCH   3   4
ENDBRANCH   2   3
ENDBRANCH   1   2
BRANCH   1  29
ATOM     29  N   UNL     1       5.195  -1.582   3.511  1.00  0.00    -0.352 N 
ATOM     30  C   UNL     1       5.910  -2.502   4.255  1.00  0.00     0.251 C 
ATOM     31  H   UNL     1       5.207  -1.731   2.538  1.00  0.00     0.163 HD
ATOM     32  O   UNL     1       6.510  -3.403   3.671  1.00  0.00    -0.269 OA
BRANCH  30  33
ATOM     33  C   UNL     1       6.060  -2.373   5.725  1.00  0.00     0.039 A 
ATOM     34  C   UNL     1       7.278  -2.775   6.291  1.00  0.00     0.014 A 
ATOM     35  C   UNL     1       5.087  -1.804   6.543  1.00  0.00     0.014 A 
ATOM     36  C   UNL     1       7.564  -2.476   7.623  1.00  0.00     0.010 A 
ATOM     37  C   UNL     1       5.412  -1.401   7.831  1.00  0.00     0.010 A 
ATOM     38  C   UNL     1       6.662  -1.711   8.375  1.00  0.00    -0.014 A 
BRANCH  38  39
ATOM     39  C   UNL     1       7.029  -1.176   9.707  1.00  0.00     0.031 A 
ATOM     40  C   UNL     1       6.213  -1.535  10.916  1.00  0.00     0.074 A 
ATOM     41  C   UNL     1       8.034  -0.281   9.789  1.00  0.00     0.049 A 
ATOM     42  N   UNL     1       6.329  -1.104  12.144  1.00  0.00    -0.248 NA
ATOM     43  C   UNL     1       5.088  -2.462  10.709  1.00  0.00     0.031 C 
ATOM     44  C   UNL     1       8.827   0.212   8.656  1.00  0.00     0.029 A 
ATOM     45  N   UNL     1       8.564   0.378  10.868  1.00  0.00    -0.354 N 
ATOM     46  C   UNL     1       5.273  -1.675  12.845  1.00  0.00     0.074 A 
ATOM     47  C   UNL     1       4.496  -2.438  11.893  1.00  0.00     0.031 C 
ATOM     48  C   UNL     1       9.771   1.052   9.108  1.00  0.00     0.029 A 
ATOM     49  C   UNL     1       9.630   1.187  10.551  1.00  0.00     0.049 A 
ATOM     50  H   UNL     1       8.214   0.280  11.783  1.00  0.00     0.167 HD
ATOM     51  C   UNL     1       4.991  -1.591  14.167  1.00  0.00     0.031 A 
ATOM     52  C   UNL     1      10.414   1.943  11.342  1.00  0.00     0.031 A 
ATOM     53  C   UNL     1       5.802  -0.859  15.102  1.00  0.00     0.049 A 
ATOM     54  C   UNL     1      10.148   1.937  12.820  1.00  0.00     0.074 A 
ATOM     55  C   UNL     1       5.662  -0.755  16.474  1.00  0.00     0.029 A 
ATOM     56  N   UNL     1       6.923  -0.117  14.755  1.00  0.00    -0.354 N 
ATOM     57  N   UNL     1       9.183   1.336  13.477  1.00  0.00    -0.248 NA
ATOM     58  C   UNL     1      11.083   2.688  13.665  1.00  0.00     0.031 C 
ATOM     59  C   UNL     1       6.687   0.070  16.953  1.00  0.00     0.029 A 
ATOM     60  C   UNL     1       7.487   0.446  15.885  1.00  0.00     0.049 A 
ATOM     61  H   UNL     1       7.266  -0.008  13.838  1.00  0.00     0.167 HD
ATOM     62  C   UNL     1       9.407   1.619  14.818  1.00  0.00     0.074 A 
ATOM     63  C   UNL     1      10.610   2.428  14.877  1.00  0.00     0.031 C 
ATOM     64  C   UNL     1       8.685   1.248  15.904  1.00  0.00     0.031 A 
BRANCH  51  65
ATOM     65  C   UNL     1       3.763  -2.312  14.659  1.00  0.00    -0.014 A 
ATOM     66  C   UNL     1       3.701  -3.718  14.667  1.00  0.00     0.010 A 
ATOM     67  C   UNL     1       2.649  -1.578  15.104  1.00  0.00     0.010 A 
ATOM     68  C   UNL     1       2.527  -4.375  15.047  1.00  0.00     0.020 A 
ATOM     69  C   UNL     1       1.483  -2.232  15.514  1.00  0.00     0.020 A 
ATOM     70  C   UNL     1       1.421  -3.627  15.458  1.00  0.00     0.054 A 
BRANCH  70  71
ATOM     71  S   UNL     1      -0.095  -4.502  15.933  1.00  0.00     0.124 S 
ATOM     72  O   UNL     1      -0.642  -4.881  14.633  1.00  0.00    -0.237 OA
ATOM     73  O   UNL     1       0.410  -5.604  16.747  1.00  0.00    -0.237 OA
ATOM     74  O   UNL     1      -0.862  -3.494  16.662  1.00  0.00    -0.744 OA
ENDBRANCH  70  71
ENDBRANCH  51  65
BRANCH  52  75
ATOM     75  C   UNL     1      11.549   2.707  10.755  1.00  0.00    -0.014 A 
ATOM     76  C   UNL     1      12.873   2.271  10.945  1.00  0.00     0.010 A 
ATOM     77  C   UNL     1      11.314   3.845   9.963  1.00  0.00     0.010 A 
ATOM     78  C   UNL     1      13.941   2.967  10.370  1.00  0.00     0.020 A 
ATOM     79  C   UNL     1      12.378   4.530   9.365  1.00  0.00     0.020 A 
ATOM     80  C   UNL     1      13.686   4.092   9.581  1.00  0.00     0.054 A 
BRANCH  80  81
ATOM     81  S   UNL     1      15.081   4.943   8.790  1.00  0.00     0.124 S 
ATOM     82  O   UNL     1      15.667   5.672   9.911  1.00  0.00    -0.237 OA
ATOM     83  O   UNL     1      15.877   3.833   8.271  1.00  0.00    -0.237 OA
ATOM     84  O   UNL     1      14.441   5.770   7.769  1.00  0.00    -0.744 OA
ENDBRANCH  80  81
ENDBRANCH  52  75
BRANCH  64  85
ATOM     85  C   UNL     1       9.199   1.694  17.243  1.00  0.00    -0.014 A 
ATOM     86  C   UNL     1       9.076   3.032  17.657  1.00  0.00     0.010 A 
ATOM     87  C   UNL     1       9.781   0.752  18.109  1.00  0.00     0.010 A 
ATOM     88  C   UNL     1       9.565   3.428  18.903  1.00  0.00     0.020 A 
ATOM     89  C   UNL     1      10.248   1.140  19.365  1.00  0.00     0.020 A 
ATOM     90  C   UNL     1      10.152   2.480  19.747  1.00  0.00     0.054 A 
BRANCH  90  91
ATOM     91  S   UNL     1      10.755   3.011  21.372  1.00  0.00     0.124 S 
ATOM     92  O   UNL     1      12.017   3.661  21.028  1.00  0.00    -0.237 OA
ATOM     93  O   UNL     1       9.694   3.902  21.835  1.00  0.00    -0.237 OA
ATOM     94  O   UNL     1      10.879   1.761  22.118  1.00  0.00    -0.744 OA
ENDBRANCH  90  91
ENDBRANCH  64  85
ENDBRANCH  38  39
ENDBRANCH  30  33
ENDBRANCH   1  29
TORSDOF 15
