REMARK SMILES COC(=O)c1ccc([C@H]2CC(=O)Nc3c(C(=O)NCCCNC(=O)c4ccc(-c5c6nc(c(-c7ccc(S(=O)(=O)[O-])cc7)c7ccc([nH]7)c(-c7ccc(S(=O)(=O)[O-])cc7)c7nc(c(-c8ccc(S(=O)(=O)[O-])cc8)c8ccc5[nH]8)C=C7)C=C6)cc4)cn(-c4ccccc4)c32)cc1
REMARK SMILES IDX 20 1 19 2 18 3 16 4 17 5 15 7 9 8 10 9 93 10 11 11 14 12
REMARK SMILES IDX 86 13 12 14 13 15 85 16 8 18 5 19 6 20 95 21 7 22 94 23 3 24
REMARK SMILES IDX 4 25 2 26 1 27 87 28 88 29 92 30 89 31 91 32 90 33 21 34
REMARK SMILES IDX 22 35 23 36 24 38 25 39 26 40 84 41 27 42 83 43 28 44 29 45
REMARK SMILES IDX 30 46 77 47 31 48 82 49 76 50 78 51 32 52 81 53 75 54 74 55
REMARK SMILES IDX 33 57 63 58 44 59 62 60 45 61 48 62 61 63 79 64 46 65 47 66
REMARK SMILES IDX 60 68 80 69 49 70 34 71 35 72 43 73 36 74 42 75 37 76 38 77
REMARK SMILES IDX 39 78 40 79 41 80 64 81 65 82 73 83 66 84 72 85 67 86 68 87
REMARK SMILES IDX 69 88 70 89 71 90 50 91 51 92 59 93 52 94 58 95 53 96 54 97
REMARK SMILES IDX 55 98 56 99 57 100
REMARK H PARENT 18 6 13 17 22 37 78 56 48 67
REMARK Flexibility Score: inf
ROOT
ATOM      1  C   UNL     1      -6.096  -8.211   4.106  1.00  0.00     0.042 C 
ENDROOT
BRANCH   1   2
ATOM      2  C   UNL     1      -5.975  -6.769   4.624  1.00  0.00     0.118 C 
BRANCH   2   3
ATOM      3  N   UNL     1      -4.983  -6.616   5.665  1.00  0.00    -0.352 N 
ATOM      4  C   UNL     1      -3.617  -6.539   5.704  1.00  0.00     0.254 C 
ATOM      5  O   UNL     1      -3.156  -6.273   6.819  1.00  0.00    -0.269 OA
ATOM      6  H   UNL     1      -5.387  -6.551   6.560  1.00  0.00     0.163 HD
BRANCH   4   7
ATOM      7  C   UNL     1      -2.703  -6.763   4.571  1.00  0.00     0.081 A 
ATOM      8  C   UNL     1      -1.264  -7.667   1.228  1.00  0.00     0.078 C 
ATOM      9  C   UNL     1      -2.525  -8.380   0.690  1.00  0.00     0.115 C 
ATOM     10  C   UNL     1      -1.521  -7.251   2.658  1.00  0.00     0.055 A 
ATOM     11  C   UNL     1      -3.799  -7.698   1.078  1.00  0.00     0.225 C 
ATOM     12  C   UNL     1      -2.791  -7.072   3.185  1.00  0.00     0.076 A 
ATOM     13  N   UNL     1      -0.624  -6.840   3.621  1.00  0.00    -0.317 N 
ATOM     14  O   UNL     1      -4.795  -7.705   0.356  1.00  0.00    -0.275 OA
ATOM     15  N   UNL     1      -3.857  -7.169   2.330  1.00  0.00    -0.324 N 
ATOM     16  C   UNL     1      -1.326  -6.693   4.795  1.00  0.00     0.107 A 
ATOM     17  H   UNL     1      -4.727  -6.832   2.645  1.00  0.00     0.170 HD
BRANCH   8  18
ATOM     18  C   UNL     1      -0.119  -8.621   0.888  1.00  0.00    -0.038 A 
ATOM     19  C   UNL     1       1.621 -10.659  -0.010  1.00  0.00     0.060 A 
ATOM     20  C   UNL     1       1.012  -9.804  -0.928  1.00  0.00     0.016 A 
ATOM     21  C   UNL     1       1.402 -10.465   1.359  1.00  0.00     0.016 A 
ATOM     22  C   UNL     1       0.177  -8.783  -0.482  1.00  0.00     0.005 A 
ATOM     23  C   UNL     1       0.519  -9.468   1.803  1.00  0.00     0.005 A 
BRANCH  19  24
ATOM     24  C   UNL     1       2.456 -11.759  -0.558  1.00  0.00     0.337 C 
ATOM     25  O   UNL     1       2.784 -11.828  -1.733  1.00  0.00    -0.246 OA
BRANCH  24  26
ATOM     26  O   UNL     1       2.752 -12.669   0.401  1.00  0.00    -0.465 OA
ATOM     27  C   UNL     1       3.519 -13.773  -0.082  1.00  0.00     0.282 C 
ENDBRANCH  24  26
ENDBRANCH  19  24
ENDBRANCH   8  18
BRANCH  13  28
ATOM     28  C   UNL     1       0.758  -6.571   3.479  1.00  0.00     0.045 A 
ATOM     29  C   UNL     1       1.223  -5.875   2.358  1.00  0.00     0.026 A 
ATOM     30  C   UNL     1       1.653  -7.009   4.461  1.00  0.00     0.026 A 
ATOM     31  C   UNL     1       2.591  -5.661   2.197  1.00  0.00     0.002 A 
ATOM     32  C   UNL     1       3.023  -6.821   4.275  1.00  0.00     0.002 A 
ATOM     33  C   UNL     1       3.491  -6.154   3.142  1.00  0.00     0.000 A 
ENDBRANCH  13  28
ENDBRANCH   4   7
ENDBRANCH   2   3
ENDBRANCH   1   2
BRANCH   1  34
ATOM     34  C   UNL     1      -7.407  -8.871   4.493  1.00  0.00     0.118 C 
BRANCH  34  35
ATOM     35  N   UNL     1      -8.539  -8.287   3.756  1.00  0.00    -0.352 N 
ATOM     36  C   UNL     1      -9.898  -8.360   4.025  1.00  0.00     0.251 C 
ATOM     37  H   UNL     1      -8.297  -7.769   2.955  1.00  0.00     0.163 HD
ATOM     38  O   UNL     1     -10.722  -8.145   3.157  1.00  0.00    -0.269 OA
BRANCH  36  39
ATOM     39  C   UNL     1     -10.310  -8.701   5.396  1.00  0.00     0.039 A 
ATOM     40  C   UNL     1     -11.370  -9.572   5.666  1.00  0.00     0.014 A 
ATOM     41  C   UNL     1      -9.527  -8.186   6.418  1.00  0.00     0.014 A 
ATOM     42  C   UNL     1     -11.568  -9.988   6.982  1.00  0.00     0.010 A 
ATOM     43  C   UNL     1      -9.561  -8.790   7.638  1.00  0.00     0.010 A 
ATOM     44  C   UNL     1     -10.639  -9.604   7.957  1.00  0.00    -0.014 A 
BRANCH  44  45
ATOM     45  C   UNL     1     -10.672 -10.101   9.324  1.00  0.00     0.031 A 
ATOM     46  C   UNL     1     -10.547 -11.576   9.433  1.00  0.00     0.074 A 
ATOM     47  C   UNL     1     -10.502  -9.271  10.378  1.00  0.00     0.049 A 
ATOM     48  N   UNL     1     -11.480 -12.428   9.700  1.00  0.00    -0.248 NA
ATOM     49  C   UNL     1      -9.282 -12.198   9.002  1.00  0.00     0.031 C 
ATOM     50  C   UNL     1     -10.243  -7.822  10.357  1.00  0.00     0.029 A 
ATOM     51  N   UNL     1     -10.370  -9.568  11.695  1.00  0.00    -0.354 N 
ATOM     52  C   UNL     1     -10.841 -13.662   9.763  1.00  0.00     0.074 A 
ATOM     53  C   UNL     1      -9.596 -13.494   9.059  1.00  0.00     0.031 C 
ATOM     54  C   UNL     1      -9.737  -7.432  11.548  1.00  0.00     0.029 A 
ATOM     55  C   UNL     1      -9.814  -8.550  12.467  1.00  0.00     0.049 A 
ATOM     56  H   UNL     1     -10.645 -10.433  12.075  1.00  0.00     0.167 HD
ATOM     57  C   UNL     1     -11.214 -14.602  10.678  1.00  0.00     0.031 A 
ATOM     58  C   UNL     1      -9.417  -8.635  13.762  1.00  0.00     0.031 A 
ATOM     59  C   UNL     1     -12.457 -14.237  11.321  1.00  0.00     0.049 A 
ATOM     60  C   UNL     1     -10.102  -9.819  14.337  1.00  0.00     0.074 A 
ATOM     61  C   UNL     1     -13.736 -13.945  10.893  1.00  0.00     0.029 A 
ATOM     62  N   UNL     1     -12.352 -13.721  12.593  1.00  0.00    -0.354 N 
ATOM     63  N   UNL     1     -11.396  -9.898  14.477  1.00  0.00    -0.248 NA
ATOM     64  C   UNL     1      -9.400 -11.092  14.315  1.00  0.00     0.031 C 
ATOM     65  C   UNL     1     -14.173 -12.880  11.737  1.00  0.00     0.029 A 
ATOM     66  C   UNL     1     -13.179 -12.635  12.687  1.00  0.00     0.049 A 
ATOM     67  H   UNL     1     -11.779 -14.073  13.313  1.00  0.00     0.167 HD
ATOM     68  C   UNL     1     -11.713 -11.199  14.110  1.00  0.00     0.074 A 
ATOM     69  C   UNL     1     -10.437 -11.915  14.132  1.00  0.00     0.031 C 
ATOM     70  C   UNL     1     -12.921 -11.494  13.542  1.00  0.00     0.031 A 
BRANCH  57  71
ATOM     71  C   UNL     1     -10.251 -15.567  11.345  1.00  0.00    -0.014 A 
ATOM     72  C   UNL     1     -10.767 -16.460  12.307  1.00  0.00     0.010 A 
ATOM     73  C   UNL     1      -8.849 -15.435  11.291  1.00  0.00     0.010 A 
ATOM     74  C   UNL     1      -9.934 -17.088  13.241  1.00  0.00     0.020 A 
ATOM     75  C   UNL     1      -8.004 -16.093  12.187  1.00  0.00     0.020 A 
ATOM     76  C   UNL     1      -8.557 -16.881  13.185  1.00  0.00     0.054 A 
BRANCH  76  77
ATOM     77  S   UNL     1      -7.500 -17.591  14.468  1.00  0.00     0.124 S 
ATOM     78  O   UNL     1      -7.926 -16.846  15.648  1.00  0.00    -0.237 OA
ATOM     79  O   UNL     1      -7.879 -19.000  14.433  1.00  0.00    -0.237 OA
ATOM     80  O   UNL     1      -6.149 -17.301  13.994  1.00  0.00    -0.744 OA
ENDBRANCH  76  77
ENDBRANCH  57  71
BRANCH  58  81
ATOM     81  C   UNL     1      -8.286  -7.952  14.440  1.00  0.00    -0.014 A 
ATOM     82  C   UNL     1      -8.170  -7.964  15.844  1.00  0.00     0.010 A 
ATOM     83  C   UNL     1      -7.160  -7.539  13.697  1.00  0.00     0.010 A 
ATOM     84  C   UNL     1      -6.954  -7.646  16.475  1.00  0.00     0.020 A 
ATOM     85  C   UNL     1      -5.947  -7.215  14.320  1.00  0.00     0.020 A 
ATOM     86  C   UNL     1      -5.841  -7.297  15.707  1.00  0.00     0.054 A 
BRANCH  86  87
ATOM     87  S   UNL     1      -4.225  -7.079  16.514  1.00  0.00     0.124 S 
ATOM     88  O   UNL     1      -4.406  -5.825  17.240  1.00  0.00    -0.237 OA
ATOM     89  O   UNL     1      -4.117  -8.277  17.341  1.00  0.00    -0.237 OA
ATOM     90  O   UNL     1      -3.287  -7.017  15.395  1.00  0.00    -0.744 OA
ENDBRANCH  86  87
ENDBRANCH  58  81
BRANCH  70  91
ATOM     91  C   UNL     1     -14.026 -10.466  13.628  1.00  0.00    -0.014 A 
ATOM     92  C   UNL     1     -13.971  -9.188  13.035  1.00  0.00     0.010 A 
ATOM     93  C   UNL     1     -15.234 -10.881  14.214  1.00  0.00     0.010 A 
ATOM     94  C   UNL     1     -15.092  -8.342  13.054  1.00  0.00     0.020 A 
ATOM     95  C   UNL     1     -16.357 -10.052  14.220  1.00  0.00     0.020 A 
ATOM     96  C   UNL     1     -16.279  -8.782  13.650  1.00  0.00     0.054 A 
BRANCH  96  97
ATOM     97  S   UNL     1     -17.739  -7.704  13.644  1.00  0.00     0.124 S 
ATOM     98  O   UNL     1     -17.341  -6.625  14.544  1.00  0.00    -0.237 OA
ATOM     99  O   UNL     1     -17.866  -7.335  12.236  1.00  0.00    -0.237 OA
ATOM    100  O   UNL     1     -18.809  -8.565  14.148  1.00  0.00    -0.744 OA
ENDBRANCH  96  97
ENDBRANCH  70  91
ENDBRANCH  44  45
ENDBRANCH  36  39
ENDBRANCH  34  35
ENDBRANCH   1  34
TORSDOF 17
