REMARK SMILES C[N@@H+](CC(=O)NCCCNC(=O)c1ccc(-c2c3nc(c(-c4ccc(S(=O)(=O)[O-])cc4)c4ccc([nH]4)c(-c4ccc(S(=O)(=O)[O-])cc4)c4nc(c(-c5ccc(S(=O)(=O)[O-])cc5)c5ccc2[nH]5)C=C4)C=C3)cc1)Cc1noc(-c2ccccc2Cl)n1
REMARK SMILES IDX 7 1 6 2 4 3 5 4 3 6 2 7 1 8 73 10 74 11 75 12 85 13 76 14
REMARK SMILES IDX 77 15 78 16 79 17 83 18 80 19 82 20 84 21 81 22 8 23 9 24
REMARK SMILES IDX 10 25 11 26 12 28 13 29 14 30 72 31 15 32 71 33 16 34 17 35
REMARK SMILES IDX 18 36 65 37 19 38 70 39 64 40 66 41 20 42 69 43 63 44 62 45
REMARK SMILES IDX 21 47 51 48 32 49 50 50 33 51 36 52 49 53 67 54 34 55 35 56
REMARK SMILES IDX 48 58 68 59 37 60 22 61 23 62 31 63 24 64 30 65 25 66 26 67
REMARK SMILES IDX 27 68 28 69 29 70 52 71 53 72 61 73 54 74 60 75 55 76 56 77
REMARK SMILES IDX 57 78 58 79 59 80 38 81 39 82 47 83 40 84 46 85 41 86 42 87
REMARK SMILES IDX 43 88 44 89 45 90
REMARK H PARENT 6 5 2 9 10 27 66 46 36 57
REMARK Flexibility Score: inf
ROOT
ATOM      1  C   UNL     1      -0.738   1.654   0.948  1.00  0.00     0.118 C 
ENDROOT
BRANCH   1   2
ATOM      2  N   UNL     1      -1.471   1.460  -0.288  1.00  0.00    -0.351 N 
ATOM      3  C   UNL     1      -1.661   0.343  -1.042  1.00  0.00     0.275 C 
ATOM      4  O   UNL     1      -2.432   0.439  -2.003  1.00  0.00    -0.269 OA
ATOM      5  H   UNL     1      -1.904   2.272  -0.640  1.00  0.00     0.163 HD
BRANCH   3   6
ATOM      6  C   UNL     1      -1.012  -0.995  -0.689  1.00  0.00     0.363 C 
BRANCH   6   7
ATOM      7  N   UNL     1       0.342  -1.231  -1.199  1.00  0.00    -0.323 N 
ATOM      8  C   UNL     1       1.450  -0.849  -0.353  1.00  0.00     0.333 C 
ATOM      9  H   UNL     1       0.332  -2.247  -1.104  1.00  0.00     0.348 HD
BRANCH   7  10
ATOM     10  C   UNL     1       0.580  -1.082  -2.642  1.00  0.00     0.345 C 
BRANCH  10  11
ATOM     11  C   UNL     1       0.451   0.300  -3.211  1.00  0.00     0.226 A 
ATOM     12  N   UNL     1      -0.265   0.520  -4.325  1.00  0.00    -0.056 NA
ATOM     13  N   UNL     1       1.060   1.424  -2.691  1.00  0.00    -0.186 NA
ATOM     14  O   UNL     1      -0.154   1.894  -4.514  1.00  0.00    -0.334 OA
ATOM     15  C   UNL     1       0.658   2.362  -3.521  1.00  0.00     0.259 A 
BRANCH  15  16
ATOM     16  C   UNL     1       0.936   3.787  -3.576  1.00  0.00     0.058 A 
ATOM     17  C   UNL     1      -0.139   4.696  -3.541  1.00  0.00     0.015 A 
ATOM     18  C   UNL     1       2.237   4.290  -3.713  1.00  0.00     0.053 A 
ATOM     19  C   UNL     1       0.080   6.071  -3.650  1.00  0.00     0.001 A 
ATOM     20  C   UNL     1       2.450   5.667  -3.845  1.00  0.00     0.021 A 
ATOM     21  Cl  UNL     1       3.624   3.260  -3.769  1.00  0.00    -0.083 Cl
ATOM     22  C   UNL     1       1.374   6.556  -3.814  1.00  0.00     0.002 A 
ENDBRANCH  15  16
ENDBRANCH  10  11
ENDBRANCH   7  10
ENDBRANCH   6   7
ENDBRANCH   3   6
ENDBRANCH   1   2
BRANCH   1  23
ATOM     23  C   UNL     1       0.523   2.494   0.772  1.00  0.00     0.042 C 
BRANCH  23  24
ATOM     24  C   UNL     1       0.298   3.916   0.275  1.00  0.00     0.118 C 
BRANCH  24  25
ATOM     25  N   UNL     1      -0.194   4.810   1.311  1.00  0.00    -0.352 N 
ATOM     26  C   UNL     1       0.378   5.928   1.868  1.00  0.00     0.251 C 
ATOM     27  H   UNL     1      -1.080   4.576   1.671  1.00  0.00     0.163 HD
ATOM     28  O   UNL     1      -0.158   6.436   2.857  1.00  0.00    -0.269 OA
BRANCH  26  29
ATOM     29  C   UNL     1       1.624   6.527   1.326  1.00  0.00     0.039 A 
ATOM     30  C   UNL     1       2.570   7.050   2.216  1.00  0.00     0.014 A 
ATOM     31  C   UNL     1       1.853   6.634  -0.046  1.00  0.00     0.014 A 
ATOM     32  C   UNL     1       3.761   7.613   1.736  1.00  0.00     0.010 A 
ATOM     33  C   UNL     1       3.071   7.126  -0.518  1.00  0.00     0.010 A 
ATOM     34  C   UNL     1       4.038   7.627   0.361  1.00  0.00    -0.014 A 
BRANCH  34  35
ATOM     35  C   UNL     1       5.323   8.148  -0.186  1.00  0.00     0.031 A 
ATOM     36  C   UNL     1       5.337   9.331  -1.123  1.00  0.00     0.074 A 
ATOM     37  C   UNL     1       6.477   7.505   0.087  1.00  0.00     0.049 A 
ATOM     38  N   UNL     1       6.349   9.872  -1.754  1.00  0.00    -0.248 NA
ATOM     39  C   UNL     1       4.043   9.971  -1.412  1.00  0.00     0.031 C 
ATOM     40  C   UNL     1       6.605   6.309   0.923  1.00  0.00     0.029 A 
ATOM     41  N   UNL     1       7.763   7.760  -0.323  1.00  0.00    -0.354 N 
ATOM     42  C   UNL     1       5.816  10.906  -2.517  1.00  0.00     0.074 A 
ATOM     43  C   UNL     1       4.383  10.879  -2.316  1.00  0.00     0.031 C 
ATOM     44  C   UNL     1       7.899   5.951   0.985  1.00  0.00     0.029 A 
ATOM     45  C   UNL     1       8.688   6.869   0.169  1.00  0.00     0.049 A 
ATOM     46  H   UNL     1       8.000   8.511  -0.914  1.00  0.00     0.167 HD
ATOM     47  C   UNL     1       6.458  11.815  -3.292  1.00  0.00     0.031 A 
ATOM     48  C   UNL     1      10.021   6.796  -0.012  1.00  0.00     0.031 A 
ATOM     49  C   UNL     1       7.885  11.863  -3.478  1.00  0.00     0.049 A 
ATOM     50  C   UNL     1      10.712   7.822  -0.867  1.00  0.00     0.074 A 
ATOM     51  C   UNL     1       8.628  12.781  -4.201  1.00  0.00     0.029 A 
ATOM     52  N   UNL     1       8.786  10.964  -2.930  1.00  0.00    -0.354 N 
ATOM     53  N   UNL     1      10.193   8.829  -1.528  1.00  0.00    -0.248 NA
ATOM     54  C   UNL     1      12.173   7.712  -0.986  1.00  0.00     0.031 C 
ATOM     55  C   UNL     1       9.977  12.420  -4.115  1.00  0.00     0.029 A 
ATOM     56  C   UNL     1      10.076  11.303  -3.302  1.00  0.00     0.049 A 
ATOM     57  H   UNL     1       8.545  10.198  -2.361  1.00  0.00     0.167 HD
ATOM     58  C   UNL     1      11.268   9.492  -2.110  1.00  0.00     0.074 A 
ATOM     59  C   UNL     1      12.465   8.778  -1.719  1.00  0.00     0.031 C 
ATOM     60  C   UNL     1      11.262  10.596  -2.895  1.00  0.00     0.031 A 
BRANCH  47  61
ATOM     61  C   UNL     1       5.620  12.860  -3.982  1.00  0.00    -0.014 A 
ATOM     62  C   UNL     1       5.014  13.893  -3.244  1.00  0.00     0.010 A 
ATOM     63  C   UNL     1       5.488  12.852  -5.382  1.00  0.00     0.010 A 
ATOM     64  C   UNL     1       4.260  14.876  -3.888  1.00  0.00     0.020 A 
ATOM     65  C   UNL     1       4.756  13.850  -6.034  1.00  0.00     0.020 A 
ATOM     66  C   UNL     1       4.133  14.847  -5.280  1.00  0.00     0.054 A 
BRANCH  66  67
ATOM     67  S   UNL     1       3.173  16.154  -6.093  1.00  0.00     0.124 S 
ATOM     68  O   UNL     1       1.803  15.757  -5.779  1.00  0.00    -0.237 OA
ATOM     69  O   UNL     1       3.645  17.363  -5.423  1.00  0.00    -0.237 OA
ATOM     70  O   UNL     1       3.549  16.037  -7.499  1.00  0.00    -0.744 OA
ENDBRANCH  66  67
ENDBRANCH  47  61
BRANCH  48  71
ATOM     71  C   UNL     1      10.808   5.729   0.663  1.00  0.00    -0.014 A 
ATOM     72  C   UNL     1      11.646   6.047   1.746  1.00  0.00     0.010 A 
ATOM     73  C   UNL     1      10.735   4.396   0.221  1.00  0.00     0.010 A 
ATOM     74  C   UNL     1      12.422   5.058   2.356  1.00  0.00     0.020 A 
ATOM     75  C   UNL     1      11.491   3.400   0.845  1.00  0.00     0.020 A 
ATOM     76  C   UNL     1      12.343   3.740   1.898  1.00  0.00     0.054 A 
BRANCH  76  77
ATOM     77  S   UNL     1      13.336   2.465   2.721  1.00  0.00     0.124 S 
ATOM     78  O   UNL     1      14.662   2.708   2.162  1.00  0.00    -0.237 OA
ATOM     79  O   UNL     1      13.174   2.798   4.134  1.00  0.00    -0.237 OA
ATOM     80  O   UNL     1      12.698   1.218   2.307  1.00  0.00    -0.744 OA
ENDBRANCH  76  77
ENDBRANCH  48  71
BRANCH  60  81
ATOM     81  C   UNL     1      12.593  11.136  -3.344  1.00  0.00    -0.014 A 
ATOM     82  C   UNL     1      13.342  10.494  -4.344  1.00  0.00     0.010 A 
ATOM     83  C   UNL     1      13.075  12.336  -2.788  1.00  0.00     0.010 A 
ATOM     84  C   UNL     1      14.566  11.026  -4.760  1.00  0.00     0.020 A 
ATOM     85  C   UNL     1      14.286  12.883  -3.218  1.00  0.00     0.020 A 
ATOM     86  C   UNL     1      15.031  12.217  -4.193  1.00  0.00     0.054 A 
BRANCH  86  87
ATOM     87  S   UNL     1      16.599  12.914  -4.781  1.00  0.00     0.124 S 
ATOM     88  O   UNL     1      17.579  12.050  -4.129  1.00  0.00    -0.237 OA
ATOM     89  O   UNL     1      16.495  12.764  -6.231  1.00  0.00    -0.237 OA
ATOM     90  O   UNL     1      16.566  14.294  -4.301  1.00  0.00    -0.744 OA
ENDBRANCH  86  87
ENDBRANCH  60  81
ENDBRANCH  34  35
ENDBRANCH  26  29
ENDBRANCH  24  25
ENDBRANCH  23  24
ENDBRANCH   1  23
TORSDOF 17
