REMARK SMILES O=C(NCCCNC(=O)[C@H]1C[C@H](O)CN1C(=O)/C=C/c1c(F)cccc1Cl)c1ccc(-c2c3nc(c(-c4ccc(S(=O)(=O)[O-])cc4)c4ccc([nH]4)c(-c4ccc(S(=O)(=O)[O-])cc4)c4nc(c(-c5ccc(S(=O)(=O)[O-])cc5)c5ccc2[nH]5)C=C4)C=C3)cc1
REMARK SMILES IDX 5 1 4 2 3 3 1 4 2 5 28 7 29 8 87 9 30 10 86 11 31 12 32 13
REMARK SMILES IDX 33 14 80 15 34 16 85 17 79 18 81 19 35 20 84 21 78 22 77 23
REMARK SMILES IDX 36 25 66 26 47 27 65 28 48 29 51 30 64 31 82 32 49 33 50 34
REMARK SMILES IDX 63 36 83 37 52 38 37 39 38 40 46 41 39 42 45 43 40 44 41 45
REMARK SMILES IDX 42 46 43 47 44 48 67 49 68 50 76 51 69 52 75 53 70 54 71 55
REMARK SMILES IDX 72 56 73 57 74 58 53 59 54 60 62 61 55 62 61 63 56 64 57 65
REMARK SMILES IDX 58 66 59 67 60 68 6 69 7 70 8 71 9 73 10 74 11 75 15 76
REMARK SMILES IDX 12 77 14 78 16 79 17 80 18 81 19 82 20 83 21 84 26 85 22 86
REMARK SMILES IDX 23 87 25 88 27 89 24 90 13 91
REMARK H PARENT 3 6 81 24 51 35 7 72 13 92
REMARK Flexibility Score: inf
ROOT
ATOM      1  C   UNL     1       4.865   0.851   2.155  1.00  0.00     0.042 C 
ENDROOT
BRANCH   1   2
ATOM      2  C   UNL     1       4.524  -0.381   1.334  1.00  0.00     0.118 C 
BRANCH   2   3
ATOM      3  N   UNL     1       3.093  -0.482   1.066  1.00  0.00    -0.352 N 
ATOM      4  O   UNL     1       1.161  -0.113  -0.028  1.00  0.00    -0.269 OA
ATOM      5  C   UNL     1       2.386  -0.207  -0.079  1.00  0.00     0.251 C 
ATOM      6  H   UNL     1       2.550  -0.796   1.825  1.00  0.00     0.163 HD
BRANCH   5   7
ATOM      7  C   UNL     1       3.094  -0.014  -1.361  1.00  0.00     0.039 A 
ATOM      8  C   UNL     1       4.187  -0.816  -1.690  1.00  0.00     0.014 A 
ATOM      9  C   UNL     1       2.648   0.958  -2.262  1.00  0.00     0.014 A 
ATOM     10  C   UNL     1       4.940  -0.532  -2.818  1.00  0.00     0.010 A 
ATOM     11  C   UNL     1       3.333   1.157  -3.464  1.00  0.00     0.010 A 
ATOM     12  C   UNL     1       4.502   0.431  -3.739  1.00  0.00    -0.014 A 
BRANCH  12  13
ATOM     13  C   UNL     1       5.238   0.580  -5.019  1.00  0.00     0.031 A 
ATOM     14  C   UNL     1       5.905   1.873  -5.395  1.00  0.00     0.074 A 
ATOM     15  C   UNL     1       5.320  -0.492  -5.833  1.00  0.00     0.049 A 
ATOM     16  N   UNL     1       6.597   2.154  -6.470  1.00  0.00    -0.248 NA
ATOM     17  C   UNL     1       5.774   2.997  -4.455  1.00  0.00     0.031 C 
ATOM     18  C   UNL     1       4.701  -1.797  -5.572  1.00  0.00     0.029 A 
ATOM     19  N   UNL     1       5.969  -0.670  -7.027  1.00  0.00    -0.354 N 
ATOM     20  C   UNL     1       6.962   3.490  -6.351  1.00  0.00     0.074 A 
ATOM     21  C   UNL     1       6.397   3.970  -5.108  1.00  0.00     0.031 C 
ATOM     22  C   UNL     1       5.047  -2.653  -6.543  1.00  0.00     0.029 A 
ATOM     23  C   UNL     1       5.839  -1.940  -7.537  1.00  0.00     0.049 A 
ATOM     24  H   UNL     1       6.479   0.043  -7.475  1.00  0.00     0.167 HD
ATOM     25  C   UNL     1       7.701   4.243  -7.202  1.00  0.00     0.031 A 
ATOM     26  C   UNL     1       6.280  -2.473  -8.690  1.00  0.00     0.031 A 
ATOM     27  C   UNL     1       8.255   3.750  -8.438  1.00  0.00     0.049 A 
ATOM     28  C   UNL     1       7.071  -1.610  -9.626  1.00  0.00     0.074 A 
ATOM     29  C   UNL     1       9.045   4.423  -9.355  1.00  0.00     0.029 A 
ATOM     30  N   UNL     1       8.073   2.467  -8.935  1.00  0.00    -0.354 N 
ATOM     31  N   UNL     1       7.434  -0.358  -9.478  1.00  0.00    -0.248 NA
ATOM     32  C   UNL     1       7.513  -2.228 -10.881  1.00  0.00     0.031 C 
ATOM     33  C   UNL     1       9.290   3.566 -10.433  1.00  0.00     0.029 A 
ATOM     34  C   UNL     1       8.709   2.338 -10.159  1.00  0.00     0.049 A 
ATOM     35  H   UNL     1       7.566   1.754  -8.484  1.00  0.00     0.167 HD
ATOM     36  C   UNL     1       8.159  -0.040 -10.619  1.00  0.00     0.074 A 
ATOM     37  C   UNL     1       8.203  -1.238 -11.433  1.00  0.00     0.031 C 
ATOM     38  C   UNL     1       8.733   1.139 -10.961  1.00  0.00     0.031 A 
BRANCH  25  39
ATOM     39  C   UNL     1       7.919   5.692  -6.846  1.00  0.00    -0.014 A 
ATOM     40  C   UNL     1       8.752   6.069  -5.778  1.00  0.00     0.010 A 
ATOM     41  C   UNL     1       7.309   6.696  -7.622  1.00  0.00     0.010 A 
ATOM     42  C   UNL     1       8.934   7.420  -5.463  1.00  0.00     0.020 A 
ATOM     43  C   UNL     1       7.511   8.048  -7.329  1.00  0.00     0.020 A 
ATOM     44  C   UNL     1       8.307   8.401  -6.238  1.00  0.00     0.054 A 
BRANCH  44  45
ATOM     45  S   UNL     1       8.565  10.145  -5.811  1.00  0.00     0.124 S 
ATOM     46  O   UNL     1       7.775  10.275  -4.588  1.00  0.00    -0.237 OA
ATOM     47  O   UNL     1      10.013  10.222  -5.633  1.00  0.00    -0.237 OA
ATOM     48  O   UNL     1       8.043  10.868  -6.968  1.00  0.00    -0.744 OA
ENDBRANCH  44  45
ENDBRANCH  25  39
BRANCH  26  49
ATOM     49  C   UNL     1       5.946  -3.884  -9.021  1.00  0.00    -0.014 A 
ATOM     50  C   UNL     1       6.939  -4.877  -9.033  1.00  0.00     0.010 A 
ATOM     51  C   UNL     1       4.610  -4.249  -9.279  1.00  0.00     0.010 A 
ATOM     52  C   UNL     1       6.605  -6.207  -9.306  1.00  0.00     0.020 A 
ATOM     53  C   UNL     1       4.267  -5.580  -9.521  1.00  0.00     0.020 A 
ATOM     54  C   UNL     1       5.270  -6.550  -9.544  1.00  0.00     0.054 A 
BRANCH  54  55
ATOM     55  S   UNL     1       4.851  -8.291  -9.836  1.00  0.00     0.124 S 
ATOM     56  O   UNL     1       5.349  -8.498 -11.191  1.00  0.00    -0.237 OA
ATOM     57  O   UNL     1       5.589  -8.975  -8.777  1.00  0.00    -0.237 OA
ATOM     58  O   UNL     1       3.397  -8.321  -9.690  1.00  0.00    -0.744 OA
ENDBRANCH  54  55
ENDBRANCH  26  49
BRANCH  38  59
ATOM     59  C   UNL     1       9.482   1.181 -12.266  1.00  0.00    -0.014 A 
ATOM     60  C   UNL     1       8.802   1.159 -13.497  1.00  0.00     0.010 A 
ATOM     61  C   UNL     1      10.885   1.284 -12.256  1.00  0.00     0.010 A 
ATOM     62  C   UNL     1       9.516   1.207 -14.697  1.00  0.00     0.020 A 
ATOM     63  C   UNL     1      11.599   1.362 -13.453  1.00  0.00     0.020 A 
ATOM     64  C   UNL     1      10.911   1.309 -14.667  1.00  0.00     0.054 A 
BRANCH  64  65
ATOM     65  S   UNL     1      11.812   1.413 -16.237  1.00  0.00     0.124 S 
ATOM     66  O   UNL     1      11.718   0.043 -16.733  1.00  0.00    -0.237 OA
ATOM     67  O   UNL     1      11.041   2.405 -16.983  1.00  0.00    -0.237 OA
ATOM     68  O   UNL     1      13.151   1.842 -15.840  1.00  0.00    -0.744 OA
ENDBRANCH  64  65
ENDBRANCH  38  59
ENDBRANCH  12  13
ENDBRANCH   5   7
ENDBRANCH   2   3
ENDBRANCH   1   2
BRANCH   1  69
ATOM     69  C   UNL     1       4.319   0.780   3.570  1.00  0.00     0.117 C 
BRANCH  69  70
ATOM     70  N   UNL     1       4.974  -0.241   4.367  1.00  0.00    -0.354 N 
ATOM     71  C   UNL     1       5.725  -0.211   5.498  1.00  0.00     0.242 C 
ATOM     72  H   UNL     1       4.847  -1.151   4.011  1.00  0.00     0.163 HD
ATOM     73  O   UNL     1       6.086  -1.316   5.929  1.00  0.00    -0.273 OA
BRANCH  71  74
ATOM     74  C   UNL     1       6.281   1.072   6.161  1.00  0.00     0.177 C 
ATOM     75  C   UNL     1       7.759   1.227   5.797  1.00  0.00     0.069 C 
ATOM     76  N   UNL     1       5.686   2.362   5.822  1.00  0.00    -0.324 N 
ATOM     77  C   UNL     1       7.732   2.189   4.618  1.00  0.00     0.136 C 
ATOM     78  C   UNL     1       6.579   3.131   4.962  1.00  0.00     0.152 C 
BRANCH  76  79
ATOM     79  C   UNL     1       4.438   2.673   6.311  1.00  0.00     0.247 C 
ATOM     80  O   UNL     1       3.845   1.929   7.093  1.00  0.00    -0.270 OA
BRANCH  79  81
ATOM     81  C   UNL     1       3.673   3.821   5.748  1.00  0.00     0.072 C 
ATOM     82  C   UNL     1       4.146   5.008   5.348  1.00  0.00     0.018 C 
BRANCH  82  83
ATOM     83  C   UNL     1       3.298   6.055   4.754  1.00  0.00     0.029 A 
ATOM     84  C   UNL     1       2.253   6.627   5.490  1.00  0.00     0.131 A 
ATOM     85  C   UNL     1       3.552   6.567   3.470  1.00  0.00     0.051 A 
ATOM     86  F   UNL     1       1.965   6.174   6.720  1.00  0.00    -0.206 F 
ATOM     87  C   UNL     1       1.500   7.688   4.988  1.00  0.00     0.040 A 
ATOM     88  C   UNL     1       2.800   7.633   2.961  1.00  0.00     0.021 A 
ATOM     89  Cl  UNL     1       4.787   5.903   2.454  1.00  0.00    -0.084 Cl
ATOM     90  C   UNL     1       1.780   8.200   3.724  1.00  0.00     0.005 A 
ENDBRANCH  82  83
ENDBRANCH  79  81
ENDBRANCH  76  79
BRANCH  77  91
ATOM     91  O   UNL     1       8.970   2.864   4.473  1.00  0.00    -0.391 OA
ATOM     92  H   UNL     1       9.179   3.335   5.295  1.00  0.00     0.211 HD
ENDBRANCH  77  91
ENDBRANCH  71  74
ENDBRANCH  69  70
ENDBRANCH   1  69
TORSDOF 17
