REMARK SMILES CC1CCN(C(=O)N[C@@H]2C=C[C@H](C(=O)NCCCNC(=O)c3ccc(-c4c5nc(c(-c6ccc(S(=O)(=O)[O-])cc6)c6ccc([nH]6)c(-c6ccc(S(=O)(=O)[O-])cc6)c6nc(c(-c7ccc(S(=O)(=O)[O-])cc7)c7ccc4[nH]7)C=C6)C=C5)cc3)C2)CC1
REMARK SMILES IDX 18 1 17 2 16 3 15 4 13 5 14 6 12 8 9 9 10 10 82 11 11 12
REMARK SMILES IDX 8 13 1 14 2 15 3 16 84 17 4 18 83 19 5 20 6 21 7 22 19 24
REMARK SMILES IDX 20 25 21 27 22 28 23 29 81 30 24 31 80 32 25 33 26 34 27 35
REMARK SMILES IDX 74 36 28 37 79 38 73 39 75 40 29 41 78 42 72 43 71 44 30 46
REMARK SMILES IDX 60 47 41 48 59 49 42 50 45 51 58 52 76 53 43 54 44 55 57 57
REMARK SMILES IDX 77 58 46 59 31 60 32 61 40 62 33 63 39 64 34 65 35 66 36 67
REMARK SMILES IDX 37 68 38 69 61 70 62 71 70 72 63 73 69 74 64 75 65 76 66 77
REMARK SMILES IDX 67 78 68 79 47 80 48 81 56 82 49 83 55 84 50 85 51 86 52 87
REMARK SMILES IDX 53 88 54 89
REMARK H PARENT 15 7 8 23 19 26 75 45 45 56
REMARK Flexibility Score: inf
ROOT
ATOM      1  C   UNL     1       2.235  -9.828  -0.454  1.00  0.00     0.118 C 
ENDROOT
BRANCH   1   2
ATOM      2  C   UNL     1       3.277  -9.004  -1.204  1.00  0.00     0.042 C 
BRANCH   2   3
ATOM      3  C   UNL     1       2.720  -7.927  -2.125  1.00  0.00     0.117 C 
BRANCH   3   4
ATOM      4  N   UNL     1       1.880  -6.981  -1.424  1.00  0.00    -0.356 N 
ATOM      5  C   UNL     1       1.910  -5.623  -1.387  1.00  0.00     0.227 C 
ATOM      6  O   UNL     1       0.950  -5.077  -0.843  1.00  0.00    -0.274 OA
ATOM      7  H   UNL     1       1.167  -7.389  -0.882  1.00  0.00     0.163 HD
BRANCH   5   8
ATOM      8  C   UNL     1       3.086  -4.847  -1.985  1.00  0.00     0.103 C 
ATOM      9  C   UNL     1       3.071  -2.591  -0.989  1.00  0.00     0.107 C 
ATOM     10  C   UNL     1       2.606  -2.598  -2.434  1.00  0.00    -0.006 C 
ATOM     11  C   UNL     1       3.767  -3.951  -0.949  1.00  0.00     0.047 C 
ATOM     12  C   UNL     1       2.601  -3.828  -2.967  1.00  0.00    -0.016 C 
BRANCH   9  13
ATOM     13  N   UNL     1       1.890  -2.263  -0.208  1.00  0.00    -0.332 N 
ATOM     14  C   UNL     1       1.401  -7.586   2.734  1.00  0.00     0.008 C 
ATOM     15  C   UNL     1       1.566  -6.089   2.999  1.00  0.00    -0.011 C 
ATOM     16  C   UNL     1       0.251  -5.367   2.669  1.00  0.00     0.025 C 
ATOM     17  C   UNL     1       2.748  -5.502   2.201  1.00  0.00     0.025 C 
ATOM     18  C   UNL     1       0.406  -3.852   2.742  1.00  0.00     0.121 C 
ATOM     19  C   UNL     1       2.776  -3.967   2.245  1.00  0.00     0.121 C 
ATOM     20  N   UNL     1       1.491  -3.413   1.863  1.00  0.00    -0.325 N 
ATOM     21  C   UNL     1       1.177  -2.529   0.886  1.00  0.00     0.317 C 
ATOM     22  O   UNL     1       0.128  -1.868   0.945  1.00  0.00    -0.249 OA
ATOM     23  H   UNL     1       1.419  -1.544  -0.689  1.00  0.00     0.165 HD
ENDBRANCH   9  13
ENDBRANCH   5   8
ENDBRANCH   3   4
ENDBRANCH   2   3
ENDBRANCH   1   2
BRANCH   1  24
ATOM     24  N   UNL     1       1.155 -10.326  -1.288  1.00  0.00    -0.352 N 
ATOM     25  C   UNL     1       0.654 -11.595  -1.427  1.00  0.00     0.251 C 
ATOM     26  H   UNL     1       0.712  -9.643  -1.842  1.00  0.00     0.163 HD
ATOM     27  O   UNL     1      -0.219 -11.807  -2.266  1.00  0.00    -0.269 OA
BRANCH  25  28
ATOM     28  C   UNL     1       1.178 -12.708  -0.609  1.00  0.00     0.039 A 
ATOM     29  C   UNL     1       1.442 -13.926  -1.241  1.00  0.00     0.014 A 
ATOM     30  C   UNL     1       1.390 -12.573   0.766  1.00  0.00     0.014 A 
ATOM     31  C   UNL     1       1.969 -14.990  -0.507  1.00  0.00     0.010 A 
ATOM     32  C   UNL     1       1.984 -13.611   1.482  1.00  0.00     0.010 A 
ATOM     33  C   UNL     1       2.270 -14.833   0.856  1.00  0.00    -0.014 A 
BRANCH  33  34
ATOM     34  C   UNL     1       2.855 -15.954   1.635  1.00  0.00     0.031 A 
ATOM     35  C   UNL     1       2.066 -16.599   2.742  1.00  0.00     0.074 A 
ATOM     36  C   UNL     1       4.103 -16.381   1.359  1.00  0.00     0.049 A 
ATOM     37  N   UNL     1       2.401 -17.596   3.520  1.00  0.00    -0.248 NA
ATOM     38  C   UNL     1       0.736 -16.037   3.026  1.00  0.00     0.031 C 
ATOM     39  C   UNL     1       4.984 -15.819   0.332  1.00  0.00     0.029 A 
ATOM     40  N   UNL     1       4.844 -17.395   1.913  1.00  0.00    -0.354 N 
ATOM     41  C   UNL     1       1.330 -17.777   4.386  1.00  0.00     0.074 A 
ATOM     42  C   UNL     1       0.360 -16.749   4.078  1.00  0.00     0.031 C 
ATOM     43  C   UNL     1       6.128 -16.522   0.303  1.00  0.00     0.029 A 
ATOM     44  C   UNL     1       6.077 -17.561   1.327  1.00  0.00     0.049 A 
ATOM     45  H   UNL     1       4.523 -17.950   2.659  1.00  0.00     0.167 HD
ATOM     46  C   UNL     1       1.154 -18.726   5.337  1.00  0.00     0.031 A 
ATOM     47  C   UNL     1       7.052 -18.456   1.577  1.00  0.00     0.031 A 
ATOM     48  C   UNL     1       2.115 -19.752   5.641  1.00  0.00     0.049 A 
ATOM     49  C   UNL     1       6.838 -19.497   2.643  1.00  0.00     0.074 A 
ATOM     50  C   UNL     1       2.018 -20.779   6.564  1.00  0.00     0.029 A 
ATOM     51  N   UNL     1       3.351 -19.884   5.026  1.00  0.00    -0.354 N 
ATOM     52  N   UNL     1       5.796 -19.681   3.418  1.00  0.00    -0.248 NA
ATOM     53  C   UNL     1       7.927 -20.461   2.853  1.00  0.00     0.031 C 
ATOM     54  C   UNL     1       3.212 -21.508   6.534  1.00  0.00     0.029 A 
ATOM     55  C   UNL     1       4.031 -20.967   5.556  1.00  0.00     0.049 A 
ATOM     56  H   UNL     1       3.695 -19.293   4.317  1.00  0.00     0.167 HD
ATOM     57  C   UNL     1       6.089 -20.806   4.182  1.00  0.00     0.074 A 
ATOM     58  C   UNL     1       7.402 -21.261   3.771  1.00  0.00     0.031 C 
ATOM     59  C   UNL     1       5.335 -21.411   5.133  1.00  0.00     0.031 A 
BRANCH  46  60
ATOM     60  C   UNL     1      -0.134 -18.687   6.117  1.00  0.00    -0.014 A 
ATOM     61  C   UNL     1      -1.360 -19.009   5.506  1.00  0.00     0.010 A 
ATOM     62  C   UNL     1      -0.120 -18.332   7.478  1.00  0.00     0.010 A 
ATOM     63  C   UNL     1      -2.555 -18.921   6.225  1.00  0.00     0.020 A 
ATOM     64  C   UNL     1      -1.310 -18.271   8.209  1.00  0.00     0.020 A 
ATOM     65  C   UNL     1      -2.523 -18.543   7.570  1.00  0.00     0.054 A 
BRANCH  65  66
ATOM     66  S   UNL     1      -4.088 -18.431   8.480  1.00  0.00     0.124 S 
ATOM     67  O   UNL     1      -4.648 -17.186   7.959  1.00  0.00    -0.237 OA
ATOM     68  O   UNL     1      -4.784 -19.650   8.077  1.00  0.00    -0.237 OA
ATOM     69  O   UNL     1      -3.672 -18.389   9.880  1.00  0.00    -0.744 OA
ENDBRANCH  65  66
ENDBRANCH  46  60
BRANCH  47  70
ATOM     70  C   UNL     1       8.303 -18.437   0.772  1.00  0.00    -0.014 A 
ATOM     71  C   UNL     1       8.553 -19.446  -0.174  1.00  0.00     0.010 A 
ATOM     72  C   UNL     1       9.244 -17.405   0.938  1.00  0.00     0.010 A 
ATOM     73  C   UNL     1       9.731 -19.436  -0.927  1.00  0.00     0.020 A 
ATOM     74  C   UNL     1      10.411 -17.377   0.169  1.00  0.00     0.020 A 
ATOM     75  C   UNL     1      10.652 -18.399  -0.752  1.00  0.00     0.054 A 
BRANCH  75  76
ATOM     76  S   UNL     1      12.149 -18.376  -1.777  1.00  0.00     0.124 S 
ATOM     77  O   UNL     1      12.952 -19.430  -1.166  1.00  0.00    -0.237 OA
ATOM     78  O   UNL     1      11.625 -18.669  -3.109  1.00  0.00    -0.237 OA
ATOM     79  O   UNL     1      12.660 -17.018  -1.603  1.00  0.00    -0.744 OA
ENDBRANCH  75  76
ENDBRANCH  47  70
BRANCH  59  80
ATOM     80  C   UNL     1       5.888 -22.662   5.762  1.00  0.00    -0.014 A 
ATOM     81  C   UNL     1       6.957 -22.614   6.674  1.00  0.00     0.010 A 
ATOM     82  C   UNL     1       5.296 -23.903   5.464  1.00  0.00     0.010 A 
ATOM     83  C   UNL     1       7.447 -23.790   7.249  1.00  0.00     0.020 A 
ATOM     84  C   UNL     1       5.766 -25.077   6.057  1.00  0.00     0.020 A 
ATOM     85  C   UNL     1       6.850 -25.015   6.934  1.00  0.00     0.054 A 
BRANCH  85  86
ATOM     86  S   UNL     1       7.481 -26.524   7.718  1.00  0.00     0.124 S 
ATOM     87  O   UNL     1       8.718 -26.756   6.977  1.00  0.00    -0.237 OA
ATOM     88  O   UNL     1       7.649 -26.117   9.111  1.00  0.00    -0.237 OA
ATOM     89  O   UNL     1       6.421 -27.503   7.486  1.00  0.00    -0.744 OA
ENDBRANCH  85  86
ENDBRANCH  59  80
ENDBRANCH  33  34
ENDBRANCH  25  28
ENDBRANCH   1  24
TORSDOF 14
