REMARK SMILES Cc1ccc(-c2cc(Cl)cc3c2O[C@@H](C(F)(F)F)C(C(=O)NCCCNC(=O)c2ccc(-c4c5nc(c(-c6ccc(S(=O)(=O)[O-])cc6)c6ccc([nH]6)c(-c6ccc(S(=O)(=O)[O-])cc6)c6nc(c(-c7ccc(S(=O)(=O)[O-])cc7)c7ccc4[nH]7)C=C6)C=C5)cc2)=C3)cc1
REMARK SMILES IDX 25 1 24 2 23 3 22 4 20 5 21 6 19 8 6 9 7 10 12 11 8 12 11 13
REMARK SMILES IDX 13 14 9 15 10 16 89 17 14 18 5 19 1 20 2 21 3 22 91 23 4 24
REMARK SMILES IDX 90 25 15 26 16 27 17 28 18 29 26 30 27 31 28 33 29 34 30 35
REMARK SMILES IDX 88 36 31 37 87 38 32 39 33 40 34 41 81 42 35 43 86 44 80 45
REMARK SMILES IDX 82 46 36 47 85 48 79 49 78 50 37 52 67 53 48 54 66 55 49 56
REMARK SMILES IDX 52 57 65 58 83 59 50 60 51 61 64 63 84 64 53 65 38 66 39 67
REMARK SMILES IDX 47 68 40 69 46 70 41 71 42 72 43 73 44 74 45 75 68 76 69 77
REMARK SMILES IDX 77 78 70 79 76 80 71 81 72 82 73 83 74 84 75 85 54 86 55 87
REMARK SMILES IDX 63 88 56 89 62 90 57 91 58 92 59 93 60 94 61 95
REMARK H PARENT 22 7 26 32 82 51 52 62
REMARK Flexibility Score: inf
ROOT
ATOM      1  C   UNL     1      -2.631  -4.521   4.665  1.00  0.00     0.118 C 
ENDROOT
BRANCH   1   2
ATOM      2  C   UNL     1      -3.998  -3.909   4.919  1.00  0.00     0.042 C 
BRANCH   2   3
ATOM      3  C   UNL     1      -4.004  -2.491   5.521  1.00  0.00     0.118 C 
BRANCH   3   4
ATOM      4  N   UNL     1      -3.563  -1.405   4.646  1.00  0.00    -0.352 N 
ATOM      5  C   UNL     1      -4.171  -0.299   4.112  1.00  0.00     0.251 C 
ATOM      6  O   UNL     1      -3.462   0.685   3.886  1.00  0.00    -0.270 OA
ATOM      7  H   UNL     1      -2.618  -1.488   4.381  1.00  0.00     0.163 HD
BRANCH   5   8
ATOM      8  C   UNL     1      -5.629  -0.283   3.639  1.00  0.00     0.067 C 
ATOM      9  C   UNL     1      -3.823  -1.108   0.212  1.00  0.00     0.026 A 
ATOM     10  C   UNL     1      -4.250  -0.513  -1.002  1.00  0.00     0.033 A 
ATOM     11  C   UNL     1      -4.722  -1.001   1.278  1.00  0.00     0.135 A 
ATOM     12  C   UNL     1      -5.347   0.353  -1.036  1.00  0.00     0.042 A 
ATOM     13  C   UNL     1      -5.539   0.157   1.339  1.00  0.00     0.019 A 
ATOM     14  O   UNL     1      -4.965  -2.050   2.225  1.00  0.00    -0.475 OA
ATOM     15  Cl  UNL     1      -5.824   1.077  -2.523  1.00  0.00    -0.084 Cl
ATOM     16  C   UNL     1      -5.944   0.759   0.153  1.00  0.00     0.032 A 
ATOM     17  C   UNL     1      -5.953   0.646   2.703  1.00  0.00     0.025 C 
ATOM     18  C   UNL     1      -6.076  -1.618   3.099  1.00  0.00     0.314 C 
BRANCH   9  19
ATOM     19  C   UNL     1      -2.342  -0.988   0.418  1.00  0.00    -0.015 A 
ATOM     20  C   UNL     1       1.943  -0.248   0.123  1.00  0.00     0.044 C 
ATOM     21  C   UNL     1       0.469  -0.500   0.281  1.00  0.00    -0.051 A 
ATOM     22  C   UNL     1      -0.051  -1.804   0.249  1.00  0.00     0.004 A 
ATOM     23  C   UNL     1      -0.415   0.561   0.450  1.00  0.00     0.004 A 
ATOM     24  C   UNL     1      -1.441  -2.047   0.309  1.00  0.00     0.009 A 
ATOM     25  C   UNL     1      -1.791   0.317   0.531  1.00  0.00     0.009 A 
ENDBRANCH   9  19
BRANCH  18  26
ATOM     26  C   UNL     1      -6.891  -2.363   4.181  1.00  0.00     0.429 C 
ATOM     27  F   UNL     1      -8.222  -2.264   3.872  1.00  0.00    -0.167 F 
ATOM     28  F   UNL     1      -6.640  -3.673   4.307  1.00  0.00    -0.167 F 
ATOM     29  F   UNL     1      -6.809  -1.782   5.404  1.00  0.00    -0.167 F 
ENDBRANCH  18  26
ENDBRANCH   5   8
ENDBRANCH   3   4
ENDBRANCH   2   3
ENDBRANCH   1   2
BRANCH   1  30
ATOM     30  N   UNL     1      -1.725  -4.153   5.711  1.00  0.00    -0.352 N 
ATOM     31  C   UNL     1      -1.482  -4.707   6.952  1.00  0.00     0.251 C 
ATOM     32  H   UNL     1      -1.175  -3.361   5.508  1.00  0.00     0.163 HD
ATOM     33  O   UNL     1      -1.227  -3.914   7.819  1.00  0.00    -0.269 OA
BRANCH  31  34
ATOM     34  C   UNL     1      -1.156  -6.216   7.098  1.00  0.00     0.039 A 
ATOM     35  C   UNL     1      -0.102  -6.286   8.023  1.00  0.00     0.014 A 
ATOM     36  C   UNL     1      -0.860  -6.792   5.873  1.00  0.00     0.014 A 
ATOM     37  C   UNL     1       1.156  -5.932   7.553  1.00  0.00     0.010 A 
ATOM     38  C   UNL     1       0.327  -6.376   5.322  1.00  0.00     0.010 A 
ATOM     39  C   UNL     1       1.276  -5.800   6.178  1.00  0.00    -0.014 A 
BRANCH  39  40
ATOM     40  C   UNL     1       2.297  -5.016   5.523  1.00  0.00     0.031 A 
ATOM     41  C   UNL     1       3.362  -5.789   4.872  1.00  0.00     0.074 A 
ATOM     42  C   UNL     1       2.097  -3.680   5.411  1.00  0.00     0.049 A 
ATOM     43  N   UNL     1       4.462  -5.314   4.423  1.00  0.00    -0.248 NA
ATOM     44  C   UNL     1       3.264  -7.244   4.719  1.00  0.00     0.031 C 
ATOM     45  C   UNL     1       2.793  -2.724   4.551  1.00  0.00     0.029 A 
ATOM     46  N   UNL     1       1.326  -2.858   6.248  1.00  0.00    -0.354 N 
ATOM     47  C   UNL     1       5.047  -6.303   3.659  1.00  0.00     0.074 A 
ATOM     48  C   UNL     1       4.314  -7.505   3.943  1.00  0.00     0.031 C 
ATOM     49  C   UNL     1       2.693  -1.500   5.105  1.00  0.00     0.029 A 
ATOM     50  C   UNL     1       2.063  -1.677   6.409  1.00  0.00     0.049 A 
ATOM     51  H   UNL     1       0.448  -3.067   6.641  1.00  0.00     0.167 HD
ATOM     52  C   UNL     1       5.984  -5.937   2.745  1.00  0.00     0.031 A 
ATOM     53  C   UNL     1       2.660  -1.364   7.600  1.00  0.00     0.031 A 
ATOM     54  C   UNL     1       6.348  -4.536   2.950  1.00  0.00     0.049 A 
ATOM     55  C   UNL     1       4.179  -1.384   7.445  1.00  0.00     0.074 A 
ATOM     56  C   UNL     1       5.894  -3.362   2.373  1.00  0.00     0.029 A 
ATOM     57  N   UNL     1       6.926  -4.180   4.167  1.00  0.00    -0.354 N 
ATOM     58  N   UNL     1       4.830  -2.127   6.581  1.00  0.00    -0.248 NA
ATOM     59  C   UNL     1       5.064  -0.493   8.190  1.00  0.00     0.031 C 
ATOM     60  C   UNL     1       6.059  -2.322   3.334  1.00  0.00     0.029 A 
ATOM     61  C   UNL     1       6.643  -2.859   4.471  1.00  0.00     0.049 A 
ATOM     62  H   UNL     1       7.461  -4.783   4.732  1.00  0.00     0.167 HD
ATOM     63  C   UNL     1       6.159  -1.779   6.588  1.00  0.00     0.074 A 
ATOM     64  C   UNL     1       6.256  -0.770   7.632  1.00  0.00     0.031 C 
ATOM     65  C   UNL     1       7.099  -2.283   5.730  1.00  0.00     0.031 A 
BRANCH  52  66
ATOM     66  C   UNL     1       6.291  -6.749   1.510  1.00  0.00    -0.014 A 
ATOM     67  C   UNL     1       6.723  -6.077   0.350  1.00  0.00     0.010 A 
ATOM     68  C   UNL     1       6.106  -8.142   1.386  1.00  0.00     0.010 A 
ATOM     69  C   UNL     1       6.910  -6.741  -0.872  1.00  0.00     0.020 A 
ATOM     70  C   UNL     1       6.263  -8.817   0.164  1.00  0.00     0.020 A 
ATOM     71  C   UNL     1       6.668  -8.109  -0.961  1.00  0.00     0.054 A 
BRANCH  71  72
ATOM     72  S   UNL     1       6.917  -8.944  -2.549  1.00  0.00     0.124 S 
ATOM     73  O   UNL     1       5.996  -8.228  -3.429  1.00  0.00    -0.237 OA
ATOM     74  O   UNL     1       8.336  -8.715  -2.801  1.00  0.00    -0.237 OA
ATOM     75  O   UNL     1       6.552 -10.332  -2.273  1.00  0.00    -0.744 OA
ENDBRANCH  71  72
ENDBRANCH  52  66
BRANCH  53  76
ATOM     76  C   UNL     1       1.875  -1.755   8.822  1.00  0.00    -0.014 A 
ATOM     77  C   UNL     1       0.628  -1.117   9.036  1.00  0.00     0.010 A 
ATOM     78  C   UNL     1       2.126  -2.942   9.532  1.00  0.00     0.010 A 
ATOM     79  C   UNL     1      -0.380  -1.706   9.819  1.00  0.00     0.020 A 
ATOM     80  C   UNL     1       1.115  -3.538  10.321  1.00  0.00     0.020 A 
ATOM     81  C   UNL     1      -0.148  -2.938  10.428  1.00  0.00     0.054 A 
BRANCH  81  82
ATOM     82  S   UNL     1      -1.558  -3.849  11.169  1.00  0.00     0.124 S 
ATOM     83  O   UNL     1      -1.590  -3.308  12.526  1.00  0.00    -0.237 OA
ATOM     84  O   UNL     1      -2.709  -3.487  10.344  1.00  0.00    -0.237 OA
ATOM     85  O   UNL     1      -1.153  -5.253  11.081  1.00  0.00    -0.744 OA
ENDBRANCH  81  82
ENDBRANCH  53  76
BRANCH  65  86
ATOM     86  C   UNL     1       8.592  -2.201   5.964  1.00  0.00    -0.014 A 
ATOM     87  C   UNL     1       9.163  -2.019   7.233  1.00  0.00     0.010 A 
ATOM     88  C   UNL     1       9.479  -2.483   4.896  1.00  0.00     0.010 A 
ATOM     89  C   UNL     1      10.550  -2.030   7.414  1.00  0.00     0.020 A 
ATOM     90  C   UNL     1      10.861  -2.562   5.078  1.00  0.00     0.020 A 
ATOM     91  C   UNL     1      11.391  -2.297   6.334  1.00  0.00     0.054 A 
BRANCH  91  92
ATOM     92  S   UNL     1      13.179  -2.340   6.595  1.00  0.00     0.124 S 
ATOM     93  O   UNL     1      13.522  -0.922   6.529  1.00  0.00    -0.237 OA
ATOM     94  O   UNL     1      13.300  -2.954   7.915  1.00  0.00    -0.237 OA
ATOM     95  O   UNL     1      13.669  -3.157   5.488  1.00  0.00    -0.744 OA
ENDBRANCH  91  92
ENDBRANCH  65  86
ENDBRANCH  39  40
ENDBRANCH  31  34
ENDBRANCH   1  30
TORSDOF 15
