REMARK SMILES CCc1nn(C)c(C[C@@H](C(=O)NCCCNC(=O)c2ccc(-c3c4nc(c(-c5ccc(S(=O)(=O)[O-])cc5)c5ccc([nH]5)c(-c5ccc(S(=O)(=O)[O-])cc5)c5nc(c(-c6ccc(S(=O)(=O)[O-])cc6)c6ccc3[nH]6)C=C5)C=C4)cc2)c2cccc(C)c2)c1Br
REMARK SMILES IDX 14 1 13 2 12 3 10 4 11 5 9 7 8 8 7 9 3 10 4 11 86 12 5 13
REMARK SMILES IDX 87 14 6 15 2 16 1 17 79 18 80 19 85 20 81 21 83 22 82 23
REMARK SMILES IDX 84 24 15 25 16 26 17 27 18 29 19 30 20 31 78 32 21 33 77 34
REMARK SMILES IDX 22 35 23 36 24 37 71 38 25 39 76 40 70 41 72 42 26 43 75 44
REMARK SMILES IDX 69 45 68 46 27 48 57 49 38 50 56 51 39 52 42 53 55 54 73 55
REMARK SMILES IDX 40 56 41 57 54 59 74 60 43 61 28 62 29 63 37 64 30 65 36 66
REMARK SMILES IDX 31 67 32 68 33 69 34 70 35 71 58 72 59 73 67 74 60 75 66 76
REMARK SMILES IDX 61 77 62 78 63 79 64 80 65 81 44 82 45 83 53 84 46 85 52 86
REMARK SMILES IDX 47 87 48 88 49 89 50 90 51 91
REMARK H PARENT 12 6 16 28 72 47 42 58
REMARK Flexibility Score: inf
ROOT
ATOM      1  C   UNL     1       3.338  -0.689   2.913  1.00  0.00     0.042 C 
ENDROOT
BRANCH   1   2
ATOM      2  C   UNL     1       4.116  -1.920   3.405  1.00  0.00     0.117 C 
BRANCH   2   3
ATOM      3  N   UNL     1       3.941  -2.228   4.821  1.00  0.00    -0.355 N 
ATOM      4  C   UNL     1       3.477  -3.322   5.492  1.00  0.00     0.227 C 
ATOM      5  O   UNL     1       3.472  -3.228   6.722  1.00  0.00    -0.274 OA
ATOM      6  H   UNL     1       4.215  -1.493   5.416  1.00  0.00     0.163 HD
BRANCH   4   7
ATOM      7  C   UNL     1       2.973  -4.572   4.764  1.00  0.00     0.114 C 
BRANCH   7   8
ATOM      8  C   UNL     1       1.458  -4.535   4.457  1.00  0.00     0.075 C 
BRANCH   8   9
ATOM      9  C   UNL     1       0.944  -3.452   3.584  1.00  0.00     0.054 A 
ATOM     10  C   UNL     1       0.167  -2.156   1.947  1.00  0.00     0.077 A 
ATOM     11  N   UNL     1      -0.138  -1.518   3.087  1.00  0.00    -0.177 NA
ATOM     12  C   UNL     1       0.812  -3.378   2.217  1.00  0.00     0.062 A 
ATOM     13  N   UNL     1       0.374  -2.295   4.063  1.00  0.00    -0.271 N 
ATOM     14  Br  UNL     1       1.391  -4.632   0.952  1.00  0.00    -0.047 Br
ATOM     15  C   UNL     1       0.383  -1.783   5.418  1.00  0.00     0.174 C 
BRANCH  10  16
ATOM     16  C   UNL     1      -0.144  -1.511   0.638  1.00  0.00     0.056 C 
ATOM     17  C   UNL     1       0.691  -0.259   0.398  1.00  0.00     0.011 C 
ENDBRANCH  10  16
ENDBRANCH   8   9
ENDBRANCH   7   8
BRANCH   7  18
ATOM     18  C   UNL     1       3.191  -5.859   5.591  1.00  0.00    -0.035 A 
ATOM     19  C   UNL     1       4.079  -6.856   5.174  1.00  0.00     0.004 A 
ATOM     20  C   UNL     1       2.369  -6.126   6.707  1.00  0.00     0.008 A 
ATOM     21  C   UNL     1       4.079  -8.105   5.806  1.00  0.00     0.001 A 
ATOM     22  C   UNL     1       2.298  -7.396   7.284  1.00  0.00    -0.051 A 
ATOM     23  C   UNL     1       3.171  -8.384   6.832  1.00  0.00     0.003 A 
ATOM     24  C   UNL     1       1.252  -7.696   8.318  1.00  0.00     0.044 C 
ENDBRANCH   7  18
ENDBRANCH   4   7
ENDBRANCH   2   3
ENDBRANCH   1   2
BRANCH   1  25
ATOM     25  C   UNL     1       3.432   0.536   3.800  1.00  0.00     0.118 C 
BRANCH  25  26
ATOM     26  N   UNL     1       3.939   1.730   3.144  1.00  0.00    -0.352 N 
ATOM     27  C   UNL     1       3.763   3.055   3.490  1.00  0.00     0.251 C 
ATOM     28  H   UNL     1       4.485   1.572   2.340  1.00  0.00     0.163 HD
ATOM     29  O   UNL     1       4.141   3.929   2.705  1.00  0.00    -0.269 OA
BRANCH  27  30
ATOM     30  C   UNL     1       3.138   3.440   4.781  1.00  0.00     0.039 A 
ATOM     31  C   UNL     1       2.571   4.710   4.950  1.00  0.00     0.014 A 
ATOM     32  C   UNL     1       3.155   2.560   5.862  1.00  0.00     0.014 A 
ATOM     33  C   UNL     1       2.051   5.069   6.195  1.00  0.00     0.010 A 
ATOM     34  C   UNL     1       2.492   2.841   7.024  1.00  0.00     0.010 A 
ATOM     35  C   UNL     1       2.041   4.127   7.233  1.00  0.00    -0.014 A 
BRANCH  35  36
ATOM     36  C   UNL     1       1.503   4.418   8.550  1.00  0.00     0.031 A 
ATOM     37  C   UNL     1       0.072   4.786   8.540  1.00  0.00     0.074 A 
ATOM     38  C   UNL     1       2.165   4.138   9.695  1.00  0.00     0.049 A 
ATOM     39  N   UNL     1      -0.428   5.966   8.681  1.00  0.00    -0.248 NA
ATOM     40  C   UNL     1      -0.905   3.761   8.141  1.00  0.00     0.031 C 
ATOM     41  C   UNL     1       3.453   3.446   9.855  1.00  0.00     0.029 A 
ATOM     42  N   UNL     1       1.760   4.308  10.981  1.00  0.00    -0.354 N 
ATOM     43  C   UNL     1      -1.804   5.788   8.655  1.00  0.00     0.074 A 
ATOM     44  C   UNL     1      -2.026   4.483   8.085  1.00  0.00     0.031 C 
ATOM     45  C   UNL     1       3.602   3.055  11.141  1.00  0.00     0.029 A 
ATOM     46  C   UNL     1       2.521   3.623  11.923  1.00  0.00     0.049 A 
ATOM     47  H   UNL     1       0.990   4.870  11.226  1.00  0.00     0.167 HD
ATOM     48  C   UNL     1      -2.628   6.594   9.380  1.00  0.00     0.031 A 
ATOM     49  C   UNL     1       2.268   3.517  13.252  1.00  0.00     0.031 A 
ATOM     50  C   UNL     1      -1.916   7.740   9.896  1.00  0.00     0.049 A 
ATOM     51  C   UNL     1       1.371   4.643  13.607  1.00  0.00     0.074 A 
ATOM     52  C   UNL     1      -1.216   8.790   9.337  1.00  0.00     0.029 A 
ATOM     53  N   UNL     1      -1.511   7.660  11.210  1.00  0.00    -0.354 N 
ATOM     54  N   UNL     1       1.731   5.895  13.533  1.00  0.00    -0.248 NA
ATOM     55  C   UNL     1      -0.063   4.410  13.614  1.00  0.00     0.031 C 
ATOM     56  C   UNL     1      -0.114   9.011  10.215  1.00  0.00     0.029 A 
ATOM     57  C   UNL     1      -0.232   8.143  11.304  1.00  0.00     0.049 A 
ATOM     58  H   UNL     1      -2.051   7.313  11.957  1.00  0.00     0.167 HD
ATOM     59  C   UNL     1       0.615   6.556  13.040  1.00  0.00     0.074 A 
ATOM     60  C   UNL     1      -0.489   5.618  13.230  1.00  0.00     0.031 C 
ATOM     61  C   UNL     1       0.745   7.680  12.272  1.00  0.00     0.031 A 
BRANCH  48  62
ATOM     62  C   UNL     1      -3.926   6.130   9.998  1.00  0.00    -0.014 A 
ATOM     63  C   UNL     1      -4.700   7.065  10.714  1.00  0.00     0.010 A 
ATOM     64  C   UNL     1      -4.276   4.771  10.140  1.00  0.00     0.010 A 
ATOM     65  C   UNL     1      -5.716   6.653  11.586  1.00  0.00     0.020 A 
ATOM     66  C   UNL     1      -5.316   4.353  10.970  1.00  0.00     0.020 A 
ATOM     67  C   UNL     1      -6.006   5.295  11.717  1.00  0.00     0.054 A 
BRANCH  67  68
ATOM     68  S   UNL     1      -7.245   4.765  12.922  1.00  0.00     0.124 S 
ATOM     69  O   UNL     1      -6.608   5.125  14.184  1.00  0.00    -0.237 OA
ATOM     70  O   UNL     1      -8.406   5.566  12.543  1.00  0.00    -0.237 OA
ATOM     71  O   UNL     1      -7.375   3.331  12.670  1.00  0.00    -0.744 OA
ENDBRANCH  67  68
ENDBRANCH  48  62
BRANCH  49  72
ATOM     72  C   UNL     1       2.518   2.363  14.150  1.00  0.00    -0.014 A 
ATOM     73  C   UNL     1       2.471   2.501  15.550  1.00  0.00     0.010 A 
ATOM     74  C   UNL     1       2.522   1.055  13.623  1.00  0.00     0.010 A 
ATOM     75  C   UNL     1       2.372   1.374  16.387  1.00  0.00     0.020 A 
ATOM     76  C   UNL     1       2.428  -0.072  14.450  1.00  0.00     0.020 A 
ATOM     77  C   UNL     1       2.330   0.093  15.829  1.00  0.00     0.054 A 
BRANCH  77  78
ATOM     78  S   UNL     1       2.029  -1.345  16.902  1.00  0.00     0.124 S 
ATOM     79  O   UNL     1       3.280  -1.444  17.648  1.00  0.00    -0.237 OA
ATOM     80  O   UNL     1       0.863  -0.927  17.675  1.00  0.00    -0.237 OA
ATOM     81  O   UNL     1       1.783  -2.434  15.957  1.00  0.00    -0.744 OA
ENDBRANCH  77  78
ENDBRANCH  49  72
BRANCH  61  82
ATOM     82  C   UNL     1       2.082   8.392  12.269  1.00  0.00    -0.014 A 
ATOM     83  C   UNL     1       3.286   7.822  11.812  1.00  0.00     0.010 A 
ATOM     84  C   UNL     1       2.080   9.753  12.622  1.00  0.00     0.010 A 
ATOM     85  C   UNL     1       4.461   8.589  11.738  1.00  0.00     0.020 A 
ATOM     86  C   UNL     1       3.239  10.527  12.532  1.00  0.00     0.020 A 
ATOM     87  C   UNL     1       4.428   9.940  12.100  1.00  0.00     0.054 A 
BRANCH  87  88
ATOM     88  S   UNL     1       5.936  10.943  11.970  1.00  0.00     0.124 S 
ATOM     89  O   UNL     1       6.781  10.386  13.022  1.00  0.00    -0.237 OA
ATOM     90  O   UNL     1       6.382  10.685  10.602  1.00  0.00    -0.237 OA
ATOM     91  O   UNL     1       5.469  12.308  12.211  1.00  0.00    -0.744 OA
ENDBRANCH  87  88
ENDBRANCH  61  82
ENDBRANCH  35  36
ENDBRANCH  27  30
ENDBRANCH  25  26
ENDBRANCH   1  25
TORSDOF 17
