REMARK SMILES [NH3+][C@H](CC(F)(F)C(F)(F)C(F)(F)C(F)(F)Cl)C(=O)NCCCNC(=O)c1ccc(-c2c3nc(c(-c4ccc(S(=O)(=O)[O-])cc4)c4ccc([nH]4)c(-c4ccc(S(=O)(=O)[O-])cc4)c4nc(c(-c5ccc(S(=O)(=O)[O-])cc5)c5ccc2[nH]5)C=C4)C=C3)cc1
REMARK SMILES IDX 20 1 19 2 17 3 18 4 2 6 1 7 3 11 4 12 5 13 6 14 7 15 8 16
REMARK SMILES IDX 9 17 10 18 11 19 12 20 13 21 14 22 15 23 16 24 21 25 22 26
REMARK SMILES IDX 23 27 24 28 25 30 26 31 27 32 85 33 28 34 84 35 29 36 30 37
REMARK SMILES IDX 31 38 78 39 32 40 83 41 77 42 79 43 33 44 82 45 76 46 75 47
REMARK SMILES IDX 34 49 64 50 45 51 63 52 46 53 49 54 62 55 80 56 47 57 48 58
REMARK SMILES IDX 61 60 81 61 50 62 35 63 36 64 44 65 37 66 43 67 38 68 39 69
REMARK SMILES IDX 40 70 41 71 42 72 65 73 66 74 74 75 67 76 73 77 68 78 69 79
REMARK SMILES IDX 70 80 71 81 72 82 51 83 52 84 60 85 53 86 59 87 54 88 55 89
REMARK SMILES IDX 56 90 57 91 58 92
REMARK H PARENT 19 5 1 8 1 9 1 10 23 29 79 48 49 59
REMARK Flexibility Score: inf
ROOT
ATOM      1  C   UNL     1      -0.744  -3.083  -0.080  1.00  0.00     0.118 C 
ENDROOT
BRANCH   1   2
ATOM      2  N   UNL     1      -1.378  -1.941  -0.726  1.00  0.00    -0.351 N 
ATOM      3  C   UNL     1      -0.931  -0.853  -1.401  1.00  0.00     0.278 C 
ATOM      4  O   UNL     1      -1.800  -0.238  -2.033  1.00  0.00    -0.268 OA
ATOM      5  H   UNL     1      -2.360  -1.965  -0.655  1.00  0.00     0.163 HD
BRANCH   3   6
ATOM      6  C   UNL     1       0.518  -0.301  -1.380  1.00  0.00     0.277 C 
BRANCH   6   7
ATOM      7  N   UNL     1       1.487  -1.294  -1.893  1.00  0.00    -0.347 N 
ATOM      8  H   UNL     1       1.083  -1.782  -2.692  1.00  0.00     0.345 HD
ATOM      9  H   UNL     1       1.707  -1.967  -1.159  1.00  0.00     0.345 HD
ATOM     10  H   UNL     1       2.341  -0.817  -2.183  1.00  0.00     0.345 HD
ENDBRANCH   6   7
BRANCH   6  11
ATOM     11  C   UNL     1       1.030   0.503  -0.160  1.00  0.00     0.159 C 
BRANCH  11  12
ATOM     12  C   UNL     1       0.183   0.539   1.103  1.00  0.00     0.323 C 
ATOM     13  F   UNL     1      -0.039  -0.749   1.449  1.00  0.00    -0.199 F 
ATOM     14  F   UNL     1       0.975   1.023   2.111  1.00  0.00    -0.199 F 
BRANCH  12  15
ATOM     15  C   UNL     1      -1.103   1.372   1.066  1.00  0.00     0.379 C 
ATOM     16  F   UNL     1      -0.832   2.646   1.469  1.00  0.00    -0.192 F 
ATOM     17  F   UNL     1      -1.538   1.506  -0.211  1.00  0.00    -0.192 F 
BRANCH  15  18
ATOM     18  C   UNL     1      -2.174   0.739   1.927  1.00  0.00     0.392 C 
ATOM     19  F   UNL     1      -2.407  -0.537   1.500  1.00  0.00    -0.191 F 
ATOM     20  F   UNL     1      -1.744   0.621   3.213  1.00  0.00    -0.191 F 
BRANCH  18  21
ATOM     21  C   UNL     1      -3.477   1.515   1.854  1.00  0.00     0.390 C 
ATOM     22  F   UNL     1      -3.328   2.780   2.317  1.00  0.00    -0.181 F 
ATOM     23  F   UNL     1      -3.907   1.622   0.570  1.00  0.00    -0.181 F 
ATOM     24  Cl  UNL     1      -4.764   0.704   2.793  1.00  0.00    -0.041 Cl
ENDBRANCH  18  21
ENDBRANCH  15  18
ENDBRANCH  12  15
ENDBRANCH  11  12
ENDBRANCH   6  11
ENDBRANCH   3   6
ENDBRANCH   1   2
BRANCH   1  25
ATOM     25  C   UNL     1      -1.189  -3.374   1.359  1.00  0.00     0.042 C 
BRANCH  25  26
ATOM     26  C   UNL     1      -2.683  -3.310   1.662  1.00  0.00     0.118 C 
BRANCH  26  27
ATOM     27  N   UNL     1      -3.363  -4.577   1.496  1.00  0.00    -0.352 N 
ATOM     28  C   UNL     1      -4.141  -5.275   2.392  1.00  0.00     0.251 C 
ATOM     29  H   UNL     1      -3.255  -5.000   0.614  1.00  0.00     0.163 HD
ATOM     30  O   UNL     1      -4.556  -6.385   2.077  1.00  0.00    -0.269 OA
BRANCH  28  31
ATOM     31  C   UNL     1      -4.449  -4.730   3.741  1.00  0.00     0.039 A 
ATOM     32  C   UNL     1      -4.355  -5.599   4.832  1.00  0.00     0.014 A 
ATOM     33  C   UNL     1      -4.870  -3.412   3.950  1.00  0.00     0.014 A 
ATOM     34  C   UNL     1      -4.647  -5.145   6.122  1.00  0.00     0.010 A 
ATOM     35  C   UNL     1      -5.096  -2.940   5.251  1.00  0.00     0.010 A 
ATOM     36  C   UNL     1      -5.003  -3.805   6.352  1.00  0.00    -0.014 A 
BRANCH  36  37
ATOM     37  C   UNL     1      -5.289  -3.344   7.742  1.00  0.00     0.031 A 
ATOM     38  C   UNL     1      -6.675  -2.910   8.147  1.00  0.00     0.074 A 
ATOM     39  C   UNL     1      -4.303  -3.347   8.664  1.00  0.00     0.049 A 
ATOM     40  N   UNL     1      -7.129  -2.610   9.340  1.00  0.00    -0.248 NA
ATOM     41  C   UNL     1      -7.678  -2.782   7.079  1.00  0.00     0.031 C 
ATOM     42  C   UNL     1      -2.904  -3.695   8.403  1.00  0.00     0.029 A 
ATOM     43  N   UNL     1      -4.328  -3.071  10.010  1.00  0.00    -0.354 N 
ATOM     44  C   UNL     1      -8.465  -2.264   9.166  1.00  0.00     0.074 A 
ATOM     45  C   UNL     1      -8.733  -2.333   7.746  1.00  0.00     0.031 C 
ATOM     46  C   UNL     1      -2.219  -3.659   9.557  1.00  0.00     0.029 A 
ATOM     47  C   UNL     1      -3.118  -3.262  10.637  1.00  0.00     0.049 A 
ATOM     48  H   UNL     1      -5.136  -2.765  10.482  1.00  0.00     0.167 HD
ATOM     49  C   UNL     1      -9.393  -1.941  10.100  1.00  0.00     0.031 A 
ATOM     50  C   UNL     1      -2.769  -3.148  11.935  1.00  0.00     0.031 A 
ATOM     51  C   UNL     1      -9.131  -1.867  11.514  1.00  0.00     0.049 A 
ATOM     52  C   UNL     1      -3.816  -2.788  12.954  1.00  0.00     0.074 A 
ATOM     53  C   UNL     1     -10.022  -1.601  12.541  1.00  0.00     0.029 A 
ATOM     54  N   UNL     1      -7.890  -2.052  12.102  1.00  0.00    -0.354 N 
ATOM     55  N   UNL     1      -5.094  -2.554  12.777  1.00  0.00    -0.248 NA
ATOM     56  C   UNL     1      -3.375  -2.696  14.354  1.00  0.00     0.031 C 
ATOM     57  C   UNL     1      -9.307  -1.568  13.743  1.00  0.00     0.029 A 
ATOM     58  C   UNL     1      -7.985  -1.878  13.474  1.00  0.00     0.049 A 
ATOM     59  H   UNL     1      -7.062  -2.274  11.617  1.00  0.00     0.167 HD
ATOM     60  C   UNL     1      -5.614  -2.313  14.044  1.00  0.00     0.074 A 
ATOM     61  C   UNL     1      -4.517  -2.449  14.980  1.00  0.00     0.031 C 
ATOM     62  C   UNL     1      -6.887  -2.007  14.400  1.00  0.00     0.031 A 
BRANCH  49  63
ATOM     63  C   UNL     1     -10.790  -1.638   9.619  1.00  0.00    -0.014 A 
ATOM     64  C   UNL     1     -11.615  -2.652   9.099  1.00  0.00     0.010 A 
ATOM     65  C   UNL     1     -11.305  -0.333   9.734  1.00  0.00     0.010 A 
ATOM     66  C   UNL     1     -12.910  -2.360   8.662  1.00  0.00     0.020 A 
ATOM     67  C   UNL     1     -12.611  -0.042   9.326  1.00  0.00     0.020 A 
ATOM     68  C   UNL     1     -13.399  -1.055   8.776  1.00  0.00     0.054 A 
BRANCH  68  69
ATOM     69  S   UNL     1     -15.092  -0.710   8.222  1.00  0.00     0.124 S 
ATOM     70  O   UNL     1     -14.953  -0.784   6.769  1.00  0.00    -0.237 OA
ATOM     71  O   UNL     1     -15.857  -1.793   8.834  1.00  0.00    -0.237 OA
ATOM     72  O   UNL     1     -15.367   0.622   8.754  1.00  0.00    -0.744 OA
ENDBRANCH  68  69
ENDBRANCH  49  63
BRANCH  50  73
ATOM     73  C   UNL     1      -1.361  -3.409  12.351  1.00  0.00    -0.014 A 
ATOM     74  C   UNL     1      -1.034  -4.545  13.112  1.00  0.00     0.010 A 
ATOM     75  C   UNL     1      -0.337  -2.518  11.980  1.00  0.00     0.010 A 
ATOM     76  C   UNL     1       0.286  -4.776  13.511  1.00  0.00     0.020 A 
ATOM     77  C   UNL     1       0.988  -2.761  12.351  1.00  0.00     0.020 A 
ATOM     78  C   UNL     1       1.290  -3.883  13.125  1.00  0.00     0.054 A 
BRANCH  78  79
ATOM     79  S   UNL     1       3.005  -4.230  13.607  1.00  0.00     0.124 S 
ATOM     80  O   UNL     1       2.991  -3.913  15.031  1.00  0.00    -0.237 OA
ATOM     81  O   UNL     1       3.147  -5.645  13.273  1.00  0.00    -0.237 OA
ATOM     82  O   UNL     1       3.785  -3.320  12.770  1.00  0.00    -0.744 OA
ENDBRANCH  78  79
ENDBRANCH  50  73
BRANCH  62  83
ATOM     83  C   UNL     1      -7.174  -1.825  15.868  1.00  0.00    -0.014 A 
ATOM     84  C   UNL     1      -6.695  -0.708  16.575  1.00  0.00     0.010 A 
ATOM     85  C   UNL     1      -7.971  -2.769  16.543  1.00  0.00     0.010 A 
ATOM     86  C   UNL     1      -6.972  -0.559  17.937  1.00  0.00     0.020 A 
ATOM     87  C   UNL     1      -8.275  -2.610  17.897  1.00  0.00     0.020 A 
ATOM     88  C   UNL     1      -7.758  -1.514  18.590  1.00  0.00     0.054 A 
BRANCH  88  89
ATOM     89  S   UNL     1      -8.126  -1.285  20.352  1.00  0.00     0.124 S 
ATOM     90  O   UNL     1      -6.847  -1.616  20.975  1.00  0.00    -0.237 OA
ATOM     91  O   UNL     1      -8.512   0.122  20.420  1.00  0.00    -0.237 OA
ATOM     92  O   UNL     1      -9.207  -2.234  20.607  1.00  0.00    -0.744 OA
ENDBRANCH  88  89
ENDBRANCH  62  83
ENDBRANCH  36  37
ENDBRANCH  28  31
ENDBRANCH  26  27
ENDBRANCH  25  26
ENDBRANCH   1  25
TORSDOF 19
