REMARK SMILES CCc1c([N+](=O)[O-])cc(C(=O)NCCCNC(=O)c2ccc(-c3c4nc(c(-c5ccc(S(=O)(=O)[O-])cc5)c5ccc([nH]5)c(-c5ccc(S(=O)(=O)[O-])cc5)c5nc(c(-c6ccc(S(=O)(=O)[O-])cc6)c6ccc3[nH]6)C=C5)C=C4)cc2)n1C
REMARK SMILES IDX 15 1 14 2 13 3 12 4 10 5 11 6 9 8 3 9 4 10 79 11 8 12 80 13
REMARK SMILES IDX 2 14 1 15 5 16 6 17 7 18 16 19 17 20 18 22 19 23 20 24 78 25
REMARK SMILES IDX 21 26 77 27 22 28 23 29 24 30 71 31 25 32 76 33 70 34 72 35
REMARK SMILES IDX 26 36 75 37 69 38 68 39 27 41 57 42 38 43 56 44 39 45 42 46
REMARK SMILES IDX 55 47 73 48 40 49 41 50 54 52 74 53 43 54 28 55 29 56 37 57
REMARK SMILES IDX 30 58 36 59 31 60 32 61 33 62 34 63 35 64 58 65 59 66 67 67
REMARK SMILES IDX 60 68 66 69 61 70 62 71 63 72 64 73 65 74 44 75 45 76 53 77
REMARK SMILES IDX 46 78 52 79 47 80 48 81 49 82 50 83 51 84
REMARK H PARENT 12 7 16 21 72 40 42 51
REMARK Flexibility Score: inf
ROOT
ATOM      1  C   UNL     1      -1.940   6.635   1.911  1.00  0.00     0.118 C 
ENDROOT
BRANCH   1   2
ATOM      2  C   UNL     1      -1.988   5.115   1.947  1.00  0.00     0.042 C 
BRANCH   2   3
ATOM      3  C   UNL     1      -0.640   4.425   1.849  1.00  0.00     0.118 C 
BRANCH   3   4
ATOM      4  N   UNL     1       0.300   4.770   2.897  1.00  0.00    -0.351 N 
ATOM      5  C   UNL     1       1.255   4.021   3.536  1.00  0.00     0.268 C 
ATOM      6  O   UNL     1       1.912   4.596   4.404  1.00  0.00    -0.268 OA
ATOM      7  H   UNL     1       0.243   5.704   3.204  1.00  0.00     0.163 HD
BRANCH   5   8
ATOM      8  C   UNL     1       1.429   2.606   3.258  1.00  0.00     0.114 A 
ATOM      9  C   UNL     1       1.246   0.539   2.337  1.00  0.00     0.096 A 
ATOM     10  C   UNL     1       1.805   0.379   3.604  1.00  0.00     0.290 A 
ATOM     11  N   UNL     1       1.313   1.902   2.072  1.00  0.00    -0.338 N 
ATOM     12  C   UNL     1       1.893   1.674   4.178  1.00  0.00     0.119 A 
ATOM     13  C   UNL     1       1.437   2.475   0.746  1.00  0.00     0.150 C 
BRANCH   9  14
ATOM     14  C   UNL     1       0.609  -0.464   1.412  1.00  0.00     0.058 C 
ATOM     15  C   UNL     1       1.230  -0.588   0.034  1.00  0.00     0.011 C 
ENDBRANCH   9  14
BRANCH  10  16
ATOM     16  N   UNL     1       2.162  -0.854   4.275  1.00  0.00     0.064 N 
ATOM     17  O   UNL     1       2.219  -1.887   3.596  1.00  0.00    -0.258 OA
ATOM     18  O   UNL     1       2.434  -0.773   5.481  1.00  0.00    -0.258 OA
ENDBRANCH  10  16
ENDBRANCH   5   8
ENDBRANCH   3   4
ENDBRANCH   2   3
ENDBRANCH   1   2
BRANCH   1  19
ATOM     19  N   UNL     1      -1.417   7.187   0.666  1.00  0.00    -0.352 N 
ATOM     20  C   UNL     1      -2.040   7.809  -0.394  1.00  0.00     0.251 C 
ATOM     21  H   UNL     1      -0.442   7.100   0.566  1.00  0.00     0.163 HD
ATOM     22  O   UNL     1      -1.379   8.087  -1.392  1.00  0.00    -0.269 OA
BRANCH  20  23
ATOM     23  C   UNL     1      -3.492   8.099  -0.368  1.00  0.00     0.039 A 
ATOM     24  C   UNL     1      -4.244   7.927  -1.535  1.00  0.00     0.014 A 
ATOM     25  C   UNL     1      -4.125   8.533   0.794  1.00  0.00     0.014 A 
ATOM     26  C   UNL     1      -5.634   8.081  -1.499  1.00  0.00     0.010 A 
ATOM     27  C   UNL     1      -5.513   8.551   0.864  1.00  0.00     0.010 A 
ATOM     28  C   UNL     1      -6.289   8.332  -0.282  1.00  0.00    -0.014 A 
BRANCH  28  29
ATOM     29  C   UNL     1      -7.772   8.382  -0.177  1.00  0.00     0.031 A 
ATOM     30  C   UNL     1      -8.451   9.614   0.369  1.00  0.00     0.074 A 
ATOM     31  C   UNL     1      -8.506   7.291  -0.479  1.00  0.00     0.049 A 
ATOM     32  N   UNL     1      -9.715   9.806   0.648  1.00  0.00    -0.248 NA
ATOM     33  C   UNL     1      -7.588  10.766   0.683  1.00  0.00     0.031 C 
ATOM     34  C   UNL     1      -7.972   6.012  -0.957  1.00  0.00     0.029 A 
ATOM     35  N   UNL     1      -9.861   7.077  -0.415  1.00  0.00    -0.354 N 
ATOM     36  C   UNL     1      -9.792  11.083   1.192  1.00  0.00     0.074 A 
ATOM     37  C   UNL     1      -8.441  11.591   1.271  1.00  0.00     0.031 C 
ATOM     38  C   UNL     1      -8.988   5.161  -1.171  1.00  0.00     0.029 A 
ATOM     39  C   UNL     1     -10.241   5.812  -0.800  1.00  0.00     0.049 A 
ATOM     40  H   UNL     1     -10.501   7.764  -0.121  1.00  0.00     0.167 HD
ATOM     41  C   UNL     1     -10.887  11.787   1.566  1.00  0.00     0.031 A 
ATOM     42  C   UNL     1     -11.457   5.233  -0.843  1.00  0.00     0.031 A 
ATOM     43  C   UNL     1     -12.233  11.290   1.466  1.00  0.00     0.049 A 
ATOM     44  C   UNL     1     -12.663   6.034  -0.437  1.00  0.00     0.074 A 
ATOM     45  C   UNL     1     -13.416  11.943   1.762  1.00  0.00     0.029 A 
ATOM     46  N   UNL     1     -12.574  10.017   1.034  1.00  0.00    -0.354 N 
ATOM     47  N   UNL     1     -12.719   7.265   0.013  1.00  0.00    -0.248 NA
ATOM     48  C   UNL     1     -13.970   5.375  -0.559  1.00  0.00     0.031 C 
ATOM     49  C   UNL     1     -14.471  11.048   1.554  1.00  0.00     0.029 A 
ATOM     50  C   UNL     1     -13.949   9.859   1.070  1.00  0.00     0.049 A 
ATOM     51  H   UNL     1     -11.934   9.329   0.743  1.00  0.00     0.167 HD
ATOM     52  C   UNL     1     -14.069   7.536   0.206  1.00  0.00     0.074 A 
ATOM     53  C   UNL     1     -14.795   6.347  -0.193  1.00  0.00     0.031 C 
ATOM     54  C   UNL     1     -14.655   8.667   0.672  1.00  0.00     0.031 A 
BRANCH  41  55
ATOM     55  C   UNL     1     -10.665  13.176   2.111  1.00  0.00    -0.014 A 
ATOM     56  C   UNL     1     -10.182  14.210   1.287  1.00  0.00     0.010 A 
ATOM     57  C   UNL     1     -10.949  13.456   3.459  1.00  0.00     0.010 A 
ATOM     58  C   UNL     1      -9.930  15.479   1.814  1.00  0.00     0.020 A 
ATOM     59  C   UNL     1     -10.732  14.734   3.983  1.00  0.00     0.020 A 
ATOM     60  C   UNL     1     -10.201  15.731   3.161  1.00  0.00     0.054 A 
BRANCH  60  61
ATOM     61  S   UNL     1      -9.865  17.388   3.818  1.00  0.00     0.124 S 
ATOM     62  O   UNL     1      -8.405  17.395   3.879  1.00  0.00    -0.237 OA
ATOM     63  O   UNL     1     -10.454  18.259   2.805  1.00  0.00    -0.237 OA
ATOM     64  O   UNL     1     -10.543  17.393   5.111  1.00  0.00    -0.744 OA
ENDBRANCH  60  61
ENDBRANCH  41  55
BRANCH  42  65
ATOM     65  C   UNL     1     -11.588   3.822  -1.303  1.00  0.00    -0.014 A 
ATOM     66  C   UNL     1     -12.165   3.527  -2.551  1.00  0.00     0.010 A 
ATOM     67  C   UNL     1     -11.106   2.767  -0.508  1.00  0.00     0.010 A 
ATOM     68  C   UNL     1     -12.266   2.204  -2.991  1.00  0.00     0.020 A 
ATOM     69  C   UNL     1     -11.179   1.445  -0.956  1.00  0.00     0.020 A 
ATOM     70  C   UNL     1     -11.767   1.171  -2.192  1.00  0.00     0.054 A 
BRANCH  70  71
ATOM     71  S   UNL     1     -11.844  -0.532  -2.814  1.00  0.00     0.124 S 
ATOM     72  O   UNL     1     -13.265  -0.839  -2.686  1.00  0.00    -0.237 OA
ATOM     73  O   UNL     1     -11.347  -0.391  -4.181  1.00  0.00    -0.237 OA
ATOM     74  O   UNL     1     -10.960  -1.266  -1.912  1.00  0.00    -0.744 OA
ENDBRANCH  70  71
ENDBRANCH  42  65
BRANCH  54  75
ATOM     75  C   UNL     1     -16.159   8.689   0.746  1.00  0.00    -0.014 A 
ATOM     76  C   UNL     1     -16.853   7.946   1.717  1.00  0.00     0.010 A 
ATOM     77  C   UNL     1     -16.883   9.516  -0.132  1.00  0.00     0.010 A 
ATOM     78  C   UNL     1     -18.247   8.006   1.787  1.00  0.00     0.020 A 
ATOM     79  C   UNL     1     -18.274   9.602  -0.046  1.00  0.00     0.020 A 
ATOM     80  C   UNL     1     -18.949   8.835   0.906  1.00  0.00     0.054 A 
BRANCH  80  81
ATOM     81  S   UNL     1     -20.754   8.931   1.049  1.00  0.00     0.124 S 
ATOM     82  O   UNL     1     -21.171   7.641   0.504  1.00  0.00    -0.237 OA
ATOM     83  O   UNL     1     -20.953   9.101   2.486  1.00  0.00    -0.237 OA
ATOM     84  O   UNL     1     -21.105  10.093   0.235  1.00  0.00    -0.744 OA
ENDBRANCH  80  81
ENDBRANCH  54  75
ENDBRANCH  28  29
ENDBRANCH  20  23
ENDBRANCH   1  19
TORSDOF 15
