REMARK SMILES C[C@]1(C(=O)NCCCNC(=O)c2ccc(-c3c4nc(c(-c5ccc(S(=O)(=O)[O-])cc5)c5ccc([nH]5)c(-c5ccc(S(=O)(=O)[O-])cc5)c5nc(c(-c6ccc(S(=O)(=O)[O-])cc6)c6ccc3[nH]6)C=C5)C=C4)cc2)COC[C@@H]1NC(=O)[C@H]1C=C[C@@H]([NH3+])C1
REMARK SMILES IDX 7 1 6 2 5 3 3 4 4 5 2 7 1 8 72 9 75 10 73 11 74 12 76 13
REMARK SMILES IDX 77 14 78 16 79 17 80 18 84 19 81 20 82 21 83 22 8 26 9 27
REMARK SMILES IDX 10 28 11 30 12 31 13 32 71 33 14 34 70 35 15 36 16 37 17 38
REMARK SMILES IDX 64 39 18 40 69 41 63 42 65 43 19 44 68 45 62 46 61 47 20 49
REMARK SMILES IDX 50 50 31 51 49 52 32 53 35 54 48 55 66 56 33 57 34 58 47 60
REMARK SMILES IDX 67 61 36 62 21 63 22 64 30 65 23 66 29 67 24 68 25 69 26 70
REMARK SMILES IDX 27 71 28 72 51 73 52 74 60 75 53 76 59 77 54 78 55 79 56 80
REMARK SMILES IDX 57 81 58 82 37 83 38 84 46 85 39 86 45 87 40 88 41 89 42 90
REMARK SMILES IDX 43 91 44 92
REMARK H PARENT 5 6 76 15 83 23 83 24 83 25 9 29 65 48 35 59
REMARK Flexibility Score: inf
ROOT
ATOM      1  C   UNL     1       4.740  -0.262   0.721  1.00  0.00     0.042 C 
ENDROOT
BRANCH   1   2
ATOM      2  C   UNL     1       3.756   0.880   0.930  1.00  0.00     0.117 C 
BRANCH   2   3
ATOM      3  N   UNL     1       2.759   0.917  -0.113  1.00  0.00    -0.355 N 
ATOM      4  C   UNL     1       1.504   0.440  -0.203  1.00  0.00     0.230 C 
ATOM      5  O   UNL     1       1.162   0.198  -1.369  1.00  0.00    -0.274 OA
ATOM      6  H   UNL     1       3.058   1.387  -0.924  1.00  0.00     0.163 HD
BRANCH   4   7
ATOM      7  C   UNL     1       0.566   0.126   0.984  1.00  0.00     0.092 C 
ATOM      8  C   UNL     1      -0.847   0.118   0.334  1.00  0.00     0.026 C 
ATOM      9  C   UNL     1       0.990  -1.245   1.532  1.00  0.00     0.179 C 
ATOM     10  C   UNL     1       0.670   1.046   2.231  1.00  0.00     0.125 C 
ATOM     11  O   UNL     1       1.047  -1.174   2.966  1.00  0.00    -0.378 OA
ATOM     12  C   UNL     1       1.271   0.181   3.339  1.00  0.00     0.186 C 
BRANCH  10  13
ATOM     13  N   UNL     1      -0.546   1.760   2.681  1.00  0.00    -0.349 N 
ATOM     14  C   UNL     1      -1.650   1.449   3.426  1.00  0.00     0.227 C 
ATOM     15  H   UNL     1      -0.565   2.692   2.365  1.00  0.00     0.163 HD
ATOM     16  O   UNL     1      -2.422   2.390   3.646  1.00  0.00    -0.274 OA
BRANCH  14  17
ATOM     17  C   UNL     1      -1.907   0.045   4.007  1.00  0.00     0.107 C 
ATOM     18  C   UNL     1      -3.195  -0.040   4.801  1.00  0.00    -0.012 C 
ATOM     19  C   UNL     1      -2.206  -1.011   2.951  1.00  0.00     0.087 C 
ATOM     20  C   UNL     1      -3.861  -1.180   4.561  1.00  0.00     0.033 C 
ATOM     21  C   UNL     1      -3.116  -2.042   3.603  1.00  0.00     0.205 C 
BRANCH  21  22
ATOM     22  N   UNL     1      -3.934  -2.685   2.596  1.00  0.00    -0.352 N 
ATOM     23  H   UNL     1      -4.439  -1.976   2.064  1.00  0.00     0.345 HD
ATOM     24  H   UNL     1      -4.602  -3.310   3.049  1.00  0.00     0.345 HD
ATOM     25  H   UNL     1      -3.338  -3.223   1.967  1.00  0.00     0.345 HD
ENDBRANCH  21  22
ENDBRANCH  14  17
ENDBRANCH  10  13
ENDBRANCH   4   7
ENDBRANCH   2   3
ENDBRANCH   1   2
BRANCH   1  26
ATOM     26  C   UNL     1       5.403  -0.242  -0.650  1.00  0.00     0.118 C 
BRANCH  26  27
ATOM     27  N   UNL     1       5.968   1.063  -0.967  1.00  0.00    -0.352 N 
ATOM     28  C   UNL     1       7.274   1.427  -1.170  1.00  0.00     0.251 C 
ATOM     29  H   UNL     1       5.314   1.794  -1.047  1.00  0.00     0.163 HD
ATOM     30  O   UNL     1       7.583   2.612  -1.154  1.00  0.00    -0.269 OA
BRANCH  28  31
ATOM     31  C   UNL     1       8.292   0.383  -1.395  1.00  0.00     0.039 A 
ATOM     32  C   UNL     1       9.548   0.524  -0.806  1.00  0.00     0.014 A 
ATOM     33  C   UNL     1       8.002  -0.731  -2.188  1.00  0.00     0.014 A 
ATOM     34  C   UNL     1      10.495  -0.484  -0.971  1.00  0.00     0.010 A 
ATOM     35  C   UNL     1       8.905  -1.783  -2.257  1.00  0.00     0.010 A 
ATOM     36  C   UNL     1      10.168  -1.662  -1.667  1.00  0.00    -0.014 A 
BRANCH  36  37
ATOM     37  C   UNL     1      11.149  -2.768  -1.783  1.00  0.00     0.031 A 
ATOM     38  C   UNL     1      11.652  -3.203  -3.133  1.00  0.00     0.074 A 
ATOM     39  C   UNL     1      11.562  -3.396  -0.664  1.00  0.00     0.049 A 
ATOM     40  N   UNL     1      12.545  -4.115  -3.421  1.00  0.00    -0.248 NA
ATOM     41  C   UNL     1      11.059  -2.554  -4.315  1.00  0.00     0.031 C 
ATOM     42  C   UNL     1      11.088  -3.108   0.693  1.00  0.00     0.029 A 
ATOM     43  N   UNL     1      12.484  -4.394  -0.487  1.00  0.00    -0.354 N 
ATOM     44  C   UNL     1      12.614  -4.152  -4.809  1.00  0.00     0.074 A 
ATOM     45  C   UNL     1      11.626  -3.223  -5.307  1.00  0.00     0.031 C 
ATOM     46  C   UNL     1      11.765  -3.870   1.566  1.00  0.00     0.029 A 
ATOM     47  C   UNL     1      12.689  -4.726   0.831  1.00  0.00     0.049 A 
ATOM     48  H   UNL     1      12.955  -4.832  -1.233  1.00  0.00     0.167 HD
ATOM     49  C   UNL     1      13.445  -4.873  -5.598  1.00  0.00     0.031 A 
ATOM     50  C   UNL     1      13.536  -5.613   1.387  1.00  0.00     0.031 A 
ATOM     51  C   UNL     1      14.429  -5.793  -5.092  1.00  0.00     0.049 A 
ATOM     52  C   UNL     1      14.460  -6.389   0.491  1.00  0.00     0.074 A 
ATOM     53  C   UNL     1      15.360  -6.533  -5.800  1.00  0.00     0.029 A 
ATOM     54  N   UNL     1      14.609  -6.100  -3.751  1.00  0.00    -0.354 N 
ATOM     55  N   UNL     1      14.566  -6.351  -0.816  1.00  0.00    -0.248 NA
ATOM     56  C   UNL     1      15.394  -7.310   1.149  1.00  0.00     0.031 C 
ATOM     57  C   UNL     1      16.063  -7.332  -4.891  1.00  0.00     0.029 A 
ATOM     58  C   UNL     1      15.619  -7.036  -3.611  1.00  0.00     0.049 A 
ATOM     59  H   UNL     1      14.095  -5.709  -3.009  1.00  0.00     0.167 HD
ATOM     60  C   UNL     1      15.599  -7.226  -1.136  1.00  0.00     0.074 A 
ATOM     61  C   UNL     1      16.099  -7.753   0.118  1.00  0.00     0.031 C 
ATOM     62  C   UNL     1      16.090  -7.564  -2.355  1.00  0.00     0.031 A 
BRANCH  49  63
ATOM     63  C   UNL     1      13.319  -4.695  -7.090  1.00  0.00    -0.014 A 
ATOM     64  C   UNL     1      13.676  -3.484  -7.712  1.00  0.00     0.010 A 
ATOM     65  C   UNL     1      12.873  -5.764  -7.888  1.00  0.00     0.010 A 
ATOM     66  C   UNL     1      13.550  -3.332  -9.096  1.00  0.00     0.020 A 
ATOM     67  C   UNL     1      12.777  -5.628  -9.276  1.00  0.00     0.020 A 
ATOM     68  C   UNL     1      13.101  -4.406  -9.869  1.00  0.00     0.054 A 
BRANCH  68  69
ATOM     69  S   UNL     1      12.977  -4.190 -11.666  1.00  0.00     0.124 S 
ATOM     70  O   UNL     1      11.829  -3.294 -11.783  1.00  0.00    -0.237 OA
ATOM     71  O   UNL     1      14.270  -3.601 -12.006  1.00  0.00    -0.237 OA
ATOM     72  O   UNL     1      12.762  -5.545 -12.165  1.00  0.00    -0.744 OA
ENDBRANCH  68  69
ENDBRANCH  49  63
BRANCH  50  73
ATOM     73  C   UNL     1      13.569  -5.784   2.866  1.00  0.00    -0.014 A 
ATOM     74  C   UNL     1      14.681  -5.357   3.614  1.00  0.00     0.010 A 
ATOM     75  C   UNL     1      12.476  -6.362   3.538  1.00  0.00     0.010 A 
ATOM     76  C   UNL     1      14.709  -5.526   5.001  1.00  0.00     0.020 A 
ATOM     77  C   UNL     1      12.487  -6.503   4.928  1.00  0.00     0.020 A 
ATOM     78  C   UNL     1      13.610  -6.096   5.650  1.00  0.00     0.054 A 
BRANCH  78  79
ATOM     79  S   UNL     1      13.648  -6.260   7.456  1.00  0.00     0.124 S 
ATOM     80  O   UNL     1      14.607  -7.345   7.642  1.00  0.00    -0.237 OA
ATOM     81  O   UNL     1      14.096  -4.937   7.883  1.00  0.00    -0.237 OA
ATOM     82  O   UNL     1      12.264  -6.581   7.799  1.00  0.00    -0.744 OA
ENDBRANCH  78  79
ENDBRANCH  50  73
BRANCH  62  83
ATOM     83  C   UNL     1      17.248  -8.527  -2.380  1.00  0.00    -0.014 A 
ATOM     84  C   UNL     1      17.091  -9.873  -2.004  1.00  0.00     0.010 A 
ATOM     85  C   UNL     1      18.516  -8.074  -2.788  1.00  0.00     0.010 A 
ATOM     86  C   UNL     1      18.194 -10.730  -1.970  1.00  0.00     0.020 A 
ATOM     87  C   UNL     1      19.613  -8.937  -2.792  1.00  0.00     0.020 A 
ATOM     88  C   UNL     1      19.450 -10.253  -2.355  1.00  0.00     0.054 A 
BRANCH  88  89
ATOM     89  S   UNL     1      20.869 -11.379  -2.290  1.00  0.00     0.124 S 
ATOM     90  O   UNL     1      21.116 -11.471  -0.854  1.00  0.00    -0.237 OA
ATOM     91  O   UNL     1      20.347 -12.590  -2.917  1.00  0.00    -0.237 OA
ATOM     92  O   UNL     1      21.900 -10.682  -3.057  1.00  0.00    -0.744 OA
ENDBRANCH  88  89
ENDBRANCH  62  83
ENDBRANCH  36  37
ENDBRANCH  28  31
ENDBRANCH  26  27
ENDBRANCH   1  26
TORSDOF 16
