REMARK SMILES CN1N[C@H](C(=O)N[C@@H](CC2=c3ccccc3=NC2)C(=O)NCCCNC(=O)c2ccc(-c3c4nc(c(-c5ccc(S(=O)(=O)[O-])cc5)c5ccc([nH]5)c(-c5ccc(S(=O)(=O)[O-])cc5)c5nc(c(-c6ccc(S(=O)(=O)[O-])cc6)c6ccc3[nH]6)C=C5)C=C4)cc2)c2ccccc2C1=O
REMARK SMILES IDX 23 1 22 2 21 3 19 4 20 5 8 7 7 8 5 9 6 10 4 12 1 13 2 14
REMARK SMILES IDX 3 15 94 16 93 18 95 19 88 20 92 21 89 22 91 23 90 24 9 25
REMARK SMILES IDX 10 26 11 27 18 28 12 29 16 30 17 31 13 32 15 33 14 34 24 35
REMARK SMILES IDX 25 36 26 37 27 39 28 40 29 41 87 42 30 43 86 44 31 45 32 46
REMARK SMILES IDX 33 47 80 48 34 49 85 50 79 51 81 52 35 53 84 54 78 55 77 56
REMARK SMILES IDX 36 58 66 59 47 60 65 61 48 62 51 63 64 64 82 65 49 66 50 67
REMARK SMILES IDX 63 69 83 70 52 71 37 72 38 73 46 74 39 75 45 76 40 77 41 78
REMARK SMILES IDX 42 79 43 80 44 81 67 82 68 83 76 84 69 85 75 86 70 87 71 88
REMARK SMILES IDX 72 89 73 90 74 91 53 92 54 93 62 94 55 95 61 96 56 97 57 98
REMARK SMILES IDX 58 99 59 100 60 101
REMARK H PARENT 21 6 7 11 3 17 25 38 81 57 51 68
REMARK Flexibility Score: inf
ROOT
ATOM      1  C   UNL     1      -3.966  -1.072   8.102  1.00  0.00     0.042 C 
ENDROOT
BRANCH   1   2
ATOM      2  C   UNL     1      -2.641  -0.615   7.524  1.00  0.00     0.117 C 
BRANCH   2   3
ATOM      3  N   UNL     1      -1.847  -1.528   6.742  1.00  0.00    -0.354 N 
ATOM      4  C   UNL     1      -0.711  -1.139   6.066  1.00  0.00     0.242 C 
ATOM      5  O   UNL     1       0.283  -1.866   6.183  1.00  0.00    -0.273 OA
ATOM      6  H   UNL     1      -2.129  -2.470   6.687  1.00  0.00     0.163 HD
BRANCH   4   7
ATOM      7  C   UNL     1      -0.615   0.190   5.237  1.00  0.00     0.175 C 
BRANCH   7   8
ATOM      8  N   UNL     1      -1.864   0.728   4.683  1.00  0.00    -0.342 N 
ATOM      9  C   UNL     1      -2.438   0.547   3.454  1.00  0.00     0.244 C 
ATOM     10  O   UNL     1      -3.522   1.105   3.252  1.00  0.00    -0.273 OA
ATOM     11  H   UNL     1      -2.370   1.312   5.293  1.00  0.00     0.164 HD
BRANCH   9  12
ATOM     12  C   UNL     1      -1.778  -0.304   2.337  1.00  0.00     0.195 C 
ATOM     13  C   UNL     1       1.232   0.114   0.237  1.00  0.00     0.169 C 
ATOM     14  N   UNL     1       0.341  -0.515   1.194  1.00  0.00    -0.276 N 
ATOM     15  N   UNL     1      -0.467   0.306   2.018  1.00  0.00    -0.215 NA
ATOM     16  C   UNL     1       0.503  -1.876   1.480  1.00  0.00     0.268 C 
ATOM     17  H   UNL     1      -0.629   1.191   1.537  1.00  0.00     0.149 HD
ATOM     18  C   UNL     1      -0.545  -2.501   2.332  1.00  0.00     0.046 A 
ATOM     19  O   UNL     1       1.405  -2.562   1.006  1.00  0.00    -0.268 OA
ATOM     20  C   UNL     1      -1.688  -1.770   2.686  1.00  0.00    -0.007 A 
ATOM     21  C   UNL     1      -0.435  -3.854   2.677  1.00  0.00     0.014 A 
ATOM     22  C   UNL     1      -2.764  -2.445   3.288  1.00  0.00     0.007 A 
ATOM     23  C   UNL     1      -1.490  -4.498   3.324  1.00  0.00     0.001 A 
ATOM     24  C   UNL     1      -2.662  -3.800   3.606  1.00  0.00     0.000 A 
ENDBRANCH   9  12
ENDBRANCH   7   8
BRANCH   7  25
ATOM     25  C   UNL     1       0.332   1.307   5.803  1.00  0.00     0.068 C 
BRANCH  25  26
ATOM     26  C   UNL     1      -0.117   2.263   6.909  1.00  0.00    -0.037 C 
ATOM     27  C   UNL     1      -0.986   3.269   6.694  1.00  0.00     0.001 A 
ATOM     28  C   UNL     1      -0.377   1.656   8.253  1.00  0.00     0.174 C 
ATOM     29  C   UNL     1      -0.836   4.673   7.093  1.00  0.00     0.010 A 
ATOM     30  C   UNL     1      -2.104   2.738   7.536  1.00  0.00     0.065 A 
ATOM     31  N   UNL     1      -1.822   1.875   8.457  1.00  0.00    -0.280 NA
ATOM     32  C   UNL     1      -1.963   5.374   7.348  1.00  0.00     0.001 A 
ATOM     33  C   UNL     1      -3.392   3.406   7.281  1.00  0.00     0.028 A 
ATOM     34  C   UNL     1      -3.271   4.741   7.179  1.00  0.00     0.002 A 
ENDBRANCH  25  26
ENDBRANCH   7  25
ENDBRANCH   4   7
ENDBRANCH   2   3
ENDBRANCH   1   2
BRANCH   1  35
ATOM     35  C   UNL     1      -3.857  -1.637   9.521  1.00  0.00     0.118 C 
BRANCH  35  36
ATOM     36  N   UNL     1      -3.324  -0.721  10.542  1.00  0.00    -0.352 N 
ATOM     37  C   UNL     1      -3.860   0.051  11.550  1.00  0.00     0.251 C 
ATOM     38  H   UNL     1      -2.344  -0.640  10.493  1.00  0.00     0.163 HD
ATOM     39  O   UNL     1      -3.086   0.686  12.273  1.00  0.00    -0.269 OA
BRANCH  37  40
ATOM     40  C   UNL     1      -5.318   0.207  11.761  1.00  0.00     0.039 A 
ATOM     41  C   UNL     1      -6.212  -0.807  11.469  1.00  0.00     0.014 A 
ATOM     42  C   UNL     1      -5.820   1.422  12.255  1.00  0.00     0.014 A 
ATOM     43  C   UNL     1      -7.567  -0.527  11.367  1.00  0.00     0.010 A 
ATOM     44  C   UNL     1      -7.204   1.650  12.313  1.00  0.00     0.010 A 
ATOM     45  C   UNL     1      -8.093   0.706  11.783  1.00  0.00    -0.014 A 
BRANCH  45  46
ATOM     46  C   UNL     1      -9.555   0.960  11.616  1.00  0.00     0.031 A 
ATOM     47  C   UNL     1     -10.054   2.131  10.802  1.00  0.00     0.074 A 
ATOM     48  C   UNL     1     -10.441   0.059  12.094  1.00  0.00     0.049 A 
ATOM     49  N   UNL     1     -11.290   2.461  10.516  1.00  0.00    -0.248 NA
ATOM     50  C   UNL     1      -9.054   3.056  10.241  1.00  0.00     0.031 C 
ATOM     51  C   UNL     1     -10.092  -1.124  12.887  1.00  0.00     0.029 A 
ATOM     52  N   UNL     1     -11.802  -0.047  11.937  1.00  0.00    -0.354 N 
ATOM     53  C   UNL     1     -11.214   3.635   9.775  1.00  0.00     0.074 A 
ATOM     54  C   UNL     1      -9.816   3.981   9.672  1.00  0.00     0.031 C 
ATOM     55  C   UNL     1     -11.180  -1.887  13.047  1.00  0.00     0.029 A 
ATOM     56  C   UNL     1     -12.331  -1.200  12.473  1.00  0.00     0.049 A 
ATOM     57  H   UNL     1     -12.347   0.636  11.484  1.00  0.00     0.167 HD
ATOM     58  C   UNL     1     -12.219   4.352   9.217  1.00  0.00     0.031 A 
ATOM     59  C   UNL     1     -13.598  -1.658  12.525  1.00  0.00     0.031 A 
ATOM     60  C   UNL     1     -13.608   3.981   9.283  1.00  0.00     0.049 A 
ATOM     61  C   UNL     1     -14.694  -0.841  11.909  1.00  0.00     0.074 A 
ATOM     62  C   UNL     1     -14.696   4.650   8.747  1.00  0.00     0.029 A 
ATOM     63  N   UNL     1     -14.103   2.839   9.893  1.00  0.00    -0.354 N 
ATOM     64  N   UNL     1     -14.597   0.287  11.248  1.00  0.00    -0.248 NA
ATOM     65  C   UNL     1     -16.067  -1.341  12.054  1.00  0.00     0.031 C 
ATOM     66  C   UNL     1     -15.851   3.942   9.079  1.00  0.00     0.029 A 
ATOM     67  C   UNL     1     -15.480   2.795   9.761  1.00  0.00     0.049 A 
ATOM     68  H   UNL     1     -13.556   2.161  10.352  1.00  0.00     0.167 HD
ATOM     69  C   UNL     1     -15.897   0.638  10.907  1.00  0.00     0.074 A 
ATOM     70  C   UNL     1     -16.760  -0.415  11.401  1.00  0.00     0.031 C 
ATOM     71  C   UNL     1     -16.332   1.744  10.257  1.00  0.00     0.031 A 
BRANCH  58  72
ATOM     72  C   UNL     1     -11.881   5.616   8.468  1.00  0.00    -0.014 A 
ATOM     73  C   UNL     1     -12.287   6.861   8.987  1.00  0.00     0.010 A 
ATOM     74  C   UNL     1     -11.312   5.564   7.184  1.00  0.00     0.010 A 
ATOM     75  C   UNL     1     -12.176   8.022   8.219  1.00  0.00     0.020 A 
ATOM     76  C   UNL     1     -11.174   6.729   6.422  1.00  0.00     0.020 A 
ATOM     77  C   UNL     1     -11.634   7.946   6.933  1.00  0.00     0.054 A 
BRANCH  77  78
ATOM     78  S   UNL     1     -11.555   9.453   5.926  1.00  0.00     0.124 S 
ATOM     79  O   UNL     1     -12.949   9.638   5.536  1.00  0.00    -0.237 OA
ATOM     80  O   UNL     1     -11.025  10.438   6.867  1.00  0.00    -0.237 OA
ATOM     81  O   UNL     1     -10.644   9.091   4.841  1.00  0.00    -0.744 OA
ENDBRANCH  77  78
ENDBRANCH  58  72
BRANCH  59  82
ATOM     82  C   UNL     1     -13.873  -2.949  13.219  1.00  0.00    -0.014 A 
ATOM     83  C   UNL     1     -13.644  -3.062  14.604  1.00  0.00     0.010 A 
ATOM     84  C   UNL     1     -14.261  -4.090  12.497  1.00  0.00     0.010 A 
ATOM     85  C   UNL     1     -13.723  -4.301  15.241  1.00  0.00     0.020 A 
ATOM     86  C   UNL     1     -14.379  -5.329  13.140  1.00  0.00     0.020 A 
ATOM     87  C   UNL     1     -14.073  -5.431  14.500  1.00  0.00     0.054 A 
BRANCH  87  88
ATOM     88  S   UNL     1     -14.112  -7.042  15.334  1.00  0.00     0.124 S 
ATOM     89  O   UNL     1     -12.695  -7.393  15.368  1.00  0.00    -0.237 OA
ATOM     90  O   UNL     1     -14.712  -6.721  16.626  1.00  0.00    -0.237 OA
ATOM     91  O   UNL     1     -14.941  -7.860  14.452  1.00  0.00    -0.744 OA
ENDBRANCH  87  88
ENDBRANCH  59  82
BRANCH  71  92
ATOM     92  C   UNL     1     -17.812   1.902  10.039  1.00  0.00    -0.014 A 
ATOM     93  C   UNL     1     -18.337   1.835   8.735  1.00  0.00     0.010 A 
ATOM     94  C   UNL     1     -18.657   2.261  11.103  1.00  0.00     0.010 A 
ATOM     95  C   UNL     1     -19.673   2.160   8.493  1.00  0.00     0.020 A 
ATOM     96  C   UNL     1     -20.001   2.561  10.868  1.00  0.00     0.020 A 
ATOM     97  C   UNL     1     -20.493   2.535   9.560  1.00  0.00     0.054 A 
BRANCH  97  98
ATOM     98  S   UNL     1     -22.214   2.995   9.222  1.00  0.00     0.124 S 
ATOM     99  O   UNL     1     -22.070   4.340   8.673  1.00  0.00    -0.237 OA
ATOM    100  O   UNL     1     -22.641   1.970   8.273  1.00  0.00    -0.237 OA
ATOM    101  O   UNL     1     -22.853   2.921  10.534  1.00  0.00    -0.744 OA
ENDBRANCH  97  98
ENDBRANCH  71  92
ENDBRANCH  45  46
ENDBRANCH  37  40
ENDBRANCH  35  36
ENDBRANCH   1  35
TORSDOF 17
