REMARK SMILES CC(=O)N1CCC[C@@H](Cc2nccnc2C(=O)NCCCNC(=O)c2ccc(-c3c4nc(c(-c5ccc(S(=O)(=O)[O-])cc5)c5ccc([nH]5)c(-c5ccc(S(=O)(=O)[O-])cc5)c5nc(c(-c6ccc(S(=O)(=O)[O-])cc6)c6ccc3[nH]6)C=C5)C=C4)cc2)C1
REMARK SMILES IDX 20 1 19 2 18 3 16 4 17 5 15 7 10 8 11 9 12 10 14 11 13 12
REMARK SMILES IDX 9 13 8 14 4 15 5 16 85 17 6 18 7 19 2 20 1 21 3 22 21 23
REMARK SMILES IDX 22 24 23 25 24 27 25 28 26 29 84 30 27 31 83 32 28 33 29 34
REMARK SMILES IDX 30 35 77 36 31 37 82 38 76 39 78 40 32 41 81 42 75 43 74 44
REMARK SMILES IDX 33 46 63 47 44 48 62 49 45 50 48 51 61 52 79 53 46 54 47 55
REMARK SMILES IDX 60 57 80 58 49 59 34 60 35 61 43 62 36 63 42 64 37 65 38 66
REMARK SMILES IDX 39 67 40 68 41 69 64 70 65 71 73 72 66 73 72 74 67 75 68 76
REMARK SMILES IDX 69 77 70 78 71 79 50 80 51 81 59 82 52 83 58 84 53 85 54 86
REMARK SMILES IDX 55 87 56 88 57 89
REMARK H PARENT 18 6 22 26 78 45 48 56
REMARK Flexibility Score: inf
ROOT
ATOM      1  C   UNL     1       4.390  -2.503   5.857  1.00  0.00     0.042 C 
ENDROOT
BRANCH   1   2
ATOM      2  C   UNL     1       5.350  -3.625   5.428  1.00  0.00     0.118 C 
BRANCH   2   3
ATOM      3  N   UNL     1       4.709  -4.917   5.603  1.00  0.00    -0.351 N 
ATOM      4  C   UNL     1       4.071  -5.836   4.803  1.00  0.00     0.271 C 
ATOM      5  O   UNL     1       3.612  -6.801   5.430  1.00  0.00    -0.267 OA
ATOM      6  H   UNL     1       4.739  -5.213   6.541  1.00  0.00     0.163 HD
BRANCH   4   7
ATOM      7  C   UNL     1       3.927  -5.858   3.298  1.00  0.00     0.149 A 
ATOM      8  C   UNL     1       3.527  -4.841   2.419  1.00  0.00     0.072 A 
ATOM      9  N   UNL     1       3.259  -5.098   1.098  1.00  0.00    -0.257 NA
ATOM     10  C   UNL     1       3.359  -6.376   0.685  1.00  0.00     0.131 A 
ATOM     11  N   UNL     1       4.060  -7.142   2.827  1.00  0.00    -0.248 NA
ATOM     12  C   UNL     1       3.758  -7.379   1.535  1.00  0.00     0.132 A 
BRANCH   8  13
ATOM     13  C   UNL     1       3.366  -3.398   2.746  1.00  0.00     0.064 C 
BRANCH  13  14
ATOM     14  C   UNL     1       1.963  -2.792   2.786  1.00  0.00     0.015 C 
ATOM     15  N   UNL     1       0.137  -1.763   1.562  1.00  0.00    -0.343 N 
ATOM     16  C   UNL     1      -0.893  -2.418   2.369  1.00  0.00     0.119 C 
ATOM     17  C   UNL     1       1.374  -2.526   1.396  1.00  0.00     0.123 C 
ATOM     18  C   UNL     1      -0.356  -2.802   3.748  1.00  0.00     0.022 C 
ATOM     19  C   UNL     1       0.960  -3.579   3.643  1.00  0.00     0.007 C 
BRANCH  15  20
ATOM     20  C   UNL     1      -0.056  -0.453   1.149  1.00  0.00     0.219 C 
ATOM     21  C   UNL     1       0.965   0.134   0.208  1.00  0.00     0.114 C 
ATOM     22  O   UNL     1      -1.015   0.224   1.513  1.00  0.00    -0.275 OA
ENDBRANCH  15  20
ENDBRANCH  13  14
ENDBRANCH   8  13
ENDBRANCH   4   7
ENDBRANCH   2   3
ENDBRANCH   1   2
BRANCH   1  23
ATOM     23  C   UNL     1       4.402  -2.195   7.349  1.00  0.00     0.118 C 
BRANCH  23  24
ATOM     24  N   UNL     1       5.353  -1.142   7.663  1.00  0.00    -0.352 N 
ATOM     25  C   UNL     1       5.135   0.174   7.991  1.00  0.00     0.251 C 
ATOM     26  H   UNL     1       6.299  -1.413   7.636  1.00  0.00     0.163 HD
ATOM     27  O   UNL     1       6.088   0.960   7.928  1.00  0.00    -0.269 OA
BRANCH  25  28
ATOM     28  C   UNL     1       3.801   0.673   8.413  1.00  0.00     0.039 A 
ATOM     29  C   UNL     1       3.430   1.983   8.081  1.00  0.00     0.014 A 
ATOM     30  C   UNL     1       2.947  -0.094   9.209  1.00  0.00     0.014 A 
ATOM     31  C   UNL     1       2.205   2.506   8.518  1.00  0.00     0.010 A 
ATOM     32  C   UNL     1       1.692   0.397   9.573  1.00  0.00     0.010 A 
ATOM     33  C   UNL     1       1.317   1.712   9.258  1.00  0.00    -0.014 A 
BRANCH  33  34
ATOM     34  C   UNL     1       0.029   2.242   9.786  1.00  0.00     0.031 A 
ATOM     35  C   UNL     1      -0.193   2.302  11.277  1.00  0.00     0.074 A 
ATOM     36  C   UNL     1      -0.964   2.597   8.947  1.00  0.00     0.049 A 
ATOM     37  N   UNL     1      -1.286   2.574  11.944  1.00  0.00    -0.248 NA
ATOM     38  C   UNL     1       0.964   1.981  12.132  1.00  0.00     0.031 C 
ATOM     39  C   UNL     1      -0.891   2.576   7.485  1.00  0.00     0.029 A 
ATOM     40  N   UNL     1      -2.241   3.031   9.209  1.00  0.00    -0.354 N 
ATOM     41  C   UNL     1      -0.961   2.413  13.287  1.00  0.00     0.074 A 
ATOM     42  C   UNL     1       0.420   1.987  13.340  1.00  0.00     0.031 C 
ATOM     43  C   UNL     1      -2.066   2.990   6.980  1.00  0.00     0.029 A 
ATOM     44  C   UNL     1      -2.989   3.264   8.077  1.00  0.00     0.049 A 
ATOM     45  H   UNL     1      -2.589   3.163  10.120  1.00  0.00     0.167 HD
ATOM     46  C   UNL     1      -1.736   2.612  14.380  1.00  0.00     0.031 A 
ATOM     47  C   UNL     1      -4.276   3.639   7.938  1.00  0.00     0.031 A 
ATOM     48  C   UNL     1      -3.096   3.076  14.330  1.00  0.00     0.049 A 
ATOM     49  C   UNL     1      -5.114   3.874   9.167  1.00  0.00     0.074 A 
ATOM     50  C   UNL     1      -3.949   3.359  15.383  1.00  0.00     0.029 A 
ATOM     51  N   UNL     1      -3.799   3.338  13.164  1.00  0.00    -0.354 N 
ATOM     52  N   UNL     1      -4.780   3.742  10.429  1.00  0.00    -0.248 NA
ATOM     53  C   UNL     1      -6.500   4.316   8.954  1.00  0.00     0.031 C 
ATOM     54  C   UNL     1      -5.178   3.762  14.853  1.00  0.00     0.029 A 
ATOM     55  C   UNL     1      -5.075   3.774  13.471  1.00  0.00     0.049 A 
ATOM     56  H   UNL     1      -3.442   3.230  12.253  1.00  0.00     0.167 HD
ATOM     57  C   UNL     1      -5.904   4.117  11.159  1.00  0.00     0.074 A 
ATOM     58  C   UNL     1      -6.924   4.486  10.200  1.00  0.00     0.031 C 
ATOM     59  C   UNL     1      -6.073   4.156  12.504  1.00  0.00     0.031 A 
BRANCH  46  60
ATOM     60  C   UNL     1      -1.127   2.321  15.728  1.00  0.00    -0.014 A 
ATOM     61  C   UNL     1      -0.127   3.148  16.269  1.00  0.00     0.010 A 
ATOM     62  C   UNL     1      -1.581   1.219  16.475  1.00  0.00     0.010 A 
ATOM     63  C   UNL     1       0.444   2.849  17.509  1.00  0.00     0.020 A 
ATOM     64  C   UNL     1      -1.033   0.933  17.729  1.00  0.00     0.020 A 
ATOM     65  C   UNL     1      -0.008   1.739  18.228  1.00  0.00     0.054 A 
BRANCH  65  66
ATOM     66  S   UNL     1       0.744   1.377  19.839  1.00  0.00     0.124 S 
ATOM     67  O   UNL     1       2.031   0.806  19.447  1.00  0.00    -0.237 OA
ATOM     68  O   UNL     1       0.809   2.694  20.468  1.00  0.00    -0.237 OA
ATOM     69  O   UNL     1      -0.190   0.440  20.455  1.00  0.00    -0.744 OA
ENDBRANCH  65  66
ENDBRANCH  46  60
BRANCH  47  70
ATOM     70  C   UNL     1      -4.851   3.835   6.578  1.00  0.00    -0.014 A 
ATOM     71  C   UNL     1      -5.133   5.130   6.107  1.00  0.00     0.010 A 
ATOM     72  C   UNL     1      -5.109   2.734   5.742  1.00  0.00     0.010 A 
ATOM     73  C   UNL     1      -5.683   5.318   4.836  1.00  0.00     0.020 A 
ATOM     74  C   UNL     1      -5.635   2.920   4.459  1.00  0.00     0.020 A 
ATOM     75  C   UNL     1      -5.932   4.212   4.019  1.00  0.00     0.054 A 
BRANCH  75  76
ATOM     76  S   UNL     1      -6.615   4.487   2.361  1.00  0.00     0.124 S 
ATOM     77  O   UNL     1      -8.000   4.841   2.660  1.00  0.00    -0.237 OA
ATOM     78  O   UNL     1      -5.783   5.575   1.852  1.00  0.00    -0.237 OA
ATOM     79  O   UNL     1      -6.430   3.202   1.693  1.00  0.00    -0.744 OA
ENDBRANCH  75  76
ENDBRANCH  47  70
BRANCH  59  80
ATOM     80  C   UNL     1      -7.388   4.664  13.029  1.00  0.00    -0.014 A 
ATOM     81  C   UNL     1      -8.547   3.870  12.987  1.00  0.00     0.010 A 
ATOM     82  C   UNL     1      -7.440   5.926  13.650  1.00  0.00     0.010 A 
ATOM     83  C   UNL     1      -9.741   4.338  13.541  1.00  0.00     0.020 A 
ATOM     84  C   UNL     1      -8.627   6.387  14.225  1.00  0.00     0.020 A 
ATOM     85  C   UNL     1      -9.773   5.593  14.159  1.00  0.00     0.054 A 
BRANCH  85  86
ATOM     86  S   UNL     1     -11.317   6.151  14.931  1.00  0.00     0.124 S 
ATOM     87  O   UNL     1     -12.117   6.532  13.770  1.00  0.00    -0.237 OA
ATOM     88  O   UNL     1     -11.771   4.958  15.643  1.00  0.00    -0.237 OA
ATOM     89  O   UNL     1     -10.896   7.257  15.788  1.00  0.00    -0.744 OA
ENDBRANCH  85  86
ENDBRANCH  59  80
ENDBRANCH  33  34
ENDBRANCH  25  28
ENDBRANCH  23  24
ENDBRANCH   1  23
TORSDOF 16
