REMARK SMILES N#C[C@H]1CN(c2cc(C(=O)NCCCNC(=O)c3ccc(-c4c5nc(c(-c6ccc(S(=O)(=O)[O-])cc6)c6ccc([nH]6)c(-c6ccc(S(=O)(=O)[O-])cc6)c6nc(c(-c7ccc(S(=O)(=O)[O-])cc7)c7ccc4[nH]7)C=C6)C=C5)cc3)c(N)cc2F)CCO1
REMARK SMILES IDX 13 1 12 2 11 3 9 4 10 5 8 7 6 8 7 9 81 10 80 11 82 12 78 13
REMARK SMILES IDX 5 14 3 15 4 16 85 17 84 18 83 19 2 20 1 21 79 22 14 25 15 26
REMARK SMILES IDX 16 27 17 29 18 30 19 31 77 32 20 33 76 34 21 35 22 36 23 37
REMARK SMILES IDX 70 38 24 39 75 40 69 41 71 42 25 43 74 44 68 45 67 46 26 48
REMARK SMILES IDX 56 49 37 50 55 51 38 52 41 53 54 54 72 55 39 56 40 57 53 59
REMARK SMILES IDX 73 60 42 61 27 62 28 63 36 64 29 65 35 66 30 67 31 68 32 69
REMARK SMILES IDX 33 70 34 71 57 72 58 73 66 74 59 75 65 76 60 77 61 78 62 79
REMARK SMILES IDX 63 80 64 81 43 82 44 83 52 84 45 85 51 86 46 87 47 88 48 89
REMARK SMILES IDX 49 90 50 91
REMARK H PARENT 11 6 79 23 79 24 15 28 71 47 41 58
REMARK Flexibility Score: inf
ROOT
ATOM      1  C   UNL     1       0.494   6.646  -5.974  1.00  0.00     0.042 C 
ENDROOT
BRANCH   1   2
ATOM      2  C   UNL     1       1.290   5.379  -6.199  1.00  0.00     0.118 C 
BRANCH   2   3
ATOM      3  N   UNL     1       2.675   5.411  -5.768  1.00  0.00    -0.352 N 
ATOM      4  C   UNL     1       3.463   4.416  -5.233  1.00  0.00     0.253 C 
ATOM      5  O   UNL     1       4.646   4.687  -5.016  1.00  0.00    -0.269 OA
ATOM      6  H   UNL     1       3.122   6.282  -5.874  1.00  0.00     0.163 HD
BRANCH   4   7
ATOM      7  C   UNL     1       2.942   3.070  -4.833  1.00  0.00     0.065 A 
ATOM      8  C   UNL     1       3.213   1.226  -3.234  1.00  0.00     0.074 A 
ATOM      9  C   UNL     1       3.585   2.485  -3.716  1.00  0.00     0.045 A 
ATOM     10  C   UNL     1       2.054   0.657  -3.773  1.00  0.00     0.148 A 
ATOM     11  C   UNL     1       1.415   1.203  -4.876  1.00  0.00     0.067 A 
ATOM     12  F   UNL     1       1.577  -0.494  -3.273  1.00  0.00    -0.205 F 
ATOM     13  C   UNL     1       1.934   2.341  -5.496  1.00  0.00     0.047 A 
BRANCH   8  14
ATOM     14  N   UNL     1       4.022   0.533  -2.360  1.00  0.00    -0.363 N 
ATOM     15  C   UNL     1       3.849  -0.053   0.026  1.00  0.00     0.240 C 
ATOM     16  C   UNL     1       4.346   0.993  -1.007  1.00  0.00     0.164 C 
ATOM     17  O   UNL     1       4.334  -1.384  -0.294  1.00  0.00    -0.360 OA
ATOM     18  C   UNL     1       3.884  -1.792  -1.597  1.00  0.00     0.183 C 
ATOM     19  C   UNL     1       4.410  -0.846  -2.680  1.00  0.00     0.145 C 
BRANCH  15  20
ATOM     20  C   UNL     1       4.308   0.326   1.377  1.00  0.00     0.096 C 
ATOM     21  N   UNL     1       4.667   0.632   2.435  1.00  0.00    -0.195 NA
ENDBRANCH  15  20
ENDBRANCH   8  14
BRANCH  13  22
ATOM     22  N   UNL     1       1.476   2.616  -6.777  1.00  0.00    -0.398 N 
ATOM     23  H   UNL     1       1.809   3.406  -7.260  1.00  0.00     0.156 HD
ATOM     24  H   UNL     1       0.817   2.021  -7.202  1.00  0.00     0.156 HD
ENDBRANCH  13  22
ENDBRANCH   4   7
ENDBRANCH   2   3
ENDBRANCH   1   2
BRANCH   1  25
ATOM     25  C   UNL     1       1.026   7.881  -6.675  1.00  0.00     0.118 C 
BRANCH  25  26
ATOM     26  N   UNL     1       1.029   7.787  -8.131  1.00  0.00    -0.352 N 
ATOM     27  C   UNL     1       0.254   8.408  -9.085  1.00  0.00     0.251 C 
ATOM     28  H   UNL     1       1.705   7.171  -8.496  1.00  0.00     0.163 HD
ATOM     29  O   UNL     1       0.366   8.067 -10.260  1.00  0.00    -0.269 OA
BRANCH  27  30
ATOM     30  C   UNL     1      -0.738   9.442  -8.709  1.00  0.00     0.039 A 
ATOM     31  C   UNL     1      -1.969   9.476  -9.369  1.00  0.00     0.014 A 
ATOM     32  C   UNL     1      -0.475  10.371  -7.703  1.00  0.00     0.014 A 
ATOM     33  C   UNL     1      -2.959  10.368  -8.947  1.00  0.00     0.010 A 
ATOM     34  C   UNL     1      -1.503  11.154  -7.191  1.00  0.00     0.010 A 
ATOM     35  C   UNL     1      -2.758  11.172  -7.812  1.00  0.00    -0.014 A 
BRANCH  35  36
ATOM     36  C   UNL     1      -3.842  12.030  -7.265  1.00  0.00     0.031 A 
ATOM     37  C   UNL     1      -3.646  13.520  -7.136  1.00  0.00     0.074 A 
ATOM     38  C   UNL     1      -4.986  11.461  -6.833  1.00  0.00     0.049 A 
ATOM     39  N   UNL     1      -4.471  14.421  -6.668  1.00  0.00    -0.248 NA
ATOM     40  C   UNL     1      -2.345  14.067  -7.560  1.00  0.00     0.031 C 
ATOM     41  C   UNL     1      -5.277  10.024  -6.848  1.00  0.00     0.029 A 
ATOM     42  N   UNL     1      -6.122  12.019  -6.300  1.00  0.00    -0.354 N 
ATOM     43  C   UNL     1      -3.788  15.630  -6.729  1.00  0.00     0.074 A 
ATOM     44  C   UNL     1      -2.458  15.341  -7.214  1.00  0.00     0.031 C 
ATOM     45  C   UNL     1      -6.525   9.821  -6.398  1.00  0.00     0.029 A 
ATOM     46  C   UNL     1      -7.105  11.101  -6.009  1.00  0.00     0.049 A 
ATOM     47  H   UNL     1      -6.223  12.985  -6.141  1.00  0.00     0.167 HD
ATOM     48  C   UNL     1      -4.233  16.875  -6.434  1.00  0.00     0.031 A 
ATOM     49  C   UNL     1      -8.335  11.268  -5.484  1.00  0.00     0.031 A 
ATOM     50  C   UNL     1      -5.560  17.159  -5.955  1.00  0.00     0.049 A 
ATOM     51  C   UNL     1      -8.800  12.658  -5.146  1.00  0.00     0.074 A 
ATOM     52  C   UNL     1      -6.129  18.390  -5.683  1.00  0.00     0.029 A 
ATOM     53  N   UNL     1      -6.522  16.202  -5.668  1.00  0.00    -0.354 N 
ATOM     54  N   UNL     1      -8.166  13.797  -5.293  1.00  0.00    -0.248 NA
ATOM     55  C   UNL     1     -10.150  12.785  -4.582  1.00  0.00     0.031 C 
ATOM     56  C   UNL     1      -7.407  18.173  -5.160  1.00  0.00     0.029 A 
ATOM     57  C   UNL     1      -7.667  16.812  -5.185  1.00  0.00     0.049 A 
ATOM     58  H   UNL     1      -6.407  15.231  -5.790  1.00  0.00     0.167 HD
ATOM     59  C   UNL     1      -9.052  14.780  -4.864  1.00  0.00     0.074 A 
ATOM     60  C   UNL     1     -10.273  14.101  -4.478  1.00  0.00     0.031 C 
ATOM     61  C   UNL     1      -8.872  16.123  -4.795  1.00  0.00     0.031 A 
BRANCH  48  62
ATOM     62  C   UNL     1      -3.273  18.025  -6.615  1.00  0.00    -0.014 A 
ATOM     63  C   UNL     1      -2.825  18.410  -7.892  1.00  0.00     0.010 A 
ATOM     64  C   UNL     1      -2.848  18.761  -5.494  1.00  0.00     0.010 A 
ATOM     65  C   UNL     1      -1.940  19.482  -8.040  1.00  0.00     0.020 A 
ATOM     66  C   UNL     1      -1.992  19.856  -5.640  1.00  0.00     0.020 A 
ATOM     67  C   UNL     1      -1.531  20.200  -6.912  1.00  0.00     0.054 A 
BRANCH  67  68
ATOM     68  S   UNL     1      -0.409  21.607  -7.141  1.00  0.00     0.124 S 
ATOM     69  O   UNL     1       0.831  20.942  -7.535  1.00  0.00    -0.237 OA
ATOM     70  O   UNL     1      -1.072  22.373  -8.193  1.00  0.00    -0.237 OA
ATOM     71  O   UNL     1      -0.382  22.247  -5.828  1.00  0.00    -0.744 OA
ENDBRANCH  67  68
ENDBRANCH  48  62
BRANCH  49  72
ATOM     72  C   UNL     1      -9.215  10.086  -5.254  1.00  0.00    -0.014 A 
ATOM     73  C   UNL     1     -10.395   9.912  -5.998  1.00  0.00     0.010 A 
ATOM     74  C   UNL     1      -8.870   9.122  -4.288  1.00  0.00     0.010 A 
ATOM     75  C   UNL     1     -11.223   8.809  -5.767  1.00  0.00     0.020 A 
ATOM     76  C   UNL     1      -9.676   7.999  -4.080  1.00  0.00     0.020 A 
ATOM     77  C   UNL     1     -10.855   7.856  -4.813  1.00  0.00     0.054 A 
BRANCH  77  78
ATOM     78  S   UNL     1     -11.918   6.407  -4.568  1.00  0.00     0.124 S 
ATOM     79  O   UNL     1     -13.091   6.994  -3.930  1.00  0.00    -0.237 OA
ATOM     80  O   UNL     1     -12.112   5.926  -5.934  1.00  0.00    -0.237 OA
ATOM     81  O   UNL     1     -11.113   5.532  -3.717  1.00  0.00    -0.744 OA
ENDBRANCH  77  78
ENDBRANCH  49  72
BRANCH  61  82
ATOM     82  C   UNL     1     -10.033  16.953  -4.312  1.00  0.00    -0.014 A 
ATOM     83  C   UNL     1     -10.471  16.895  -2.976  1.00  0.00     0.010 A 
ATOM     84  C   UNL     1     -10.670  17.837  -5.202  1.00  0.00     0.010 A 
ATOM     85  C   UNL     1     -11.552  17.673  -2.553  1.00  0.00     0.020 A 
ATOM     86  C   UNL     1     -11.726  18.645  -4.773  1.00  0.00     0.020 A 
ATOM     87  C   UNL     1     -12.171  18.544  -3.454  1.00  0.00     0.054 A 
BRANCH  87  88
ATOM     88  S   UNL     1     -13.551  19.564  -2.870  1.00  0.00     0.124 S 
ATOM     89  O   UNL     1     -14.605  18.571  -2.682  1.00  0.00    -0.237 OA
ATOM     90  O   UNL     1     -13.015  20.152  -1.645  1.00  0.00    -0.237 OA
ATOM     91  O   UNL     1     -13.773  20.508  -3.963  1.00  0.00    -0.744 OA
ENDBRANCH  87  88
ENDBRANCH  61  82
ENDBRANCH  35  36
ENDBRANCH  27  30
ENDBRANCH  25  26
ENDBRANCH   1  25
TORSDOF 16
