REMARK SMILES Cc1ccc(Cl)c(Nc2ccccc2C(=O)NCC(=O)NCCCNC(=O)c2ccc(-c3c4nc(c(-c5ccc(S(=O)(=O)[O-])cc5)c5ccc([nH]5)c(-c5ccc(S(=O)(=O)[O-])cc5)c5nc(c(-c6ccc(S(=O)(=O)[O-])cc6)c6ccc3[nH]6)C=C5)C=C4)cc2)c1Cl
REMARK SMILES IDX 22 1 21 2 19 3 20 4 18 6 17 7 15 8 16 9 14 11 9 12 10 13
REMARK SMILES IDX 11 14 13 15 12 16 8 17 7 19 1 20 2 21 3 22 88 23 4 24 89 25
REMARK SMILES IDX 5 26 6 27 23 28 24 29 25 30 26 31 27 33 28 34 29 35 87 36
REMARK SMILES IDX 30 37 86 38 31 39 32 40 33 41 80 42 34 43 85 44 79 45 81 46
REMARK SMILES IDX 35 47 84 48 78 49 77 50 36 52 66 53 47 54 65 55 48 56 51 57
REMARK SMILES IDX 64 58 82 59 49 60 50 61 63 63 83 64 52 65 37 66 38 67 46 68
REMARK SMILES IDX 39 69 45 70 40 71 41 72 42 73 43 74 44 75 67 76 68 77 76 78
REMARK SMILES IDX 69 79 75 80 70 81 71 82 72 83 73 84 74 85 53 86 54 87 62 88
REMARK SMILES IDX 55 89 61 90 56 91 57 92 58 93 59 94 60 95
REMARK H PARENT 21 5 17 10 8 18 25 32 81 51 51 62
REMARK Flexibility Score: inf
ROOT
ATOM      1  C   UNL     1      -1.740  -3.598   2.301  1.00  0.00     0.117 C 
ENDROOT
BRANCH   1   2
ATOM      2  N   UNL     1      -2.604  -2.442   2.320  1.00  0.00    -0.355 N 
ATOM      3  C   UNL     1      -2.222  -1.135   2.328  1.00  0.00     0.239 C 
ATOM      4  O   UNL     1      -3.091  -0.271   2.471  1.00  0.00    -0.273 OA
ATOM      5  H   UNL     1      -3.573  -2.617   2.329  1.00  0.00     0.163 HD
BRANCH   3   6
ATOM      6  C   UNL     1      -0.812  -0.775   1.873  1.00  0.00     0.216 C 
BRANCH   6   7
ATOM      7  N   UNL     1       0.407  -1.307   2.438  1.00  0.00    -0.343 N 
ATOM      8  C   UNL     1       1.508  -1.875   1.836  1.00  0.00     0.253 C 
ATOM      9  O   UNL     1       2.582  -1.664   2.411  1.00  0.00    -0.269 OA
ATOM     10  H   UNL     1       0.459  -1.255   3.420  1.00  0.00     0.164 HD
BRANCH   8  11
ATOM     11  C   UNL     1       1.495  -2.891   0.721  1.00  0.00     0.063 A 
ATOM     12  C   UNL     1       0.792  -2.933  -0.507  1.00  0.00     0.051 A 
ATOM     13  C   UNL     1       0.915  -4.102  -1.306  1.00  0.00     0.027 A 
ATOM     14  C   UNL     1       1.754  -5.162  -0.969  1.00  0.00     0.002 A 
ATOM     15  C   UNL     1       2.351  -3.985   1.029  1.00  0.00     0.016 A 
ATOM     16  C   UNL     1       2.494  -5.093   0.194  1.00  0.00     0.001 A 
BRANCH  12  17
ATOM     17  N   UNL     1       0.066  -1.903  -1.145  1.00  0.00    -0.352 N 
ATOM     18  H   UNL     1      -0.696  -2.234  -1.675  1.00  0.00     0.167 HD
BRANCH  17  19
ATOM     19  C   UNL     1       0.205  -0.493  -1.180  1.00  0.00     0.077 A 
ATOM     20  C   UNL     1       2.680   2.225  -0.125  1.00  0.00     0.046 C 
ATOM     21  C   UNL     1       1.415   1.540  -0.566  1.00  0.00    -0.030 A 
ATOM     22  C   UNL     1       0.207   2.252  -0.553  1.00  0.00     0.006 A 
ATOM     23  C   UNL     1       1.414   0.179  -0.927  1.00  0.00     0.069 A 
ATOM     24  C   UNL     1      -0.981   1.639  -0.939  1.00  0.00     0.023 A 
ATOM     25  Cl  UNL     1       2.937  -0.629  -1.159  1.00  0.00    -0.082 Cl
ATOM     26  C   UNL     1      -0.979   0.284  -1.263  1.00  0.00     0.066 A 
ATOM     27  Cl  UNL     1      -2.504  -0.462  -1.626  1.00  0.00    -0.082 Cl
ENDBRANCH  17  19
ENDBRANCH  12  17
ENDBRANCH   8  11
ENDBRANCH   6   7
ENDBRANCH   3   6
ENDBRANCH   1   2
BRANCH   1  28
ATOM     28  C   UNL     1      -1.245  -3.913   3.703  1.00  0.00     0.042 C 
BRANCH  28  29
ATOM     29  C   UNL     1      -2.395  -4.232   4.644  1.00  0.00     0.118 C 
BRANCH  29  30
ATOM     30  N   UNL     1      -3.103  -5.438   4.242  1.00  0.00    -0.352 N 
ATOM     31  C   UNL     1      -3.401  -6.543   4.996  1.00  0.00     0.251 C 
ATOM     32  H   UNL     1      -3.408  -5.464   3.306  1.00  0.00     0.163 HD
ATOM     33  O   UNL     1      -3.795  -7.569   4.460  1.00  0.00    -0.269 OA
BRANCH  31  34
ATOM     34  C   UNL     1      -3.219  -6.471   6.458  1.00  0.00     0.039 A 
ATOM     35  C   UNL     1      -2.585  -7.526   7.114  1.00  0.00     0.014 A 
ATOM     36  C   UNL     1      -3.649  -5.344   7.167  1.00  0.00     0.014 A 
ATOM     37  C   UNL     1      -2.344  -7.430   8.483  1.00  0.00     0.010 A 
ATOM     38  C   UNL     1      -3.322  -5.211   8.509  1.00  0.00     0.010 A 
ATOM     39  C   UNL     1      -2.686  -6.261   9.184  1.00  0.00    -0.014 A 
BRANCH  39  40
ATOM     40  C   UNL     1      -2.407  -6.129  10.634  1.00  0.00     0.031 A 
ATOM     41  C   UNL     1      -3.546  -5.969  11.603  1.00  0.00     0.074 A 
ATOM     42  C   UNL     1      -1.131  -6.105  11.066  1.00  0.00     0.049 A 
ATOM     43  N   UNL     1      -3.507  -5.810  12.901  1.00  0.00    -0.248 NA
ATOM     44  C   UNL     1      -4.908  -5.957  11.040  1.00  0.00     0.031 C 
ATOM     45  C   UNL     1       0.056  -6.204  10.212  1.00  0.00     0.029 A 
ATOM     46  N   UNL     1      -0.619  -5.990  12.333  1.00  0.00    -0.354 N 
ATOM     47  C   UNL     1      -4.829  -5.665  13.304  1.00  0.00     0.074 A 
ATOM     48  C   UNL     1      -5.643  -5.693  12.110  1.00  0.00     0.031 C 
ATOM     49  C   UNL     1       1.155  -6.184  10.983  1.00  0.00     0.029 A 
ATOM     50  C   UNL     1       0.754  -6.026  12.378  1.00  0.00     0.049 A 
ATOM     51  H   UNL     1      -1.182  -5.892  13.134  1.00  0.00     0.167 HD
ATOM     52  C   UNL     1      -5.324  -5.544  14.558  1.00  0.00     0.031 A 
ATOM     53  C   UNL     1       1.597  -5.939  13.425  1.00  0.00     0.031 A 
ATOM     54  C   UNL     1      -4.506  -5.529  15.741  1.00  0.00     0.049 A 
ATOM     55  C   UNL     1       1.024  -5.796  14.808  1.00  0.00     0.074 A 
ATOM     56  C   UNL     1      -4.909  -5.467  17.063  1.00  0.00     0.029 A 
ATOM     57  N   UNL     1      -3.120  -5.572  15.745  1.00  0.00    -0.354 N 
ATOM     58  N   UNL     1      -0.234  -5.734  15.177  1.00  0.00    -0.248 NA
ATOM     59  C   UNL     1       1.982  -5.726  15.918  1.00  0.00     0.031 C 
ATOM     60  C   UNL     1      -3.764  -5.414  17.864  1.00  0.00     0.029 A 
ATOM     61  C   UNL     1      -2.650  -5.512  17.046  1.00  0.00     0.049 A 
ATOM     62  H   UNL     1      -2.554  -5.637  14.942  1.00  0.00     0.167 HD
ATOM     63  C   UNL     1      -0.218  -5.646  16.564  1.00  0.00     0.074 A 
ATOM     64  C   UNL     1       1.173  -5.682  16.968  1.00  0.00     0.031 C 
ATOM     65  C   UNL     1      -1.260  -5.547  17.427  1.00  0.00     0.031 A 
BRANCH  52  66
ATOM     66  C   UNL     1      -6.817  -5.415  14.710  1.00  0.00    -0.014 A 
ATOM     67  C   UNL     1      -7.676  -6.491  14.415  1.00  0.00     0.010 A 
ATOM     68  C   UNL     1      -7.370  -4.213  15.188  1.00  0.00     0.010 A 
ATOM     69  C   UNL     1      -9.059  -6.353  14.554  1.00  0.00     0.020 A 
ATOM     70  C   UNL     1      -8.751  -4.082  15.359  1.00  0.00     0.020 A 
ATOM     71  C   UNL     1      -9.588  -5.148  15.025  1.00  0.00     0.054 A 
BRANCH  71  72
ATOM     72  S   UNL     1     -11.386  -5.008  15.221  1.00  0.00     0.124 S 
ATOM     73  O   UNL     1     -11.837  -4.955  13.833  1.00  0.00    -0.237 OA
ATOM     74  O   UNL     1     -11.724  -6.230  15.945  1.00  0.00    -0.237 OA
ATOM     75  O   UNL     1     -11.557  -3.771  15.979  1.00  0.00    -0.744 OA
ENDBRANCH  71  72
ENDBRANCH  52  66
BRANCH  53  76
ATOM     76  C   UNL     1       3.068  -6.003  13.204  1.00  0.00    -0.014 A 
ATOM     77  C   UNL     1       3.808  -7.117  13.637  1.00  0.00     0.010 A 
ATOM     78  C   UNL     1       3.736  -4.954  12.546  1.00  0.00     0.010 A 
ATOM     79  C   UNL     1       5.191  -7.171  13.436  1.00  0.00     0.020 A 
ATOM     80  C   UNL     1       5.113  -5.018  12.316  1.00  0.00     0.020 A 
ATOM     81  C   UNL     1       5.834  -6.121  12.774  1.00  0.00     0.054 A 
BRANCH  81  82
ATOM     82  S   UNL     1       7.622  -6.234  12.486  1.00  0.00     0.124 S 
ATOM     83  O   UNL     1       8.159  -6.034  13.828  1.00  0.00    -0.237 OA
ATOM     84  O   UNL     1       7.767  -7.582  11.940  1.00  0.00    -0.237 OA
ATOM     85  O   UNL     1       7.885  -5.154  11.538  1.00  0.00    -0.744 OA
ENDBRANCH  81  82
ENDBRANCH  53  76
BRANCH  65  86
ATOM     86  C   UNL     1      -0.939  -5.507  18.898  1.00  0.00    -0.014 A 
ATOM     87  C   UNL     1      -0.337  -4.381  19.486  1.00  0.00     0.010 A 
ATOM     88  C   UNL     1      -1.298  -6.597  19.713  1.00  0.00     0.010 A 
ATOM     89  C   UNL     1      -0.068  -4.360  20.857  1.00  0.00     0.020 A 
ATOM     90  C   UNL     1      -1.060  -6.566  21.088  1.00  0.00     0.020 A 
ATOM     91  C   UNL     1      -0.432  -5.453  21.649  1.00  0.00     0.054 A 
BRANCH  91  92
ATOM     92  S   UNL     1      -0.108  -5.383  23.432  1.00  0.00     0.124 S 
ATOM     93  O   UNL     1       1.343  -5.538  23.484  1.00  0.00    -0.237 OA
ATOM     94  O   UNL     1      -0.613  -4.061  23.797  1.00  0.00    -0.237 OA
ATOM     95  O   UNL     1      -0.875  -6.506  23.968  1.00  0.00    -0.744 OA
ENDBRANCH  91  92
ENDBRANCH  65  86
ENDBRANCH  39  40
ENDBRANCH  31  34
ENDBRANCH  29  30
ENDBRANCH  28  29
ENDBRANCH   1  28
TORSDOF 17
