REMARK SMILES O=C(CCc1cccnc1)Nc1ccsc1C(=O)NCCCNC(=O)c1ccc(-c2c3nc(c(-c4ccc(S(=O)(=O)[O-])cc4)c4ccc([nH]4)c(-c4ccc(S(=O)(=O)[O-])cc4)c4nc(c(-c5ccc(S(=O)(=O)[O-])cc5)c5ccc2[nH]5)C=C4)C=C3)cc1
REMARK SMILES IDX 20 1 19 2 17 3 18 4 16 6 12 7 13 8 14 9 15 10 11 11 1 12
REMARK SMILES IDX 2 13 3 15 4 16 5 17 6 18 10 19 7 20 9 21 8 22 21 23 22 24
REMARK SMILES IDX 23 25 24 26 25 28 26 29 27 30 85 31 28 32 84 33 29 34 30 35
REMARK SMILES IDX 31 36 78 37 32 38 83 39 77 40 79 41 33 42 82 43 76 44 75 45
REMARK SMILES IDX 34 47 64 48 45 49 63 50 46 51 49 52 62 53 80 54 47 55 48 56
REMARK SMILES IDX 61 58 81 59 50 60 35 61 36 62 44 63 37 64 43 65 38 66 39 67
REMARK SMILES IDX 40 68 41 69 42 70 65 71 66 72 74 73 67 74 73 75 68 76 69 77
REMARK SMILES IDX 70 78 71 79 72 80 51 81 52 82 60 83 53 84 59 85 54 86 55 87
REMARK SMILES IDX 56 88 57 89 58 90
REMARK H PARENT 19 5 11 14 23 27 79 46 49 57
REMARK Flexibility Score: inf
ROOT
ATOM      1  C   UNL     1       3.248   1.810   1.949  1.00  0.00     0.118 C 
ENDROOT
BRANCH   1   2
ATOM      2  N   UNL     1       3.839   1.338   3.184  1.00  0.00    -0.351 N 
ATOM      3  C   UNL     1       3.519   0.204   3.919  1.00  0.00     0.263 C 
ATOM      4  O   UNL     1       4.186   0.020   4.940  1.00  0.00    -0.268 OA
ATOM      5  H   UNL     1       4.563   1.895   3.552  1.00  0.00     0.163 HD
BRANCH   3   6
ATOM      6  C   UNL     1       2.435  -0.679   3.500  1.00  0.00     0.115 A 
ATOM      7  C   UNL     1       2.103  -1.234   2.270  1.00  0.00     0.065 A 
ATOM      8  C   UNL     1       0.846  -1.911   2.311  1.00  0.00     0.038 A 
ATOM      9  C   UNL     1       0.334  -1.986   3.585  1.00  0.00     0.068 A 
ATOM     10  S   UNL     1       1.317  -1.172   4.715  1.00  0.00    -0.137 S 
BRANCH   7  11
ATOM     11  N   UNL     1       2.938  -1.155   1.165  1.00  0.00    -0.325 N 
ATOM     12  O   UNL     1       1.372  -1.239  -0.522  1.00  0.00    -0.275 OA
ATOM     13  C   UNL     1       2.543  -1.175  -0.152  1.00  0.00     0.224 C 
ATOM     14  H   UNL     1       3.904  -1.078   1.340  1.00  0.00     0.169 HD
BRANCH  13  15
ATOM     15  C   UNL     1       3.669  -1.126  -1.186  1.00  0.00     0.105 C 
BRANCH  15  16
ATOM     16  C   UNL     1       4.977  -0.405  -0.833  1.00  0.00     0.047 C 
BRANCH  16  17
ATOM     17  C   UNL     1       5.893  -1.140   0.117  1.00  0.00    -0.029 A 
ATOM     18  C   UNL     1       6.213  -0.645   1.387  1.00  0.00     0.007 A 
ATOM     19  C   UNL     1       6.464  -2.357  -0.230  1.00  0.00     0.114 A 
ATOM     20  C   UNL     1       7.060  -1.344   2.236  1.00  0.00     0.020 A 
ATOM     21  N   UNL     1       7.277  -3.075   0.580  1.00  0.00    -0.264 NA
ATOM     22  C   UNL     1       7.564  -2.546   1.789  1.00  0.00     0.111 A 
ENDBRANCH  16  17
ENDBRANCH  15  16
ENDBRANCH  13  15
ENDBRANCH   7  11
ENDBRANCH   3   6
ENDBRANCH   1   2
BRANCH   1  23
ATOM     23  C   UNL     1       3.568   3.238   1.529  1.00  0.00     0.042 C 
BRANCH  23  24
ATOM     24  C   UNL     1       5.026   3.691   1.395  1.00  0.00     0.118 C 
BRANCH  24  25
ATOM     25  N   UNL     1       5.951   2.834   0.664  1.00  0.00    -0.352 N 
ATOM     26  C   UNL     1       6.824   3.024  -0.391  1.00  0.00     0.251 C 
ATOM     27  H   UNL     1       5.956   1.909   0.999  1.00  0.00     0.163 HD
ATOM     28  O   UNL     1       7.543   2.100  -0.727  1.00  0.00    -0.269 OA
BRANCH  26  29
ATOM     29  C   UNL     1       6.840   4.282  -1.166  1.00  0.00     0.039 A 
ATOM     30  C   UNL     1       6.986   4.202  -2.558  1.00  0.00     0.014 A 
ATOM     31  C   UNL     1       6.640   5.514  -0.559  1.00  0.00     0.014 A 
ATOM     32  C   UNL     1       6.722   5.322  -3.345  1.00  0.00     0.010 A 
ATOM     33  C   UNL     1       6.258   6.593  -1.337  1.00  0.00     0.010 A 
ATOM     34  C   UNL     1       6.247   6.489  -2.736  1.00  0.00    -0.014 A 
BRANCH  34  35
ATOM     35  C   UNL     1       5.639   7.594  -3.511  1.00  0.00     0.031 A 
ATOM     36  C   UNL     1       6.203   8.977  -3.384  1.00  0.00     0.074 A 
ATOM     37  C   UNL     1       4.479   7.367  -4.161  1.00  0.00     0.049 A 
ATOM     38  N   UNL     1       5.684  10.116  -3.754  1.00  0.00    -0.248 NA
ATOM     39  C   UNL     1       7.499   9.096  -2.694  1.00  0.00     0.031 C 
ATOM     40  C   UNL     1       3.809   6.066  -4.282  1.00  0.00     0.029 A 
ATOM     41  N   UNL     1       3.635   8.227  -4.815  1.00  0.00    -0.354 N 
ATOM     42  C   UNL     1       6.562  11.091  -3.296  1.00  0.00     0.074 A 
ATOM     43  C   UNL     1       7.625  10.410  -2.591  1.00  0.00     0.031 C 
ATOM     44  C   UNL     1       2.672   6.213  -4.978  1.00  0.00     0.029 A 
ATOM     45  C   UNL     1       2.502   7.621  -5.308  1.00  0.00     0.049 A 
ATOM     46  H   UNL     1       3.822   9.188  -4.922  1.00  0.00     0.167 HD
ATOM     47  C   UNL     1       6.486  12.432  -3.459  1.00  0.00     0.031 A 
ATOM     48  C   UNL     1       1.434   8.148  -5.936  1.00  0.00     0.031 A 
ATOM     49  C   UNL     1       5.434  13.079  -4.195  1.00  0.00     0.049 A 
ATOM     50  C   UNL     1       1.403   9.632  -6.161  1.00  0.00     0.074 A 
ATOM     51  C   UNL     1       5.292  14.419  -4.501  1.00  0.00     0.029 A 
ATOM     52  N   UNL     1       4.345  12.420  -4.750  1.00  0.00    -0.354 N 
ATOM     53  N   UNL     1       2.274  10.537  -5.776  1.00  0.00    -0.248 NA
ATOM     54  C   UNL     1       0.256  10.169  -6.902  1.00  0.00     0.031 C 
ATOM     55  C   UNL     1       4.099  14.575  -5.217  1.00  0.00     0.029 A 
ATOM     56  C   UNL     1       3.518  13.326  -5.388  1.00  0.00     0.049 A 
ATOM     57  H   UNL     1       4.186  11.450  -4.698  1.00  0.00     0.167 HD
ATOM     58  C   UNL     1       1.783  11.751  -6.235  1.00  0.00     0.074 A 
ATOM     59  C   UNL     1       0.552  11.461  -6.945  1.00  0.00     0.031 C 
ATOM     60  C   UNL     1       2.297  12.996  -6.079  1.00  0.00     0.031 A 
BRANCH  47  61
ATOM     61  C   UNL     1       7.565  13.265  -2.821  1.00  0.00    -0.014 A 
ATOM     62  C   UNL     1       8.890  13.226  -3.294  1.00  0.00     0.010 A 
ATOM     63  C   UNL     1       7.258  14.083  -1.718  1.00  0.00     0.010 A 
ATOM     64  C   UNL     1       9.899  13.935  -2.638  1.00  0.00     0.020 A 
ATOM     65  C   UNL     1       8.261  14.818  -1.076  1.00  0.00     0.020 A 
ATOM     66  C   UNL     1       9.579  14.718  -1.525  1.00  0.00     0.054 A 
BRANCH  66  67
ATOM     67  S   UNL     1      10.910  15.616  -0.681  1.00  0.00     0.124 S 
ATOM     68  O   UNL     1      11.563  14.546   0.070  1.00  0.00    -0.237 OA
ATOM     69  O   UNL     1      11.684  16.166  -1.791  1.00  0.00    -0.237 OA
ATOM     70  O   UNL     1      10.201  16.603   0.129  1.00  0.00    -0.744 OA
ENDBRANCH  66  67
ENDBRANCH  47  61
BRANCH  48  71
ATOM     71  C   UNL     1       0.331   7.264  -6.402  1.00  0.00    -0.014 A 
ATOM     72  C   UNL     1       0.192   6.968  -7.769  1.00  0.00     0.010 A 
ATOM     73  C   UNL     1      -0.556   6.672  -5.483  1.00  0.00     0.010 A 
ATOM     74  C   UNL     1      -0.816   6.105  -8.211  1.00  0.00     0.020 A 
ATOM     75  C   UNL     1      -1.551   5.790  -5.918  1.00  0.00     0.020 A 
ATOM     76  C   UNL     1      -1.679   5.518  -7.282  1.00  0.00     0.054 A 
BRANCH  76  77
ATOM     77  S   UNL     1      -2.933   4.344  -7.872  1.00  0.00     0.124 S 
ATOM     78  O   UNL     1      -3.922   5.233  -8.473  1.00  0.00    -0.237 OA
ATOM     79  O   UNL     1      -2.175   3.516  -8.807  1.00  0.00    -0.237 OA
ATOM     80  O   UNL     1      -3.361   3.661  -6.654  1.00  0.00    -0.744 OA
ENDBRANCH  76  77
ENDBRANCH  48  71
BRANCH  60  81
ATOM     81  C   UNL     1       1.527  14.129  -6.693  1.00  0.00    -0.014 A 
ATOM     82  C   UNL     1       0.359  14.615  -6.082  1.00  0.00     0.010 A 
ATOM     83  C   UNL     1       2.017  14.756  -7.852  1.00  0.00     0.010 A 
ATOM     84  C   UNL     1      -0.319  15.704  -6.632  1.00  0.00     0.020 A 
ATOM     85  C   UNL     1       1.354  15.858  -8.392  1.00  0.00     0.020 A 
ATOM     86  C   UNL     1       0.184  16.319  -7.783  1.00  0.00     0.054 A 
BRANCH  86  87
ATOM     87  S   UNL     1      -0.678  17.772  -8.443  1.00  0.00     0.124 S 
ATOM     88  O   UNL     1      -1.828  17.165  -9.106  1.00  0.00    -0.237 OA
ATOM     89  O   UNL     1      -0.979  18.541  -7.238  1.00  0.00    -0.237 OA
ATOM     90  O   UNL     1       0.307  18.381  -9.333  1.00  0.00    -0.744 OA
ENDBRANCH  86  87
ENDBRANCH  60  81
ENDBRANCH  34  35
ENDBRANCH  26  29
ENDBRANCH  24  25
ENDBRANCH  23  24
ENDBRANCH   1  23
TORSDOF 17
