REMARK SMILES CC[C@H](C(=O)NCCCNC(=O)c1ccc(-c2c3nc(c(-c4ccc(S(=O)(=O)[O-])cc4)c4ccc([nH]4)c(-c4ccc(S(=O)(=O)[O-])cc4)c4nc(c(-c5ccc(S(=O)(=O)[O-])cc5)c5ccc2[nH]5)C=C4)C=C3)cc1)N1C(=O)/C(=C\c2cc(OC)ccc2OC)SC1=S
REMARK SMILES IDX 8 1 7 2 6 3 4 4 5 5 3 7 2 8 1 9 73 10 74 11 89 12 75 13
REMARK SMILES IDX 76 14 88 15 90 16 77 17 78 18 79 19 85 20 80 21 84 22 83 23
REMARK SMILES IDX 86 24 87 25 81 26 82 27 9 28 10 29 11 30 12 32 13 33 14 34
REMARK SMILES IDX 72 35 15 36 71 37 16 38 17 39 18 40 65 41 19 42 70 43 64 44
REMARK SMILES IDX 66 45 20 46 69 47 63 48 62 49 21 51 51 52 32 53 50 54 33 55
REMARK SMILES IDX 36 56 49 57 67 58 34 59 35 60 48 62 68 63 37 64 22 65 23 66
REMARK SMILES IDX 31 67 24 68 30 69 25 70 26 71 27 72 28 73 29 74 52 75 53 76
REMARK SMILES IDX 61 77 54 78 60 79 55 80 56 81 57 82 58 83 59 84 38 85 39 86
REMARK SMILES IDX 47 87 40 88 46 89 41 90 42 91 43 92 44 93 45 94
REMARK H PARENT 6 6 10 31 66 50 36 61
REMARK Flexibility Score: inf
ROOT
ATOM      1  C   UNL     1      -2.563  -1.615   1.400  1.00  0.00     0.042 C 
ENDROOT
BRANCH   1   2
ATOM      2  C   UNL     1      -1.883  -2.081   0.116  1.00  0.00     0.117 C 
BRANCH   2   3
ATOM      3  N   UNL     1      -0.937  -1.092  -0.368  1.00  0.00    -0.354 N 
ATOM      4  C   UNL     1       0.421  -1.117  -0.467  1.00  0.00     0.243 C 
ATOM      5  O   UNL     1       0.979  -0.069  -0.808  1.00  0.00    -0.273 OA
ATOM      6  H   UNL     1      -1.351  -0.255  -0.679  1.00  0.00     0.163 HD
BRANCH   4   7
ATOM      7  C   UNL     1       1.263  -2.349  -0.081  1.00  0.00     0.181 C 
BRANCH   7   8
ATOM      8  C   UNL     1       1.175  -2.484   1.474  1.00  0.00     0.032 C 
ATOM      9  C   UNL     1       1.767  -1.297   2.224  1.00  0.00     0.006 C 
ENDBRANCH   7   8
BRANCH   7  10
ATOM     10  N   UNL     1       0.921  -3.613  -0.797  1.00  0.00    -0.280 N 
ATOM     11  C   UNL     1       1.542  -4.769  -0.352  1.00  0.00     0.266 C 
ATOM     12  C   UNL     1       0.487  -3.741  -2.107  1.00  0.00     0.149 C 
ATOM     13  O   UNL     1       2.527  -4.823   0.374  1.00  0.00    -0.268 OA
ATOM     14  C   UNL     1       0.998  -5.957  -1.050  1.00  0.00     0.081 C 
ATOM     15  S   UNL     1       0.274  -5.453  -2.514  1.00  0.00    -0.054 SA
ATOM     16  S   UNL     1       0.158  -2.589  -3.267  1.00  0.00    -0.052 S 
ATOM     17  C   UNL     1       1.006  -7.217  -0.599  1.00  0.00     0.033 C 
BRANCH  17  18
ATOM     18  C   UNL     1       1.516  -7.598   0.724  1.00  0.00     0.021 A 
ATOM     19  C   UNL     1       2.720  -8.323   0.751  1.00  0.00     0.058 A 
ATOM     20  C   UNL     1       0.924  -7.212   1.938  1.00  0.00     0.126 A 
ATOM     21  C   UNL     1       3.351  -8.642   1.958  1.00  0.00     0.119 A 
ATOM     22  C   UNL     1       1.566  -7.524   3.142  1.00  0.00     0.051 A 
ATOM     23  C   UNL     1       2.770  -8.236   3.156  1.00  0.00     0.050 A 
BRANCH  20  24
ATOM     24  O   UNL     1      -0.200  -6.443   2.092  1.00  0.00    -0.496 OA
ATOM     25  C   UNL     1      -1.319  -6.762   1.274  1.00  0.00     0.278 C 
ENDBRANCH  20  24
BRANCH  21  26
ATOM     26  O   UNL     1       4.527  -9.328   1.824  1.00  0.00    -0.497 OA
ATOM     27  C   UNL     1       5.213  -9.664   3.023  1.00  0.00     0.278 C 
ENDBRANCH  21  26
ENDBRANCH  17  18
ENDBRANCH   7  10
ENDBRANCH   4   7
ENDBRANCH   2   3
ENDBRANCH   1   2
BRANCH   1  28
ATOM     28  C   UNL     1      -3.511  -0.435   1.200  1.00  0.00     0.118 C 
BRANCH  28  29
ATOM     29  N   UNL     1      -4.694  -0.800   0.434  1.00  0.00    -0.352 N 
ATOM     30  C   UNL     1      -6.019  -0.627   0.748  1.00  0.00     0.251 C 
ATOM     31  H   UNL     1      -4.518  -1.233  -0.433  1.00  0.00     0.163 HD
ATOM     32  O   UNL     1      -6.881  -1.184   0.073  1.00  0.00    -0.269 OA
BRANCH  30  33
ATOM     33  C   UNL     1      -6.406   0.214   1.901  1.00  0.00     0.039 A 
ATOM     34  C   UNL     1      -7.405  -0.240   2.766  1.00  0.00     0.014 A 
ATOM     35  C   UNL     1      -5.800   1.455   2.118  1.00  0.00     0.014 A 
ATOM     36  C   UNL     1      -7.760   0.527   3.879  1.00  0.00     0.010 A 
ATOM     37  C   UNL     1      -6.107   2.186   3.263  1.00  0.00     0.010 A 
ATOM     38  C   UNL     1      -7.095   1.733   4.150  1.00  0.00    -0.014 A 
BRANCH  38  39
ATOM     39  C   UNL     1      -7.423   2.542   5.351  1.00  0.00     0.031 A 
ATOM     40  C   UNL     1      -8.019   3.915   5.196  1.00  0.00     0.074 A 
ATOM     41  C   UNL     1      -7.121   2.070   6.576  1.00  0.00     0.049 A 
ATOM     42  N   UNL     1      -8.310   4.797   6.117  1.00  0.00    -0.248 NA
ATOM     43  C   UNL     1      -8.300   4.365   3.823  1.00  0.00     0.031 C 
ATOM     44  C   UNL     1      -6.498   0.774   6.856  1.00  0.00     0.029 A 
ATOM     45  N   UNL     1      -7.287   2.632   7.817  1.00  0.00    -0.354 N 
ATOM     46  C   UNL     1      -8.781   5.913   5.437  1.00  0.00     0.074 A 
ATOM     47  C   UNL     1      -8.699   5.613   4.024  1.00  0.00     0.031 C 
ATOM     48  C   UNL     1      -6.356   0.632   8.183  1.00  0.00     0.029 A 
ATOM     49  C   UNL     1      -6.843   1.837   8.847  1.00  0.00     0.049 A 
ATOM     50  H   UNL     1      -7.686   3.521   7.956  1.00  0.00     0.167 HD
ATOM     51  C   UNL     1      -9.256   7.077   5.941  1.00  0.00     0.031 A 
ATOM     52  C   UNL     1      -6.827   2.054  10.176  1.00  0.00     0.031 A 
ATOM     53  C   UNL     1      -9.355   7.365   7.347  1.00  0.00     0.049 A 
ATOM     54  C   UNL     1      -7.379   3.343  10.716  1.00  0.00     0.074 A 
ATOM     55  C   UNL     1      -9.879   8.489   7.961  1.00  0.00     0.029 A 
ATOM     56  N   UNL     1      -8.923   6.520   8.358  1.00  0.00    -0.354 N 
ATOM     57  N   UNL     1      -7.878   4.363  10.058  1.00  0.00    -0.248 NA
ATOM     58  C   UNL     1      -7.378   3.506  12.176  1.00  0.00     0.031 C 
ATOM     59  C   UNL     1      -9.729   8.340   9.345  1.00  0.00     0.029 A 
ATOM     60  C   UNL     1      -9.153   7.103   9.592  1.00  0.00     0.049 A 
ATOM     61  H   UNL     1      -8.513   5.636   8.219  1.00  0.00     0.167 HD
ATOM     62  C   UNL     1      -8.271   5.280  11.026  1.00  0.00     0.074 A 
ATOM     63  C   UNL     1      -7.963   4.689  12.313  1.00  0.00     0.031 C 
ATOM     64  C   UNL     1      -8.838   6.501  10.863  1.00  0.00     0.031 A 
BRANCH  51  65
ATOM     65  C   UNL     1      -9.697   8.128   4.956  1.00  0.00    -0.014 A 
ATOM     66  C   UNL     1     -10.863   7.957   4.187  1.00  0.00     0.010 A 
ATOM     67  C   UNL     1      -8.945   9.306   4.806  1.00  0.00     0.010 A 
ATOM     68  C   UNL     1     -11.239   8.921   3.247  1.00  0.00     0.020 A 
ATOM     69  C   UNL     1      -9.332  10.286   3.886  1.00  0.00     0.020 A 
ATOM     70  C   UNL     1     -10.465  10.075   3.096  1.00  0.00     0.054 A 
BRANCH  70  71
ATOM     71  S   UNL     1     -10.973  11.311   1.870  1.00  0.00     0.124 S 
ATOM     72  O   UNL     1     -10.556  10.681   0.619  1.00  0.00    -0.237 OA
ATOM     73  O   UNL     1     -12.416  11.399   2.078  1.00  0.00    -0.237 OA
ATOM     74  O   UNL     1     -10.220  12.504   2.248  1.00  0.00    -0.744 OA
ENDBRANCH  70  71
ENDBRANCH  51  65
BRANCH  52  75
ATOM     75  C   UNL     1      -6.293   1.006  11.086  1.00  0.00    -0.014 A 
ATOM     76  C   UNL     1      -7.168   0.229  11.865  1.00  0.00     0.010 A 
ATOM     77  C   UNL     1      -4.911   0.752  11.148  1.00  0.00     0.010 A 
ATOM     78  C   UNL     1      -6.671  -0.779  12.696  1.00  0.00     0.020 A 
ATOM     79  C   UNL     1      -4.412  -0.271  11.960  1.00  0.00     0.020 A 
ATOM     80  C   UNL     1      -5.295  -1.026  12.735  1.00  0.00     0.054 A 
BRANCH  80  81
ATOM     81  S   UNL     1      -4.678  -2.390  13.760  1.00  0.00     0.124 S 
ATOM     82  O   UNL     1      -4.759  -1.822  15.102  1.00  0.00    -0.237 OA
ATOM     83  O   UNL     1      -5.628  -3.461  13.468  1.00  0.00    -0.237 OA
ATOM     84  O   UNL     1      -3.326  -2.613  13.252  1.00  0.00    -0.744 OA
ENDBRANCH  80  81
ENDBRANCH  52  75
BRANCH  64  85
ATOM     85  C   UNL     1      -9.187   7.270  12.107  1.00  0.00    -0.014 A 
ATOM     86  C   UNL     1      -8.192   7.894  12.879  1.00  0.00     0.010 A 
ATOM     87  C   UNL     1     -10.537   7.417  12.475  1.00  0.00     0.010 A 
ATOM     88  C   UNL     1      -8.539   8.630  14.014  1.00  0.00     0.020 A 
ATOM     89  C   UNL     1     -10.889   8.171  13.597  1.00  0.00     0.020 A 
ATOM     90  C   UNL     1      -9.886   8.762  14.367  1.00  0.00     0.054 A 
BRANCH  90  91
ATOM     91  S   UNL     1     -10.316   9.761  15.819  1.00  0.00     0.124 S 
ATOM     92  O   UNL     1      -9.971   8.863  16.918  1.00  0.00    -0.237 OA
ATOM     93  O   UNL     1      -9.456  10.933  15.671  1.00  0.00    -0.237 OA
ATOM     94  O   UNL     1     -11.744  10.020  15.649  1.00  0.00    -0.744 OA
ENDBRANCH  90  91
ENDBRANCH  64  85
ENDBRANCH  38  39
ENDBRANCH  30  33
ENDBRANCH  28  29
ENDBRANCH   1  28
TORSDOF 18
