REMARK SMILES O=C(NCCCNC(=O)[C@H]1CC[C@@H](CN2CC(=O)N3CCCC[C@H]3C2=O)O1)c1ccc(-c2c3nc(c(-c4ccc(S(=O)(=O)[O-])cc4)c4ccc([nH]4)c(-c4ccc(S(=O)(=O)[O-])cc4)c4nc(c(-c5ccc(S(=O)(=O)[O-])cc5)c5ccc2[nH]5)C=C4)C=C3)cc1
REMARK SMILES IDX 4 1 3 2 1 3 2 4 28 6 29 7 87 8 30 9 86 10 31 11 32 12 33 13
REMARK SMILES IDX 80 14 34 15 85 16 79 17 81 18 35 19 84 20 78 21 77 22 36 24
REMARK SMILES IDX 66 25 47 26 65 27 48 28 51 29 64 30 82 31 49 32 50 33 63 35
REMARK SMILES IDX 83 36 52 37 37 38 38 39 46 40 39 41 45 42 40 43 41 44 42 45
REMARK SMILES IDX 43 46 44 47 67 48 68 49 76 50 69 51 75 52 70 53 71 54 72 55
REMARK SMILES IDX 73 56 74 57 53 58 54 59 62 60 55 61 61 62 56 63 57 64 58 65
REMARK SMILES IDX 59 66 60 67 5 68 6 69 7 70 8 71 9 73 10 74 11 75 27 76 12 77
REMARK SMILES IDX 13 78 14 79 15 80 16 81 25 82 17 83 24 84 26 85 18 86 19 87
REMARK SMILES IDX 23 88 20 89 22 90 21 91
REMARK H PARENT 3 5 81 23 51 34 7 72
REMARK Flexibility Score: inf
ROOT
ATOM      1  C   UNL     1      10.169   3.975  -2.858  1.00  0.00     0.118 C 
ENDROOT
BRANCH   1   2
ATOM      2  N   UNL     1      10.503   5.198  -2.133  1.00  0.00    -0.352 N 
ATOM      3  O   UNL     1      11.339   6.516  -0.516  1.00  0.00    -0.269 OA
ATOM      4  C   UNL     1      11.346   5.418  -1.069  1.00  0.00     0.251 C 
ATOM      5  H   UNL     1      10.045   6.005  -2.463  1.00  0.00     0.163 HD
BRANCH   4   6
ATOM      6  C   UNL     1      12.240   4.348  -0.570  1.00  0.00     0.039 A 
ATOM      7  C   UNL     1      12.891   3.488  -1.451  1.00  0.00     0.014 A 
ATOM      8  C   UNL     1      12.468   4.226   0.807  1.00  0.00     0.014 A 
ATOM      9  C   UNL     1      13.609   2.405  -0.960  1.00  0.00     0.010 A 
ATOM     10  C   UNL     1      13.287   3.200   1.297  1.00  0.00     0.010 A 
ATOM     11  C   UNL     1      13.835   2.256   0.418  1.00  0.00    -0.014 A 
BRANCH  11  12
ATOM     12  C   UNL     1      14.709   1.142   0.875  1.00  0.00     0.031 A 
ATOM     13  C   UNL     1      14.184   0.029   1.742  1.00  0.00     0.074 A 
ATOM     14  C   UNL     1      15.979   1.102   0.421  1.00  0.00     0.049 A 
ATOM     15  N   UNL     1      14.791  -1.068   2.121  1.00  0.00    -0.248 NA
ATOM     16  C   UNL     1      12.812   0.160   2.256  1.00  0.00     0.031 C 
ATOM     17  C   UNL     1      16.610   2.138  -0.404  1.00  0.00     0.029 A 
ATOM     18  N   UNL     1      16.950   0.142   0.544  1.00  0.00    -0.354 N 
ATOM     19  C   UNL     1      13.884  -1.753   2.921  1.00  0.00     0.074 A 
ATOM     20  C   UNL     1      12.693  -0.933   2.999  1.00  0.00     0.031 C 
ATOM     21  C   UNL     1      17.830   1.724  -0.775  1.00  0.00     0.029 A 
ATOM     22  C   UNL     1      18.094   0.427  -0.165  1.00  0.00     0.049 A 
ATOM     23  H   UNL     1      16.840  -0.671   1.087  1.00  0.00     0.167 HD
ATOM     24  C   UNL     1      14.026  -2.958   3.525  1.00  0.00     0.031 A 
ATOM     25  C   UNL     1      19.235  -0.272  -0.310  1.00  0.00     0.031 A 
ATOM     26  C   UNL     1      15.214  -3.770   3.448  1.00  0.00     0.049 A 
ATOM     27  C   UNL     1      19.362  -1.604   0.367  1.00  0.00     0.074 A 
ATOM     28  C   UNL     1      15.451  -5.007   4.023  1.00  0.00     0.029 A 
ATOM     29  N   UNL     1      16.363  -3.430   2.750  1.00  0.00    -0.354 N 
ATOM     30  N   UNL     1      18.480  -2.240   1.102  1.00  0.00    -0.248 NA
ATOM     31  C   UNL     1      20.634  -2.315   0.193  1.00  0.00     0.031 C 
ATOM     32  C   UNL     1      16.758  -5.397   3.706  1.00  0.00     0.029 A 
ATOM     33  C   UNL     1      17.316  -4.427   2.890  1.00  0.00     0.049 A 
ATOM     34  H   UNL     1      16.485  -2.603   2.230  1.00  0.00     0.167 HD
ATOM     35  C   UNL     1      19.094  -3.426   1.481  1.00  0.00     0.074 A 
ATOM     36  C   UNL     1      20.404  -3.437   0.861  1.00  0.00     0.031 C 
ATOM     37  C   UNL     1      18.622  -4.412   2.282  1.00  0.00     0.031 A 
BRANCH  24  38
ATOM     38  C   UNL     1      12.867  -3.477   4.336  1.00  0.00    -0.014 A 
ATOM     39  C   UNL     1      11.707  -3.968   3.709  1.00  0.00     0.010 A 
ATOM     40  C   UNL     1      12.963  -3.541   5.739  1.00  0.00     0.010 A 
ATOM     41  C   UNL     1      10.657  -4.489   4.470  1.00  0.00     0.020 A 
ATOM     42  C   UNL     1      11.924  -4.082   6.502  1.00  0.00     0.020 A 
ATOM     43  C   UNL     1      10.771  -4.542   5.863  1.00  0.00     0.054 A 
BRANCH  43  44
ATOM     44  S   UNL     1       9.408  -5.261   6.822  1.00  0.00     0.124 S 
ATOM     45  O   UNL     1       8.394  -4.213   6.734  1.00  0.00    -0.237 OA
ATOM     46  O   UNL     1       9.108  -6.486   6.085  1.00  0.00    -0.237 OA
ATOM     47  O   UNL     1       9.985  -5.461   8.149  1.00  0.00    -0.744 OA
ENDBRANCH  43  44
ENDBRANCH  24  38
BRANCH  25  48
ATOM     48  C   UNL     1      20.353   0.297  -1.110  1.00  0.00    -0.014 A 
ATOM     49  C   UNL     1      20.727  -0.271  -2.339  1.00  0.00     0.010 A 
ATOM     50  C   UNL     1      21.040   1.433  -0.642  1.00  0.00     0.010 A 
ATOM     51  C   UNL     1      21.783   0.274  -3.076  1.00  0.00     0.020 A 
ATOM     52  C   UNL     1      22.074   1.999  -1.391  1.00  0.00     0.020 A 
ATOM     53  C   UNL     1      22.450   1.406  -2.596  1.00  0.00     0.054 A 
BRANCH  53  54
ATOM     54  S   UNL     1      23.788   2.129  -3.585  1.00  0.00     0.124 S 
ATOM     55  O   UNL     1      24.898   1.228  -3.293  1.00  0.00    -0.237 OA
ATOM     56  O   UNL     1      23.255   2.058  -4.944  1.00  0.00    -0.237 OA
ATOM     57  O   UNL     1      23.916   3.481  -3.046  1.00  0.00    -0.744 OA
ENDBRANCH  53  54
ENDBRANCH  25  48
BRANCH  37  58
ATOM     58  C   UNL     1      19.535  -5.583   2.522  1.00  0.00    -0.014 A 
ATOM     59  C   UNL     1      20.673  -5.456   3.339  1.00  0.00     0.010 A 
ATOM     60  C   UNL     1      19.250  -6.825   1.927  1.00  0.00     0.010 A 
ATOM     61  C   UNL     1      21.540  -6.538   3.514  1.00  0.00     0.020 A 
ATOM     62  C   UNL     1      20.101  -7.916   2.122  1.00  0.00     0.020 A 
ATOM     63  C   UNL     1      21.252  -7.759   2.897  1.00  0.00     0.054 A 
BRANCH  63  64
ATOM     64  S   UNL     1      22.388  -9.151   3.141  1.00  0.00     0.124 S 
ATOM     65  O   UNL     1      23.491  -8.802   2.249  1.00  0.00    -0.237 OA
ATOM     66  O   UNL     1      22.687  -9.078   4.569  1.00  0.00    -0.237 OA
ATOM     67  O   UNL     1      21.601 -10.313   2.735  1.00  0.00    -0.744 OA
ENDBRANCH  63  64
ENDBRANCH  37  58
ENDBRANCH  11  12
ENDBRANCH   4   6
ENDBRANCH   1   2
BRANCH   1  68
ATOM     68  C   UNL     1       8.728   3.528  -2.640  1.00  0.00     0.042 C 
BRANCH  68  69
ATOM     69  C   UNL     1       7.695   4.485  -3.216  1.00  0.00     0.117 C 
BRANCH  69  70
ATOM     70  N   UNL     1       7.763   4.586  -4.664  1.00  0.00    -0.354 N 
ATOM     71  C   UNL     1       6.908   4.092  -5.608  1.00  0.00     0.249 C 
ATOM     72  H   UNL     1       8.538   5.081  -5.015  1.00  0.00     0.163 HD
ATOM     73  O   UNL     1       7.126   4.363  -6.791  1.00  0.00    -0.272 OA
BRANCH  71  74
ATOM     74  C   UNL     1       5.734   3.201  -5.168  1.00  0.00     0.207 C 
ATOM     75  C   UNL     1       4.630   3.114  -6.210  1.00  0.00     0.045 C 
ATOM     76  O   UNL     1       6.223   1.864  -4.967  1.00  0.00    -0.363 OA
ATOM     77  C   UNL     1       5.043   1.924  -7.040  1.00  0.00     0.037 C 
ATOM     78  C   UNL     1       5.677   1.016  -5.999  1.00  0.00     0.139 C 
BRANCH  78  79
ATOM     79  C   UNL     1       6.727   0.033  -6.540  1.00  0.00     0.152 C 
BRANCH  79  80
ATOM     80  N   UNL     1       7.816   0.667  -7.288  1.00  0.00    -0.329 N 
ATOM     81  C   UNL     1       9.003   1.085  -6.552  1.00  0.00     0.219 C 
ATOM     82  C   UNL     1       7.834   0.616  -8.671  1.00  0.00     0.245 C 
ATOM     83  C   UNL     1       9.801   2.226  -7.182  1.00  0.00     0.242 C 
ATOM     84  C   UNL     1       9.040   1.280  -9.356  1.00  0.00     0.174 C 
ATOM     85  O   UNL     1       6.982   0.017  -9.329  1.00  0.00    -0.272 OA
ATOM     86  O   UNL     1      10.566   2.913  -6.503  1.00  0.00    -0.273 OA
ATOM     87  N   UNL     1       9.748   2.289  -8.567  1.00  0.00    -0.329 N 
ATOM     88  C   UNL     1      10.042   0.252  -9.884  1.00  0.00     0.035 C 
ATOM     89  C   UNL     1      10.744   3.054  -9.302  1.00  0.00     0.120 C 
ATOM     90  C   UNL     1      11.155   0.956 -10.672  1.00  0.00     0.004 C 
ATOM     91  C   UNL     1      11.797   2.095  -9.868  1.00  0.00     0.022 C 
ENDBRANCH  79  80
ENDBRANCH  78  79
ENDBRANCH  71  74
ENDBRANCH  69  70
ENDBRANCH  68  69
ENDBRANCH   1  68
TORSDOF 15
