REMARK SMILES CCCCCN(C)S(=O)(=O)c1cc(Cl)cc(C(=O)NCCCNC(=O)c2ccc(-c3c4nc(c(-c5ccc(S(=O)(=O)[O-])cc5)c5ccc([nH]5)c(-c5ccc(S(=O)(=O)[O-])cc5)c5nc(c(-c6ccc(S(=O)(=O)[O-])cc6)c6ccc3[nH]6)C=C5)C=C4)cc2)c1F
REMARK SMILES IDX 17 1 18 2 19 3 16 5 11 6 12 7 86 8 13 9 87 10 14 11 15 12
REMARK SMILES IDX 8 13 9 14 10 15 6 16 7 17 5 18 4 19 3 20 2 21 1 22 20 23
REMARK SMILES IDX 21 24 22 25 23 26 24 27 25 29 26 30 27 31 85 32 28 33 84 34
REMARK SMILES IDX 29 35 30 36 31 37 78 38 32 39 83 40 77 41 79 42 33 43 82 44
REMARK SMILES IDX 76 45 75 46 34 48 64 49 45 50 63 51 46 52 49 53 62 54 80 55
REMARK SMILES IDX 47 56 48 57 61 59 81 60 50 61 35 62 36 63 44 64 37 65 43 66
REMARK SMILES IDX 38 67 39 68 40 69 41 70 42 71 65 72 66 73 74 74 67 75 73 76
REMARK SMILES IDX 68 77 69 78 70 79 71 80 72 81 51 82 52 83 60 84 53 85 59 86
REMARK SMILES IDX 54 87 55 88 56 89 57 90 58 91
REMARK H PARENT 19 4 23 28 79 47 49 58
REMARK Flexibility Score: inf
ROOT
ATOM      1  C   UNL     1      -1.279   8.460   2.186  1.00  0.00     0.254 C 
ATOM      2  O   UNL     1      -1.911   9.442   2.583  1.00  0.00    -0.269 OA
ATOM      3  N   UNL     1      -0.233   8.703   1.338  1.00  0.00    -0.352 N 
ATOM      4  H   UNL     1      -0.127   9.656   1.115  1.00  0.00     0.163 HD
ENDROOT
BRANCH   1   5
ATOM      5  C   UNL     1      -1.677   7.127   2.710  1.00  0.00     0.078 A 
ATOM      6  C   UNL     1      -2.026   4.736   2.613  1.00  0.00     0.120 A 
ATOM      7  C   UNL     1      -2.636   4.746   3.872  1.00  0.00     0.045 A 
ATOM      8  C   UNL     1      -1.566   5.914   2.029  1.00  0.00     0.156 A 
ATOM      9  C   UNL     1      -2.767   5.950   4.548  1.00  0.00     0.043 A 
ATOM     10  F   UNL     1      -1.061   5.870   0.796  1.00  0.00    -0.205 F 
ATOM     11  Cl  UNL     1      -3.505   5.981   6.100  1.00  0.00    -0.084 Cl
ATOM     12  C   UNL     1      -2.291   7.130   3.979  1.00  0.00     0.037 A 
BRANCH   6  13
ATOM     13  S   UNL     1      -1.765   3.165   1.851  1.00  0.00     0.245 S 
ATOM     14  O   UNL     1      -2.925   2.355   2.147  1.00  0.00    -0.207 OA
ATOM     15  O   UNL     1      -0.449   2.760   2.302  1.00  0.00    -0.207 OA
BRANCH  13  16
ATOM     16  N   UNL     1      -1.742   3.401   0.159  1.00  0.00    -0.201 NA
ATOM     17  C   UNL     1      -3.035   3.877  -0.406  1.00  0.00     0.124 C 
BRANCH  16  18
ATOM     18  C   UNL     1      -1.235   2.227  -0.628  1.00  0.00     0.102 C 
BRANCH  18  19
ATOM     19  C   UNL     1       0.204   2.433  -1.111  1.00  0.00     0.017 C 
BRANCH  19  20
ATOM     20  C   UNL     1       1.326   2.078  -0.128  1.00  0.00     0.001 C 
BRANCH  20  21
ATOM     21  C   UNL     1       1.236   0.700   0.537  1.00  0.00    -0.003 C 
ATOM     22  C   UNL     1       1.288  -0.460  -0.443  1.00  0.00     0.004 C 
ENDBRANCH  20  21
ENDBRANCH  19  20
ENDBRANCH  18  19
ENDBRANCH  16  18
ENDBRANCH  13  16
ENDBRANCH   6  13
ENDBRANCH   1   5
BRANCH   3  23
ATOM     23  C   UNL     1       0.753   7.848   0.698  1.00  0.00     0.118 C 
BRANCH  23  24
ATOM     24  C   UNL     1       0.396   7.581  -0.766  1.00  0.00     0.042 C 
BRANCH  24  25
ATOM     25  C   UNL     1       0.614   8.776  -1.692  1.00  0.00     0.118 C 
BRANCH  25  26
ATOM     26  N   UNL     1       2.017   8.980  -2.010  1.00  0.00    -0.352 N 
ATOM     27  C   UNL     1       2.622   9.132  -3.234  1.00  0.00     0.251 C 
ATOM     28  H   UNL     1       2.623   9.014  -1.235  1.00  0.00     0.163 HD
ATOM     29  O   UNL     1       3.849   9.106  -3.302  1.00  0.00    -0.269 OA
BRANCH  27  30
ATOM     30  C   UNL     1       1.820   9.307  -4.469  1.00  0.00     0.039 A 
ATOM     31  C   UNL     1       2.223   8.636  -5.629  1.00  0.00     0.014 A 
ATOM     32  C   UNL     1       0.717  10.165  -4.514  1.00  0.00     0.014 A 
ATOM     33  C   UNL     1       1.497   8.786  -6.816  1.00  0.00     0.010 A 
ATOM     34  C   UNL     1      -0.033  10.280  -5.687  1.00  0.00     0.010 A 
ATOM     35  C   UNL     1       0.352   9.595  -6.849  1.00  0.00    -0.014 A 
BRANCH  35  36
ATOM     36  C   UNL     1      -0.448   9.743  -8.093  1.00  0.00     0.031 A 
ATOM     37  C   UNL     1      -0.472  11.055  -8.829  1.00  0.00     0.074 A 
ATOM     38  C   UNL     1      -1.196   8.715  -8.535  1.00  0.00     0.049 A 
ATOM     39  N   UNL     1      -1.171  11.397  -9.881  1.00  0.00    -0.248 NA
ATOM     40  C   UNL     1       0.389  12.126  -8.303  1.00  0.00     0.031 C 
ATOM     41  C   UNL     1      -1.283   7.396  -7.905  1.00  0.00     0.029 A 
ATOM     42  N   UNL     1      -2.037   8.624  -9.617  1.00  0.00    -0.354 N 
ATOM     43  C   UNL     1      -0.855  12.727 -10.130  1.00  0.00     0.074 A 
ATOM     44  C   UNL     1       0.084  13.136  -9.106  1.00  0.00     0.031 C 
ATOM     45  C   UNL     1      -2.120   6.624  -8.619  1.00  0.00     0.029 A 
ATOM     46  C   UNL     1      -2.650   7.400  -9.736  1.00  0.00     0.049 A 
ATOM     47  H   UNL     1      -2.186   9.365 -10.248  1.00  0.00     0.167 HD
ATOM     48  C   UNL     1      -1.299  13.535 -11.123  1.00  0.00     0.031 A 
ATOM     49  C   UNL     1      -3.545   6.952 -10.638  1.00  0.00     0.031 A 
ATOM     50  C   UNL     1      -2.216  13.133 -12.155  1.00  0.00     0.049 A 
ATOM     51  C   UNL     1      -4.010   7.859 -11.740  1.00  0.00     0.074 A 
ATOM     52  C   UNL     1      -2.692  13.874 -13.223  1.00  0.00     0.029 A 
ATOM     53  N   UNL     1      -2.793  11.877 -12.252  1.00  0.00    -0.354 N 
ATOM     54  N   UNL     1      -3.679   9.106 -11.971  1.00  0.00    -0.248 NA
ATOM     55  C   UNL     1      -4.964   7.295 -12.706  1.00  0.00     0.031 C 
ATOM     56  C   UNL     1      -3.575  13.071 -13.955  1.00  0.00     0.029 A 
ATOM     57  C   UNL     1      -3.626  11.823 -13.357  1.00  0.00     0.049 A 
ATOM     58  H   UNL     1      -2.635  11.132 -11.627  1.00  0.00     0.167 HD
ATOM     59  C   UNL     1      -4.375   9.473 -13.117  1.00  0.00     0.074 A 
ATOM     60  C   UNL     1      -5.137   8.315 -13.537  1.00  0.00     0.031 C 
ATOM     61  C   UNL     1      -4.380  10.665 -13.762  1.00  0.00     0.031 A 
BRANCH  48  62
ATOM     62  C   UNL     1      -0.798  14.952 -11.126  1.00  0.00    -0.014 A 
ATOM     63  C   UNL     1       0.505  15.255 -11.558  1.00  0.00     0.010 A 
ATOM     64  C   UNL     1      -1.643  15.993 -10.702  1.00  0.00     0.010 A 
ATOM     65  C   UNL     1       0.971  16.572 -11.524  1.00  0.00     0.020 A 
ATOM     66  C   UNL     1      -1.186  17.314 -10.684  1.00  0.00     0.020 A 
ATOM     67  C   UNL     1       0.126  17.591 -11.075  1.00  0.00     0.054 A 
BRANCH  67  68
ATOM     68  S   UNL     1       0.747  19.296 -11.034  1.00  0.00     0.124 S 
ATOM     69  O   UNL     1       1.492  19.311  -9.777  1.00  0.00    -0.237 OA
ATOM     70  O   UNL     1       1.559  19.378 -12.245  1.00  0.00    -0.237 OA
ATOM     71  O   UNL     1      -0.470  20.104 -11.049  1.00  0.00    -0.744 OA
ENDBRANCH  67  68
ENDBRANCH  48  62
BRANCH  49  72
ATOM     72  C   UNL     1      -4.053   5.560 -10.535  1.00  0.00    -0.014 A 
ATOM     73  C   UNL     1      -3.546   4.558 -11.380  1.00  0.00     0.010 A 
ATOM     74  C   UNL     1      -5.017   5.226  -9.569  1.00  0.00     0.010 A 
ATOM     75  C   UNL     1      -3.997   3.241 -11.261  1.00  0.00     0.020 A 
ATOM     76  C   UNL     1      -5.458   3.907  -9.437  1.00  0.00     0.020 A 
ATOM     77  C   UNL     1      -4.949   2.923 -10.288  1.00  0.00     0.054 A 
BRANCH  77  78
ATOM     78  S   UNL     1      -5.464   1.195 -10.084  1.00  0.00     0.124 S 
ATOM     79  O   UNL     1      -6.500   1.065 -11.103  1.00  0.00    -0.237 OA
ATOM     80  O   UNL     1      -4.229   0.457 -10.337  1.00  0.00    -0.237 OA
ATOM     81  O   UNL     1      -5.932   1.147  -8.700  1.00  0.00    -0.744 OA
ENDBRANCH  77  78
ENDBRANCH  49  72
BRANCH  61  82
ATOM     82  C   UNL     1      -5.220  10.771 -15.002  1.00  0.00    -0.014 A 
ATOM     83  C   UNL     1      -6.611  10.959 -14.915  1.00  0.00     0.010 A 
ATOM     84  C   UNL     1      -4.607  10.729 -16.266  1.00  0.00     0.010 A 
ATOM     85  C   UNL     1      -7.378  11.082 -16.076  1.00  0.00     0.020 A 
ATOM     86  C   UNL     1      -5.370  10.866 -17.429  1.00  0.00     0.020 A 
ATOM     87  C   UNL     1      -6.754  11.029 -17.326  1.00  0.00     0.054 A 
BRANCH  87  88
ATOM     88  S   UNL     1      -7.758  11.235 -18.824  1.00  0.00     0.124 S 
ATOM     89  O   UNL     1      -8.299   9.892 -19.013  1.00  0.00    -0.237 OA
ATOM     90  O   UNL     1      -8.728  12.253 -18.430  1.00  0.00    -0.237 OA
ATOM     91  O   UNL     1      -6.788  11.665 -19.829  1.00  0.00    -0.744 OA
ENDBRANCH  87  88
ENDBRANCH  61  82
ENDBRANCH  35  36
ENDBRANCH  27  30
ENDBRANCH  25  26
ENDBRANCH  24  25
ENDBRANCH  23  24
ENDBRANCH   3  23
TORSDOF 19
