REMARK SMILES O=C(NCCCNC(=O)[C@@H]1CCCN(c2ccc3cc(S(=O)(=O)N4CCCCC4)ccc3n2)C1)c1ccc(-c2c3nc(c(-c4ccc(S(=O)(=O)[O-])cc4)c4ccc([nH]4)c(-c4ccc(S(=O)(=O)[O-])cc4)c4nc(c(-c5ccc(S(=O)(=O)[O-])cc5)c5ccc2[nH]5)C=C4)C=C3)cc1
REMARK SMILES IDX 5 1 4 2 3 3 1 4 2 5 35 7 36 8 94 9 37 10 93 11 38 12 39 13
REMARK SMILES IDX 40 14 87 15 41 16 92 17 86 18 88 19 42 20 91 21 85 22 84 23
REMARK SMILES IDX 43 25 73 26 54 27 72 28 55 29 58 30 71 31 89 32 56 33 57 34
REMARK SMILES IDX 70 36 90 37 59 38 44 39 45 40 53 41 46 42 52 43 47 44 48 45
REMARK SMILES IDX 49 46 50 47 51 48 74 49 75 50 83 51 76 52 82 53 77 54 78 55
REMARK SMILES IDX 79 56 80 57 81 58 60 59 61 60 69 61 62 62 68 63 63 64 64 65
REMARK SMILES IDX 65 66 66 67 67 68 6 69 7 70 8 71 9 73 10 74 11 75 34 76
REMARK SMILES IDX 12 77 14 78 13 79 15 80 16 81 33 82 17 83 32 84 18 85 31 86
REMARK SMILES IDX 19 87 30 88 20 89 21 90 22 91 23 92 24 93 25 94 29 95 26 96
REMARK SMILES IDX 28 97 27 98
REMARK H PARENT 3 6 88 24 58 35 7 72
REMARK Flexibility Score: inf
ROOT
ATOM      1  C   UNL     1       4.396  -0.071  -2.561  1.00  0.00     0.042 C 
ENDROOT
BRANCH   1   2
ATOM      2  C   UNL     1       4.248   0.796  -1.315  1.00  0.00     0.118 C 
BRANCH   2   3
ATOM      3  N   UNL     1       2.878   0.821  -0.824  1.00  0.00    -0.352 N 
ATOM      4  O   UNL     1       1.073   0.096   0.303  1.00  0.00    -0.269 OA
ATOM      5  C   UNL     1       2.298   0.130   0.215  1.00  0.00     0.251 C 
ATOM      6  H   UNL     1       2.273   1.426  -1.310  1.00  0.00     0.163 HD
BRANCH   5   7
ATOM      7  C   UNL     1       3.133  -0.580   1.213  1.00  0.00     0.039 A 
ATOM      8  C   UNL     1       4.307  -0.007   1.699  1.00  0.00     0.014 A 
ATOM      9  C   UNL     1       2.706  -1.813   1.720  1.00  0.00     0.014 A 
ATOM     10  C   UNL     1       5.128  -0.725   2.561  1.00  0.00     0.010 A 
ATOM     11  C   UNL     1       3.478  -2.485   2.676  1.00  0.00     0.010 A 
ATOM     12  C   UNL     1       4.710  -1.958   3.089  1.00  0.00    -0.014 A 
BRANCH  12  13
ATOM     13  C   UNL     1       5.547  -2.602   4.138  1.00  0.00     0.031 A 
ATOM     14  C   UNL     1       6.190  -3.945   3.925  1.00  0.00     0.074 A 
ATOM     15  C   UNL     1       5.776  -1.917   5.278  1.00  0.00     0.049 A 
ATOM     16  N   UNL     1       7.012  -4.593   4.713  1.00  0.00    -0.248 NA
ATOM     17  C   UNL     1       5.870  -4.659   2.680  1.00  0.00     0.031 C 
ATOM     18  C   UNL     1       5.185  -0.617   5.612  1.00  0.00     0.029 A 
ATOM     19  N   UNL     1       6.590  -2.191   6.347  1.00  0.00    -0.354 N 
ATOM     20  C   UNL     1       7.300  -5.790   4.068  1.00  0.00     0.074 A 
ATOM     21  C   UNL     1       6.540  -5.794   2.836  1.00  0.00     0.031 C 
ATOM     22  C   UNL     1       5.712  -0.174   6.762  1.00  0.00     0.029 A 
ATOM     23  C   UNL     1       6.620  -1.185   7.285  1.00  0.00     0.049 A 
ATOM     24  H   UNL     1       7.104  -3.026   6.434  1.00  0.00     0.167 HD
ATOM     25  C   UNL     1       8.128  -6.788   4.462  1.00  0.00     0.031 A 
ATOM     26  C   UNL     1       7.294  -1.085   8.446  1.00  0.00     0.031 A 
ATOM     27  C   UNL     1       8.877  -6.783   5.694  1.00  0.00     0.049 A 
ATOM     28  C   UNL     1       8.201  -2.206   8.857  1.00  0.00     0.074 A 
ATOM     29  C   UNL     1       9.741  -7.749   6.182  1.00  0.00     0.029 A 
ATOM     30  N   UNL     1       8.857  -5.760   6.631  1.00  0.00    -0.354 N 
ATOM     31  N   UNL     1       8.467  -3.322   8.222  1.00  0.00    -0.248 NA
ATOM     32  C   UNL     1       8.900  -2.055  10.140  1.00  0.00     0.031 C 
ATOM     33  C   UNL     1      10.212  -7.329   7.431  1.00  0.00     0.029 A 
ATOM     34  C   UNL     1       9.683  -6.077   7.698  1.00  0.00     0.049 A 
ATOM     35  H   UNL     1       8.332  -4.931   6.550  1.00  0.00     0.167 HD
ATOM     36  C   UNL     1       9.366  -4.008   9.028  1.00  0.00     0.074 A 
ATOM     37  C   UNL     1       9.627  -3.163  10.177  1.00  0.00     0.031 C 
ATOM     38  C   UNL     1       9.918  -5.231   8.841  1.00  0.00     0.031 A 
BRANCH  25  39
ATOM     39  C   UNL     1       8.264  -7.985   3.555  1.00  0.00    -0.014 A 
ATOM     40  C   UNL     1       8.976  -7.898   2.345  1.00  0.00     0.010 A 
ATOM     41  C   UNL     1       7.726  -9.226   3.943  1.00  0.00     0.010 A 
ATOM     42  C   UNL     1       9.123  -9.022   1.527  1.00  0.00     0.020 A 
ATOM     43  C   UNL     1       7.891 -10.358   3.138  1.00  0.00     0.020 A 
ATOM     44  C   UNL     1       8.577 -10.245   1.927  1.00  0.00     0.054 A 
BRANCH  44  45
ATOM     45  S   UNL     1       8.808 -11.693   0.858  1.00  0.00     0.124 S 
ATOM     46  O   UNL     1       7.898 -11.399  -0.246  1.00  0.00    -0.237 OA
ATOM     47  O   UNL     1      10.230 -11.627   0.532  1.00  0.00    -0.237 OA
ATOM     48  O   UNL     1       8.417 -12.817   1.705  1.00  0.00    -0.744 OA
ENDBRANCH  44  45
ENDBRANCH  25  39
BRANCH  26  49
ATOM     49  C   UNL     1       7.104   0.113   9.309  1.00  0.00    -0.014 A 
ATOM     50  C   UNL     1       8.139   1.044   9.498  1.00  0.00     0.010 A 
ATOM     51  C   UNL     1       5.862   0.333   9.936  1.00  0.00     0.010 A 
ATOM     52  C   UNL     1       7.943   2.162  10.314  1.00  0.00     0.020 A 
ATOM     53  C   UNL     1       5.653   1.466  10.725  1.00  0.00     0.020 A 
ATOM     54  C   UNL     1       6.701   2.365  10.922  1.00  0.00     0.054 A 
BRANCH  54  55
ATOM     55  S   UNL     1       6.449   3.844  11.943  1.00  0.00     0.124 S 
ATOM     56  O   UNL     1       7.128   3.474  13.181  1.00  0.00    -0.237 OA
ATOM     57  O   UNL     1       7.094   4.890  11.154  1.00  0.00    -0.237 OA
ATOM     58  O   UNL     1       4.994   3.950  12.033  1.00  0.00    -0.744 OA
ENDBRANCH  54  55
ENDBRANCH  26  49
BRANCH  38  59
ATOM     59  C   UNL     1      10.869  -5.716   9.902  1.00  0.00    -0.014 A 
ATOM     60  C   UNL     1      10.401  -6.114  11.167  1.00  0.00     0.010 A 
ATOM     61  C   UNL     1      12.246  -5.780   9.626  1.00  0.00     0.010 A 
ATOM     62  C   UNL     1      11.300  -6.524  12.155  1.00  0.00     0.020 A 
ATOM     63  C   UNL     1      13.145  -6.214  10.603  1.00  0.00     0.020 A 
ATOM     64  C   UNL     1      12.668  -6.564  11.868  1.00  0.00     0.054 A 
BRANCH  64  65
ATOM     65  S   UNL     1      13.816  -7.109  13.162  1.00  0.00     0.124 S 
ATOM     66  O   UNL     1      13.875  -5.936  14.029  1.00  0.00    -0.237 OA
ATOM     67  O   UNL     1      13.138  -8.274  13.725  1.00  0.00    -0.237 OA
ATOM     68  O   UNL     1      15.045  -7.406  12.429  1.00  0.00    -0.744 OA
ENDBRANCH  64  65
ENDBRANCH  38  59
ENDBRANCH  12  13
ENDBRANCH   5   7
ENDBRANCH   2   3
ENDBRANCH   1   2
BRANCH   1  69
ATOM     69  C   UNL     1       3.858   0.582  -3.829  1.00  0.00     0.117 C 
BRANCH  69  70
ATOM     70  N   UNL     1       4.507   1.841  -4.128  1.00  0.00    -0.356 N 
ATOM     71  C   UNL     1       5.465   2.256  -4.979  1.00  0.00     0.224 C 
ATOM     72  H   UNL     1       4.163   2.576  -3.570  1.00  0.00     0.163 HD
ATOM     73  O   UNL     1       5.597   3.490  -5.001  1.00  0.00    -0.275 OA
BRANCH  71  74
ATOM     74  C   UNL     1       6.249   1.392  -5.974  1.00  0.00     0.098 C 
ATOM     75  C   UNL     1       6.471  -0.116  -5.777  1.00  0.00     0.017 C 
ATOM     76  C   UNL     1       7.627   2.064  -6.174  1.00  0.00     0.131 C 
ATOM     77  C   UNL     1       7.524  -0.468  -4.725  1.00  0.00     0.022 C 
ATOM     78  N   UNL     1       8.507   1.689  -5.069  1.00  0.00    -0.356 N 
ATOM     79  C   UNL     1       8.835   0.279  -4.944  1.00  0.00     0.118 C 
BRANCH  78  80
ATOM     80  C   UNL     1       9.345   2.616  -4.489  1.00  0.00     0.129 A 
ATOM     81  C   UNL     1       8.850   3.827  -4.014  1.00  0.00     0.047 A 
ATOM     82  N   UNL     1      10.646   2.295  -4.341  1.00  0.00    -0.231 NA
ATOM     83  C   UNL     1       9.698   4.729  -3.381  1.00  0.00     0.014 A 
ATOM     84  C   UNL     1      11.473   3.171  -3.757  1.00  0.00     0.073 A 
ATOM     85  C   UNL     1      11.048   4.415  -3.254  1.00  0.00     0.002 A 
ATOM     86  C   UNL     1      12.812   2.844  -3.654  1.00  0.00     0.030 A 
ATOM     87  C   UNL     1      11.966   5.298  -2.661  1.00  0.00     0.032 A 
ATOM     88  C   UNL     1      13.739   3.720  -3.084  1.00  0.00     0.024 A 
ATOM     89  C   UNL     1      13.319   4.953  -2.589  1.00  0.00     0.083 A 
BRANCH  89  90
ATOM     90  S   UNL     1      14.421   6.170  -1.890  1.00  0.00     0.243 S 
ATOM     91  O   UNL     1      14.330   7.329  -2.762  1.00  0.00    -0.207 OA
ATOM     92  O   UNL     1      14.093   6.260  -0.488  1.00  0.00    -0.207 OA
BRANCH  90  93
ATOM     93  N   UNL     1      16.013   5.560  -2.025  1.00  0.00    -0.198 NA
ATOM     94  C   UNL     1      16.363   4.471  -1.076  1.00  0.00     0.102 C 
ATOM     95  C   UNL     1      16.574   5.522  -3.397  1.00  0.00     0.102 C 
ATOM     96  C   UNL     1      17.820   4.045  -1.185  1.00  0.00     0.017 C 
ATOM     97  C   UNL     1      18.028   5.076  -3.421  1.00  0.00     0.017 C 
ATOM     98  C   UNL     1      18.223   3.795  -2.629  1.00  0.00     0.003 C 
ENDBRANCH  90  93
ENDBRANCH  89  90
ENDBRANCH  78  80
ENDBRANCH  71  74
ENDBRANCH  69  70
ENDBRANCH   1  69
TORSDOF 16
