REMARK SMILES Cc1cc(F)cc(N[C@@](C)(C(=O)NCCCNC(=O)c2ccc(-c3c4nc(c(-c5ccc(S(=O)(=O)[O-])cc5)c5ccc([nH]5)c(-c5ccc(S(=O)(=O)[O-])cc5)c5nc(c(-c6ccc(S(=O)(=O)[O-])cc6)c6ccc3[nH]6)C=C5)C=C4)cc2)c2ccc(O)cc2)c1
REMARK SMILES IDX 15 1 14 2 13 3 11 4 12 5 9 7 10 8 8 9 7 11 1 12 2 13 3 14
REMARK SMILES IDX 87 15 4 16 5 17 6 18 80 19 81 20 86 21 82 22 85 23 83 24
REMARK SMILES IDX 84 25 16 27 17 28 18 29 19 31 20 32 21 33 79 34 22 35 78 36
REMARK SMILES IDX 23 37 24 38 25 39 72 40 26 41 77 42 71 43 73 44 27 45 76 46
REMARK SMILES IDX 70 47 69 48 28 50 58 51 39 52 57 53 40 54 43 55 56 56 74 57
REMARK SMILES IDX 41 58 42 59 55 61 75 62 44 63 29 64 30 65 38 66 31 67 37 68
REMARK SMILES IDX 32 69 33 70 34 71 35 72 36 73 59 74 60 75 68 76 61 77 67 78
REMARK SMILES IDX 62 79 63 80 64 81 65 82 66 83 45 84 46 85 54 86 47 87 53 88
REMARK SMILES IDX 48 89 49 90 50 91 51 92 52 93
REMARK H PARENT 13 6 8 10 84 26 17 30 73 49 43 60
REMARK Flexibility Score: inf
ROOT
ATOM      1  C   UNL     1       2.648  -5.733   1.077  1.00  0.00     0.042 C 
ENDROOT
BRANCH   1   2
ATOM      2  C   UNL     1       1.331  -5.999   0.364  1.00  0.00     0.117 C 
BRANCH   2   3
ATOM      3  N   UNL     1       0.182  -5.724   1.206  1.00  0.00    -0.354 N 
ATOM      4  C   UNL     1      -0.836  -4.813   1.134  1.00  0.00     0.250 C 
ATOM      5  O   UNL     1      -1.529  -4.763   2.159  1.00  0.00    -0.272 OA
ATOM      6  H   UNL     1       0.123  -6.315   1.992  1.00  0.00     0.163 HD
BRANCH   4   7
ATOM      7  C   UNL     1      -1.081  -3.891  -0.137  1.00  0.00     0.139 C 
ATOM      8  C   UNL     1      -1.118  -4.740  -1.433  1.00  0.00     0.051 C 
BRANCH   7   9
ATOM      9  N   UNL     1       0.077  -2.951  -0.217  1.00  0.00    -0.368 N 
ATOM     10  H   UNL     1       0.844  -3.302  -0.725  1.00  0.00     0.161 HD
BRANCH   9  11
ATOM     11  C   UNL     1       0.271  -1.678   0.292  1.00  0.00     0.038 A 
ATOM     12  C   UNL     1       2.877   1.094  -0.247  1.00  0.00     0.044 C 
ATOM     13  C   UNL     1       1.617   0.388   0.157  1.00  0.00    -0.046 A 
ATOM     14  C   UNL     1       0.569   1.107   0.727  1.00  0.00     0.042 A 
ATOM     15  C   UNL     1       1.441  -0.987  -0.085  1.00  0.00     0.029 A 
ATOM     16  C   UNL     1      -0.552   0.427   1.174  1.00  0.00     0.125 A 
ATOM     17  F   UNL     1      -1.559   1.118   1.727  1.00  0.00    -0.207 F 
ATOM     18  C   UNL     1      -0.672  -0.954   1.021  1.00  0.00     0.065 A 
ENDBRANCH   9  11
ENDBRANCH   7   9
BRANCH   7  19
ATOM     19  C   UNL     1      -2.475  -3.197  -0.166  1.00  0.00    -0.013 A 
ATOM     20  C   UNL     1      -2.692  -2.030  -0.931  1.00  0.00     0.010 A 
ATOM     21  C   UNL     1      -3.589  -3.726   0.514  1.00  0.00     0.010 A 
ATOM     22  C   UNL     1      -3.892  -1.319  -0.847  1.00  0.00     0.046 A 
ATOM     23  C   UNL     1      -4.799  -3.030   0.583  1.00  0.00     0.046 A 
ATOM     24  C   UNL     1      -4.923  -1.809  -0.063  1.00  0.00     0.115 A 
BRANCH  24  25
ATOM     25  O   UNL     1      -6.055  -1.060   0.060  1.00  0.00    -0.508 OA
ATOM     26  H   UNL     1      -6.122  -0.237  -0.384  1.00  0.00     0.293 HD
ENDBRANCH  24  25
ENDBRANCH   7  19
ENDBRANCH   4   7
ENDBRANCH   2   3
ENDBRANCH   1   2
BRANCH   1  27
ATOM     27  C   UNL     1       2.912  -6.642   2.269  1.00  0.00     0.118 C 
BRANCH  27  28
ATOM     28  N   UNL     1       3.036  -8.045   1.896  1.00  0.00    -0.352 N 
ATOM     29  C   UNL     1       4.112  -8.898   1.982  1.00  0.00     0.251 C 
ATOM     30  H   UNL     1       2.219  -8.446   1.522  1.00  0.00     0.163 HD
ATOM     31  O   UNL     1       4.053  -9.995   1.438  1.00  0.00    -0.269 OA
BRANCH  29  32
ATOM     32  C   UNL     1       5.339  -8.490   2.703  1.00  0.00     0.039 A 
ATOM     33  C   UNL     1       6.584  -8.832   2.168  1.00  0.00     0.014 A 
ATOM     34  C   UNL     1       5.270  -7.788   3.908  1.00  0.00     0.014 A 
ATOM     35  C   UNL     1       7.753  -8.408   2.806  1.00  0.00     0.010 A 
ATOM     36  C   UNL     1       6.429  -7.278   4.483  1.00  0.00     0.010 A 
ATOM     37  C   UNL     1       7.686  -7.593   3.948  1.00  0.00    -0.014 A 
BRANCH  37  38
ATOM     38  C   UNL     1       8.913  -7.073   4.604  1.00  0.00     0.031 A 
ATOM     39  C   UNL     1       9.220  -7.434   6.033  1.00  0.00     0.074 A 
ATOM     40  C   UNL     1       9.713  -6.216   3.941  1.00  0.00     0.049 A 
ATOM     41  N   UNL     1      10.212  -7.037   6.790  1.00  0.00    -0.248 NA
ATOM     42  C   UNL     1       8.272  -8.333   6.710  1.00  0.00     0.031 C 
ATOM     43  C   UNL     1       9.497  -5.741   2.572  1.00  0.00     0.029 A 
ATOM     44  N   UNL     1      10.866  -5.582   4.333  1.00  0.00    -0.354 N 
ATOM     45  C   UNL     1       9.993  -7.618   8.034  1.00  0.00     0.074 A 
ATOM     46  C   UNL     1       8.744  -8.341   7.947  1.00  0.00     0.031 C 
ATOM     47  C   UNL     1      10.497  -4.914   2.231  1.00  0.00     0.029 A 
ATOM     48  C   UNL     1      11.401  -4.763   3.367  1.00  0.00     0.049 A 
ATOM     49  H   UNL     1      11.272  -5.703   5.222  1.00  0.00     0.167 HD
ATOM     50  C   UNL     1      10.770  -7.574   9.144  1.00  0.00     0.031 A 
ATOM     51  C   UNL     1      12.490  -3.970   3.391  1.00  0.00     0.031 A 
ATOM     52  C   UNL     1      12.011  -6.850   9.226  1.00  0.00     0.049 A 
ATOM     53  C   UNL     1      13.342  -3.932   4.628  1.00  0.00     0.074 A 
ATOM     54  C   UNL     1      12.905  -6.789  10.280  1.00  0.00     0.029 A 
ATOM     55  N   UNL     1      12.529  -6.049   8.217  1.00  0.00    -0.354 N 
ATOM     56  N   UNL     1      13.164  -4.554   5.769  1.00  0.00    -0.248 NA
ATOM     57  C   UNL     1      14.552  -3.101   4.574  1.00  0.00     0.031 C 
ATOM     58  C   UNL     1      13.929  -5.902   9.934  1.00  0.00     0.029 A 
ATOM     59  C   UNL     1      13.714  -5.466   8.635  1.00  0.00     0.049 A 
ATOM     60  H   UNL     1      12.114  -5.915   7.334  1.00  0.00     0.167 HD
ATOM     61  C   UNL     1      14.251  -4.207   6.564  1.00  0.00     0.074 A 
ATOM     62  C   UNL     1      15.088  -3.334   5.766  1.00  0.00     0.031 C 
ATOM     63  C   UNL     1      14.531  -4.585   7.837  1.00  0.00     0.031 A 
BRANCH  50  64
ATOM     64  C   UNL     1      10.274  -8.314  10.362  1.00  0.00    -0.014 A 
ATOM     65  C   UNL     1      10.164  -9.717  10.373  1.00  0.00     0.010 A 
ATOM     66  C   UNL     1       9.900  -7.594  11.511  1.00  0.00     0.010 A 
ATOM     67  C   UNL     1       9.619 -10.378  11.477  1.00  0.00     0.020 A 
ATOM     68  C   UNL     1       9.389  -8.255  12.633  1.00  0.00     0.020 A 
ATOM     69  C   UNL     1       9.224  -9.640  12.596  1.00  0.00     0.054 A 
BRANCH  69  70
ATOM     70  S   UNL     1       8.493 -10.520  14.004  1.00  0.00     0.124 S 
ATOM     71  O   UNL     1       7.175 -10.875  13.483  1.00  0.00    -0.237 OA
ATOM     72  O   UNL     1       9.413 -11.638  14.196  1.00  0.00    -0.237 OA
ATOM     73  O   UNL     1       8.494  -9.525  15.073  1.00  0.00    -0.744 OA
ENDBRANCH  69  70
ENDBRANCH  50  64
BRANCH  51  74
ATOM     74  C   UNL     1      12.831  -3.168   2.185  1.00  0.00    -0.014 A 
ATOM     75  C   UNL     1      13.917  -3.528   1.368  1.00  0.00     0.010 A 
ATOM     76  C   UNL     1      12.022  -2.080   1.806  1.00  0.00     0.010 A 
ATOM     77  C   UNL     1      14.182  -2.821   0.191  1.00  0.00     0.020 A 
ATOM     78  C   UNL     1      12.267  -1.389   0.617  1.00  0.00     0.020 A 
ATOM     79  C   UNL     1      13.347  -1.764  -0.183  1.00  0.00     0.054 A 
BRANCH  79  80
ATOM     80  S   UNL     1      13.647  -0.932  -1.768  1.00  0.00     0.124 S 
ATOM     81  O   UNL     1      14.868  -0.181  -1.493  1.00  0.00    -0.237 OA
ATOM     82  O   UNL     1      13.789  -2.056  -2.690  1.00  0.00    -0.237 OA
ATOM     83  O   UNL     1      12.445  -0.125  -1.964  1.00  0.00    -0.744 OA
ENDBRANCH  79  80
ENDBRANCH  51  74
BRANCH  63  84
ATOM     84  C   UNL     1      15.815  -4.078   8.444  1.00  0.00    -0.014 A 
ATOM     85  C   UNL     1      15.976  -2.727   8.799  1.00  0.00     0.010 A 
ATOM     86  C   UNL     1      16.856  -4.985   8.714  1.00  0.00     0.010 A 
ATOM     87  C   UNL     1      17.170  -2.287   9.379  1.00  0.00     0.020 A 
ATOM     88  C   UNL     1      18.038  -4.556   9.323  1.00  0.00     0.020 A 
ATOM     89  C   UNL     1      18.193  -3.205   9.638  1.00  0.00     0.054 A 
BRANCH  89  90
ATOM     90  S   UNL     1      19.716  -2.615  10.427  1.00  0.00     0.124 S 
ATOM     91  O   UNL     1      20.346  -1.862   9.346  1.00  0.00    -0.237 OA
ATOM     92  O   UNL     1      19.210  -1.815  11.540  1.00  0.00    -0.237 OA
ATOM     93  O   UNL     1      20.405  -3.845  10.813  1.00  0.00    -0.744 OA
ENDBRANCH  89  90
ENDBRANCH  63  84
ENDBRANCH  37  38
ENDBRANCH  29  32
ENDBRANCH  27  28
ENDBRANCH   1  27
TORSDOF 17
