REMARK SMILES COc1ccc(O[C@H](F)C(=O)NCCCNC(=O)c2ccc(-c3c4nc(c(-c5ccc(S(=O)(=O)[O-])cc5)c5ccc([nH]5)c(-c5ccc(S(=O)(=O)[O-])cc5)c5nc(c(-c6ccc(S(=O)(=O)[O-])cc6)c6ccc3[nH]6)C=C5)C=C4)cc2)c(C(C)(C)C)c1
REMARK SMILES IDX 14 1 13 2 12 3 10 4 11 5 8 7 9 8 7 9 6 10 3 11 4 12 84 13
REMARK SMILES IDX 5 14 79 15 2 16 1 17 80 18 81 19 82 20 83 21 15 22 16 23
REMARK SMILES IDX 17 24 18 26 19 27 20 28 78 29 21 30 77 31 22 32 23 33 24 34
REMARK SMILES IDX 71 35 25 36 76 37 70 38 72 39 26 40 75 41 69 42 68 43 27 45
REMARK SMILES IDX 57 46 38 47 56 48 39 49 42 50 55 51 73 52 40 53 41 54 54 56
REMARK SMILES IDX 74 57 43 58 28 59 29 60 37 61 30 62 36 63 31 64 32 65 33 66
REMARK SMILES IDX 34 67 35 68 58 69 59 70 67 71 60 72 66 73 61 74 62 75 63 76
REMARK SMILES IDX 64 77 65 78 44 79 45 80 53 81 46 82 52 83 47 84 48 85 49 86
REMARK SMILES IDX 50 87 51 88
REMARK H PARENT 12 6 16 25 72 44 42 55
REMARK Flexibility Score: inf
ROOT
ATOM      1  C   UNL     1       2.088  -0.944  -3.524  1.00  0.00     0.042 C 
ENDROOT
BRANCH   1   2
ATOM      2  C   UNL     1       2.722   0.321  -4.082  1.00  0.00     0.118 C 
BRANCH   2   3
ATOM      3  N   UNL     1       3.455   0.105  -5.319  1.00  0.00    -0.350 N 
ATOM      4  C   UNL     1       4.068   1.050  -6.103  1.00  0.00     0.294 C 
ATOM      5  O   UNL     1       4.765   0.651  -7.042  1.00  0.00    -0.267 OA
ATOM      6  H   UNL     1       3.519  -0.827  -5.631  1.00  0.00     0.163 HD
BRANCH   4   7
ATOM      7  C   UNL     1       3.922   2.563  -5.785  1.00  0.00     0.440 C 
ATOM      8  F   UNL     1       2.820   2.845  -5.031  1.00  0.00    -0.191 F 
BRANCH   7   9
ATOM      9  O   UNL     1       5.036   3.275  -5.242  1.00  0.00    -0.451 OA
BRANCH   9  10
ATOM     10  C   UNL     1       5.340   2.893  -3.963  1.00  0.00     0.127 A 
ATOM     11  C   UNL     1       5.881   1.895  -1.416  1.00  0.00     0.119 A 
ATOM     12  C   UNL     1       6.309   1.193  -2.534  1.00  0.00     0.050 A 
ATOM     13  C   UNL     1       5.272   3.146  -1.577  1.00  0.00     0.054 A 
ATOM     14  C   UNL     1       6.038   1.688  -3.804  1.00  0.00     0.051 A 
ATOM     15  C   UNL     1       5.044   3.715  -2.855  1.00  0.00     0.003 A 
BRANCH  11  16
ATOM     16  O   UNL     1       6.169   1.299  -0.222  1.00  0.00    -0.497 OA
ATOM     17  C   UNL     1       5.362   1.678   0.887  1.00  0.00     0.278 C 
ENDBRANCH  11  16
BRANCH  15  18
ATOM     18  C   UNL     1       4.564   5.184  -2.978  1.00  0.00    -0.009 C 
ATOM     19  C   UNL     1       5.329   5.941  -4.092  1.00  0.00     0.016 C 
ATOM     20  C   UNL     1       3.054   5.257  -3.266  1.00  0.00     0.016 C 
ATOM     21  C   UNL     1       4.811   6.005  -1.682  1.00  0.00     0.016 C 
ENDBRANCH  15  18
ENDBRANCH   9  10
ENDBRANCH   7   9
ENDBRANCH   4   7
ENDBRANCH   2   3
ENDBRANCH   1   2
BRANCH   1  22
ATOM     22  C   UNL     1       3.060  -2.070  -3.195  1.00  0.00     0.118 C 
BRANCH  22  23
ATOM     23  N   UNL     1       3.880  -1.836  -2.015  1.00  0.00    -0.352 N 
ATOM     24  C   UNL     1       4.013  -2.596  -0.873  1.00  0.00     0.251 C 
ATOM     25  H   UNL     1       4.419  -1.012  -2.036  1.00  0.00     0.163 HD
ATOM     26  O   UNL     1       4.715  -2.196   0.052  1.00  0.00    -0.269 OA
BRANCH  24  27
ATOM     27  C   UNL     1       3.260  -3.864  -0.727  1.00  0.00     0.039 A 
ATOM     28  C   UNL     1       2.558  -4.093   0.460  1.00  0.00     0.014 A 
ATOM     29  C   UNL     1       3.192  -4.798  -1.764  1.00  0.00     0.014 A 
ATOM     30  C   UNL     1       1.700  -5.191   0.560  1.00  0.00     0.010 A 
ATOM     31  C   UNL     1       2.264  -5.835  -1.699  1.00  0.00     0.010 A 
ATOM     32  C   UNL     1       1.495  -6.035  -0.543  1.00  0.00    -0.014 A 
BRANCH  32  33
ATOM     33  C   UNL     1       0.462  -7.107  -0.520  1.00  0.00     0.031 A 
ATOM     34  C   UNL     1       0.854  -8.547  -0.719  1.00  0.00     0.074 A 
ATOM     35  C   UNL     1      -0.842  -6.778  -0.403  1.00  0.00     0.049 A 
ATOM     36  N   UNL     1       0.088  -9.604  -0.821  1.00  0.00    -0.248 NA
ATOM     37  C   UNL     1       2.291  -8.833  -0.853  1.00  0.00     0.031 C 
ATOM     38  C   UNL     1      -1.367  -5.416  -0.261  1.00  0.00     0.029 A 
ATOM     39  N   UNL     1      -1.968  -7.564  -0.394  1.00  0.00    -0.354 N 
ATOM     40  C   UNL     1       0.946 -10.671  -1.061  1.00  0.00     0.074 A 
ATOM     41  C   UNL     1       2.285 -10.128  -1.134  1.00  0.00     0.031 C 
ATOM     42  C   UNL     1      -2.703  -5.467  -0.144  1.00  0.00     0.029 A 
ATOM     43  C   UNL     1      -3.138  -6.856  -0.246  1.00  0.00     0.049 A 
ATOM     44  H   UNL     1      -1.941  -8.544  -0.485  1.00  0.00     0.167 HD
ATOM     45  C   UNL     1       0.652 -11.988  -1.188  1.00  0.00     0.031 A 
ATOM     46  C   UNL     1      -4.419  -7.272  -0.201  1.00  0.00     0.031 A 
ATOM     47  C   UNL     1      -0.674 -12.534  -1.084  1.00  0.00     0.049 A 
ATOM     48  C   UNL     1      -4.719  -8.741  -0.317  1.00  0.00     0.074 A 
ATOM     49  C   UNL     1      -1.065 -13.860  -1.134  1.00  0.00     0.029 A 
ATOM     50  N   UNL     1      -1.826 -11.784  -0.901  1.00  0.00    -0.354 N 
ATOM     51  N   UNL     1      -3.885  -9.739  -0.486  1.00  0.00    -0.248 NA
ATOM     52  C   UNL     1      -6.131  -9.139  -0.228  1.00  0.00     0.031 C 
ATOM     53  C   UNL     1      -2.459 -13.910  -1.017  1.00  0.00     0.029 A 
ATOM     54  C   UNL     1      -2.930 -12.618  -0.849  1.00  0.00     0.049 A 
ATOM     55  H   UNL     1      -1.855 -10.803  -0.820  1.00  0.00     0.167 HD
ATOM     56  C   UNL     1      -4.670 -10.887  -0.500  1.00  0.00     0.074 A 
ATOM     57  C   UNL     1      -6.041 -10.460  -0.309  1.00  0.00     0.031 C 
ATOM     58  C   UNL     1      -4.288 -12.178  -0.656  1.00  0.00     0.031 A 
BRANCH  45  59
ATOM     59  C   UNL     1       1.798 -12.929  -1.451  1.00  0.00    -0.014 A 
ATOM     60  C   UNL     1       2.745 -13.213  -0.451  1.00  0.00     0.010 A 
ATOM     61  C   UNL     1       1.917 -13.554  -2.705  1.00  0.00     0.010 A 
ATOM     62  C   UNL     1       3.820 -14.066  -0.716  1.00  0.00     0.020 A 
ATOM     63  C   UNL     1       2.976 -14.429  -2.965  1.00  0.00     0.020 A 
ATOM     64  C   UNL     1       3.932 -14.662  -1.975  1.00  0.00     0.054 A 
BRANCH  64  65
ATOM     65  S   UNL     1       5.333 -15.771  -2.291  1.00  0.00     0.124 S 
ATOM     66  O   UNL     1       6.432 -14.824  -2.462  1.00  0.00    -0.237 OA
ATOM     67  O   UNL     1       5.385 -16.579  -1.075  1.00  0.00    -0.237 OA
ATOM     68  O   UNL     1       4.938 -16.492  -3.498  1.00  0.00    -0.744 OA
ENDBRANCH  64  65
ENDBRANCH  45  59
BRANCH  46  69
ATOM     69  C   UNL     1      -5.516  -6.285  -0.012  1.00  0.00    -0.014 A 
ATOM     70  C   UNL     1      -6.195  -6.204   1.217  1.00  0.00     0.010 A 
ATOM     71  C   UNL     1      -5.880  -5.411  -1.052  1.00  0.00     0.010 A 
ATOM     72  C   UNL     1      -7.227  -5.279   1.398  1.00  0.00     0.020 A 
ATOM     73  C   UNL     1      -6.896  -4.468  -0.867  1.00  0.00     0.020 A 
ATOM     74  C   UNL     1      -7.571  -4.416   0.355  1.00  0.00     0.054 A 
BRANCH  74  75
ATOM     75  S   UNL     1      -8.875  -3.184   0.629  1.00  0.00     0.124 S 
ATOM     76  O   UNL     1     -10.084  -3.997   0.541  1.00  0.00    -0.237 OA
ATOM     77  O   UNL     1      -8.552  -2.670   1.958  1.00  0.00    -0.237 OA
ATOM     78  O   UNL     1      -8.678  -2.232  -0.462  1.00  0.00    -0.744 OA
ENDBRANCH  74  75
ENDBRANCH  46  69
BRANCH  58  79
ATOM     79  C   UNL     1      -5.362 -13.229  -0.597  1.00  0.00    -0.014 A 
ATOM     80  C   UNL     1      -6.253 -13.417  -1.667  1.00  0.00     0.010 A 
ATOM     81  C   UNL     1      -5.444 -14.075   0.524  1.00  0.00     0.010 A 
ATOM     82  C   UNL     1      -7.226 -14.419  -1.606  1.00  0.00     0.020 A 
ATOM     83  C   UNL     1      -6.400 -15.092   0.579  1.00  0.00     0.020 A 
ATOM     84  C   UNL     1      -7.294 -15.249  -0.482  1.00  0.00     0.054 A 
BRANCH  84  85
ATOM     85  S   UNL     1      -8.533 -16.573  -0.446  1.00  0.00     0.124 S 
ATOM     86  O   UNL     1      -9.757 -15.835  -0.150  1.00  0.00    -0.237 OA
ATOM     87  O   UNL     1      -8.447 -17.133  -1.792  1.00  0.00    -0.237 OA
ATOM     88  O   UNL     1      -8.064 -17.456   0.620  1.00  0.00    -0.744 OA
ENDBRANCH  84  85
ENDBRANCH  58  79
ENDBRANCH  32  33
ENDBRANCH  24  27
ENDBRANCH  22  23
ENDBRANCH   1  22
TORSDOF 17
