REMARK SMILES [NH3+][C@H]1C=C[C@@H](C(=O)NC2(CC(=O)NCCCNC(=O)c3ccc(-c4c5nc(c(-c6ccc(S(=O)(=O)[O-])cc6)c6ccc([nH]6)c(-c6ccc(S(=O)(=O)[O-])cc6)c6nc(c(-c7ccc(S(=O)(=O)[O-])cc7)c7ccc4[nH]7)C=C6)C=C5)cc3)CCC2)C1
REMARK SMILES IDX 14 1 13 2 11 3 12 4 10 6 9 7 80 8 82 9 81 10 8 11 6 12 7 13
REMARK SMILES IDX 5 15 2 16 3 17 83 18 4 19 1 20 15 24 16 25 17 26 18 27 19 29
REMARK SMILES IDX 20 30 21 31 79 32 22 33 78 34 23 35 24 36 25 37 72 38 26 39
REMARK SMILES IDX 77 40 71 41 73 42 27 43 76 44 70 45 69 46 28 48 58 49 39 50
REMARK SMILES IDX 57 51 40 52 43 53 56 54 74 55 41 56 42 57 55 59 75 60 44 61
REMARK SMILES IDX 29 62 30 63 38 64 31 65 37 66 32 67 33 68 34 69 35 70 36 71
REMARK SMILES IDX 59 72 60 73 68 74 61 75 67 76 62 77 63 78 64 79 65 80 66 81
REMARK SMILES IDX 45 82 46 83 54 84 47 85 53 86 48 87 49 88 50 89 51 90 52 91
REMARK H PARENT 13 5 8 14 1 21 1 22 1 23 17 28 73 47 43 58
REMARK Flexibility Score: inf
ROOT
ATOM      1  C   UNL     1      -1.066  -3.015  -2.144  1.00  0.00     0.117 C 
ENDROOT
BRANCH   1   2
ATOM      2  N   UNL     1      -2.302  -3.506  -1.561  1.00  0.00    -0.356 N 
ATOM      3  C   UNL     1      -3.364  -2.821  -1.059  1.00  0.00     0.222 C 
ATOM      4  O   UNL     1      -4.247  -3.457  -0.477  1.00  0.00    -0.275 OA
ATOM      5  H   UNL     1      -2.383  -4.487  -1.522  1.00  0.00     0.163 HD
BRANCH   3   6
ATOM      6  C   UNL     1      -3.490  -1.320  -1.215  1.00  0.00     0.128 C 
BRANCH   6   7
ATOM      7  C   UNL     1      -2.934  -0.453  -0.057  1.00  0.00     0.049 C 
ATOM      8  C   UNL     1      -3.525   0.997  -0.063  1.00  0.00     0.029 C 
ATOM      9  C   UNL     1      -1.582   0.193  -0.417  1.00  0.00     0.029 C 
ATOM     10  C   UNL     1      -2.334   1.435  -0.925  1.00  0.00     0.005 C 
BRANCH   7  11
ATOM     11  N   UNL     1      -3.181  -1.121   1.241  1.00  0.00    -0.350 N 
ATOM     12  C   UNL     1      -2.718  -1.105   2.517  1.00  0.00     0.227 C 
ATOM     13  O   UNL     1      -3.392  -1.788   3.307  1.00  0.00    -0.274 OA
ATOM     14  H   UNL     1      -3.906  -1.781   1.151  1.00  0.00     0.164 HD
BRANCH  12  15
ATOM     15  C   UNL     1      -1.475  -0.403   3.071  1.00  0.00     0.107 C 
ATOM     16  C   UNL     1       0.838   0.167   2.484  1.00  0.00     0.205 C 
ATOM     17  C   UNL     1      -0.044   1.375   2.568  1.00  0.00     0.033 C 
ATOM     18  C   UNL     1      -0.148  -1.005   2.604  1.00  0.00     0.087 C 
ATOM     19  C   UNL     1      -1.314   1.065   2.861  1.00  0.00    -0.012 C 
BRANCH  16  20
ATOM     20  N   UNL     1       1.564   0.095   1.222  1.00  0.00    -0.352 N 
ATOM     21  H   UNL     1       2.214   0.878   1.158  1.00  0.00     0.345 HD
ATOM     22  H   UNL     1       0.903   0.137   0.446  1.00  0.00     0.345 HD
ATOM     23  H   UNL     1       2.084  -0.782   1.179  1.00  0.00     0.345 HD
ENDBRANCH  16  20
ENDBRANCH  12  15
ENDBRANCH   7  11
ENDBRANCH   6   7
ENDBRANCH   3   6
ENDBRANCH   1   2
BRANCH   1  24
ATOM     24  C   UNL     1       0.014  -2.817  -1.085  1.00  0.00     0.042 C 
BRANCH  24  25
ATOM     25  C   UNL     1       0.669  -4.102  -0.587  1.00  0.00     0.118 C 
BRANCH  25  26
ATOM     26  N   UNL     1       1.635  -4.621  -1.541  1.00  0.00    -0.352 N 
ATOM     27  C   UNL     1       2.982  -4.859  -1.408  1.00  0.00     0.251 C 
ATOM     28  H   UNL     1       1.264  -4.837  -2.427  1.00  0.00     0.163 HD
ATOM     29  O   UNL     1       3.638  -5.081  -2.425  1.00  0.00    -0.269 OA
BRANCH  27  30
ATOM     30  C   UNL     1       3.662  -4.854  -0.086  1.00  0.00     0.039 A 
ATOM     31  C   UNL     1       4.983  -4.392  -0.023  1.00  0.00     0.014 A 
ATOM     32  C   UNL     1       3.067  -5.376   1.066  1.00  0.00     0.014 A 
ATOM     33  C   UNL     1       5.687  -4.422   1.186  1.00  0.00     0.010 A 
ATOM     34  C   UNL     1       3.751  -5.350   2.287  1.00  0.00     0.010 A 
ATOM     35  C   UNL     1       5.072  -4.884   2.360  1.00  0.00    -0.014 A 
BRANCH  35  36
ATOM     36  C   UNL     1       5.804  -4.894   3.657  1.00  0.00     0.031 A 
ATOM     37  C   UNL     1       6.144  -6.195   4.337  1.00  0.00     0.074 A 
ATOM     38  C   UNL     1       6.146  -3.729   4.243  1.00  0.00     0.049 A 
ATOM     39  N   UNL     1       6.739  -6.393   5.487  1.00  0.00    -0.248 NA
ATOM     40  C   UNL     1       5.758  -7.433   3.642  1.00  0.00     0.031 C 
ATOM     41  C   UNL     1       5.873  -2.396   3.702  1.00  0.00     0.029 A 
ATOM     42  N   UNL     1       6.803  -3.478   5.423  1.00  0.00    -0.354 N 
ATOM     43  C   UNL     1       6.785  -7.772   5.660  1.00  0.00     0.074 A 
ATOM     44  C   UNL     1       6.126  -8.361   4.514  1.00  0.00     0.031 C 
ATOM     45  C   UNL     1       6.386  -1.472   4.530  1.00  0.00     0.029 A 
ATOM     46  C   UNL     1       6.988  -2.140   5.680  1.00  0.00     0.049 A 
ATOM     47  H   UNL     1       7.113  -4.191   6.028  1.00  0.00     0.167 HD
ATOM     48  C   UNL     1       7.339  -8.486   6.671  1.00  0.00     0.031 A 
ATOM     49  C   UNL     1       7.572  -1.516   6.722  1.00  0.00     0.031 A 
ATOM     50  C   UNL     1       8.007  -7.907   7.808  1.00  0.00     0.049 A 
ATOM     51  C   UNL     1       8.162  -2.328   7.840  1.00  0.00     0.074 A 
ATOM     52  C   UNL     1       8.621  -8.557   8.866  1.00  0.00     0.029 A 
ATOM     53  N   UNL     1       8.156  -6.548   8.034  1.00  0.00    -0.354 N 
ATOM     54  N   UNL     1       8.207  -3.631   7.976  1.00  0.00    -0.248 NA
ATOM     55  C   UNL     1       8.788  -1.584   8.943  1.00  0.00     0.031 C 
ATOM     56  C   UNL     1       9.107  -7.590   9.752  1.00  0.00     0.029 A 
ATOM     57  C   UNL     1       8.841  -6.339   9.220  1.00  0.00     0.049 A 
ATOM     58  H   UNL     1       7.824  -5.837   7.441  1.00  0.00     0.167 HD
ATOM     59  C   UNL     1       8.885  -3.864   9.167  1.00  0.00     0.074 A 
ATOM     60  C   UNL     1       9.242  -2.569   9.708  1.00  0.00     0.031 C 
ATOM     61  C   UNL     1       9.188  -5.047   9.755  1.00  0.00     0.031 A 
BRANCH  48  62
ATOM     62  C   UNL     1       7.248  -9.988   6.596  1.00  0.00    -0.014 A 
ATOM     63  C   UNL     1       8.034 -10.713   5.683  1.00  0.00     0.010 A 
ATOM     64  C   UNL     1       6.417 -10.686   7.491  1.00  0.00     0.010 A 
ATOM     65  C   UNL     1       7.968 -12.109   5.645  1.00  0.00     0.020 A 
ATOM     66  C   UNL     1       6.367 -12.083   7.473  1.00  0.00     0.020 A 
ATOM     67  C   UNL     1       7.133 -12.785   6.540  1.00  0.00     0.054 A 
BRANCH  67  68
ATOM     68  S   UNL     1       7.096 -14.598   6.494  1.00  0.00     0.124 S 
ATOM     69  O   UNL     1       6.327 -14.853   5.279  1.00  0.00    -0.237 OA
ATOM     70  O   UNL     1       8.513 -14.947   6.425  1.00  0.00    -0.237 OA
ATOM     71  O   UNL     1       6.428 -14.964   7.742  1.00  0.00    -0.744 OA
ENDBRANCH  67  68
ENDBRANCH  48  62
BRANCH  49  72
ATOM     72  C   UNL     1       7.650  -0.030   6.738  1.00  0.00    -0.014 A 
ATOM     73  C   UNL     1       8.874   0.618   6.497  1.00  0.00     0.010 A 
ATOM     74  C   UNL     1       6.495   0.742   6.960  1.00  0.00     0.010 A 
ATOM     75  C   UNL     1       8.943   2.014   6.478  1.00  0.00     0.020 A 
ATOM     76  C   UNL     1       6.557   2.138   6.918  1.00  0.00     0.020 A 
ATOM     77  C   UNL     1       7.782   2.765   6.682  1.00  0.00     0.054 A 
BRANCH  77  78
ATOM     78  S   UNL     1       7.878   4.573   6.566  1.00  0.00     0.124 S 
ATOM     79  O   UNL     1       8.513   4.926   7.831  1.00  0.00    -0.237 OA
ATOM     80  O   UNL     1       8.693   4.771   5.370  1.00  0.00    -0.237 OA
ATOM     81  O   UNL     1       6.480   4.979   6.429  1.00  0.00    -0.744 OA
ENDBRANCH  77  78
ENDBRANCH  49  72
BRANCH  61  82
ATOM     82  C   UNL     1       9.969  -5.005  11.041  1.00  0.00    -0.014 A 
ATOM     83  C   UNL     1       9.364  -4.614  12.248  1.00  0.00     0.010 A 
ATOM     84  C   UNL     1      11.314  -5.417  11.050  1.00  0.00     0.010 A 
ATOM     85  C   UNL     1      10.098  -4.609  13.437  1.00  0.00     0.020 A 
ATOM     86  C   UNL     1      12.045  -5.436  12.241  1.00  0.00     0.020 A 
ATOM     87  C   UNL     1      11.436  -5.018  13.425  1.00  0.00     0.054 A 
BRANCH  87  88
ATOM     88  S   UNL     1      12.357  -5.044  14.989  1.00  0.00     0.124 S 
ATOM     89  O   UNL     1      12.625  -3.626  15.206  1.00  0.00    -0.237 OA
ATOM     90  O   UNL     1      11.404  -5.653  15.914  1.00  0.00    -0.237 OA
ATOM     91  O   UNL     1      13.529  -5.861  14.686  1.00  0.00    -0.744 OA
ENDBRANCH  87  88
ENDBRANCH  61  82
ENDBRANCH  35  36
ENDBRANCH  27  30
ENDBRANCH  25  26
ENDBRANCH  24  25
ENDBRANCH   1  24
TORSDOF 17
