REMARK SMILES CC1(C)O[C@@H]2C[C@@H]3[C@H]4CCC5=CC(=O)C=C[C@@]5(C)[C@]4(F)[C@H](O)C[C@]3(C)[C@]2(C(=O)NCCCNC(=O)c2ccc(-c3c4nc(c(-c5ccc(S(=O)(=O)[O-])cc5)c5ccc([nH]5)c(-c5ccc(S(=O)(=O)[O-])cc5)c5nc(c(-c6ccc(S(=O)(=O)[O-])cc6)c6ccc3[nH]6)C=C5)C=C4)cc2)O1
REMARK SMILES IDX 32 1 31 2 30 3 29 4 27 5 28 6 26 8 1 9 2 10 4 11 96 12 3 13
REMARK SMILES IDX 5 14 6 15 24 16 7 17 23 18 25 19 8 20 21 21 9 22 19 23 10 24
REMARK SMILES IDX 17 25 20 26 11 27 16 28 18 29 12 30 15 31 13 32 14 33 22 34
REMARK SMILES IDX 33 36 34 37 35 39 36 40 37 41 95 42 38 43 94 44 39 45 40 46
REMARK SMILES IDX 41 47 88 48 42 49 93 50 87 51 89 52 43 53 92 54 86 55 85 56
REMARK SMILES IDX 44 58 74 59 55 60 73 61 56 62 59 63 72 64 90 65 57 66 58 67
REMARK SMILES IDX 71 69 91 70 60 71 45 72 46 73 54 74 47 75 53 76 48 77 49 78
REMARK SMILES IDX 50 79 51 80 52 81 75 82 76 83 84 84 77 85 83 86 78 87 79 88
REMARK SMILES IDX 80 89 81 90 82 91 61 92 62 93 70 94 63 95 69 96 64 97 65 98
REMARK SMILES IDX 66 99 67 100 68 101
REMARK H PARENT 29 7 22 35 33 38 89 57 59 68
REMARK Flexibility Score: inf
ROOT
ATOM      1  C   UNL     1      -6.080  -4.076  -2.157  1.00  0.00     0.118 C 
ENDROOT
BRANCH   1   2
ATOM      2  C   UNL     1      -5.181  -3.805  -0.975  1.00  0.00     0.042 C 
BRANCH   2   3
ATOM      3  C   UNL     1      -3.728  -3.767  -1.396  1.00  0.00     0.117 C 
BRANCH   3   4
ATOM      4  N   UNL     1      -3.223  -2.425  -1.475  1.00  0.00    -0.353 N 
ATOM      5  C   UNL     1      -2.590  -1.637  -0.575  1.00  0.00     0.255 C 
ATOM      6  O   UNL     1      -2.733  -0.429  -0.814  1.00  0.00    -0.272 OA
ATOM      7  H   UNL     1      -3.364  -1.997  -2.350  1.00  0.00     0.163 HD
BRANCH   5   8
ATOM      8  C   UNL     1      -1.622  -2.112   0.545  1.00  0.00     0.181 C 
ATOM      9  C   UNL     1       0.114   0.779  -0.252  1.00  0.00     0.075 C 
ATOM     10  C   UNL     1      -0.066  -0.329   0.782  1.00  0.00     0.164 C 
ATOM     11  O   UNL     1      -1.142  -0.058   1.685  1.00  0.00    -0.344 OA
ATOM     12  O   UNL     1      -0.310  -1.582   0.086  1.00  0.00    -0.331 OA
ATOM     13  C   UNL     1       1.234  -0.324   1.623  1.00  0.00     0.075 C 
ATOM     14  C   UNL     1      -1.840  -1.295   1.870  1.00  0.00     0.164 C 
ATOM     15  C   UNL     1      -1.188  -2.159   3.052  1.00  0.00     0.040 C 
ATOM     16  C   UNL     1      -1.508  -3.604   1.123  1.00  0.00     0.014 C 
ATOM     17  C   UNL     1      -0.464  -3.281   2.253  1.00  0.00     0.008 C 
ATOM     18  C   UNL     1      -1.063  -4.834   0.294  1.00  0.00     0.046 C 
ATOM     19  C   UNL     1      -2.893  -4.019   1.767  1.00  0.00     0.015 C 
ATOM     20  C   UNL     1       1.005  -3.835   2.156  1.00  0.00     0.035 C 
ATOM     21  C   UNL     1       0.399  -5.054   0.032  1.00  0.00     0.154 C 
ATOM     22  C   UNL     1       1.799  -3.833   3.454  1.00  0.00     0.012 C 
ATOM     23  C   UNL     1       1.206  -5.124   1.347  1.00  0.00     0.152 C 
ATOM     24  C   UNL     1       3.291  -3.855   3.092  1.00  0.00     0.032 C 
ATOM     25  C   UNL     1       2.741  -5.430   1.078  1.00  0.00     0.044 C 
ATOM     26  F   UNL     1       0.684  -6.142   2.107  1.00  0.00    -0.239 F 
ATOM     27  C   UNL     1       3.669  -5.042   2.239  1.00  0.00    -0.053 C 
ATOM     28  C   UNL     1       2.939  -6.912   0.749  1.00  0.00    -0.009 C 
ATOM     29  C   UNL     1       3.292  -4.667  -0.167  1.00  0.00     0.024 C 
ATOM     30  C   UNL     1       4.849  -5.672   2.409  1.00  0.00     0.052 C 
ATOM     31  C   UNL     1       4.143  -7.498   0.820  1.00  0.00     0.048 C 
ATOM     32  C   UNL     1       5.243  -6.800   1.524  1.00  0.00     0.178 C 
ATOM     33  O   UNL     1       6.402  -7.185   1.448  1.00  0.00    -0.290 OA
BRANCH  21  34
ATOM     34  O   UNL     1       0.801  -4.031  -0.871  1.00  0.00    -0.390 OA
ATOM     35  H   UNL     1       0.629  -3.163  -0.473  1.00  0.00     0.211 HD
ENDBRANCH  21  34
ENDBRANCH   5   8
ENDBRANCH   3   4
ENDBRANCH   2   3
ENDBRANCH   1   2
BRANCH   1  36
ATOM     36  N   UNL     1      -5.885  -5.422  -2.699  1.00  0.00    -0.352 N 
ATOM     37  C   UNL     1      -6.772  -6.465  -2.803  1.00  0.00     0.251 C 
ATOM     38  H   UNL     1      -4.981  -5.608  -3.040  1.00  0.00     0.163 HD
ATOM     39  O   UNL     1      -6.362  -7.585  -3.113  1.00  0.00    -0.269 OA
BRANCH  37  40
ATOM     40  C   UNL     1      -8.199  -6.239  -2.510  1.00  0.00     0.039 A 
ATOM     41  C   UNL     1      -8.924  -7.207  -1.812  1.00  0.00     0.014 A 
ATOM     42  C   UNL     1      -8.806  -5.040  -2.882  1.00  0.00     0.014 A 
ATOM     43  C   UNL     1     -10.233  -6.927  -1.420  1.00  0.00     0.010 A 
ATOM     44  C   UNL     1     -10.039  -4.704  -2.354  1.00  0.00     0.010 A 
ATOM     45  C   UNL     1     -10.783  -5.654  -1.645  1.00  0.00    -0.014 A 
BRANCH  45  46
ATOM     46  C   UNL     1     -12.147  -5.295  -1.192  1.00  0.00     0.031 A 
ATOM     47  C   UNL     1     -13.168  -4.836  -2.201  1.00  0.00     0.074 A 
ATOM     48  C   UNL     1     -12.439  -5.305   0.124  1.00  0.00     0.049 A 
ATOM     49  N   UNL     1     -14.387  -4.408  -2.003  1.00  0.00    -0.248 NA
ATOM     50  C   UNL     1     -12.750  -4.811  -3.615  1.00  0.00     0.031 C 
ATOM     51  C   UNL     1     -11.510  -5.668   1.199  1.00  0.00     0.029 A 
ATOM     52  N   UNL     1     -13.601  -4.998   0.782  1.00  0.00    -0.354 N 
ATOM     53  C   UNL     1     -14.863  -4.039  -3.256  1.00  0.00     0.074 A 
ATOM     54  C   UNL     1     -13.781  -4.220  -4.194  1.00  0.00     0.031 C 
ATOM     55  C   UNL     1     -12.154  -5.608   2.375  1.00  0.00     0.029 A 
ATOM     56  C   UNL     1     -13.521  -5.155   2.146  1.00  0.00     0.049 A 
ATOM     57  H   UNL     1     -14.417  -4.694   0.322  1.00  0.00     0.167 HD
ATOM     58  C   UNL     1     -16.102  -3.619  -3.603  1.00  0.00     0.031 A 
ATOM     59  C   UNL     1     -14.446  -4.954   3.104  1.00  0.00     0.031 A 
ATOM     60  C   UNL     1     -17.179  -3.469  -2.664  1.00  0.00     0.049 A 
ATOM     61  C   UNL     1     -15.821  -4.500   2.697  1.00  0.00     0.074 A 
ATOM     62  C   UNL     1     -18.494  -3.119  -2.912  1.00  0.00     0.029 A 
ATOM     63  N   UNL     1     -17.063  -3.660  -1.295  1.00  0.00    -0.354 N 
ATOM     64  N   UNL     1     -16.277  -4.233   1.496  1.00  0.00    -0.248 NA
ATOM     65  C   UNL     1     -16.808  -4.334   3.771  1.00  0.00     0.031 C 
ATOM     66  C   UNL     1     -19.158  -3.040  -1.684  1.00  0.00     0.029 A 
ATOM     67  C   UNL     1     -18.276  -3.408  -0.679  1.00  0.00     0.049 A 
ATOM     68  H   UNL     1     -16.240  -3.934  -0.830  1.00  0.00     0.167 HD
ATOM     69  C   UNL     1     -17.614  -3.891   1.667  1.00  0.00     0.074 A 
ATOM     70  C   UNL     1     -17.894  -4.003   3.085  1.00  0.00     0.031 C 
ATOM     71  C   UNL     1     -18.528  -3.521   0.736  1.00  0.00     0.031 A 
BRANCH  58  72
ATOM     72  C   UNL     1     -16.346  -3.293  -5.054  1.00  0.00    -0.014 A 
ATOM     73  C   UNL     1     -16.314  -4.293  -6.045  1.00  0.00     0.010 A 
ATOM     74  C   UNL     1     -16.623  -1.968  -5.434  1.00  0.00     0.010 A 
ATOM     75  C   UNL     1     -16.498  -3.966  -7.391  1.00  0.00     0.020 A 
ATOM     76  C   UNL     1     -16.844  -1.641  -6.776  1.00  0.00     0.020 A 
ATOM     77  C   UNL     1     -16.759  -2.640  -7.748  1.00  0.00     0.054 A 
BRANCH  77  78
ATOM     78  S   UNL     1     -17.006  -2.247  -9.500  1.00  0.00     0.124 S 
ATOM     79  O   UNL     1     -15.653  -2.387 -10.033  1.00  0.00    -0.237 OA
ATOM     80  O   UNL     1     -17.957  -3.271  -9.926  1.00  0.00    -0.237 OA
ATOM     81  O   UNL     1     -17.529  -0.883  -9.480  1.00  0.00    -0.744 OA
ENDBRANCH  77  78
ENDBRANCH  58  72
BRANCH  59  82
ATOM     82  C   UNL     1     -14.103  -5.212   4.529  1.00  0.00    -0.014 A 
ATOM     83  C   UNL     1     -14.653  -6.313   5.210  1.00  0.00     0.010 A 
ATOM     84  C   UNL     1     -13.191  -4.380   5.204  1.00  0.00     0.010 A 
ATOM     85  C   UNL     1     -14.306  -6.571   6.540  1.00  0.00     0.020 A 
ATOM     86  C   UNL     1     -12.818  -4.651   6.524  1.00  0.00     0.020 A 
ATOM     87  C   UNL     1     -13.384  -5.741   7.186  1.00  0.00     0.054 A 
BRANCH  87  88
ATOM     88  S   UNL     1     -12.897  -6.137   8.889  1.00  0.00     0.124 S 
ATOM     89  O   UNL     1     -14.101  -5.793   9.638  1.00  0.00    -0.237 OA
ATOM     90  O   UNL     1     -12.588  -7.562   8.803  1.00  0.00    -0.237 OA
ATOM     91  O   UNL     1     -11.743  -5.271   9.123  1.00  0.00    -0.744 OA
ENDBRANCH  87  88
ENDBRANCH  59  82
BRANCH  71  92
ATOM     92  C   UNL     1     -19.927  -3.239   1.214  1.00  0.00    -0.014 A 
ATOM     93  C   UNL     1     -20.224  -2.090   1.967  1.00  0.00     0.010 A 
ATOM     94  C   UNL     1     -20.970  -4.109   0.848  1.00  0.00     0.010 A 
ATOM     95  C   UNL     1     -21.536  -1.833   2.373  1.00  0.00     0.020 A 
ATOM     96  C   UNL     1     -22.287  -3.839   1.223  1.00  0.00     0.020 A 
ATOM     97  C   UNL     1     -22.559  -2.709   1.996  1.00  0.00     0.054 A 
BRANCH  97  98
ATOM     98  S   UNL     1     -24.260  -2.328   2.496  1.00  0.00     0.124 S 
ATOM     99  O   UNL     1     -24.225  -2.609   3.928  1.00  0.00    -0.237 OA
ATOM    100  O   UNL     1     -24.390  -0.919   2.134  1.00  0.00    -0.237 OA
ATOM    101  O   UNL     1     -25.070  -3.248   1.700  1.00  0.00    -0.744 OA
ENDBRANCH  97  98
ENDBRANCH  71  92
ENDBRANCH  45  46
ENDBRANCH  37  40
ENDBRANCH   1  36
TORSDOF 14
