REMARK SMILES C[C@]1(C(=O)NCCCNC(=O)c2ccc(-c3c4nc(c(-c5ccc(S(=O)(=O)[O-])cc5)c5ccc([nH]5)c(-c5ccc(S(=O)(=O)[O-])cc5)c5nc(c(-c6ccc(S(=O)(=O)[O-])cc6)c6ccc3[nH]6)C=C5)C=C4)cc2)[NH2+]C2(C(=O)c3ccccc3C2=O)[C@@H]2C(=O)N(c3ccccc3)C(=O)[C@H]21
REMARK SMILES IDX 8 1 7 2 6 3 5 4 3 5 4 6 2 8 1 9 72 10 96 11 73 12 84 15
REMARK SMILES IDX 94 16 74 17 82 18 85 19 87 20 95 21 75 22 76 23 81 24 83 25
REMARK SMILES IDX 86 26 77 27 80 28 78 29 79 30 88 31 89 32 93 33 90 34 92 35
REMARK SMILES IDX 91 36 9 37 10 38 11 40 12 41 13 42 71 43 14 44 70 45 15 46
REMARK SMILES IDX 16 47 17 48 64 49 18 50 69 51 63 52 65 53 19 54 68 55 62 56
REMARK SMILES IDX 61 57 20 59 50 60 31 61 49 62 32 63 35 64 48 65 66 66 33 67
REMARK SMILES IDX 34 68 47 70 67 71 36 72 21 73 22 74 30 75 23 76 29 77 24 78
REMARK SMILES IDX 25 79 26 80 27 81 28 82 51 83 52 84 60 85 53 86 59 87 54 88
REMARK SMILES IDX 55 89 56 90 57 91 58 92 37 93 38 94 46 95 39 96 45 97 40 98
REMARK SMILES IDX 41 99 42 100 43 101 44 102
REMARK H PARENT 5 7 72 13 72 14 9 39 65 58 35 69
REMARK Flexibility Score: inf
ROOT
ATOM      1  C   UNL     1       2.333  -0.102   6.724  1.00  0.00     0.118 C 
ENDROOT
BRANCH   1   2
ATOM      2  C   UNL     1       1.230  -0.549   5.783  1.00  0.00     0.042 C 
BRANCH   2   3
ATOM      3  C   UNL     1       1.061   0.368   4.582  1.00  0.00     0.118 C 
BRANCH   3   4
ATOM      4  N   UNL     1       1.903   0.113   3.443  1.00  0.00    -0.351 N 
ATOM      5  C   UNL     1       1.636   0.078   2.107  1.00  0.00     0.281 C 
ATOM      6  O   UNL     1       2.620  -0.242   1.420  1.00  0.00    -0.268 OA
ATOM      7  H   UNL     1       2.844  -0.069   3.671  1.00  0.00     0.163 HD
BRANCH   5   8
ATOM      8  C   UNL     1       0.246   0.395   1.399  1.00  0.00     0.186 C 
ATOM      9  C   UNL     1       0.511   0.203  -0.121  1.00  0.00     0.091 C 
ATOM     10  N   UNL     1      -0.867  -0.546   1.807  1.00  0.00    -0.314 N 
ATOM     11  C   UNL     1      -0.411   1.735   1.577  1.00  0.00     0.170 C 
ATOM     12  C   UNL     1      -1.973   0.245   2.500  1.00  0.00     0.236 C 
ATOM     13  H   UNL     1      -0.499  -1.250   2.448  1.00  0.00     0.348 HD
ATOM     14  H   UNL     1      -1.244  -1.006   0.979  1.00  0.00     0.348 HD
ATOM     15  C   UNL     1      -1.347   1.584   2.757  1.00  0.00     0.177 C 
ATOM     16  C   UNL     1       0.253   3.020   1.903  1.00  0.00     0.244 C 
ATOM     17  C   UNL     1      -3.282   0.272   1.708  1.00  0.00     0.232 C 
ATOM     18  C   UNL     1      -2.378  -0.541   3.762  1.00  0.00     0.232 C 
ATOM     19  C   UNL     1      -1.877   2.979   2.815  1.00  0.00     0.245 C 
ATOM     20  N   UNL     1      -0.759   3.766   2.509  1.00  0.00    -0.250 N 
ATOM     21  O   UNL     1       1.405   3.315   1.644  1.00  0.00    -0.273 OA
ATOM     22  O   UNL     1      -3.441   0.736   0.592  1.00  0.00    -0.286 OA
ATOM     23  C   UNL     1      -4.325  -0.410   2.497  1.00  0.00     0.036 A 
ATOM     24  C   UNL     1      -3.777  -0.902   3.671  1.00  0.00     0.036 A 
ATOM     25  O   UNL     1      -1.709  -0.872   4.724  1.00  0.00    -0.286 OA
ATOM     26  O   UNL     1      -2.984   3.296   3.211  1.00  0.00    -0.273 OA
ATOM     27  C   UNL     1      -5.663  -0.612   2.217  1.00  0.00     0.013 A 
ATOM     28  C   UNL     1      -4.501  -1.633   4.597  1.00  0.00     0.013 A 
ATOM     29  C   UNL     1      -6.426  -1.333   3.151  1.00  0.00     0.001 A 
ATOM     30  C   UNL     1      -5.848  -1.847   4.327  1.00  0.00     0.001 A 
BRANCH  20  31
ATOM     31  C   UNL     1      -0.539   5.083   2.952  1.00  0.00     0.052 A 
ATOM     32  C   UNL     1       0.049   6.024   2.097  1.00  0.00     0.027 A 
ATOM     33  C   UNL     1      -0.759   5.415   4.293  1.00  0.00     0.027 A 
ATOM     34  C   UNL     1       0.407   7.285   2.574  1.00  0.00     0.002 A 
ATOM     35  C   UNL     1      -0.346   6.657   4.780  1.00  0.00     0.002 A 
ATOM     36  C   UNL     1       0.229   7.593   3.921  1.00  0.00     0.000 A 
ENDBRANCH  20  31
ENDBRANCH   5   8
ENDBRANCH   3   4
ENDBRANCH   2   3
ENDBRANCH   1   2
BRANCH   1  37
ATOM     37  N   UNL     1       1.906   0.933   7.666  1.00  0.00    -0.352 N 
ATOM     38  C   UNL     1       1.241   0.918   8.875  1.00  0.00     0.251 C 
ATOM     39  H   UNL     1       2.146   1.842   7.372  1.00  0.00     0.163 HD
ATOM     40  O   UNL     1       0.932   2.006   9.365  1.00  0.00    -0.269 OA
BRANCH  38  41
ATOM     41  C   UNL     1       0.838  -0.330   9.582  1.00  0.00     0.039 A 
ATOM     42  C   UNL     1       1.524  -1.528   9.445  1.00  0.00     0.014 A 
ATOM     43  C   UNL     1      -0.256  -0.298  10.463  1.00  0.00     0.014 A 
ATOM     44  C   UNL     1       1.003  -2.708   9.969  1.00  0.00     0.010 A 
ATOM     45  C   UNL     1      -0.695  -1.465  11.116  1.00  0.00     0.010 A 
ATOM     46  C   UNL     1      -0.107  -2.703  10.825  1.00  0.00    -0.014 A 
BRANCH  46  47
ATOM     47  C   UNL     1      -0.605  -4.005  11.371  1.00  0.00     0.031 A 
ATOM     48  C   UNL     1      -2.023  -4.463  11.125  1.00  0.00     0.074 A 
ATOM     49  C   UNL     1       0.258  -4.839  11.993  1.00  0.00     0.049 A 
ATOM     50  N   UNL     1      -2.587  -5.598  11.459  1.00  0.00    -0.248 NA
ATOM     51  C   UNL     1      -2.930  -3.536  10.428  1.00  0.00     0.031 C 
ATOM     52  C   UNL     1       1.659  -4.528  12.293  1.00  0.00     0.029 A 
ATOM     53  N   UNL     1       0.116  -6.138  12.422  1.00  0.00    -0.354 N 
ATOM     54  C   UNL     1      -3.911  -5.508  11.043  1.00  0.00     0.074 A 
ATOM     55  C   UNL     1      -4.080  -4.197  10.458  1.00  0.00     0.031 C 
ATOM     56  C   UNL     1       2.274  -5.635  12.730  1.00  0.00     0.029 A 
ATOM     57  C   UNL     1       1.296  -6.712  12.844  1.00  0.00     0.049 A 
ATOM     58  H   UNL     1      -0.747  -6.613  12.427  1.00  0.00     0.167 HD
ATOM     59  C   UNL     1      -4.894  -6.436  11.124  1.00  0.00     0.031 A 
ATOM     60  C   UNL     1       1.576  -7.960  13.274  1.00  0.00     0.031 A 
ATOM     61  C   UNL     1      -4.718  -7.757  11.668  1.00  0.00     0.049 A 
ATOM     62  C   UNL     1       0.471  -8.972  13.356  1.00  0.00     0.074 A 
ATOM     63  C   UNL     1      -5.663  -8.761  11.798  1.00  0.00     0.029 A 
ATOM     64  N   UNL     1      -3.523  -8.270  12.146  1.00  0.00    -0.354 N 
ATOM     65  N   UNL     1      -0.782  -8.844  12.993  1.00  0.00    -0.248 NA
ATOM     66  C   UNL     1       0.808 -10.288  13.916  1.00  0.00     0.031 C 
ATOM     67  C   UNL     1      -5.050  -9.864  12.394  1.00  0.00     0.029 A 
ATOM     68  C   UNL     1      -3.709  -9.572  12.579  1.00  0.00     0.049 A 
ATOM     69  H   UNL     1      -2.669  -7.781  12.174  1.00  0.00     0.167 HD
ATOM     70  C   UNL     1      -1.384 -10.063  13.278  1.00  0.00     0.074 A 
ATOM     71  C   UNL     1      -0.353 -10.925  13.821  1.00  0.00     0.031 C 
ATOM     72  C   UNL     1      -2.678 -10.426  13.113  1.00  0.00     0.031 A 
BRANCH  59  73
ATOM     73  C   UNL     1      -6.264  -6.072  10.612  1.00  0.00    -0.014 A 
ATOM     74  C   UNL     1      -7.332  -5.923  11.518  1.00  0.00     0.010 A 
ATOM     75  C   UNL     1      -6.522  -5.985   9.232  1.00  0.00     0.010 A 
ATOM     76  C   UNL     1      -8.634  -5.718  11.055  1.00  0.00     0.020 A 
ATOM     77  C   UNL     1      -7.820  -5.753   8.767  1.00  0.00     0.020 A 
ATOM     78  C   UNL     1      -8.871  -5.641   9.681  1.00  0.00     0.054 A 
BRANCH  78  79
ATOM     79  S   UNL     1     -10.566  -5.375   9.091  1.00  0.00     0.124 S 
ATOM     80  O   UNL     1     -11.146  -6.709   9.205  1.00  0.00    -0.237 OA
ATOM     81  O   UNL     1     -11.080  -4.378  10.027  1.00  0.00    -0.237 OA
ATOM     82  O   UNL     1     -10.375  -4.888   7.725  1.00  0.00    -0.744 OA
ENDBRANCH  78  79
ENDBRANCH  59  73
BRANCH  60  83
ATOM     83  C   UNL     1       2.979  -8.305  13.642  1.00  0.00    -0.014 A 
ATOM     84  C   UNL     1       3.594  -7.695  14.752  1.00  0.00     0.010 A 
ATOM     85  C   UNL     1       3.738  -9.169  12.832  1.00  0.00     0.010 A 
ATOM     86  C   UNL     1       4.955  -7.884  15.004  1.00  0.00     0.020 A 
ATOM     87  C   UNL     1       5.094  -9.388  13.102  1.00  0.00     0.020 A 
ATOM     88  C   UNL     1       5.700  -8.716  14.166  1.00  0.00     0.054 A 
BRANCH  88  89
ATOM     89  S   UNL     1       7.479  -8.899  14.476  1.00  0.00     0.124 S 
ATOM     90  O   UNL     1       8.010  -7.670  13.893  1.00  0.00    -0.237 OA
ATOM     91  O   UNL     1       7.545  -8.985  15.932  1.00  0.00    -0.237 OA
ATOM     92  O   UNL     1       7.823 -10.128  13.766  1.00  0.00    -0.744 OA
ENDBRANCH  88  89
ENDBRANCH  60  83
BRANCH  72  93
ATOM     93  C   UNL     1      -3.084 -11.819  13.510  1.00  0.00    -0.014 A 
ATOM     94  C   UNL     1      -3.454 -12.745  12.517  1.00  0.00     0.010 A 
ATOM     95  C   UNL     1      -3.239 -12.164  14.864  1.00  0.00     0.010 A 
ATOM     96  C   UNL     1      -4.007 -13.978  12.869  1.00  0.00     0.020 A 
ATOM     97  C   UNL     1      -3.769 -13.407  15.220  1.00  0.00     0.020 A 
ATOM     98  C   UNL     1      -4.175 -14.295  14.220  1.00  0.00     0.054 A 
BRANCH  98  99
ATOM     99  S   UNL     1      -4.937 -15.882  14.659  1.00  0.00     0.124 S 
ATOM    100  O   UNL     1      -6.353 -15.616  14.427  1.00  0.00    -0.237 OA
ATOM    101  O   UNL     1      -4.309 -16.812  13.723  1.00  0.00    -0.237 OA
ATOM    102  O   UNL     1      -4.556 -16.067  16.058  1.00  0.00    -0.744 OA
ENDBRANCH  98  99
ENDBRANCH  72  93
ENDBRANCH  46  47
ENDBRANCH  38  41
ENDBRANCH   1  37
TORSDOF 14
