REMARK SMILES COc1ccc(C(=O)c2ccccc2)cc1[C@@H](C)C(=O)NCCCNC(=O)c1ccc(-c2c3nc(c(-c4ccc(S(=O)(=O)[O-])cc4)c4ccc([nH]4)c(-c4ccc(S(=O)(=O)[O-])cc4)c4nc(c(-c5ccc(S(=O)(=O)[O-])cc5)c5ccc2[nH]5)C=C4)C=C3)cc1
REMARK SMILES IDX 23 1 22 2 21 3 19 4 20 5 17 7 18 8 16 9 3 10 4 11 5 12 15 13
REMARK SMILES IDX 6 14 2 15 1 16 7 17 8 18 9 19 10 20 14 21 11 22 13 23 12 24
REMARK SMILES IDX 24 25 25 26 26 27 27 29 28 30 29 31 87 32 30 33 86 34 31 35
REMARK SMILES IDX 32 36 33 37 80 38 34 39 85 40 79 41 81 42 35 43 84 44 78 45
REMARK SMILES IDX 77 46 36 48 66 49 47 50 65 51 48 52 51 53 64 54 82 55 49 56
REMARK SMILES IDX 50 57 63 59 83 60 52 61 37 62 38 63 46 64 39 65 45 66 40 67
REMARK SMILES IDX 41 68 42 69 43 70 44 71 67 72 68 73 76 74 69 75 75 76 70 77
REMARK SMILES IDX 71 78 72 79 73 80 74 81 53 82 54 83 62 84 55 85 61 86 56 87
REMARK SMILES IDX 57 88 58 89 59 90 60 91
REMARK H PARENT 21 6 25 28 81 47 51 58
REMARK Flexibility Score: inf
ROOT
ATOM      1  C   UNL     1       4.666   4.944   0.144  1.00  0.00     0.042 C 
ENDROOT
BRANCH   1   2
ATOM      2  C   UNL     1       5.347   3.579   0.148  1.00  0.00     0.117 C 
BRANCH   2   3
ATOM      3  N   UNL     1       4.605   2.598   0.916  1.00  0.00    -0.356 N 
ATOM      4  C   UNL     1       3.732   1.615   0.568  1.00  0.00     0.227 C 
ATOM      5  O   UNL     1       3.229   0.995   1.516  1.00  0.00    -0.274 OA
ATOM      6  H   UNL     1       4.765   2.656   1.885  1.00  0.00     0.163 HD
BRANCH   4   7
ATOM      7  C   UNL     1       3.337   1.253  -0.875  1.00  0.00     0.109 C 
ATOM      8  C   UNL     1       4.488   1.043  -1.858  1.00  0.00     0.023 C 
BRANCH   7   9
ATOM      9  C   UNL     1       2.192   2.099  -1.416  1.00  0.00     0.007 A 
ATOM     10  C   UNL     1       0.867   1.635  -1.421  1.00  0.00     0.122 A 
ATOM     11  C   UNL     1      -0.177   2.430  -1.903  1.00  0.00     0.047 A 
ATOM     12  C   UNL     1       0.083   3.716  -2.376  1.00  0.00     0.016 A 
ATOM     13  C   UNL     1       2.428   3.391  -1.924  1.00  0.00     0.020 A 
ATOM     14  C   UNL     1       1.393   4.207  -2.404  1.00  0.00     0.023 A 
BRANCH  10  15
ATOM     15  O   UNL     1       0.560   0.344  -1.084  1.00  0.00    -0.496 OA
ATOM     16  C   UNL     1       0.308   0.203   0.315  1.00  0.00     0.278 C 
ENDBRANCH  10  15
BRANCH  14  17
ATOM     17  C   UNL     1       1.609   5.603  -2.896  1.00  0.00     0.193 C 
ATOM     18  O   UNL     1       0.639   6.299  -3.184  1.00  0.00    -0.289 OA
BRANCH  17  19
ATOM     19  C   UNL     1       2.951   6.224  -2.974  1.00  0.00     0.022 A 
ATOM     20  C   UNL     1       3.130   7.466  -2.357  1.00  0.00     0.012 A 
ATOM     21  C   UNL     1       4.017   5.618  -3.649  1.00  0.00     0.012 A 
ATOM     22  C   UNL     1       4.387   8.068  -2.365  1.00  0.00     0.001 A 
ATOM     23  C   UNL     1       5.280   6.218  -3.635  1.00  0.00     0.001 A 
ATOM     24  C   UNL     1       5.466   7.437  -2.983  1.00  0.00     0.000 A 
ENDBRANCH  17  19
ENDBRANCH  14  17
ENDBRANCH   7   9
ENDBRANCH   4   7
ENDBRANCH   2   3
ENDBRANCH   1   2
BRANCH   1  25
ATOM     25  C   UNL     1       5.057   5.869   1.288  1.00  0.00     0.118 C 
BRANCH  25  26
ATOM     26  N   UNL     1       6.409   6.392   1.145  1.00  0.00    -0.352 N 
ATOM     27  C   UNL     1       6.889   7.655   0.885  1.00  0.00     0.251 C 
ATOM     28  H   UNL     1       7.113   5.712   1.256  1.00  0.00     0.163 HD
ATOM     29  O   UNL     1       8.084   7.770   0.617  1.00  0.00    -0.269 OA
BRANCH  27  30
ATOM     30  C   UNL     1       6.026   8.866   0.893  1.00  0.00     0.039 A 
ATOM     31  C   UNL     1       6.372   9.937   0.054  1.00  0.00     0.014 A 
ATOM     32  C   UNL     1       4.928   9.006   1.742  1.00  0.00     0.014 A 
ATOM     33  C   UNL     1       5.584  11.096   0.011  1.00  0.00     0.010 A 
ATOM     34  C   UNL     1       4.100  10.127   1.648  1.00  0.00     0.010 A 
ATOM     35  C   UNL     1       4.425  11.188   0.791  1.00  0.00    -0.014 A 
BRANCH  35  36
ATOM     36  C   UNL     1       3.576  12.407   0.793  1.00  0.00     0.031 A 
ATOM     37  C   UNL     1       3.521  13.268   2.027  1.00  0.00     0.074 A 
ATOM     38  C   UNL     1       2.801  12.705  -0.268  1.00  0.00     0.049 A 
ATOM     39  N   UNL     1       2.784  14.321   2.269  1.00  0.00    -0.248 NA
ATOM     40  C   UNL     1       4.396  12.875   3.144  1.00  0.00     0.031 C 
ATOM     41  C   UNL     1       2.739  11.942  -1.515  1.00  0.00     0.029 A 
ATOM     42  N   UNL     1       1.898  13.722  -0.458  1.00  0.00    -0.354 N 
ATOM     43  C   UNL     1       3.092  14.705   3.569  1.00  0.00     0.074 A 
ATOM     44  C   UNL     1       4.046  13.745   4.079  1.00  0.00     0.031 C 
ATOM     45  C   UNL     1       1.848  12.517  -2.340  1.00  0.00     0.029 A 
ATOM     46  C   UNL     1       1.256  13.673  -1.673  1.00  0.00     0.049 A 
ATOM     47  H   UNL     1       1.726  14.422   0.213  1.00  0.00     0.167 HD
ATOM     48  C   UNL     1       2.638  15.771   4.271  1.00  0.00     0.031 A 
ATOM     49  C   UNL     1       0.294  14.463  -2.190  1.00  0.00     0.031 A 
ATOM     50  C   UNL     1       1.693  16.728   3.764  1.00  0.00     0.049 A 
ATOM     51  C   UNL     1      -0.210  15.632  -1.386  1.00  0.00     0.074 A 
ATOM     52  C   UNL     1       1.209  17.869   4.380  1.00  0.00     0.029 A 
ATOM     53  N   UNL     1       1.083  16.654   2.521  1.00  0.00    -0.354 N 
ATOM     54  N   UNL     1       0.145  16.020  -0.184  1.00  0.00    -0.248 NA
ATOM     55  C   UNL     1      -1.234  16.480  -2.015  1.00  0.00     0.031 C 
ATOM     56  C   UNL     1       0.273  18.461   3.525  1.00  0.00     0.029 A 
ATOM     57  C   UNL     1       0.212  17.717   2.357  1.00  0.00     0.049 A 
ATOM     58  H   UNL     1       1.246  15.949   1.853  1.00  0.00     0.167 HD
ATOM     59  C   UNL     1      -0.589  17.174   0.074  1.00  0.00     0.074 A 
ATOM     60  C   UNL     1      -1.401  17.425  -1.099  1.00  0.00     0.031 C 
ATOM     61  C   UNL     1      -0.586  17.957   1.181  1.00  0.00     0.031 A 
BRANCH  48  62
ATOM     62  C   UNL     1       3.160  15.941   5.673  1.00  0.00    -0.014 A 
ATOM     63  C   UNL     1       4.497  16.311   5.908  1.00  0.00     0.010 A 
ATOM     64  C   UNL     1       2.305  15.728   6.769  1.00  0.00     0.010 A 
ATOM     65  C   UNL     1       4.985  16.407   7.213  1.00  0.00     0.020 A 
ATOM     66  C   UNL     1       2.783  15.852   8.077  1.00  0.00     0.020 A 
ATOM     67  C   UNL     1       4.126  16.167   8.290  1.00  0.00     0.054 A 
BRANCH  67  68
ATOM     68  S   UNL     1       4.787  16.288   9.974  1.00  0.00     0.124 S 
ATOM     69  O   UNL     1       5.557  15.051  10.083  1.00  0.00    -0.237 OA
ATOM     70  O   UNL     1       5.578  17.516   9.923  1.00  0.00    -0.237 OA
ATOM     71  O   UNL     1       3.592  16.355  10.812  1.00  0.00    -0.744 OA
ENDBRANCH  67  68
ENDBRANCH  48  62
BRANCH  49  72
ATOM     72  C   UNL     1      -0.238  14.193  -3.554  1.00  0.00    -0.014 A 
ATOM     73  C   UNL     1       0.098  15.037  -4.627  1.00  0.00     0.010 A 
ATOM     74  C   UNL     1      -1.073  13.085  -3.791  1.00  0.00     0.010 A 
ATOM     75  C   UNL     1      -0.404  14.790  -5.908  1.00  0.00     0.020 A 
ATOM     76  C   UNL     1      -1.558  12.821  -5.076  1.00  0.00     0.020 A 
ATOM     77  C   UNL     1      -1.228  13.682  -6.125  1.00  0.00     0.054 A 
BRANCH  77  78
ATOM     78  S   UNL     1      -1.826  13.357  -7.808  1.00  0.00     0.124 S 
ATOM     79  O   UNL     1      -2.833  14.399  -7.979  1.00  0.00    -0.237 OA
ATOM     80  O   UNL     1      -0.614  13.512  -8.609  1.00  0.00    -0.237 OA
ATOM     81  O   UNL     1      -2.343  11.993  -7.731  1.00  0.00    -0.744 OA
ENDBRANCH  77  78
ENDBRANCH  49  72
BRANCH  61  82
ATOM     82  C   UNL     1      -1.457  19.185   1.169  1.00  0.00    -0.014 A 
ATOM     83  C   UNL     1      -2.853  19.090   1.297  1.00  0.00     0.010 A 
ATOM     84  C   UNL     1      -0.858  20.456   1.097  1.00  0.00     0.010 A 
ATOM     85  C   UNL     1      -3.638  20.247   1.331  1.00  0.00     0.020 A 
ATOM     86  C   UNL     1      -1.637  21.614   1.155  1.00  0.00     0.020 A 
ATOM     87  C   UNL     1      -3.025  21.502   1.260  1.00  0.00     0.054 A 
BRANCH  87  88
ATOM     88  S   UNL     1      -4.059  22.989   1.364  1.00  0.00     0.124 S 
ATOM     89  O   UNL     1      -4.662  23.032   0.035  1.00  0.00    -0.237 OA
ATOM     90  O   UNL     1      -4.971  22.671   2.459  1.00  0.00    -0.237 OA
ATOM     91  O   UNL     1      -3.102  24.056   1.649  1.00  0.00    -0.744 OA
ENDBRANCH  87  88
ENDBRANCH  61  82
ENDBRANCH  35  36
ENDBRANCH  27  30
ENDBRANCH  25  26
ENDBRANCH   1  25
TORSDOF 17
