REMARK SMILES C[N@@H+]1CCC[C@@H](NC(=O)N(CC(=O)NCCCNC(=O)c2ccc(-c3c4nc(c(-c5ccc(S(=O)(=O)[O-])cc5)c5ccc([nH]5)c(-c5ccc(S(=O)(=O)[O-])cc5)c5nc(c(-c6ccc(S(=O)(=O)[O-])cc6)c6ccc3[nH]6)C=C5)C=C4)cc2)C(C)(C)C)C1
REMARK SMILES IDX 16 1 15 2 14 3 12 4 13 5 11 7 10 8 8 9 7 10 9 12 6 13 1 14
REMARK SMILES IDX 2 15 3 16 85 17 4 19 5 20 81 21 82 22 83 23 84 24 17 25
REMARK SMILES IDX 18 26 19 27 20 29 21 30 22 31 80 32 23 33 79 34 24 35 25 36
REMARK SMILES IDX 26 37 73 38 27 39 78 40 72 41 74 42 28 43 77 44 71 45 70 46
REMARK SMILES IDX 29 48 59 49 40 50 58 51 41 52 44 53 57 54 75 55 42 56 43 57
REMARK SMILES IDX 56 59 76 60 45 61 30 62 31 63 39 64 32 65 38 66 33 67 34 68
REMARK SMILES IDX 35 69 36 70 37 71 60 72 61 73 69 74 62 75 68 76 63 77 64 78
REMARK SMILES IDX 65 79 66 80 67 81 46 82 47 83 55 84 48 85 54 86 49 87 50 88
REMARK SMILES IDX 51 89 52 90 53 91
REMARK H PARENT 14 6 7 11 2 18 18 28 74 47 44 58
REMARK Flexibility Score: inf
ROOT
ATOM      1  C   UNL     1       5.294  -1.151   1.623  1.00  0.00     0.042 C 
ENDROOT
BRANCH   1   2
ATOM      2  C   UNL     1       4.519  -1.410   0.346  1.00  0.00     0.117 C 
BRANCH   2   3
ATOM      3  N   UNL     1       4.809  -2.645  -0.341  1.00  0.00    -0.354 N 
ATOM      4  C   UNL     1       3.955  -3.649  -0.688  1.00  0.00     0.239 C 
ATOM      5  O   UNL     1       4.284  -4.339  -1.662  1.00  0.00    -0.273 OA
ATOM      6  H   UNL     1       5.751  -2.781  -0.594  1.00  0.00     0.163 HD
BRANCH   4   7
ATOM      7  C   UNL     1       2.574  -3.872  -0.032  1.00  0.00     0.221 C 
BRANCH   7   8
ATOM      8  N   UNL     1       2.440  -3.676   1.413  1.00  0.00    -0.311 N 
BRANCH   8   9
ATOM      9  C   UNL     1       1.806  -2.607   2.019  1.00  0.00     0.318 C 
ATOM     10  N   UNL     1       1.236  -1.562   1.382  1.00  0.00    -0.330 N 
ATOM     11  H   UNL     1       0.833  -0.960   2.048  1.00  0.00     0.165 HD
ATOM     12  O   UNL     1       1.724  -2.518   3.249  1.00  0.00    -0.249 OA
BRANCH  10  13
ATOM     13  C   UNL     1       1.008  -1.009   0.031  1.00  0.00     0.139 C 
ATOM     14  C   UNL     1      -2.659   0.046  -0.054  1.00  0.00     0.332 C 
ATOM     15  N   UNL     1      -1.243   0.106   0.308  1.00  0.00    -0.336 N 
ATOM     16  C   UNL     1      -0.679   1.401  -0.091  1.00  0.00     0.262 C 
ATOM     17  C   UNL     1      -0.501  -1.008  -0.314  1.00  0.00     0.287 C 
ATOM     18  H   UNL     1      -1.155   0.014   1.320  1.00  0.00     0.347 HD
ATOM     19  C   UNL     1       0.751   1.519   0.412  1.00  0.00     0.064 C 
ATOM     20  C   UNL     1       1.619   0.399  -0.136  1.00  0.00     0.037 C 
ENDBRANCH  10  13
ENDBRANCH   8   9
BRANCH   8  21
ATOM     21  C   UNL     1       3.010  -4.794   2.300  1.00  0.00     0.037 C 
ATOM     22  C   UNL     1       4.170  -4.292   3.182  1.00  0.00     0.034 C 
ATOM     23  C   UNL     1       1.908  -5.405   3.198  1.00  0.00     0.034 C 
ATOM     24  C   UNL     1       3.603  -6.003   1.514  1.00  0.00     0.034 C 
ENDBRANCH   8  21
ENDBRANCH   7   8
ENDBRANCH   4   7
ENDBRANCH   2   3
ENDBRANCH   1   2
BRANCH   1  25
ATOM     25  C   UNL     1       6.786  -0.997   1.412  1.00  0.00     0.118 C 
BRANCH  25  26
ATOM     26  N   UNL     1       7.113   0.246   0.728  1.00  0.00    -0.352 N 
ATOM     27  C   UNL     1       7.912   1.284   1.145  1.00  0.00     0.251 C 
ATOM     28  H   UNL     1       6.704   0.359  -0.160  1.00  0.00     0.163 HD
ATOM     29  O   UNL     1       7.890   2.347   0.534  1.00  0.00    -0.269 OA
BRANCH  27  30
ATOM     30  C   UNL     1       8.779   1.121   2.334  1.00  0.00     0.039 A 
ATOM     31  C   UNL     1       8.907   2.183   3.233  1.00  0.00     0.014 A 
ATOM     32  C   UNL     1       9.470  -0.073   2.561  1.00  0.00     0.014 A 
ATOM     33  C   UNL     1       9.682   2.025   4.385  1.00  0.00     0.010 A 
ATOM     34  C   UNL     1      10.159  -0.261   3.754  1.00  0.00     0.010 A 
ATOM     35  C   UNL     1      10.287   0.790   4.673  1.00  0.00    -0.014 A 
BRANCH  35  36
ATOM     36  C   UNL     1      11.069   0.583   5.918  1.00  0.00     0.031 A 
ATOM     37  C   UNL     1      12.534   0.238   5.841  1.00  0.00     0.074 A 
ATOM     38  C   UNL     1      10.452   0.649   7.115  1.00  0.00     0.049 A 
ATOM     39  N   UNL     1      13.371  -0.024   6.812  1.00  0.00    -0.248 NA
ATOM     40  C   UNL     1      13.130   0.148   4.497  1.00  0.00     0.031 C 
ATOM     41  C   UNL     1       9.028   0.930   7.320  1.00  0.00     0.029 A 
ATOM     42  N   UNL     1      10.942   0.482   8.386  1.00  0.00    -0.354 N 
ATOM     43  C   UNL     1      14.582  -0.323   6.198  1.00  0.00     0.074 A 
ATOM     44  C   UNL     1      14.358  -0.269   4.771  1.00  0.00     0.031 C 
ATOM     45  C   UNL     1       8.769   0.951   8.637  1.00  0.00     0.029 A 
ATOM     46  C   UNL     1       9.993   0.640   9.369  1.00  0.00     0.049 A 
ATOM     47  H   UNL     1      11.884   0.269   8.576  1.00  0.00     0.167 HD
ATOM     48  C   UNL     1      15.780  -0.596   6.768  1.00  0.00     0.031 A 
ATOM     49  C   UNL     1      10.093   0.540  10.709  1.00  0.00     0.031 A 
ATOM     50  C   UNL     1      16.001  -0.639   8.189  1.00  0.00     0.049 A 
ATOM     51  C   UNL     1      11.432   0.223  11.319  1.00  0.00     0.074 A 
ATOM     52  C   UNL     1      17.188  -0.851   8.868  1.00  0.00     0.029 A 
ATOM     53  N   UNL     1      15.016  -0.467   9.150  1.00  0.00    -0.354 N 
ATOM     54  N   UNL     1      12.581   0.012  10.722  1.00  0.00    -0.248 NA
ATOM     55  C   UNL     1      11.490   0.143  12.785  1.00  0.00     0.031 C 
ATOM     56  C   UNL     1      16.910  -0.867  10.238  1.00  0.00     0.029 A 
ATOM     57  C   UNL     1      15.562  -0.596  10.416  1.00  0.00     0.049 A 
ATOM     58  H   UNL     1      14.068  -0.282   8.960  1.00  0.00     0.167 HD
ATOM     59  C   UNL     1      13.505  -0.195  11.741  1.00  0.00     0.074 A 
ATOM     60  C   UNL     1      12.783  -0.067  12.991  1.00  0.00     0.031 C 
ATOM     61  C   UNL     1      14.831  -0.466  11.651  1.00  0.00     0.031 A 
BRANCH  48  62
ATOM     62  C   UNL     1      16.944  -0.875   5.852  1.00  0.00    -0.014 A 
ATOM     63  C   UNL     1      17.500   0.141   5.052  1.00  0.00     0.010 A 
ATOM     64  C   UNL     1      17.518  -2.159   5.820  1.00  0.00     0.010 A 
ATOM     65  C   UNL     1      18.581  -0.132   4.209  1.00  0.00     0.020 A 
ATOM     66  C   UNL     1      18.620  -2.428   5.002  1.00  0.00     0.020 A 
ATOM     67  C   UNL     1      19.133  -1.416   4.189  1.00  0.00     0.054 A 
BRANCH  67  68
ATOM     68  S   UNL     1      20.552  -1.732   3.105  1.00  0.00     0.124 S 
ATOM     69  O   UNL     1      19.933  -1.702   1.782  1.00  0.00    -0.237 OA
ATOM     70  O   UNL     1      21.441  -0.614   3.407  1.00  0.00    -0.237 OA
ATOM     71  O   UNL     1      21.034  -3.042   3.536  1.00  0.00    -0.744 OA
ENDBRANCH  67  68
ENDBRANCH  48  62
BRANCH  49  72
ATOM     72  C   UNL     1       8.894   0.758  11.565  1.00  0.00    -0.014 A 
ATOM     73  C   UNL     1       8.803   1.890  12.394  1.00  0.00     0.010 A 
ATOM     74  C   UNL     1       7.832  -0.165  11.553  1.00  0.00     0.010 A 
ATOM     75  C   UNL     1       7.685   2.084  13.211  1.00  0.00     0.020 A 
ATOM     76  C   UNL     1       6.698   0.042  12.344  1.00  0.00     0.020 A 
ATOM     77  C   UNL     1       6.638   1.159  13.179  1.00  0.00     0.054 A 
BRANCH  77  78
ATOM     78  S   UNL     1       5.180   1.454  14.217  1.00  0.00     0.124 S 
ATOM     79  O   UNL     1       5.698   1.178  15.553  1.00  0.00    -0.237 OA
ATOM     80  O   UNL     1       4.870   2.853  13.934  1.00  0.00    -0.237 OA
ATOM     81  O   UNL     1       4.201   0.492  13.714  1.00  0.00    -0.744 OA
ENDBRANCH  77  78
ENDBRANCH  49  72
BRANCH  61  82
ATOM     82  C   UNL     1      15.600  -0.604  12.938  1.00  0.00    -0.014 A 
ATOM     83  C   UNL     1      15.424  -1.715  13.782  1.00  0.00     0.010 A 
ATOM     84  C   UNL     1      16.554   0.372  13.281  1.00  0.00     0.010 A 
ATOM     85  C   UNL     1      16.162  -1.829  14.963  1.00  0.00     0.020 A 
ATOM     86  C   UNL     1      17.317   0.246  14.444  1.00  0.00     0.020 A 
ATOM     87  C   UNL     1      17.105  -0.847  15.286  1.00  0.00     0.054 A 
BRANCH  87  88
ATOM     88  S   UNL     1      18.079  -1.040  16.804  1.00  0.00     0.124 S 
ATOM     89  O   UNL     1      17.089  -0.753  17.839  1.00  0.00    -0.237 OA
ATOM     90  O   UNL     1      18.522  -2.429  16.726  1.00  0.00    -0.237 OA
ATOM     91  O   UNL     1      19.140  -0.045  16.664  1.00  0.00    -0.744 OA
ENDBRANCH  87  88
ENDBRANCH  61  82
ENDBRANCH  35  36
ENDBRANCH  27  30
ENDBRANCH  25  26
ENDBRANCH   1  25
TORSDOF 17
