REMARK SMILES COCC[C@@]1(C(=O)NCCCNC(=O)c2ccc(-c3c4nc(c(-c5ccc(S(=O)(=O)[O-])cc5)c5ccc([nH]5)c(-c5ccc(S(=O)(=O)[O-])cc5)c5nc(c(-c6ccc(S(=O)(=O)[O-])cc6)c6ccc3[nH]6)C=C5)C=C4)cc2)CCCN(C(=O)NCc2ccc(OC)cc2)C1
REMARK SMILES IDX 9 1 8 2 6 3 7 4 5 6 75 7 91 8 76 9 78 10 77 11 4 12 3 13
REMARK SMILES IDX 2 14 1 15 79 16 80 17 81 18 82 20 83 21 84 22 90 23 85 24
REMARK SMILES IDX 89 25 86 26 87 27 88 28 10 29 11 30 12 31 13 32 14 34 15 35
REMARK SMILES IDX 16 36 74 37 17 38 73 39 18 40 19 41 20 42 67 43 21 44 72 45
REMARK SMILES IDX 66 46 68 47 22 48 71 49 65 50 64 51 23 53 53 54 34 55 52 56
REMARK SMILES IDX 35 57 38 58 51 59 69 60 36 61 37 62 50 64 70 65 39 66 24 67
REMARK SMILES IDX 25 68 33 69 26 70 32 71 27 72 28 73 29 74 30 75 31 76 54 77
REMARK SMILES IDX 55 78 63 79 56 80 62 81 57 82 58 83 59 84 60 85 61 86 40 87
REMARK SMILES IDX 41 88 49 89 42 90 48 91 43 92 44 93 45 94 46 95 47 96
REMARK H PARENT 8 5 81 19 12 33 68 52 38 63
REMARK Flexibility Score: inf
ROOT
ATOM      1  C   UNL     1      -1.796  -1.897  -0.025  1.00  0.00     0.117 C 
ENDROOT
BRANCH   1   2
ATOM      2  N   UNL     1      -0.694  -2.820  -0.039  1.00  0.00    -0.355 N 
ATOM      3  C   UNL     1       0.578  -2.707  -0.481  1.00  0.00     0.228 C 
ATOM      4  O   UNL     1       1.318  -3.618  -0.075  1.00  0.00    -0.274 OA
ATOM      5  H   UNL     1      -0.906  -3.700   0.347  1.00  0.00     0.163 HD
BRANCH   3   6
ATOM      6  C   UNL     1       1.127  -1.681  -1.525  1.00  0.00     0.069 C 
ATOM      7  C   UNL     1       2.569  -1.330  -1.036  1.00  0.00     0.021 C 
ATOM      8  C   UNL     1       0.364  -0.361  -1.783  1.00  0.00     0.138 C 
ATOM      9  C   UNL     1       2.561  -0.299   0.103  1.00  0.00     0.023 C 
ATOM     10  N   UNL     1       0.438   0.602  -0.678  1.00  0.00    -0.324 N 
ATOM     11  C   UNL     1       1.801   0.950  -0.316  1.00  0.00     0.121 C 
BRANCH   6  12
ATOM     12  C   UNL     1       1.176  -2.525  -2.847  1.00  0.00     0.047 C 
BRANCH  12  13
ATOM     13  C   UNL     1       1.373  -1.794  -4.181  1.00  0.00     0.161 C 
BRANCH  13  14
ATOM     14  O   UNL     1       2.685  -1.256  -4.301  1.00  0.00    -0.385 OA
ATOM     15  C   UNL     1       2.736   0.159  -4.415  1.00  0.00     0.194 C 
ENDBRANCH  13  14
ENDBRANCH  12  13
ENDBRANCH   6  12
BRANCH  10  16
ATOM     16  C   UNL     1      -0.713   1.222  -0.298  1.00  0.00     0.317 C 
ATOM     17  O   UNL     1      -1.726   1.202  -1.007  1.00  0.00    -0.249 OA
ATOM     18  N   UNL     1      -0.895   1.759   0.910  1.00  0.00    -0.334 N 
ATOM     19  H   UNL     1      -1.853   1.881   1.099  1.00  0.00     0.165 HD
BRANCH  18  20
ATOM     20  C   UNL     1      -0.090   2.215   2.023  1.00  0.00     0.153 C 
BRANCH  20  21
ATOM     21  C   UNL     1      -0.099   3.724   1.985  1.00  0.00    -0.028 A 
ATOM     22  C   UNL     1       1.010   4.463   1.563  1.00  0.00     0.009 A 
ATOM     23  C   UNL     1      -1.303   4.400   2.242  1.00  0.00     0.009 A 
ATOM     24  C   UNL     1       0.905   5.848   1.395  1.00  0.00     0.047 A 
ATOM     25  C   UNL     1      -1.408   5.779   2.059  1.00  0.00     0.047 A 
ATOM     26  C   UNL     1      -0.303   6.511   1.634  1.00  0.00     0.118 A 
BRANCH  26  27
ATOM     27  O   UNL     1      -0.280   7.861   1.411  1.00  0.00    -0.497 OA
ATOM     28  C   UNL     1      -1.504   8.556   1.624  1.00  0.00     0.278 C 
ENDBRANCH  26  27
ENDBRANCH  20  21
ENDBRANCH  18  20
ENDBRANCH  10  16
ENDBRANCH   3   6
ENDBRANCH   1   2
BRANCH   1  29
ATOM     29  C   UNL     1      -3.033  -2.406  -0.729  1.00  0.00     0.042 C 
BRANCH  29  30
ATOM     30  C   UNL     1      -3.993  -3.069   0.237  1.00  0.00     0.118 C 
BRANCH  30  31
ATOM     31  N   UNL     1      -4.516  -2.133   1.232  1.00  0.00    -0.352 N 
ATOM     32  C   UNL     1      -5.814  -1.799   1.538  1.00  0.00     0.251 C 
ATOM     33  H   UNL     1      -3.831  -1.670   1.767  1.00  0.00     0.163 HD
ATOM     34  O   UNL     1      -6.047  -0.858   2.280  1.00  0.00    -0.269 OA
BRANCH  32  35
ATOM     35  C   UNL     1      -6.914  -2.581   0.939  1.00  0.00     0.039 A 
ATOM     36  C   UNL     1      -8.041  -1.915   0.456  1.00  0.00     0.014 A 
ATOM     37  C   UNL     1      -6.807  -3.968   0.825  1.00  0.00     0.014 A 
ATOM     38  C   UNL     1      -9.030  -2.640  -0.208  1.00  0.00     0.010 A 
ATOM     39  C   UNL     1      -7.725  -4.665   0.057  1.00  0.00     0.010 A 
ATOM     40  C   UNL     1      -8.857  -4.013  -0.449  1.00  0.00    -0.014 A 
BRANCH  40  41
ATOM     41  C   UNL     1      -9.859  -4.806  -1.200  1.00  0.00     0.031 A 
ATOM     42  C   UNL     1     -10.532  -5.974  -0.527  1.00  0.00     0.074 A 
ATOM     43  C   UNL     1     -10.098  -4.525  -2.497  1.00  0.00     0.049 A 
ATOM     44  N   UNL     1     -11.371  -6.841  -1.030  1.00  0.00    -0.248 NA
ATOM     45  C   UNL     1     -10.192  -6.225   0.886  1.00  0.00     0.031 C 
ATOM     46  C   UNL     1      -9.462  -3.450  -3.267  1.00  0.00     0.029 A 
ATOM     47  N   UNL     1     -10.938  -5.122  -3.400  1.00  0.00    -0.354 N 
ATOM     48  C   UNL     1     -11.626  -7.753  -0.012  1.00  0.00     0.074 A 
ATOM     49  C   UNL     1     -10.817  -7.368   1.120  1.00  0.00     0.031 C 
ATOM     50  C   UNL     1      -9.967  -3.441  -4.511  1.00  0.00     0.029 A 
ATOM     51  C   UNL     1     -10.922  -4.534  -4.644  1.00  0.00     0.049 A 
ATOM     52  H   UNL     1     -11.501  -5.899  -3.179  1.00  0.00     0.167 HD
ATOM     53  C   UNL     1     -12.477  -8.803  -0.014  1.00  0.00     0.031 A 
ATOM     54  C   UNL     1     -11.600  -4.848  -5.765  1.00  0.00     0.031 A 
ATOM     55  C   UNL     1     -13.313  -9.148  -1.131  1.00  0.00     0.049 A 
ATOM     56  C   UNL     1     -12.552  -6.014  -5.731  1.00  0.00     0.074 A 
ATOM     57  C   UNL     1     -14.277 -10.136  -1.207  1.00  0.00     0.029 A 
ATOM     58  N   UNL     1     -13.285  -8.514  -2.363  1.00  0.00    -0.354 N 
ATOM     59  N   UNL     1     -12.846  -6.810  -4.729  1.00  0.00    -0.248 NA
ATOM     60  C   UNL     1     -13.273  -6.318  -6.974  1.00  0.00     0.031 C 
ATOM     61  C   UNL     1     -14.792 -10.138  -2.506  1.00  0.00     0.029 A 
ATOM     62  C   UNL     1     -14.195  -9.109  -3.217  1.00  0.00     0.049 A 
ATOM     63  H   UNL     1     -12.705  -7.753  -2.595  1.00  0.00     0.167 HD
ATOM     64  C   UNL     1     -13.812  -7.684  -5.213  1.00  0.00     0.074 A 
ATOM     65  C   UNL     1     -14.064  -7.310  -6.590  1.00  0.00     0.031 C 
ATOM     66  C   UNL     1     -14.437  -8.707  -4.579  1.00  0.00     0.031 A 
BRANCH  53  67
ATOM     67  C   UNL     1     -12.556  -9.655   1.225  1.00  0.00    -0.014 A 
ATOM     68  C   UNL     1     -13.135  -9.169   2.411  1.00  0.00     0.010 A 
ATOM     69  C   UNL     1     -12.109 -10.988   1.178  1.00  0.00     0.010 A 
ATOM     70  C   UNL     1     -13.248  -9.994   3.533  1.00  0.00     0.020 A 
ATOM     71  C   UNL     1     -12.246 -11.825   2.289  1.00  0.00     0.020 A 
ATOM     72  C   UNL     1     -12.807 -11.319   3.462  1.00  0.00     0.054 A 
BRANCH  72  73
ATOM     73  S   UNL     1     -13.029 -12.385   4.913  1.00  0.00     0.124 S 
ATOM     74  O   UNL     1     -12.039 -11.842   5.840  1.00  0.00    -0.237 OA
ATOM     75  O   UNL     1     -14.424 -12.146   5.274  1.00  0.00    -0.237 OA
ATOM     76  O   UNL     1     -12.739 -13.725   4.408  1.00  0.00    -0.744 OA
ENDBRANCH  72  73
ENDBRANCH  53  67
BRANCH  54  77
ATOM     77  C   UNL     1     -11.421  -4.048  -7.009  1.00  0.00    -0.014 A 
ATOM     78  C   UNL     1     -12.478  -3.268  -7.513  1.00  0.00     0.010 A 
ATOM     79  C   UNL     1     -10.205  -4.084  -7.715  1.00  0.00     0.010 A 
ATOM     80  C   UNL     1     -12.338  -2.577  -8.720  1.00  0.00     0.020 A 
ATOM     81  C   UNL     1     -10.050  -3.368  -8.906  1.00  0.00     0.020 A 
ATOM     82  C   UNL     1     -11.126  -2.636  -9.412  1.00  0.00     0.054 A 
BRANCH  82  83
ATOM     83  S   UNL     1     -10.966  -1.730 -10.976  1.00  0.00     0.124 S 
ATOM     84  O   UNL     1     -11.770  -2.545 -11.881  1.00  0.00    -0.237 OA
ATOM     85  O   UNL     1     -11.519  -0.421 -10.641  1.00  0.00    -0.237 OA
ATOM     86  O   UNL     1      -9.527  -1.744 -11.232  1.00  0.00    -0.744 OA
ENDBRANCH  82  83
ENDBRANCH  54  77
BRANCH  66  87
ATOM     87  C   UNL     1     -15.488  -9.460  -5.347  1.00  0.00    -0.014 A 
ATOM     88  C   UNL     1     -15.144 -10.328  -6.398  1.00  0.00     0.010 A 
ATOM     89  C   UNL     1     -16.837  -9.340  -4.966  1.00  0.00     0.010 A 
ATOM     90  C   UNL     1     -16.137 -11.038  -7.077  1.00  0.00     0.020 A 
ATOM     91  C   UNL     1     -17.828 -10.073  -5.621  1.00  0.00     0.020 A 
ATOM     92  C   UNL     1     -17.473 -10.907  -6.683  1.00  0.00     0.054 A 
BRANCH  92  93
ATOM     93  S   UNL     1     -18.736 -11.875  -7.550  1.00  0.00     0.124 S 
ATOM     94  O   UNL     1     -18.821 -11.183  -8.833  1.00  0.00    -0.237 OA
ATOM     95  O   UNL     1     -18.143 -13.210  -7.593  1.00  0.00    -0.237 OA
ATOM     96  O   UNL     1     -19.915 -11.751  -6.696  1.00  0.00    -0.744 OA
ENDBRANCH  92  93
ENDBRANCH  66  87
ENDBRANCH  40  41
ENDBRANCH  32  35
ENDBRANCH  30  31
ENDBRANCH  29  30
ENDBRANCH   1  29
TORSDOF 20
