REMARK SMILES C[C@@H](C(=O)NCCCNC(=O)c1ccc(-c2c3nc(c(-c4ccc(S(=O)(=O)[O-])cc4)c4ccc([nH]4)c(-c4ccc(S(=O)(=O)[O-])cc4)c4nc(c(-c5ccc(S(=O)(=O)[O-])cc5)c5ccc2[nH]5)C=C4)C=C3)cc1)c1ccc(C[C@@H]2CCC[C@@H]2O)cc1F
REMARK SMILES IDX 6 1 5 2 3 3 4 4 2 6 1 7 72 8 73 9 84 10 74 11 83 12 85 13
REMARK SMILES IDX 75 14 76 15 77 16 78 17 81 18 79 19 80 20 82 21 7 23 8 24
REMARK SMILES IDX 9 25 10 26 11 28 12 29 13 30 71 31 14 32 70 33 15 34 16 35
REMARK SMILES IDX 17 36 64 37 18 38 69 39 63 40 65 41 19 42 68 43 62 44 61 45
REMARK SMILES IDX 20 47 50 48 31 49 49 50 32 51 35 52 48 53 66 54 33 55 34 56
REMARK SMILES IDX 47 58 67 59 36 60 21 61 22 62 30 63 23 64 29 65 24 66 25 67
REMARK SMILES IDX 26 68 27 69 28 70 51 71 52 72 60 73 53 74 59 75 54 76 55 77
REMARK SMILES IDX 56 78 57 79 58 80 37 81 38 82 46 83 39 84 45 85 40 86 41 87
REMARK SMILES IDX 42 88 43 89 44 90
REMARK H PARENT 5 5 82 22 9 27 65 46 35 57
REMARK Flexibility Score: inf
ROOT
ATOM      1  C   UNL     1     -10.575   3.458   8.899  1.00  0.00     0.117 C 
ENDROOT
BRANCH   1   2
ATOM      2  N   UNL     1      -9.361   3.465   8.106  1.00  0.00    -0.356 N 
ATOM      3  C   UNL     1      -8.875   2.542   7.226  1.00  0.00     0.227 C 
ATOM      4  O   UNL     1      -7.744   2.748   6.778  1.00  0.00    -0.274 OA
ATOM      5  H   UNL     1      -8.796   4.263   8.221  1.00  0.00     0.163 HD
BRANCH   3   6
ATOM      6  C   UNL     1      -9.730   1.326   6.818  1.00  0.00     0.108 C 
ATOM      7  C   UNL     1      -9.871   0.336   7.981  1.00  0.00     0.023 C 
BRANCH   6   8
ATOM      8  C   UNL     1      -9.170   0.676   5.556  1.00  0.00    -0.000 A 
ATOM      9  C   UNL     1      -8.438  -0.519   5.576  1.00  0.00     0.008 A 
ATOM     10  C   UNL     1      -9.323   1.326   4.326  1.00  0.00     0.127 A 
ATOM     11  C   UNL     1      -7.871  -1.031   4.408  1.00  0.00     0.004 A 
ATOM     12  C   UNL     1      -8.732   0.837   3.162  1.00  0.00     0.043 A 
ATOM     13  F   UNL     1     -10.034   2.462   4.258  1.00  0.00    -0.207 F 
ATOM     14  C   UNL     1      -7.969  -0.337   3.198  1.00  0.00    -0.045 A 
BRANCH  14  15
ATOM     15  C   UNL     1      -7.242  -0.822   1.969  1.00  0.00     0.041 C 
BRANCH  15  16
ATOM     16  C   UNL     1      -5.717  -0.574   1.882  1.00  0.00     0.022 C 
ATOM     17  C   UNL     1      -4.873  -1.245   2.973  1.00  0.00     0.007 C 
ATOM     18  C   UNL     1      -5.244   0.882   1.951  1.00  0.00     0.117 C 
ATOM     19  C   UNL     1      -4.573  -0.170   4.023  1.00  0.00     0.003 C 
ATOM     20  C   UNL     1      -5.038   1.158   3.434  1.00  0.00     0.032 C 
BRANCH  18  21
ATOM     21  O   UNL     1      -6.138   1.786   1.336  1.00  0.00    -0.393 OA
ATOM     22  H   UNL     1      -7.003   1.732   1.772  1.00  0.00     0.210 HD
ENDBRANCH  18  21
ENDBRANCH  15  16
ENDBRANCH  14  15
ENDBRANCH   6   8
ENDBRANCH   3   6
ENDBRANCH   1   2
BRANCH   1  23
ATOM     23  C   UNL     1     -10.297   3.042  10.343  1.00  0.00     0.042 C 
BRANCH  23  24
ATOM     24  C   UNL     1      -9.443   4.035  11.127  1.00  0.00     0.118 C 
BRANCH  24  25
ATOM     25  N   UNL     1     -10.123   5.303  11.342  1.00  0.00    -0.352 N 
ATOM     26  C   UNL     1     -10.453   5.940  12.512  1.00  0.00     0.251 C 
ATOM     27  H   UNL     1     -10.386   5.779  10.521  1.00  0.00     0.163 HD
ATOM     28  O   UNL     1     -11.209   6.910  12.472  1.00  0.00    -0.269 OA
BRANCH  26  29
ATOM     29  C   UNL     1      -9.928   5.467  13.812  1.00  0.00     0.039 A 
ATOM     30  C   UNL     1     -10.780   5.462  14.920  1.00  0.00     0.014 A 
ATOM     31  C   UNL     1      -8.595   5.071  13.958  1.00  0.00     0.014 A 
ATOM     32  C   UNL     1     -10.313   5.010  16.157  1.00  0.00     0.010 A 
ATOM     33  C   UNL     1      -8.151   4.552  15.173  1.00  0.00     0.010 A 
ATOM     34  C   UNL     1      -9.002   4.522  16.288  1.00  0.00    -0.014 A 
BRANCH  34  35
ATOM     35  C   UNL     1      -8.506   3.982  17.581  1.00  0.00     0.031 A 
ATOM     36  C   UNL     1      -7.376   4.663  18.306  1.00  0.00     0.074 A 
ATOM     37  C   UNL     1      -9.030   2.842  18.072  1.00  0.00     0.049 A 
ATOM     38  N   UNL     1      -6.774   4.309  19.413  1.00  0.00    -0.248 NA
ATOM     39  C   UNL     1      -6.838   5.890  17.697  1.00  0.00     0.031 C 
ATOM     40  C   UNL     1     -10.105   2.066  17.449  1.00  0.00     0.029 A 
ATOM     41  N   UNL     1      -8.726   2.133  19.208  1.00  0.00    -0.354 N 
ATOM     42  C   UNL     1      -5.775   5.254  19.620  1.00  0.00     0.074 A 
ATOM     43  C   UNL     1      -5.824   6.170  18.501  1.00  0.00     0.031 C 
ATOM     44  C   UNL     1     -10.387   1.006  18.223  1.00  0.00     0.029 A 
ATOM     45  C   UNL     1      -9.489   1.001  19.373  1.00  0.00     0.049 A 
ATOM     46  H   UNL     1      -8.027   2.409  19.844  1.00  0.00     0.167 HD
ATOM     47  C   UNL     1      -4.907   5.361  20.655  1.00  0.00     0.031 A 
ATOM     48  C   UNL     1      -9.466   0.060  20.337  1.00  0.00     0.031 A 
ATOM     49  C   UNL     1      -4.866   4.452  21.771  1.00  0.00     0.049 A 
ATOM     50  C   UNL     1      -8.487   0.192  21.470  1.00  0.00     0.074 A 
ATOM     51  C   UNL     1      -4.062   4.508  22.897  1.00  0.00     0.029 A 
ATOM     52  N   UNL     1      -5.659   3.322  21.902  1.00  0.00    -0.354 N 
ATOM     53  N   UNL     1      -7.592   1.128  21.680  1.00  0.00    -0.248 NA
ATOM     54  C   UNL     1      -8.523  -0.853  22.502  1.00  0.00     0.031 C 
ATOM     55  C   UNL     1      -4.332   3.382  23.682  1.00  0.00     0.029 A 
ATOM     56  C   UNL     1      -5.346   2.657  23.076  1.00  0.00     0.049 A 
ATOM     57  H   UNL     1      -6.343   3.034  21.255  1.00  0.00     0.167 HD
ATOM     58  C   UNL     1      -6.976   0.798  22.883  1.00  0.00     0.074 A 
ATOM     59  C   UNL     1      -7.609  -0.415  23.358  1.00  0.00     0.031 C 
ATOM     60  C   UNL     1      -5.980   1.446  23.535  1.00  0.00     0.031 A 
BRANCH  47  61
ATOM     61  C   UNL     1      -3.918   6.497  20.616  1.00  0.00    -0.014 A 
ATOM     62  C   UNL     1      -4.335   7.832  20.772  1.00  0.00     0.010 A 
ATOM     63  C   UNL     1      -2.549   6.227  20.440  1.00  0.00     0.010 A 
ATOM     64  C   UNL     1      -3.410   8.877  20.696  1.00  0.00     0.020 A 
ATOM     65  C   UNL     1      -1.616   7.268  20.394  1.00  0.00     0.020 A 
ATOM     66  C   UNL     1      -2.057   8.588  20.500  1.00  0.00     0.054 A 
BRANCH  66  67
ATOM     67  S   UNL     1      -0.878   9.963  20.403  1.00  0.00     0.124 S 
ATOM     68  O   UNL     1      -1.164  10.511  19.079  1.00  0.00    -0.237 OA
ATOM     69  O   UNL     1      -1.274  10.806  21.529  1.00  0.00    -0.237 OA
ATOM     70  O   UNL     1       0.424   9.315  20.541  1.00  0.00    -0.744 OA
ENDBRANCH  66  67
ENDBRANCH  47  61
BRANCH  48  71
ATOM     71  C   UNL     1     -10.422  -1.078  20.278  1.00  0.00    -0.014 A 
ATOM     72  C   UNL     1     -11.501  -1.147  21.177  1.00  0.00     0.010 A 
ATOM     73  C   UNL     1     -10.279  -2.082  19.303  1.00  0.00     0.010 A 
ATOM     74  C   UNL     1     -12.415  -2.203  21.107  1.00  0.00     0.020 A 
ATOM     75  C   UNL     1     -11.206  -3.125  19.213  1.00  0.00     0.020 A 
ATOM     76  C   UNL     1     -12.264  -3.182  20.121  1.00  0.00     0.054 A 
BRANCH  76  77
ATOM     77  S   UNL     1     -13.502  -4.504  20.005  1.00  0.00     0.124 S 
ATOM     78  O   UNL     1     -13.173  -5.332  21.160  1.00  0.00    -0.237 OA
ATOM     79  O   UNL     1     -14.760  -3.766  20.092  1.00  0.00    -0.237 OA
ATOM     80  O   UNL     1     -13.234  -5.109  18.702  1.00  0.00    -0.744 OA
ENDBRANCH  76  77
ENDBRANCH  48  71
BRANCH  60  81
ATOM     81  C   UNL     1      -5.529   0.875  24.854  1.00  0.00    -0.014 A 
ATOM     82  C   UNL     1      -4.772  -0.308  24.917  1.00  0.00     0.010 A 
ATOM     83  C   UNL     1      -5.822   1.566  26.044  1.00  0.00     0.010 A 
ATOM     84  C   UNL     1      -4.342  -0.806  26.150  1.00  0.00     0.020 A 
ATOM     85  C   UNL     1      -5.370   1.086  27.276  1.00  0.00     0.020 A 
ATOM     86  C   UNL     1      -4.644  -0.105  27.322  1.00  0.00     0.054 A 
BRANCH  86  87
ATOM     87  S   UNL     1      -4.036  -0.747  28.906  1.00  0.00     0.124 S 
ATOM     88  O   UNL     1      -4.921  -1.887  29.132  1.00  0.00    -0.237 OA
ATOM     89  O   UNL     1      -2.646  -1.081  28.604  1.00  0.00    -0.237 OA
ATOM     90  O   UNL     1      -4.215   0.373  29.826  1.00  0.00    -0.744 OA
ENDBRANCH  86  87
ENDBRANCH  60  81
ENDBRANCH  34  35
ENDBRANCH  26  29
ENDBRANCH  24  25
ENDBRANCH  23  24
ENDBRANCH   1  23
TORSDOF 17
