REMARK SMILES O=C(NCCCNC(=O)[C@H]1CC[C@H](CNC(=O)c2ccccc2O)O1)c1ccc(-c2c3nc(c(-c4ccc(S(=O)(=O)[O-])cc4)c4ccc([nH]4)c(-c4ccc(S(=O)(=O)[O-])cc4)c4nc(c(-c5ccc(S(=O)(=O)[O-])cc5)c5ccc2[nH]5)C=C4)C=C3)cc1
REMARK SMILES IDX 5 1 4 2 3 3 1 4 2 5 26 7 27 8 85 9 28 10 84 11 29 12 30 13
REMARK SMILES IDX 31 14 78 15 32 16 83 17 77 18 79 19 33 20 82 21 76 22 75 23
REMARK SMILES IDX 34 25 64 26 45 27 63 28 46 29 49 30 62 31 80 32 47 33 48 34
REMARK SMILES IDX 61 36 81 37 50 38 35 39 36 40 44 41 37 42 43 43 38 44 39 45
REMARK SMILES IDX 40 46 41 47 42 48 65 49 66 50 74 51 67 52 73 53 68 54 69 55
REMARK SMILES IDX 70 56 71 57 72 58 51 59 52 60 60 61 53 62 59 63 54 64 55 65
REMARK SMILES IDX 56 66 57 67 58 68 6 69 7 70 8 71 9 73 10 74 11 75 25 76
REMARK SMILES IDX 12 77 13 78 14 79 15 80 16 81 17 83 18 84 19 85 23 86 20 87
REMARK SMILES IDX 22 88 21 89 24 90
REMARK H PARENT 3 6 79 24 49 35 7 72 15 82 24 91
REMARK Flexibility Score: inf
ROOT
ATOM      1  C   UNL     1       5.517   3.988  -0.453  1.00  0.00     0.042 C 
ENDROOT
BRANCH   1   2
ATOM      2  C   UNL     1       6.410   3.719  -1.657  1.00  0.00     0.118 C 
BRANCH   2   3
ATOM      3  N   UNL     1       6.464   2.305  -2.005  1.00  0.00    -0.352 N 
ATOM      4  O   UNL     1       6.037   0.448  -3.198  1.00  0.00    -0.269 OA
ATOM      5  C   UNL     1       6.112   1.676  -3.171  1.00  0.00     0.251 C 
ATOM      6  H   UNL     1       6.804   1.712  -1.296  1.00  0.00     0.163 HD
BRANCH   5   7
ATOM      7  C   UNL     1       5.822   2.465  -4.387  1.00  0.00     0.039 A 
ATOM      8  C   UNL     1       6.627   3.552  -4.738  1.00  0.00     0.014 A 
ATOM      9  C   UNL     1       4.765   2.079  -5.217  1.00  0.00     0.014 A 
ATOM     10  C   UNL     1       6.312   4.317  -5.855  1.00  0.00     0.010 A 
ATOM     11  C   UNL     1       4.501   2.798  -6.386  1.00  0.00     0.010 A 
ATOM     12  C   UNL     1       5.270   3.926  -6.711  1.00  0.00    -0.014 A 
BRANCH  12  13
ATOM     13  C   UNL     1       5.099   4.624  -8.008  1.00  0.00     0.031 A 
ATOM     14  C   UNL     1       3.861   5.417  -8.316  1.00  0.00     0.074 A 
ATOM     15  C   UNL     1       6.089   4.519  -8.917  1.00  0.00     0.049 A 
ATOM     16  N   UNL     1       3.561   6.068  -9.411  1.00  0.00    -0.248 NA
ATOM     17  C   UNL     1       2.825   5.488  -7.274  1.00  0.00     0.031 C 
ATOM     18  C   UNL     1       7.330   3.757  -8.727  1.00  0.00     0.029 A 
ATOM     19  N   UNL     1       6.219   5.047 -10.176  1.00  0.00    -0.354 N 
ATOM     20  C   UNL     1       2.297   6.606  -9.203  1.00  0.00     0.074 A 
ATOM     21  C   UNL     1       1.880   6.199  -7.878  1.00  0.00     0.031 C 
ATOM     22  C   UNL     1       8.101   3.890  -9.815  1.00  0.00     0.029 A 
ATOM     23  C   UNL     1       7.385   4.682 -10.806  1.00  0.00     0.049 A 
ATOM     24  H   UNL     1       5.542   5.631 -10.588  1.00  0.00     0.167 HD
ATOM     25  C   UNL     1       1.558   7.365 -10.046  1.00  0.00     0.031 A 
ATOM     26  C   UNL     1       7.819   4.920 -12.058  1.00  0.00     0.031 A 
ATOM     27  C   UNL     1       1.992   7.768 -11.360  1.00  0.00     0.049 A 
ATOM     28  C   UNL     1       6.954   5.730 -12.980  1.00  0.00     0.074 A 
ATOM     29  C   UNL     1       1.343   8.598 -12.259  1.00  0.00     0.029 A 
ATOM     30  N   UNL     1       3.167   7.359 -11.972  1.00  0.00    -0.354 N 
ATOM     31  N   UNL     1       5.801   6.304 -12.731  1.00  0.00    -0.248 NA
ATOM     32  C   UNL     1       7.442   5.921 -14.352  1.00  0.00     0.031 C 
ATOM     33  C   UNL     1       2.089   8.630 -13.441  1.00  0.00     0.029 A 
ATOM     34  C   UNL     1       3.235   7.875 -13.256  1.00  0.00     0.049 A 
ATOM     35  H   UNL     1       3.851   6.786 -11.556  1.00  0.00     0.167 HD
ATOM     36  C   UNL     1       5.430   6.930 -13.914  1.00  0.00     0.074 A 
ATOM     37  C   UNL     1       6.496   6.694 -14.866  1.00  0.00     0.031 C 
ATOM     38  C   UNL     1       4.301   7.626 -14.192  1.00  0.00     0.031 A 
BRANCH  25  39
ATOM     39  C   UNL     1       0.185   7.801  -9.607  1.00  0.00    -0.014 A 
ATOM     40  C   UNL     1       0.010   8.822  -8.657  1.00  0.00     0.010 A 
ATOM     41  C   UNL     1      -0.946   7.266 -10.253  1.00  0.00     0.010 A 
ATOM     42  C   UNL     1      -1.272   9.294  -8.356  1.00  0.00     0.020 A 
ATOM     43  C   UNL     1      -2.226   7.750  -9.971  1.00  0.00     0.020 A 
ATOM     44  C   UNL     1      -2.381   8.760  -9.020  1.00  0.00     0.054 A 
BRANCH  44  45
ATOM     45  S   UNL     1      -4.023   9.444  -8.661  1.00  0.00     0.124 S 
ATOM     46  O   UNL     1      -4.262   8.957  -7.305  1.00  0.00    -0.237 OA
ATOM     47  O   UNL     1      -3.801  10.883  -8.780  1.00  0.00    -0.237 OA
ATOM     48  O   UNL     1      -4.878   8.860  -9.691  1.00  0.00    -0.744 OA
ENDBRANCH  44  45
ENDBRANCH  25  39
BRANCH  26  49
ATOM     49  C   UNL     1       9.099   4.327 -12.531  1.00  0.00    -0.014 A 
ATOM     50  C   UNL     1      10.194   5.140 -12.867  1.00  0.00     0.010 A 
ATOM     51  C   UNL     1       9.219   2.930 -12.663  1.00  0.00     0.010 A 
ATOM     52  C   UNL     1      11.371   4.571 -13.363  1.00  0.00     0.020 A 
ATOM     53  C   UNL     1      10.404   2.355 -13.123  1.00  0.00     0.020 A 
ATOM     54  C   UNL     1      11.466   3.182 -13.492  1.00  0.00     0.054 A 
BRANCH  54  55
ATOM     55  S   UNL     1      13.003   2.463 -14.132  1.00  0.00     0.124 S 
ATOM     56  O   UNL     1      12.918   2.787 -15.552  1.00  0.00    -0.237 OA
ATOM     57  O   UNL     1      14.026   3.182 -13.377  1.00  0.00    -0.237 OA
ATOM     58  O   UNL     1      12.879   1.044 -13.803  1.00  0.00    -0.744 OA
ENDBRANCH  54  55
ENDBRANCH  26  49
BRANCH  38  59
ATOM     59  C   UNL     1       4.164   8.189 -15.580  1.00  0.00    -0.014 A 
ATOM     60  C   UNL     1       3.911   7.347 -16.678  1.00  0.00     0.010 A 
ATOM     61  C   UNL     1       4.232   9.579 -15.781  1.00  0.00     0.010 A 
ATOM     62  C   UNL     1       3.750   7.884 -17.956  1.00  0.00     0.020 A 
ATOM     63  C   UNL     1       4.041  10.123 -17.054  1.00  0.00     0.020 A 
ATOM     64  C   UNL     1       3.812   9.270 -18.135  1.00  0.00     0.054 A 
BRANCH  64  65
ATOM     65  S   UNL     1       3.538   9.944 -19.796  1.00  0.00     0.124 S 
ATOM     66  O   UNL     1       4.768   9.562 -20.486  1.00  0.00    -0.237 OA
ATOM     67  O   UNL     1       2.331   9.245 -20.230  1.00  0.00    -0.237 OA
ATOM     68  O   UNL     1       3.373  11.378 -19.566  1.00  0.00    -0.744 OA
ENDBRANCH  64  65
ENDBRANCH  38  59
ENDBRANCH  12  13
ENDBRANCH   5   7
ENDBRANCH   2   3
ENDBRANCH   1   2
BRANCH   1  69
ATOM     69  C   UNL     1       6.015   3.341   0.833  1.00  0.00     0.117 C 
BRANCH  69  70
ATOM     70  N   UNL     1       7.295   3.879   1.265  1.00  0.00    -0.354 N 
ATOM     71  C   UNL     1       7.532   4.798   2.253  1.00  0.00     0.249 C 
ATOM     72  H   UNL     1       8.088   3.541   0.790  1.00  0.00     0.163 HD
ATOM     73  O   UNL     1       8.692   5.154   2.463  1.00  0.00    -0.272 OA
BRANCH  71  74
ATOM     74  C   UNL     1       6.337   5.293   3.084  1.00  0.00     0.207 C 
ATOM     75  C   UNL     1       6.707   6.281   4.177  1.00  0.00     0.045 C 
ATOM     76  O   UNL     1       5.394   5.952   2.226  1.00  0.00    -0.363 OA
ATOM     77  C   UNL     1       6.468   7.618   3.518  1.00  0.00     0.037 C 
ATOM     78  C   UNL     1       5.290   7.340   2.599  1.00  0.00     0.138 C 
BRANCH  78  79
ATOM     79  C   UNL     1       3.914   7.528   3.250  1.00  0.00     0.148 C 
BRANCH  79  80
ATOM     80  N   UNL     1       3.570   8.914   3.508  1.00  0.00    -0.349 N 
ATOM     81  C   UNL     1       2.479   9.624   3.068  1.00  0.00     0.255 C 
ATOM     82  H   UNL     1       4.202   9.411   4.075  1.00  0.00     0.163 HD
ATOM     83  O   UNL     1       2.377  10.815   3.357  1.00  0.00    -0.269 OA
BRANCH  81  84
ATOM     84  C   UNL     1       1.473   8.998   2.182  1.00  0.00     0.081 A 
ATOM     85  C   UNL     1       1.242   9.618   0.947  1.00  0.00     0.018 A 
ATOM     86  C   UNL     1       0.742   7.856   2.530  1.00  0.00     0.128 A 
ATOM     87  C   UNL     1       0.329   9.067   0.046  1.00  0.00     0.001 A 
ATOM     88  C   UNL     1      -0.162   7.298   1.623  1.00  0.00     0.047 A 
ATOM     89  C   UNL     1      -0.361   7.902   0.379  1.00  0.00     0.004 A 
BRANCH  86  90
ATOM     90  O   UNL     1       0.906   7.269   3.756  1.00  0.00    -0.507 OA
ATOM     91  H   UNL     1       1.509   7.634   4.373  1.00  0.00     0.293 HD
ENDBRANCH  86  90
ENDBRANCH  81  84
ENDBRANCH  79  80
ENDBRANCH  78  79
ENDBRANCH  71  74
ENDBRANCH  69  70
ENDBRANCH   1  69
TORSDOF 17
