REMARK SMILES O=C(CCCN1C(=O)C(=O)/C(=C(/[O-])c2ccc(Cl)cc2)[C@@H]1c1ccccc1[N+](=O)[O-])NCCCNC(=O)c1ccc(-c2c3nc(c(-c4ccc(S(=O)(=O)[O-])cc4)c4ccc([nH]4)c(-c4ccc(S(=O)(=O)[O-])cc4)c4nc(c(-c5ccc(S(=O)(=O)[O-])cc5)c5ccc2[nH]5)C=C4)C=C3)cc1
REMARK SMILES IDX 32 1 31 2 1 3 2 4 3 6 4 7 5 8 6 9 7 10 21 11 8 12 9 13 11 14
REMARK SMILES IDX 10 15 12 16 13 17 22 18 23 19 27 20 24 21 26 22 25 23 28 24
REMARK SMILES IDX 29 25 30 26 14 27 15 28 20 29 16 30 19 31 17 32 18 33 33 34
REMARK SMILES IDX 34 35 35 36 36 37 37 39 38 40 39 41 97 42 40 43 96 44 41 45
REMARK SMILES IDX 42 46 43 47 90 48 44 49 95 50 89 51 91 52 45 53 94 54 88 55
REMARK SMILES IDX 87 56 46 58 76 59 57 60 75 61 58 62 61 63 74 64 92 65 59 66
REMARK SMILES IDX 60 67 73 69 93 70 62 71 47 72 48 73 56 74 49 75 55 76 50 77
REMARK SMILES IDX 51 78 52 79 53 80 54 81 77 82 78 83 86 84 79 85 85 86 80 87
REMARK SMILES IDX 81 88 82 89 83 90 84 91 63 92 64 93 72 94 65 95 71 96 66 97
REMARK SMILES IDX 67 98 68 99 69 100 70 101
REMARK H PARENT 31 5 35 38 91 57 61 68
REMARK Flexibility Score: inf
ROOT
ATOM      1  C   UNL     1       1.373   0.114  -2.320  1.00  0.00     0.117 C 
ENDROOT
BRANCH   1   2
ATOM      2  N   UNL     1       2.032   0.429  -1.068  1.00  0.00    -0.356 N 
ATOM      3  O   UNL     1       1.416  -1.502   0.036  1.00  0.00    -0.275 OA
ATOM      4  C   UNL     1       2.059  -0.459  -0.004  1.00  0.00     0.220 C 
ATOM      5  H   UNL     1       2.475   1.303  -0.971  1.00  0.00     0.163 HD
BRANCH   4   6
ATOM      6  C   UNL     1       2.913   0.015   1.160  1.00  0.00     0.102 C 
BRANCH   6   7
ATOM      7  C   UNL     1       3.936  -0.979   1.755  1.00  0.00     0.031 C 
BRANCH   7   8
ATOM      8  C   UNL     1       5.368  -1.167   1.158  1.00  0.00     0.121 C 
BRANCH   8   9
ATOM      9  N   UNL     1       5.989  -0.023   0.497  1.00  0.00    -0.324 N 
ATOM     10  C   UNL     1       5.776   1.264   0.961  1.00  0.00     0.295 C 
ATOM     11  C   UNL     1       7.194  -0.064  -0.383  1.00  0.00     0.157 C 
ATOM     12  O   UNL     1       5.279   1.649   1.994  1.00  0.00    -0.265 OA
ATOM     13  C   UNL     1       6.360   2.180  -0.090  1.00  0.00     0.248 C 
ATOM     14  C   UNL     1       7.491   1.416  -0.655  1.00  0.00     0.025 C 
ATOM     15  O   UNL     1       5.906   3.253  -0.401  1.00  0.00    -0.283 OA
ATOM     16  C   UNL     1       8.610   2.052  -1.038  1.00  0.00    -0.092 C 
ATOM     17  O   UNL     1       9.786   1.364  -1.246  1.00  0.00    -0.872 OA
BRANCH  11  18
ATOM     18  C   UNL     1       7.212  -0.940  -1.651  1.00  0.00     0.057 A 
ATOM     19  C   UNL     1       8.461  -1.207  -2.255  1.00  0.00     0.013 A 
ATOM     20  C   UNL     1       6.119  -1.490  -2.339  1.00  0.00     0.275 A 
ATOM     21  C   UNL     1       8.590  -1.908  -3.467  1.00  0.00     0.001 A 
ATOM     22  C   UNL     1       6.234  -2.262  -3.512  1.00  0.00     0.086 A 
ATOM     23  C   UNL     1       7.476  -2.446  -4.093  1.00  0.00     0.007 A 
BRANCH  20  24
ATOM     24  N   UNL     1       4.778  -1.184  -1.946  1.00  0.00     0.063 N 
ATOM     25  O   UNL     1       3.983  -2.125  -1.835  1.00  0.00    -0.258 OA
ATOM     26  O   UNL     1       4.534   0.012  -1.761  1.00  0.00    -0.258 OA
ENDBRANCH  20  24
ENDBRANCH  11  18
BRANCH  16  27
ATOM     27  C   UNL     1       8.732   3.512  -1.199  1.00  0.00    -0.033 A 
ATOM     28  C   UNL     1       8.784   4.362  -0.087  1.00  0.00     0.009 A 
ATOM     29  C   UNL     1       8.802   4.061  -2.489  1.00  0.00     0.009 A 
ATOM     30  C   UNL     1       8.873   5.745  -0.263  1.00  0.00     0.021 A 
ATOM     31  C   UNL     1       8.901   5.444  -2.663  1.00  0.00     0.021 A 
ATOM     32  C   UNL     1       8.929   6.280  -1.548  1.00  0.00     0.041 A 
ATOM     33  Cl  UNL     1       9.033   7.984  -1.755  1.00  0.00    -0.084 Cl
ENDBRANCH  16  27
ENDBRANCH   8   9
ENDBRANCH   7   8
ENDBRANCH   6   7
ENDBRANCH   4   6
ENDBRANCH   1   2
BRANCH   1  34
ATOM     34  C   UNL     1       1.587   1.146  -3.436  1.00  0.00     0.042 C 
BRANCH  34  35
ATOM     35  C   UNL     1       2.989   1.259  -4.049  1.00  0.00     0.118 C 
BRANCH  35  36
ATOM     36  N   UNL     1       3.482   0.033  -4.668  1.00  0.00    -0.352 N 
ATOM     37  C   UNL     1       4.407  -0.115  -5.679  1.00  0.00     0.251 C 
ATOM     38  H   UNL     1       3.103  -0.804  -4.315  1.00  0.00     0.163 HD
ATOM     39  O   UNL     1       4.672  -1.234  -6.112  1.00  0.00    -0.269 OA
BRANCH  37  40
ATOM     40  C   UNL     1       5.044   1.075  -6.287  1.00  0.00     0.039 A 
ATOM     41  C   UNL     1       5.002   1.207  -7.680  1.00  0.00     0.014 A 
ATOM     42  C   UNL     1       5.633   2.073  -5.507  1.00  0.00     0.014 A 
ATOM     43  C   UNL     1       5.438   2.390  -8.281  1.00  0.00     0.010 A 
ATOM     44  C   UNL     1       6.029   3.271  -6.105  1.00  0.00     0.010 A 
ATOM     45  C   UNL     1       5.895   3.457  -7.491  1.00  0.00    -0.014 A 
BRANCH  45  46
ATOM     46  C   UNL     1       6.133   4.802  -8.078  1.00  0.00     0.031 A 
ATOM     47  C   UNL     1       7.510   5.400  -8.107  1.00  0.00     0.074 A 
ATOM     48  C   UNL     1       5.077   5.527  -8.502  1.00  0.00     0.049 A 
ATOM     49  N   UNL     1       7.877   6.603  -8.468  1.00  0.00    -0.248 NA
ATOM     50  C   UNL     1       8.615   4.540  -7.658  1.00  0.00     0.031 C 
ATOM     51  C   UNL     1       3.683   5.072  -8.506  1.00  0.00     0.029 A 
ATOM     52  N   UNL     1       5.005   6.808  -8.993  1.00  0.00    -0.354 N 
ATOM     53  C   UNL     1       9.252   6.654  -8.276  1.00  0.00     0.074 A 
ATOM     54  C   UNL     1       9.648   5.368  -7.739  1.00  0.00     0.031 C 
ATOM     55  C   UNL     1       2.900   6.053  -8.981  1.00  0.00     0.029 A 
ATOM     56  C   UNL     1       3.723   7.222  -9.273  1.00  0.00     0.049 A 
ATOM     57  H   UNL     1       5.797   7.377  -9.132  1.00  0.00     0.167 HD
ATOM     58  C   UNL     1      10.106   7.674  -8.533  1.00  0.00     0.031 A 
ATOM     59  C   UNL     1       3.255   8.412  -9.696  1.00  0.00     0.031 A 
ATOM     60  C   UNL     1       9.710   8.952  -9.065  1.00  0.00     0.049 A 
ATOM     61  C   UNL     1       4.219   9.538  -9.947  1.00  0.00     0.074 A 
ATOM     62  C   UNL     1      10.511  10.035  -9.387  1.00  0.00     0.029 A 
ATOM     63  N   UNL     1       8.405   9.323  -9.352  1.00  0.00    -0.354 N 
ATOM     64  N   UNL     1       5.522   9.551  -9.800  1.00  0.00    -0.248 NA
ATOM     65  C   UNL     1       3.653  10.806 -10.428  1.00  0.00     0.031 C 
ATOM     66  C   UNL     1       9.687  11.074  -9.830  1.00  0.00     0.029 A 
ATOM     67  C   UNL     1       8.377  10.621  -9.834  1.00  0.00     0.049 A 
ATOM     68  H   UNL     1       7.615   8.748  -9.232  1.00  0.00     0.167 HD
ATOM     69  C   UNL     1       5.935  10.816 -10.203  1.00  0.00     0.074 A 
ATOM     70  C   UNL     1       4.745  11.539 -10.602  1.00  0.00     0.031 C 
ATOM     71  C   UNL     1       7.189  11.327 -10.243  1.00  0.00     0.031 A 
BRANCH  58  72
ATOM     72  C   UNL     1      11.562   7.452  -8.223  1.00  0.00    -0.014 A 
ATOM     73  C   UNL     1      12.349   6.599  -9.017  1.00  0.00     0.010 A 
ATOM     74  C   UNL     1      12.160   8.133  -7.146  1.00  0.00     0.010 A 
ATOM     75  C   UNL     1      13.697   6.393  -8.711  1.00  0.00     0.020 A 
ATOM     76  C   UNL     1      13.515   7.949  -6.853  1.00  0.00     0.020 A 
ATOM     77  C   UNL     1      14.269   7.063  -7.625  1.00  0.00     0.054 A 
BRANCH  77  78
ATOM     78  S   UNL     1      16.019   6.774  -7.248  1.00  0.00     0.124 S 
ATOM     79  O   UNL     1      15.977   5.445  -6.641  1.00  0.00    -0.237 OA
ATOM     80  O   UNL     1      16.649   6.843  -8.564  1.00  0.00    -0.237 OA
ATOM     81  O   UNL     1      16.363   7.863  -6.338  1.00  0.00    -0.744 OA
ENDBRANCH  77  78
ENDBRANCH  58  72
BRANCH  59  82
ATOM     82  C   UNL     1       1.794   8.598  -9.916  1.00  0.00    -0.014 A 
ATOM     83  C   UNL     1       1.279   8.700 -11.220  1.00  0.00     0.010 A 
ATOM     84  C   UNL     1       0.909   8.657  -8.824  1.00  0.00     0.010 A 
ATOM     85  C   UNL     1      -0.092   8.875 -11.428  1.00  0.00     0.020 A 
ATOM     86  C   UNL     1      -0.465   8.806  -9.029  1.00  0.00     0.020 A 
ATOM     87  C   UNL     1      -0.956   8.925 -10.331  1.00  0.00     0.054 A 
BRANCH  87  88
ATOM     88  S   UNL     1      -2.738   9.098 -10.627  1.00  0.00     0.124 S 
ATOM     89  O   UNL     1      -2.850  10.508 -10.985  1.00  0.00    -0.237 OA
ATOM     90  O   UNL     1      -2.972   8.148 -11.712  1.00  0.00    -0.237 OA
ATOM     91  O   UNL     1      -3.334   8.726  -9.345  1.00  0.00    -0.744 OA
ENDBRANCH  87  88
ENDBRANCH  59  82
BRANCH  71  92
ATOM     92  C   UNL     1       7.358  12.719 -10.790  1.00  0.00    -0.014 A 
ATOM     93  C   UNL     1       6.999  13.850 -10.037  1.00  0.00     0.010 A 
ATOM     94  C   UNL     1       7.958  12.895 -12.050  1.00  0.00     0.010 A 
ATOM     95  C   UNL     1       7.224  15.134 -10.542  1.00  0.00     0.020 A 
ATOM     96  C   UNL     1       8.205  14.177 -12.549  1.00  0.00     0.020 A 
ATOM     97  C   UNL     1       7.828  15.289 -11.795  1.00  0.00     0.054 A 
BRANCH  97  98
ATOM     98  S   UNL     1       8.173  16.964 -12.400  1.00  0.00     0.124 S 
ATOM     99  O   UNL     1       6.847  17.421 -12.807  1.00  0.00    -0.237 OA
ATOM    100  O   UNL     1       8.732  17.624 -11.222  1.00  0.00    -0.237 OA
ATOM    101  O   UNL     1       9.120  16.749 -13.492  1.00  0.00    -0.744 OA
ENDBRANCH  97  98
ENDBRANCH  71  92
ENDBRANCH  45  46
ENDBRANCH  37  40
ENDBRANCH  35  36
ENDBRANCH  34  35
ENDBRANCH   1  34
TORSDOF 19
