REMARK SMILES O=C(COc1ccccc1C[NH+]1CCC2(CC[NH2+]CC2)CC1)NCCCNC(=O)c1ccc(-c2c3nc(c(-c4ccc(S(=O)(=O)[O-])cc4)c4ccc([nH]4)c(-c4ccc(S(=O)(=O)[O-])cc4)c4nc(c(-c5ccc(S(=O)(=O)[O-])cc5)c5ccc2[nH]5)C=C4)C=C3)cc1
REMARK SMILES IDX 24 1 23 2 1 3 2 4 3 6 4 7 5 8 6 9 10 10 7 11 9 12 8 13 11 14
REMARK SMILES IDX 12 15 13 16 22 17 14 19 21 20 15 21 16 22 20 23 17 24 19 25
REMARK SMILES IDX 18 26 25 29 26 30 27 31 28 32 29 34 30 35 31 36 89 37 32 38
REMARK SMILES IDX 88 39 33 40 34 41 35 42 82 43 36 44 87 45 81 46 83 47 37 48
REMARK SMILES IDX 86 49 80 50 79 51 38 53 68 54 49 55 67 56 50 57 53 58 66 59
REMARK SMILES IDX 84 60 51 61 52 62 65 64 85 65 54 66 39 67 40 68 48 69 41 70
REMARK SMILES IDX 47 71 42 72 43 73 44 74 45 75 46 76 69 77 70 78 78 79 71 80
REMARK SMILES IDX 77 81 72 82 73 83 74 84 75 85 76 86 55 87 56 88 64 89 57 90
REMARK SMILES IDX 63 91 58 92 59 93 60 94 61 95 62 96
REMARK H PARENT 23 5 12 18 18 27 18 28 27 33 83 52 53 63
REMARK Flexibility Score: inf
ROOT
ATOM      1  C   UNL     1       1.955  -2.451   0.360  1.00  0.00     0.117 C 
ENDROOT
BRANCH   1   2
ATOM      2  N   UNL     1       2.703  -1.360  -0.243  1.00  0.00    -0.353 N 
ATOM      3  O   UNL     1       0.950  -0.412  -1.404  1.00  0.00    -0.271 OA
ATOM      4  C   UNL     1       2.069  -0.323  -0.906  1.00  0.00     0.257 C 
ATOM      5  H   UNL     1       3.686  -1.359  -0.178  1.00  0.00     0.163 HD
BRANCH   4   6
ATOM      6  C   UNL     1       2.865   0.987  -0.924  1.00  0.00     0.329 C 
BRANCH   6   7
ATOM      7  O   UNL     1       3.476   1.219   0.351  1.00  0.00    -0.483 OA
BRANCH   7   8
ATOM      8  C   UNL     1       2.947   2.299   1.015  1.00  0.00     0.128 A 
ATOM      9  C   UNL     1       3.663   3.498   0.932  1.00  0.00     0.047 A 
ATOM     10  C   UNL     1       1.864   2.178   1.906  1.00  0.00     0.048 A 
ATOM     11  C   UNL     1       3.272   4.606   1.686  1.00  0.00     0.004 A 
ATOM     12  C   UNL     1       1.449   3.325   2.607  1.00  0.00     0.013 A 
ATOM     13  C   UNL     1       2.152   4.525   2.508  1.00  0.00     0.001 A 
BRANCH  10  14
ATOM     14  C   UNL     1       1.168   0.869   2.205  1.00  0.00     0.302 C 
BRANCH  14  15
ATOM     15  N   UNL     1       1.726   0.016   3.259  1.00  0.00    -0.331 N 
ATOM     16  C   UNL     1       3.124  -0.364   3.141  1.00  0.00     0.263 C 
ATOM     17  C   UNL     1       1.340   0.312   4.630  1.00  0.00     0.263 C 
ATOM     18  H   UNL     1       1.214  -0.835   3.027  1.00  0.00     0.348 HD
ATOM     19  C   UNL     1       4.111   0.608   3.776  1.00  0.00     0.069 C 
ATOM     20  C   UNL     1       2.277   1.272   5.366  1.00  0.00     0.069 C 
ATOM     21  C   UNL     1       3.780   0.918   5.250  1.00  0.00    -0.008 C 
ATOM     22  C   UNL     1       4.145  -0.282   6.159  1.00  0.00     0.069 C 
ATOM     23  C   UNL     1       4.609   2.138   5.718  1.00  0.00     0.069 C 
ATOM     24  C   UNL     1       5.660  -0.505   6.260  1.00  0.00     0.261 C 
ATOM     25  C   UNL     1       6.103   1.830   5.804  1.00  0.00     0.261 C 
ATOM     26  N   UNL     1       6.365   0.703   6.699  1.00  0.00    -0.346 N 
ATOM     27  H   UNL     1       7.368   0.516   6.711  1.00  0.00     0.346 HD
ATOM     28  H   UNL     1       6.031   0.949   7.631  1.00  0.00     0.346 HD
ENDBRANCH  14  15
ENDBRANCH  10  14
ENDBRANCH   7   8
ENDBRANCH   6   7
ENDBRANCH   4   6
ENDBRANCH   1   2
BRANCH   1  29
ATOM     29  C   UNL     1       2.584  -3.827   0.214  1.00  0.00     0.042 C 
BRANCH  29  30
ATOM     30  C   UNL     1       4.048  -3.955   0.621  1.00  0.00     0.118 C 
BRANCH  30  31
ATOM     31  N   UNL     1       4.308  -3.865   2.053  1.00  0.00    -0.352 N 
ATOM     32  C   UNL     1       4.946  -4.743   2.905  1.00  0.00     0.251 C 
ATOM     33  H   UNL     1       3.975  -3.044   2.482  1.00  0.00     0.163 HD
ATOM     34  O   UNL     1       5.050  -4.462   4.098  1.00  0.00    -0.269 OA
BRANCH  32  35
ATOM     35  C   UNL     1       5.441  -6.050   2.409  1.00  0.00     0.039 A 
ATOM     36  C   UNL     1       5.119  -7.207   3.126  1.00  0.00     0.014 A 
ATOM     37  C   UNL     1       6.151  -6.153   1.213  1.00  0.00     0.014 A 
ATOM     38  C   UNL     1       5.377  -8.464   2.570  1.00  0.00     0.010 A 
ATOM     39  C   UNL     1       6.321  -7.401   0.618  1.00  0.00     0.010 A 
ATOM     40  C   UNL     1       5.904  -8.570   1.273  1.00  0.00    -0.014 A 
BRANCH  40  41
ATOM     41  C   UNL     1       5.960  -9.872   0.552  1.00  0.00     0.031 A 
ATOM     42  C   UNL     1       7.271 -10.416   0.052  1.00  0.00     0.074 A 
ATOM     43  C   UNL     1       4.811 -10.512   0.246  1.00  0.00     0.049 A 
ATOM     44  N   UNL     1       7.495 -11.459  -0.707  1.00  0.00    -0.248 NA
ATOM     45  C   UNL     1       8.485  -9.674   0.429  1.00  0.00     0.031 C 
ATOM     46  C   UNL     1       3.464 -10.071   0.622  1.00  0.00     0.029 A 
ATOM     47  N   UNL     1       4.589 -11.665  -0.468  1.00  0.00    -0.354 N 
ATOM     48  C   UNL     1       8.868 -11.483  -0.921  1.00  0.00     0.074 A 
ATOM     49  C   UNL     1       9.420 -10.328  -0.245  1.00  0.00     0.031 C 
ATOM     50  C   UNL     1       2.564 -10.953   0.158  1.00  0.00     0.029 A 
ATOM     51  C   UNL     1       3.259 -11.994  -0.591  1.00  0.00     0.049 A 
ATOM     52  H   UNL     1       5.315 -12.206  -0.856  1.00  0.00     0.167 HD
ATOM     53  C   UNL     1       9.606 -12.391  -1.604  1.00  0.00     0.031 A 
ATOM     54  C   UNL     1       2.657 -13.008  -1.244  1.00  0.00     0.031 A 
ATOM     55  C   UNL     1       9.063 -13.551  -2.260  1.00  0.00     0.049 A 
ATOM     56  C   UNL     1       3.497 -14.001  -1.996  1.00  0.00     0.074 A 
ATOM     57  C   UNL     1       9.740 -14.562  -2.920  1.00  0.00     0.029 A 
ATOM     58  N   UNL     1       7.713 -13.855  -2.342  1.00  0.00    -0.354 N 
ATOM     59  N   UNL     1       4.801 -14.038  -2.135  1.00  0.00    -0.248 NA
ATOM     60  C   UNL     1       2.785 -15.091  -2.679  1.00  0.00     0.031 C 
ATOM     61  C   UNL     1       8.797 -15.456  -3.438  1.00  0.00     0.029 A 
ATOM     62  C   UNL     1       7.535 -15.026  -3.060  1.00  0.00     0.049 A 
ATOM     63  H   UNL     1       6.988 -13.319  -1.948  1.00  0.00     0.167 HD
ATOM     64  C   UNL     1       5.066 -15.164  -2.906  1.00  0.00     0.074 A 
ATOM     65  C   UNL     1       3.790 -15.790  -3.188  1.00  0.00     0.031 C 
ATOM     66  C   UNL     1       6.260 -15.636  -3.341  1.00  0.00     0.031 A 
BRANCH  53  67
ATOM     67  C   UNL     1      11.092 -12.160  -1.678  1.00  0.00    -0.014 A 
ATOM     68  C   UNL     1      11.909 -12.329  -0.545  1.00  0.00     0.010 A 
ATOM     69  C   UNL     1      11.685 -11.800  -2.901  1.00  0.00     0.010 A 
ATOM     70  C   UNL     1      13.284 -12.097  -0.623  1.00  0.00     0.020 A 
ATOM     71  C   UNL     1      13.065 -11.592  -2.990  1.00  0.00     0.020 A 
ATOM     72  C   UNL     1      13.853 -11.723  -1.844  1.00  0.00     0.054 A 
BRANCH  72  73
ATOM     73  S   UNL     1      15.642 -11.438  -1.919  1.00  0.00     0.124 S 
ATOM     74  O   UNL     1      15.767 -10.140  -1.261  1.00  0.00    -0.237 OA
ATOM     75  O   UNL     1      16.181 -12.574  -1.175  1.00  0.00    -0.237 OA
ATOM     76  O   UNL     1      15.934 -11.441  -3.351  1.00  0.00    -0.744 OA
ENDBRANCH  72  73
ENDBRANCH  53  67
BRANCH  54  77
ATOM     77  C   UNL     1       1.175 -13.138  -1.210  1.00  0.00    -0.014 A 
ATOM     78  C   UNL     1       0.570 -14.157  -0.454  1.00  0.00     0.010 A 
ATOM     79  C   UNL     1       0.360 -12.238  -1.921  1.00  0.00     0.010 A 
ATOM     80  C   UNL     1      -0.822 -14.284  -0.421  1.00  0.00     0.020 A 
ATOM     81  C   UNL     1      -1.033 -12.346  -1.870  1.00  0.00     0.020 A 
ATOM     82  C   UNL     1      -1.615 -13.376  -1.129  1.00  0.00     0.054 A 
BRANCH  82  83
ATOM     83  S   UNL     1      -3.421 -13.524  -1.026  1.00  0.00     0.124 S 
ATOM     84  O   UNL     1      -3.682 -14.663  -1.899  1.00  0.00    -0.237 OA
ATOM     85  O   UNL     1      -3.639 -13.756   0.400  1.00  0.00    -0.237 OA
ATOM     86  O   UNL     1      -3.896 -12.233  -1.518  1.00  0.00    -0.744 OA
ENDBRANCH  82  83
ENDBRANCH  54  77
BRANCH  66  87
ATOM     87  C   UNL     1       6.248 -16.902  -4.153  1.00  0.00    -0.014 A 
ATOM     88  C   UNL     1       5.811 -16.901  -5.489  1.00  0.00     0.010 A 
ATOM     89  C   UNL     1       6.730 -18.096  -3.588  1.00  0.00     0.010 A 
ATOM     90  C   UNL     1       5.832 -18.081  -6.239  1.00  0.00     0.020 A 
ATOM     91  C   UNL     1       6.774 -19.272  -4.341  1.00  0.00     0.020 A 
ATOM     92  C   UNL     1       6.313 -19.259  -5.660  1.00  0.00     0.054 A 
BRANCH  92  93
ATOM     93  S   UNL     1       6.377 -20.767  -6.667  1.00  0.00     0.124 S 
ATOM     94  O   UNL     1       4.974 -21.170  -6.698  1.00  0.00    -0.237 OA
ATOM     95  O   UNL     1       6.920 -20.284  -7.935  1.00  0.00    -0.237 OA
ATOM     96  O   UNL     1       7.264 -21.649  -5.913  1.00  0.00    -0.744 OA
ENDBRANCH  92  93
ENDBRANCH  66  87
ENDBRANCH  40  41
ENDBRANCH  32  35
ENDBRANCH  30  31
ENDBRANCH  29  30
ENDBRANCH   1  29
TORSDOF 17
