REMARK SMILES O=C(NCCCNC(=O)C1(NC(=O)c2ccncc2Cl)CCCCC1)c1ccc(-c2c3nc(c(-c4ccc(S(=O)(=O)[O-])cc4)c4ccc([nH]4)c(-c4ccc(S(=O)(=O)[O-])cc4)c4nc(c(-c5ccc(S(=O)(=O)[O-])cc5)c5ccc2[nH]5)C=C4)C=C3)cc1
REMARK SMILES IDX 4 1 3 2 1 3 2 4 26 6 27 7 85 8 28 9 84 10 29 11 30 12 31 13
REMARK SMILES IDX 78 14 32 15 83 16 77 17 79 18 33 19 82 20 76 21 75 22 34 24
REMARK SMILES IDX 64 25 45 26 63 27 46 28 49 29 62 30 80 31 47 32 48 33 61 35
REMARK SMILES IDX 81 36 50 37 35 38 36 39 44 40 37 41 43 42 38 43 39 44 40 45
REMARK SMILES IDX 41 46 42 47 65 48 66 49 74 50 67 51 73 52 68 53 69 54 70 55
REMARK SMILES IDX 71 56 72 57 51 58 52 59 60 60 53 61 59 62 54 63 55 64 56 65
REMARK SMILES IDX 57 66 58 67 5 68 6 69 7 70 8 71 9 73 10 74 21 75 25 76 22 77
REMARK SMILES IDX 24 78 23 79 11 80 12 81 13 83 14 84 15 85 19 86 16 87 18 88
REMARK SMILES IDX 20 89 17 90
REMARK H PARENT 3 5 79 23 49 34 7 72 11 82
REMARK Flexibility Score: inf
ROOT
ATOM      1  C   UNL     1       3.757  -1.158  -0.629  1.00  0.00     0.118 C 
ENDROOT
BRANCH   1   2
ATOM      2  N   UNL     1       2.421  -0.586  -0.741  1.00  0.00    -0.352 N 
ATOM      3  O   UNL     1       0.640   0.627  -0.079  1.00  0.00    -0.269 OA
ATOM      4  C   UNL     1       1.848   0.416   0.005  1.00  0.00     0.251 C 
ATOM      5  H   UNL     1       1.851  -0.971  -1.446  1.00  0.00     0.163 HD
BRANCH   4   6
ATOM      6  C   UNL     1       2.685   1.223   0.918  1.00  0.00     0.039 A 
ATOM      7  C   UNL     1       3.911   1.736   0.488  1.00  0.00     0.014 A 
ATOM      8  C   UNL     1       2.237   1.473   2.218  1.00  0.00     0.014 A 
ATOM      9  C   UNL     1       4.749   2.377   1.395  1.00  0.00     0.010 A 
ATOM     10  C   UNL     1       3.046   2.194   3.103  1.00  0.00     0.010 A 
ATOM     11  C   UNL     1       4.323   2.626   2.711  1.00  0.00    -0.014 A 
BRANCH  11  12
ATOM     12  C   UNL     1       5.204   3.383   3.642  1.00  0.00     0.031 A 
ATOM     13  C   UNL     1       5.725   2.755   4.909  1.00  0.00     0.074 A 
ATOM     14  C   UNL     1       5.544   4.650   3.330  1.00  0.00     0.049 A 
ATOM     15  N   UNL     1       6.505   3.274   5.824  1.00  0.00    -0.248 NA
ATOM     16  C   UNL     1       5.310   1.372   5.193  1.00  0.00     0.031 C 
ATOM     17  C   UNL     1       5.100   5.374   2.135  1.00  0.00     0.029 A 
ATOM     18  N   UNL     1       6.353   5.550   3.978  1.00  0.00    -0.354 N 
ATOM     19  C   UNL     1       6.651   2.298   6.804  1.00  0.00     0.074 A 
ATOM     20  C   UNL     1       5.858   1.162   6.382  1.00  0.00     0.031 C 
ATOM     21  C   UNL     1       5.683   6.581   2.109  1.00  0.00     0.029 A 
ATOM     22  C   UNL     1       6.483   6.748   3.316  1.00  0.00     0.049 A 
ATOM     23  H   UNL     1       6.797   5.356   4.835  1.00  0.00     0.167 HD
ATOM     24  C   UNL     1       7.380   2.342   7.946  1.00  0.00     0.031 A 
ATOM     25  C   UNL     1       7.157   7.866   3.645  1.00  0.00     0.031 A 
ATOM     26  C   UNL     1       8.170   3.476   8.358  1.00  0.00     0.049 A 
ATOM     27  C   UNL     1       7.936   7.896   4.929  1.00  0.00     0.074 A 
ATOM     28  C   UNL     1       8.975   3.602   9.477  1.00  0.00     0.029 A 
ATOM     29  N   UNL     1       8.251   4.680   7.673  1.00  0.00    -0.354 N 
ATOM     30  N   UNL     1       8.088   6.949   5.823  1.00  0.00    -0.248 NA
ATOM     31  C   UNL     1       8.640   9.146   5.244  1.00  0.00     0.031 C 
ATOM     32  C   UNL     1       9.492   4.902   9.502  1.00  0.00     0.029 A 
ATOM     33  C   UNL     1       9.071   5.562   8.359  1.00  0.00     0.049 A 
ATOM     34  H   UNL     1       7.794   4.878   6.824  1.00  0.00     0.167 HD
ATOM     35  C   UNL     1       8.935   7.477   6.791  1.00  0.00     0.074 A 
ATOM     36  C   UNL     1       9.271   8.820   6.363  1.00  0.00     0.031 C 
ATOM     37  C   UNL     1       9.398   6.898   7.927  1.00  0.00     0.031 A 
BRANCH  24  38
ATOM     38  C   UNL     1       7.331   1.141   8.860  1.00  0.00    -0.014 A 
ATOM     39  C   UNL     1       7.925  -0.082   8.502  1.00  0.00     0.010 A 
ATOM     40  C   UNL     1       6.721   1.256  10.124  1.00  0.00     0.010 A 
ATOM     41  C   UNL     1       7.870  -1.179   9.368  1.00  0.00     0.020 A 
ATOM     42  C   UNL     1       6.691   0.172  11.007  1.00  0.00     0.020 A 
ATOM     43  C   UNL     1       7.250  -1.045  10.615  1.00  0.00     0.054 A 
BRANCH  43  44
ATOM     44  S   UNL     1       7.204  -2.481  11.723  1.00  0.00     0.124 S 
ATOM     45  O   UNL     1       6.241  -3.350  11.050  1.00  0.00    -0.237 OA
ATOM     46  O   UNL     1       8.589  -2.946  11.703  1.00  0.00    -0.237 OA
ATOM     47  O   UNL     1       6.755  -1.924  12.997  1.00  0.00    -0.744 OA
ENDBRANCH  43  44
ENDBRANCH  24  38
BRANCH  25  48
ATOM     48  C   UNL     1       7.123   9.046   2.739  1.00  0.00    -0.014 A 
ATOM     49  C   UNL     1       8.278   9.452   2.048  1.00  0.00     0.010 A 
ATOM     50  C   UNL     1       5.926   9.762   2.548  1.00  0.00     0.010 A 
ATOM     51  C   UNL     1       8.243  10.563   1.201  1.00  0.00     0.020 A 
ATOM     52  C   UNL     1       5.879  10.852   1.675  1.00  0.00     0.020 A 
ATOM     53  C   UNL     1       7.042  11.254   1.017  1.00  0.00     0.054 A 
BRANCH  53  54
ATOM     54  S   UNL     1       7.011  12.665  -0.123  1.00  0.00     0.124 S 
ATOM     55  O   UNL     1       7.751  13.675   0.625  1.00  0.00    -0.237 OA
ATOM     56  O   UNL     1       7.684  12.130  -1.304  1.00  0.00    -0.237 OA
ATOM     57  O   UNL     1       5.585  12.933  -0.296  1.00  0.00    -0.744 OA
ENDBRANCH  53  54
ENDBRANCH  25  48
BRANCH  37  58
ATOM     58  C   UNL     1      10.365   7.697   8.763  1.00  0.00    -0.014 A 
ATOM     59  C   UNL     1       9.957   8.837   9.478  1.00  0.00     0.010 A 
ATOM     60  C   UNL     1      11.705   7.278   8.850  1.00  0.00     0.010 A 
ATOM     61  C   UNL     1      10.884   9.571  10.225  1.00  0.00     0.020 A 
ATOM     62  C   UNL     1      12.627   7.988   9.623  1.00  0.00     0.020 A 
ATOM     63  C   UNL     1      12.214   9.142  10.290  1.00  0.00     0.054 A 
BRANCH  63  64
ATOM     64  S   UNL     1      13.393  10.099  11.282  1.00  0.00     0.124 S 
ATOM     65  O   UNL     1      13.587  11.290  10.459  1.00  0.00    -0.237 OA
ATOM     66  O   UNL     1      12.665  10.309  12.530  1.00  0.00    -0.237 OA
ATOM     67  O   UNL     1      14.554   9.218  11.386  1.00  0.00    -0.744 OA
ENDBRANCH  63  64
ENDBRANCH  37  58
ENDBRANCH  11  12
ENDBRANCH   4   6
ENDBRANCH   1   2
BRANCH   1  68
ATOM     68  C   UNL     1       3.716  -2.643  -0.290  1.00  0.00     0.042 C 
BRANCH  68  69
ATOM     69  C   UNL     1       3.369  -3.527  -1.478  1.00  0.00     0.117 C 
BRANCH  69  70
ATOM     70  N   UNL     1       4.304  -3.430  -2.595  1.00  0.00    -0.354 N 
ATOM     71  C   UNL     1       5.263  -4.213  -3.149  1.00  0.00     0.245 C 
ATOM     72  H   UNL     1       4.215  -2.572  -3.070  1.00  0.00     0.163 HD
ATOM     73  O   UNL     1       5.625  -3.827  -4.274  1.00  0.00    -0.272 OA
BRANCH  71  74
ATOM     74  C   UNL     1       6.010  -5.429  -2.487  1.00  0.00     0.119 C 
ATOM     75  C   UNL     1       5.191  -6.059  -1.344  1.00  0.00     0.038 C 
ATOM     76  C   UNL     1       6.178  -6.480  -3.632  1.00  0.00     0.038 C 
ATOM     77  C   UNL     1       5.621  -7.457  -0.906  1.00  0.00     0.003 C 
ATOM     78  C   UNL     1       6.554  -7.892  -3.172  1.00  0.00     0.003 C 
ATOM     79  C   UNL     1       5.614  -8.405  -2.092  1.00  0.00     0.000 C 
BRANCH  74  80
ATOM     80  N   UNL     1       7.368  -5.080  -1.954  1.00  0.00    -0.338 N 
ATOM     81  C   UNL     1       8.376  -4.337  -2.531  1.00  0.00     0.253 C 
ATOM     82  H   UNL     1       7.569  -5.434  -1.057  1.00  0.00     0.164 HD
ATOM     83  O   UNL     1       9.522  -4.780  -2.564  1.00  0.00    -0.269 OA
BRANCH  81  84
ATOM     84  C   UNL     1       8.128  -2.964  -3.010  1.00  0.00     0.061 A 
ATOM     85  C   UNL     1       8.620  -2.595  -4.265  1.00  0.00     0.035 A 
ATOM     86  C   UNL     1       7.496  -2.009  -2.219  1.00  0.00     0.072 A 
ATOM     87  C   UNL     1       8.332  -1.322  -4.730  1.00  0.00     0.112 A 
ATOM     88  C   UNL     1       7.215  -0.779  -2.795  1.00  0.00     0.132 A 
ATOM     89  Cl  UNL     1       7.185  -2.228  -0.543  1.00  0.00    -0.082 Cl
ATOM     90  N   UNL     1       7.601  -0.420  -4.042  1.00  0.00    -0.263 NA
ENDBRANCH  81  84
ENDBRANCH  74  80
ENDBRANCH  71  74
ENDBRANCH  69  70
ENDBRANCH  68  69
ENDBRANCH   1  68
TORSDOF 15
