REMARK SMILES O=C(C[NH+]1CC2(CCCC2)C1)NCCCNC(=O)c1ccc(-c2c3nc(c(-c4ccc(S(=O)(=O)[O-])cc4)c4ccc([nH]4)c(-c4ccc(S(=O)(=O)[O-])cc4)c4nc(c(-c5ccc(S(=O)(=O)[O-])cc5)c5ccc2[nH]5)C=C4)C=C3)cc1
REMARK SMILES IDX 15 1 14 2 13 3 12 4 1 5 2 6 3 8 4 9 5 10 11 11 6 13 7 14
REMARK SMILES IDX 10 15 8 16 9 17 16 18 17 19 18 21 19 22 20 23 78 24 21 25
REMARK SMILES IDX 77 26 22 27 23 28 24 29 71 30 25 31 76 32 70 33 72 34 26 35
REMARK SMILES IDX 75 36 69 37 68 38 27 40 57 41 38 42 56 43 39 44 42 45 55 46
REMARK SMILES IDX 73 47 40 48 41 49 54 51 74 52 43 53 28 54 29 55 37 56 30 57
REMARK SMILES IDX 36 58 31 59 32 60 33 61 34 62 35 63 58 64 59 65 67 66 60 67
REMARK SMILES IDX 66 68 61 69 62 70 63 71 64 72 65 73 44 74 45 75 53 76 46 77
REMARK SMILES IDX 52 78 47 79 48 80 49 81 50 82 51 83
REMARK H PARENT 12 7 4 12 16 20 72 39 42 50
REMARK Flexibility Score: inf
ROOT
ATOM      1  C   UNL     1       3.962  -2.862   2.504  1.00  0.00     0.118 C 
ENDROOT
BRANCH   1   2
ATOM      2  C   UNL     1       2.479  -2.543   2.343  1.00  0.00     0.042 C 
BRANCH   2   3
ATOM      3  C   UNL     1       2.167  -1.053   2.313  1.00  0.00     0.118 C 
BRANCH   3   4
ATOM      4  N   UNL     1       2.819  -0.381   1.211  1.00  0.00    -0.351 N 
ATOM      5  O   UNL     1       0.971  -0.349  -0.148  1.00  0.00    -0.269 OA
ATOM      6  C   UNL     1       2.151  -0.071   0.050  1.00  0.00     0.275 C 
ATOM      7  H   UNL     1       3.769  -0.138   1.295  1.00  0.00     0.163 HD
BRANCH   6   8
ATOM      8  C   UNL     1       3.001   0.618  -1.009  1.00  0.00     0.363 C 
BRANCH   8   9
ATOM      9  N   UNL     1       3.667   1.870  -0.568  1.00  0.00    -0.326 N 
ATOM     10  C   UNL     1       2.919   2.720   0.394  1.00  0.00     0.275 C 
ATOM     11  C   UNL     1       3.432   2.914  -1.605  1.00  0.00     0.275 C 
ATOM     12  H   UNL     1       4.581   1.517  -0.285  1.00  0.00     0.348 HD
ATOM     13  C   UNL     1       2.231   3.465  -0.774  1.00  0.00     0.068 C 
ATOM     14  C   UNL     1       0.797   2.976  -1.024  1.00  0.00     0.019 C 
ATOM     15  C   UNL     1       2.178   4.999  -0.758  1.00  0.00     0.019 C 
ATOM     16  C   UNL     1       0.087   4.175  -1.627  1.00  0.00     0.001 C 
ATOM     17  C   UNL     1       0.698   5.353  -0.891  1.00  0.00     0.001 C 
ENDBRANCH   8   9
ENDBRANCH   6   8
ENDBRANCH   3   4
ENDBRANCH   2   3
ENDBRANCH   1   2
BRANCH   1  18
ATOM     18  N   UNL     1       4.524  -2.340   3.742  1.00  0.00    -0.352 N 
ATOM     19  C   UNL     1       5.173  -2.986   4.766  1.00  0.00     0.251 C 
ATOM     20  H   UNL     1       4.423  -1.368   3.865  1.00  0.00     0.163 HD
ATOM     21  O   UNL     1       5.423  -2.375   5.801  1.00  0.00    -0.269 OA
BRANCH  19  22
ATOM     22  C   UNL     1       5.546  -4.412   4.639  1.00  0.00     0.039 A 
ATOM     23  C   UNL     1       5.340  -5.259   5.732  1.00  0.00     0.014 A 
ATOM     24  C   UNL     1       6.104  -4.915   3.461  1.00  0.00     0.014 A 
ATOM     25  C   UNL     1       5.622  -6.622   5.616  1.00  0.00     0.010 A 
ATOM     26  C   UNL     1       6.311  -6.286   3.322  1.00  0.00     0.010 A 
ATOM     27  C   UNL     1       6.066  -7.156   4.395  1.00  0.00    -0.014 A 
BRANCH  27  28
ATOM     28  C   UNL     1       6.245  -8.621   4.215  1.00  0.00     0.031 A 
ATOM     29  C   UNL     1       7.600  -9.195   3.901  1.00  0.00     0.074 A 
ATOM     30  C   UNL     1       5.167  -9.430   4.271  1.00  0.00     0.049 A 
ATOM     31  N   UNL     1       7.931 -10.438   3.658  1.00  0.00    -0.248 NA
ATOM     32  C   UNL     1       8.725  -8.250   3.830  1.00  0.00     0.031 C 
ATOM     33  C   UNL     1       3.792  -8.993   4.529  1.00  0.00     0.029 A 
ATOM     34  N   UNL     1       5.055 -10.788   4.106  1.00  0.00    -0.354 N 
ATOM     35  C   UNL     1       9.295 -10.423   3.393  1.00  0.00     0.074 A 
ATOM     36  C   UNL     1       9.721  -9.042   3.457  1.00  0.00     0.031 C 
ATOM     37  C   UNL     1       2.983 -10.063   4.534  1.00  0.00     0.029 A 
ATOM     38  C   UNL     1       3.767 -11.255   4.229  1.00  0.00     0.049 A 
ATOM     39  H   UNL     1       5.824 -11.373   3.917  1.00  0.00     0.167 HD
ATOM     40  C   UNL     1      10.122 -11.466   3.135  1.00  0.00     0.031 A 
ATOM     41  C   UNL     1       3.266 -12.500   4.100  1.00  0.00     0.031 A 
ATOM     42  C   UNL     1       9.693 -12.839   3.071  1.00  0.00     0.049 A 
ATOM     43  C   UNL     1       4.200 -13.636   3.784  1.00  0.00     0.074 A 
ATOM     44  C   UNL     1      10.465 -13.971   2.868  1.00  0.00     0.029 A 
ATOM     45  N   UNL     1       8.381 -13.270   3.198  1.00  0.00    -0.354 N 
ATOM     46  N   UNL     1       5.499 -13.610   3.606  1.00  0.00    -0.248 NA
ATOM     47  C   UNL     1       3.601 -14.972   3.662  1.00  0.00     0.031 C 
ATOM     48  C   UNL     1       9.611 -15.077   2.808  1.00  0.00     0.029 A 
ATOM     49  C   UNL     1       8.316 -14.645   3.046  1.00  0.00     0.049 A 
ATOM     50  H   UNL     1       7.609 -12.684   3.372  1.00  0.00     0.167 HD
ATOM     51  C   UNL     1       5.876 -14.929   3.377  1.00  0.00     0.074 A 
ATOM     52  C   UNL     1       4.671 -15.728   3.459  1.00  0.00     0.031 C 
ATOM     53  C   UNL     1       7.110 -15.431   3.124  1.00  0.00     0.031 A 
BRANCH  40  54
ATOM     54  C   UNL     1      11.578 -11.161   2.890  1.00  0.00    -0.014 A 
ATOM     55  C   UNL     1      12.411 -10.699   3.927  1.00  0.00     0.010 A 
ATOM     56  C   UNL     1      12.135 -11.386   1.618  1.00  0.00     0.010 A 
ATOM     57  C   UNL     1      13.761 -10.429   3.685  1.00  0.00     0.020 A 
ATOM     58  C   UNL     1      13.492 -11.148   1.380  1.00  0.00     0.020 A 
ATOM     59  C   UNL     1      14.293 -10.655   2.412  1.00  0.00     0.054 A 
BRANCH  59  60
ATOM     60  S   UNL     1      16.053 -10.319   2.135  1.00  0.00     0.124 S 
ATOM     61  O   UNL     1      16.092  -8.859   2.182  1.00  0.00    -0.237 OA
ATOM     62  O   UNL     1      16.689 -11.000   3.260  1.00  0.00    -0.237 OA
ATOM     63  O   UNL     1      16.318 -10.906   0.824  1.00  0.00    -0.744 OA
ENDBRANCH  59  60
ENDBRANCH  40  54
BRANCH  41  64
ATOM     64  C   UNL     1       1.806 -12.736   4.273  1.00  0.00    -0.014 A 
ATOM     65  C   UNL     1       1.323 -13.454   5.381  1.00  0.00     0.010 A 
ATOM     66  C   UNL     1       0.887 -12.232   3.333  1.00  0.00     0.010 A 
ATOM     67  C   UNL     1      -0.048 -13.681   5.536  1.00  0.00     0.020 A 
ATOM     68  C   UNL     1      -0.486 -12.429   3.502  1.00  0.00     0.020 A 
ATOM     69  C   UNL     1      -0.944 -13.163   4.597  1.00  0.00     0.054 A 
BRANCH  69  70
ATOM     70  S   UNL     1      -2.722 -13.429   4.847  1.00  0.00     0.124 S 
ATOM     71  O   UNL     1      -2.861 -14.851   4.553  1.00  0.00    -0.237 OA
ATOM     72  O   UNL     1      -2.902 -13.050   6.246  1.00  0.00    -0.237 OA
ATOM     73  O   UNL     1      -3.342 -12.525   3.880  1.00  0.00    -0.744 OA
ENDBRANCH  69  70
ENDBRANCH  41  64
BRANCH  53  74
ATOM     74  C   UNL     1       7.229 -16.923   2.947  1.00  0.00    -0.014 A 
ATOM     75  C   UNL     1       6.718 -17.569   1.807  1.00  0.00     0.010 A 
ATOM     76  C   UNL     1       7.910 -17.684   3.916  1.00  0.00     0.010 A 
ATOM     77  C   UNL     1       6.855 -18.952   1.657  1.00  0.00     0.020 A 
ATOM     78  C   UNL     1       8.078 -19.061   3.754  1.00  0.00     0.020 A 
ATOM     79  C   UNL     1       7.536 -19.689   2.631  1.00  0.00     0.054 A 
BRANCH  79  80
ATOM     80  S   UNL     1       7.737 -21.476   2.391  1.00  0.00     0.124 S 
ATOM     81  O   UNL     1       6.381 -21.968   2.622  1.00  0.00    -0.237 OA
ATOM     82  O   UNL     1       8.210 -21.561   1.011  1.00  0.00    -0.237 OA
ATOM     83  O   UNL     1       8.718 -21.854   3.405  1.00  0.00    -0.744 OA
ENDBRANCH  79  80
ENDBRANCH  53  74
ENDBRANCH  27  28
ENDBRANCH  19  22
ENDBRANCH   1  18
TORSDOF 14
