REMARK SMILES CCCN(CCC)c1ccc(C(=O)NCCCNC(=O)c2ccc(-c3c4nc(c(-c5ccc(S(=O)(=O)[O-])cc5)c5ccc([nH]5)c(-c5ccc(S(=O)(=O)[O-])cc5)c5nc(c(-c6ccc(S(=O)(=O)[O-])cc6)c6ccc3[nH]6)C=C5)C=C4)cc2)cc1[N+](=O)[O-]
REMARK SMILES IDX 16 1 15 2 14 3 12 4 13 5 11 7 8 8 9 9 82 10 10 11 81 12 4 13
REMARK SMILES IDX 3 14 2 15 1 16 5 17 6 18 7 19 83 20 84 21 85 22 17 23 18 24
REMARK SMILES IDX 19 25 20 27 21 28 22 29 80 30 23 31 79 32 24 33 25 34 26 35
REMARK SMILES IDX 73 36 27 37 78 38 72 39 74 40 28 41 77 42 71 43 70 44 29 46
REMARK SMILES IDX 59 47 40 48 58 49 41 50 44 51 57 52 75 53 42 54 43 55 56 57
REMARK SMILES IDX 76 58 45 59 30 60 31 61 39 62 32 63 38 64 33 65 34 66 35 67
REMARK SMILES IDX 36 68 37 69 60 70 61 71 69 72 62 73 68 74 63 75 64 76 65 77
REMARK SMILES IDX 66 78 67 79 46 80 47 81 55 82 48 83 54 84 49 85 50 86 51 87
REMARK SMILES IDX 52 88 53 89
REMARK H PARENT 14 6 18 26 74 45 44 56
REMARK Flexibility Score: inf
ROOT
ATOM      1  C   UNL     1       0.256  -1.204   5.182  1.00  0.00     0.042 C 
ENDROOT
BRANCH   1   2
ATOM      2  C   UNL     1       1.499  -1.852   4.581  1.00  0.00     0.118 C 
BRANCH   2   3
ATOM      3  N   UNL     1       1.415  -3.305   4.569  1.00  0.00    -0.352 N 
ATOM      4  C   UNL     1       1.283  -4.154   3.501  1.00  0.00     0.251 C 
ATOM      5  O   UNL     1       1.416  -5.366   3.644  1.00  0.00    -0.269 OA
ATOM      6  H   UNL     1       1.458  -3.739   5.451  1.00  0.00     0.163 HD
BRANCH   4   7
ATOM      7  C   UNL     1       1.022  -3.610   2.155  1.00  0.00     0.046 A 
ATOM      8  C   UNL     1       0.595  -2.591  -0.451  1.00  0.00     0.116 A 
ATOM      9  C   UNL     1       1.664  -3.459  -0.172  1.00  0.00     0.034 A 
ATOM     10  C   UNL     1      -0.240  -2.250   0.626  1.00  0.00     0.293 A 
ATOM     11  C   UNL     1       1.870  -3.979   1.111  1.00  0.00     0.016 A 
ATOM     12  C   UNL     1      -0.053  -2.759   1.917  1.00  0.00     0.101 A 
BRANCH   8  13
ATOM     13  N   UNL     1       0.393  -2.154  -1.748  1.00  0.00    -0.366 N 
BRANCH  13  14
ATOM     14  C   UNL     1       1.314  -1.194  -2.362  1.00  0.00     0.116 C 
BRANCH  14  15
ATOM     15  C   UNL     1       1.036   0.236  -1.882  1.00  0.00     0.018 C 
ATOM     16  C   UNL     1       1.867   0.633  -0.670  1.00  0.00     0.006 C 
ENDBRANCH  14  15
ENDBRANCH  13  14
BRANCH  13  17
ATOM     17  C   UNL     1      -0.546  -2.905  -2.595  1.00  0.00     0.116 C 
BRANCH  17  18
ATOM     18  C   UNL     1       0.064  -4.210  -3.125  1.00  0.00     0.018 C 
ATOM     19  C   UNL     1      -0.317  -5.427  -2.289  1.00  0.00     0.006 C 
ENDBRANCH  17  18
ENDBRANCH  13  17
ENDBRANCH   8  13
BRANCH  10  20
ATOM     20  N   UNL     1      -1.268  -1.238   0.474  1.00  0.00     0.065 N 
ATOM     21  O   UNL     1      -1.106  -0.191   1.119  1.00  0.00    -0.258 OA
ATOM     22  O   UNL     1      -2.256  -1.510  -0.221  1.00  0.00    -0.258 OA
ENDBRANCH  10  20
ENDBRANCH   4   7
ENDBRANCH   2   3
ENDBRANCH   1   2
BRANCH   1  23
ATOM     23  C   UNL     1       0.103  -1.442   6.679  1.00  0.00     0.118 C 
BRANCH  23  24
ATOM     24  N   UNL     1       1.125  -0.757   7.455  1.00  0.00    -0.352 N 
ATOM     25  C   UNL     1       0.991   0.160   8.468  1.00  0.00     0.251 C 
ATOM     26  H   UNL     1       2.053  -0.985   7.218  1.00  0.00     0.163 HD
ATOM     27  O   UNL     1       1.981   0.775   8.856  1.00  0.00    -0.269 OA
BRANCH  25  28
ATOM     28  C   UNL     1      -0.331   0.418   9.081  1.00  0.00     0.039 A 
ATOM     29  C   UNL     1      -0.681   1.733   9.399  1.00  0.00     0.014 A 
ATOM     30  C   UNL     1      -1.209  -0.629   9.378  1.00  0.00     0.014 A 
ATOM     31  C   UNL     1      -1.929   2.002   9.967  1.00  0.00     0.010 A 
ATOM     32  C   UNL     1      -2.480  -0.352   9.874  1.00  0.00     0.010 A 
ATOM     33  C   UNL     1      -2.849   0.964  10.185  1.00  0.00    -0.014 A 
BRANCH  33  34
ATOM     34  C   UNL     1      -4.196   1.233  10.749  1.00  0.00     0.031 A 
ATOM     35  C   UNL     1      -4.579   0.678  12.094  1.00  0.00     0.074 A 
ATOM     36  C   UNL     1      -5.096   1.927  10.025  1.00  0.00     0.049 A 
ATOM     37  N   UNL     1      -5.718   0.770  12.732  1.00  0.00    -0.248 NA
ATOM     38  C   UNL     1      -3.554  -0.105  12.804  1.00  0.00     0.031 C 
ATOM     39  C   UNL     1      -4.858   2.490   8.695  1.00  0.00     0.029 A 
ATOM     40  N   UNL     1      -6.392   2.275  10.308  1.00  0.00    -0.354 N 
ATOM     41  C   UNL     1      -5.555   0.039  13.904  1.00  0.00     0.074 A 
ATOM     42  C   UNL     1      -4.225  -0.529  13.864  1.00  0.00     0.031 C 
ATOM     43  C   UNL     1      -5.959   3.146   8.293  1.00  0.00     0.029 A 
ATOM     44  C   UNL     1      -6.992   3.015   9.317  1.00  0.00     0.049 A 
ATOM     45  H   UNL     1      -6.850   2.019  11.141  1.00  0.00     0.167 HD
ATOM     46  C   UNL     1      -6.427  -0.133  14.927  1.00  0.00     0.031 A 
ATOM     47  C   UNL     1      -8.233   3.533   9.239  1.00  0.00     0.031 A 
ATOM     48  C   UNL     1      -7.747   0.439  14.966  1.00  0.00     0.049 A 
ATOM     49  C   UNL     1      -9.188   3.323  10.380  1.00  0.00     0.074 A 
ATOM     50  C   UNL     1      -8.685   0.375  15.981  1.00  0.00     0.029 A 
ATOM     51  N   UNL     1      -8.319   1.174  13.938  1.00  0.00    -0.354 N 
ATOM     52  N   UNL     1      -8.996   2.680  11.507  1.00  0.00    -0.248 NA
ATOM     53  C   UNL     1     -10.525   3.915  10.241  1.00  0.00     0.031 C 
ATOM     54  C   UNL     1      -9.843   1.032  15.547  1.00  0.00     0.029 A 
ATOM     55  C   UNL     1      -9.607   1.550  14.283  1.00  0.00     0.049 A 
ATOM     56  H   UNL     1      -7.875   1.397  13.088  1.00  0.00     0.167 HD
ATOM     57  C   UNL     1     -10.180   2.812  12.224  1.00  0.00     0.074 A 
ATOM     58  C   UNL     1     -11.078   3.603  11.405  1.00  0.00     0.031 C 
ATOM     59  C   UNL     1     -10.492   2.327  13.452  1.00  0.00     0.031 A 
BRANCH  46  60
ATOM     60  C   UNL     1      -5.973  -0.997  16.076  1.00  0.00    -0.014 A 
ATOM     61  C   UNL     1      -4.948  -0.578  16.945  1.00  0.00     0.010 A 
ATOM     62  C   UNL     1      -6.569  -2.255  16.281  1.00  0.00     0.010 A 
ATOM     63  C   UNL     1      -4.479  -1.429  17.949  1.00  0.00     0.020 A 
ATOM     64  C   UNL     1      -6.123  -3.096  17.304  1.00  0.00     0.020 A 
ATOM     65  C   UNL     1      -5.061  -2.689  18.113  1.00  0.00     0.054 A 
BRANCH  65  66
ATOM     66  S   UNL     1      -4.413  -3.788  19.402  1.00  0.00     0.124 S 
ATOM     67  O   UNL     1      -3.173  -4.264  18.794  1.00  0.00    -0.237 OA
ATOM     68  O   UNL     1      -4.248  -2.889  20.542  1.00  0.00    -0.237 OA
ATOM     69  O   UNL     1      -5.459  -4.796  19.555  1.00  0.00    -0.744 OA
ENDBRANCH  65  66
ENDBRANCH  46  60
BRANCH  47  70
ATOM     70  C   UNL     1      -8.616   4.342   8.052  1.00  0.00    -0.014 A 
ATOM     71  C   UNL     1      -8.716   5.740   8.157  1.00  0.00     0.010 A 
ATOM     72  C   UNL     1      -8.827   3.731   6.803  1.00  0.00     0.010 A 
ATOM     73  C   UNL     1      -9.017   6.515   7.033  1.00  0.00     0.020 A 
ATOM     74  C   UNL     1      -9.105   4.505   5.672  1.00  0.00     0.020 A 
ATOM     75  C   UNL     1      -9.202   5.893   5.796  1.00  0.00     0.054 A 
BRANCH  75  76
ATOM     76  S   UNL     1      -9.505   6.928   4.336  1.00  0.00     0.124 S 
ATOM     77  O   UNL     1     -10.881   7.362   4.552  1.00  0.00    -0.237 OA
ATOM     78  O   UNL     1      -8.486   7.966   4.470  1.00  0.00    -0.237 OA
ATOM     79  O   UNL     1      -9.304   6.010   3.218  1.00  0.00    -0.744 OA
ENDBRANCH  75  76
ENDBRANCH  47  70
BRANCH  59  80
ATOM     80  C   UNL     1     -11.856   2.658  13.997  1.00  0.00    -0.014 A 
ATOM     81  C   UNL     1     -13.012   2.036  13.493  1.00  0.00     0.010 A 
ATOM     82  C   UNL     1     -11.974   3.568  15.063  1.00  0.00     0.010 A 
ATOM     83  C   UNL     1     -14.267   2.342  14.028  1.00  0.00     0.020 A 
ATOM     84  C   UNL     1     -13.224   3.857  15.617  1.00  0.00     0.020 A 
ATOM     85  C   UNL     1     -14.365   3.251  15.086  1.00  0.00     0.054 A 
BRANCH  85  86
ATOM     86  S   UNL     1     -15.999   3.599  15.792  1.00  0.00     0.124 S 
ATOM     87  O   UNL     1     -16.591   4.465  14.776  1.00  0.00    -0.237 OA
ATOM     88  O   UNL     1     -16.590   2.268  15.907  1.00  0.00    -0.237 OA
ATOM     89  O   UNL     1     -15.694   4.250  17.065  1.00  0.00    -0.744 OA
ENDBRANCH  85  86
ENDBRANCH  59  80
ENDBRANCH  33  34
ENDBRANCH  25  28
ENDBRANCH  23  24
ENDBRANCH   1  23
TORSDOF 19
