REMARK SMILES O=C(NCCCNC(=O)[C@@H]1C[N@@H+](CCOc2ccc(F)cc2)C[C@H]1C1CC1)c1ccc(-c2c3nc(c(-c4ccc(S(=O)(=O)[O-])cc4)c4ccc([nH]4)c(-c4ccc(S(=O)(=O)[O-])cc4)c4nc(c(-c5ccc(S(=O)(=O)[O-])cc5)c5ccc2[nH]5)C=C4)C=C3)cc1
REMARK SMILES IDX 5 1 4 2 3 3 1 4 2 5 28 7 29 8 87 9 30 10 86 11 31 12 32 13
REMARK SMILES IDX 33 14 80 15 34 16 85 17 79 18 81 19 35 20 84 21 78 22 77 23
REMARK SMILES IDX 36 25 66 26 47 27 65 28 48 29 51 30 64 31 82 32 49 33 50 34
REMARK SMILES IDX 63 36 83 37 52 38 37 39 38 40 46 41 39 42 45 43 40 44 41 45
REMARK SMILES IDX 42 46 43 47 44 48 67 49 68 50 76 51 69 52 75 53 70 54 71 55
REMARK SMILES IDX 72 56 73 57 74 58 53 59 54 60 62 61 55 62 61 63 56 64 57 65
REMARK SMILES IDX 58 66 59 67 60 68 6 69 7 70 8 71 9 73 10 74 11 75 24 76
REMARK SMILES IDX 12 77 23 78 25 80 26 81 27 82 13 83 14 84 15 85 16 86 17 87
REMARK SMILES IDX 22 88 18 89 21 90 19 91 20 92
REMARK H PARENT 3 6 81 24 51 35 7 72 12 79
REMARK Flexibility Score: inf
ROOT
ATOM      1  C   UNL     1       5.478  -1.268  -0.391  1.00  0.00     0.042 C 
ENDROOT
BRANCH   1   2
ATOM      2  C   UNL     1       4.767  -0.139  -1.115  1.00  0.00     0.118 C 
BRANCH   2   3
ATOM      3  N   UNL     1       3.310  -0.212  -1.006  1.00  0.00    -0.352 N 
ATOM      4  O   UNL     1       1.259   0.065  -0.108  1.00  0.00    -0.269 OA
ATOM      5  C   UNL     1       2.433   0.377  -0.112  1.00  0.00     0.251 C 
ATOM      6  H   UNL     1       2.879  -0.777  -1.688  1.00  0.00     0.163 HD
BRANCH   5   7
ATOM      7  C   UNL     1       2.964   1.341   0.879  1.00  0.00     0.039 A 
ATOM      8  C   UNL     1       3.952   2.234   0.497  1.00  0.00     0.014 A 
ATOM      9  C   UNL     1       2.551   1.291   2.211  1.00  0.00     0.014 A 
ATOM     10  C   UNL     1       4.767   2.784   1.466  1.00  0.00     0.010 A 
ATOM     11  C   UNL     1       3.238   2.043   3.172  1.00  0.00     0.010 A 
ATOM     12  C   UNL     1       4.406   2.735   2.821  1.00  0.00    -0.014 A 
BRANCH  12  13
ATOM     13  C   UNL     1       5.271   3.447   3.804  1.00  0.00     0.031 A 
ATOM     14  C   UNL     1       5.859   2.739   5.000  1.00  0.00     0.074 A 
ATOM     15  C   UNL     1       5.600   4.733   3.554  1.00  0.00     0.049 A 
ATOM     16  N   UNL     1       6.654   3.218   5.924  1.00  0.00    -0.248 NA
ATOM     17  C   UNL     1       5.502   1.325   5.202  1.00  0.00     0.031 C 
ATOM     18  C   UNL     1       5.098   5.531   2.427  1.00  0.00     0.029 A 
ATOM     19  N   UNL     1       6.474   5.581   4.182  1.00  0.00    -0.354 N 
ATOM     20  C   UNL     1       6.842   2.190   6.843  1.00  0.00     0.074 A 
ATOM     21  C   UNL     1       6.074   1.059   6.369  1.00  0.00     0.031 C 
ATOM     22  C   UNL     1       5.763   6.690   2.370  1.00  0.00     0.029 A 
ATOM     23  C   UNL     1       6.637   6.781   3.529  1.00  0.00     0.049 A 
ATOM     24  H   UNL     1       6.940   5.354   5.019  1.00  0.00     0.167 HD
ATOM     25  C   UNL     1       7.581   2.192   7.979  1.00  0.00     0.031 A 
ATOM     26  C   UNL     1       7.384   7.857   3.834  1.00  0.00     0.031 A 
ATOM     27  C   UNL     1       8.370   3.313   8.423  1.00  0.00     0.049 A 
ATOM     28  C   UNL     1       8.194   7.830   5.093  1.00  0.00     0.074 A 
ATOM     29  C   UNL     1       9.173   3.409   9.546  1.00  0.00     0.029 A 
ATOM     30  N   UNL     1       8.463   4.529   7.762  1.00  0.00    -0.354 N 
ATOM     31  N   UNL     1       8.337   6.853   5.955  1.00  0.00    -0.248 NA
ATOM     32  C   UNL     1       8.931   9.053   5.427  1.00  0.00     0.031 C 
ATOM     33  C   UNL     1       9.714   4.698   9.589  1.00  0.00     0.029 A 
ATOM     34  C   UNL     1       9.297   5.386   8.462  1.00  0.00     0.049 A 
ATOM     35  H   UNL     1       8.005   4.750   6.919  1.00  0.00     0.167 HD
ATOM     36  C   UNL     1       9.194   7.339   6.932  1.00  0.00     0.074 A 
ATOM     37  C   UNL     1       9.554   8.688   6.538  1.00  0.00     0.031 C 
ATOM     38  C   UNL     1       9.639   6.726   8.056  1.00  0.00     0.031 A 
BRANCH  25  39
ATOM     39  C   UNL     1       7.537   0.962   8.851  1.00  0.00    -0.014 A 
ATOM     40  C   UNL     1       8.163  -0.239   8.472  1.00  0.00     0.010 A 
ATOM     41  C   UNL     1       6.887   1.026  10.099  1.00  0.00     0.010 A 
ATOM     42  C   UNL     1       8.104  -1.362   9.305  1.00  0.00     0.020 A 
ATOM     43  C   UNL     1       6.849  -0.085  10.946  1.00  0.00     0.020 A 
ATOM     44  C   UNL     1       7.443  -1.279  10.534  1.00  0.00     0.054 A 
BRANCH  44  45
ATOM     45  S   UNL     1       7.392  -2.748  11.600  1.00  0.00     0.124 S 
ATOM     46  O   UNL     1       6.426  -3.592  10.900  1.00  0.00    -0.237 OA
ATOM     47  O   UNL     1       8.775  -3.217  11.566  1.00  0.00    -0.237 OA
ATOM     48  O   UNL     1       6.945  -2.226  12.889  1.00  0.00    -0.744 OA
ENDBRANCH  44  45
ENDBRANCH  25  39
BRANCH  26  49
ATOM     49  C   UNL     1       7.360   9.050   2.946  1.00  0.00    -0.014 A 
ATOM     50  C   UNL     1       8.495   9.416   2.204  1.00  0.00     0.010 A 
ATOM     51  C   UNL     1       6.179   9.804   2.805  1.00  0.00     0.010 A 
ATOM     52  C   UNL     1       8.454  10.519   1.346  1.00  0.00     0.020 A 
ATOM     53  C   UNL     1       6.122  10.884   1.923  1.00  0.00     0.020 A 
ATOM     54  C   UNL     1       7.265  11.244   1.209  1.00  0.00     0.054 A 
BRANCH  54  55
ATOM     55  S   UNL     1       7.214  12.636   0.047  1.00  0.00     0.124 S 
ATOM     56  O   UNL     1       7.946  13.665   0.777  1.00  0.00    -0.237 OA
ATOM     57  O   UNL     1       7.888  12.091  -1.129  1.00  0.00    -0.237 OA
ATOM     58  O   UNL     1       5.784  12.884  -0.124  1.00  0.00    -0.744 OA
ENDBRANCH  54  55
ENDBRANCH  26  49
BRANCH  38  59
ATOM     59  C   UNL     1      10.601   7.501   8.912  1.00  0.00    -0.014 A 
ATOM     60  C   UNL     1      10.174   8.598   9.681  1.00  0.00     0.010 A 
ATOM     61  C   UNL     1      11.952   7.113   8.953  1.00  0.00     0.010 A 
ATOM     62  C   UNL     1      11.094   9.323  10.442  1.00  0.00     0.020 A 
ATOM     63  C   UNL     1      12.868   7.817   9.735  1.00  0.00     0.020 A 
ATOM     64  C   UNL     1      12.437   8.930  10.459  1.00  0.00     0.054 A 
BRANCH  64  65
ATOM     65  S   UNL     1      13.611   9.875  11.467  1.00  0.00     0.124 S 
ATOM     66  O   UNL     1      13.802  11.077  10.660  1.00  0.00    -0.237 OA
ATOM     67  O   UNL     1      12.880  10.066  12.717  1.00  0.00    -0.237 OA
ATOM     68  O   UNL     1      14.773   8.994  11.560  1.00  0.00    -0.744 OA
ENDBRANCH  64  65
ENDBRANCH  38  59
ENDBRANCH  12  13
ENDBRANCH   5   7
ENDBRANCH   2   3
ENDBRANCH   1   2
BRANCH   1  69
ATOM     69  C   UNL     1       5.406  -2.544  -1.190  1.00  0.00     0.117 C 
BRANCH  69  70
ATOM     70  N   UNL     1       6.178  -2.458  -2.417  1.00  0.00    -0.356 N 
ATOM     71  C   UNL     1       6.879  -3.431  -3.054  1.00  0.00     0.229 C 
ATOM     72  H   UNL     1       6.194  -1.572  -2.847  1.00  0.00     0.163 HD
ATOM     73  O   UNL     1       7.513  -3.124  -4.064  1.00  0.00    -0.275 OA
BRANCH  71  74
ATOM     74  C   UNL     1       6.772  -4.850  -2.554  1.00  0.00     0.142 C 
ATOM     75  C   UNL     1       8.125  -5.553  -2.615  1.00  0.00     0.276 C 
ATOM     76  C   UNL     1       5.882  -5.655  -3.504  1.00  0.00     0.065 C 
ATOM     77  N   UNL     1       7.782  -6.979  -2.731  1.00  0.00    -0.331 N 
ATOM     78  C   UNL     1       6.684  -6.958  -3.699  1.00  0.00     0.267 C 
ATOM     79  H   UNL     1       8.540  -7.576  -3.063  1.00  0.00     0.348 HD
BRANCH  76  80
ATOM     80  C   UNL     1       4.447  -5.908  -3.094  1.00  0.00    -0.001 C 
ATOM     81  C   UNL     1       3.793  -5.487  -1.792  1.00  0.00     0.004 C 
ATOM     82  C   UNL     1       3.434  -4.789  -3.069  1.00  0.00     0.004 C 
ENDBRANCH  76  80
BRANCH  77  83
ATOM     83  C   UNL     1       7.544  -7.647  -1.428  1.00  0.00     0.304 C 
BRANCH  83  84
ATOM     84  C   UNL     1       6.147  -8.112  -0.936  1.00  0.00     0.290 C 
BRANCH  84  85
ATOM     85  O   UNL     1       5.777  -9.403  -1.457  1.00  0.00    -0.488 OA
BRANCH  85  86
ATOM     86  C   UNL     1       4.633  -9.400  -2.209  1.00  0.00     0.119 A 
ATOM     87  C   UNL     1       4.758  -9.863  -3.522  1.00  0.00     0.049 A 
ATOM     88  C   UNL     1       3.407  -8.920  -1.750  1.00  0.00     0.049 A 
ATOM     89  C   UNL     1       3.715  -9.677  -4.428  1.00  0.00     0.043 A 
ATOM     90  C   UNL     1       2.347  -8.765  -2.651  1.00  0.00     0.043 A 
ATOM     91  C   UNL     1       2.525  -9.109  -3.989  1.00  0.00     0.123 A 
ATOM     92  F   UNL     1       1.554  -8.849  -4.875  1.00  0.00    -0.207 F 
ENDBRANCH  85  86
ENDBRANCH  84  85
ENDBRANCH  83  84
ENDBRANCH  77  83
ENDBRANCH  71  74
ENDBRANCH  69  70
ENDBRANCH   1  69
TORSDOF 18
