REMARK SMILES O=C(NCCCNC(=O)[C@@H](O)c1cscc1Br)c1ccc(-c2c3nc(c(-c4ccc(S(=O)(=O)[O-])cc4)c4ccc([nH]4)c(-c4ccc(S(=O)(=O)[O-])cc4)c4nc(c(-c5ccc(S(=O)(=O)[O-])cc5)c5ccc2[nH]5)C=C4)C=C3)cc1
REMARK SMILES IDX 4 1 3 2 1 3 2 4 18 6 19 7 77 8 20 9 76 10 21 11 22 12 23 13
REMARK SMILES IDX 70 14 24 15 75 16 69 17 71 18 25 19 74 20 68 21 67 22 26 24
REMARK SMILES IDX 56 25 37 26 55 27 38 28 41 29 54 30 72 31 39 32 40 33 53 35
REMARK SMILES IDX 73 36 42 37 27 38 28 39 36 40 29 41 35 42 30 43 31 44 32 45
REMARK SMILES IDX 33 46 34 47 57 48 58 49 66 50 59 51 65 52 60 53 61 54 62 55
REMARK SMILES IDX 63 56 64 57 43 58 44 59 52 60 45 61 51 62 46 63 47 64 48 65
REMARK SMILES IDX 49 66 50 67 5 68 6 69 7 70 8 71 9 73 10 74 11 75 12 77 13 78
REMARK SMILES IDX 16 79 14 80 15 81 17 82
REMARK H PARENT 3 5 71 23 41 34 7 72 11 76
REMARK Flexibility Score: inf
ROOT
ATOM      1  C   UNL     1       4.617  -0.725  -1.155  1.00  0.00     0.118 C 
ENDROOT
BRANCH   1   2
ATOM      2  N   UNL     1       3.187  -0.445  -1.090  1.00  0.00    -0.352 N 
ATOM      3  O   UNL     1       1.220   0.183  -0.191  1.00  0.00    -0.269 OA
ATOM      4  C   UNL     1       2.446   0.181  -0.114  1.00  0.00     0.251 C 
ATOM      5  H   UNL     1       2.669  -0.752  -1.869  1.00  0.00     0.163 HD
BRANCH   4   6
ATOM      6  C   UNL     1       3.118   0.820   1.038  1.00  0.00     0.039 A 
ATOM      7  C   UNL     1       4.271   1.584   0.856  1.00  0.00     0.014 A 
ATOM      8  C   UNL     1       2.591   0.649   2.322  1.00  0.00     0.014 A 
ATOM      9  C   UNL     1       4.999   2.006   1.960  1.00  0.00     0.010 A 
ATOM     10  C   UNL     1       3.271   1.170   3.428  1.00  0.00     0.010 A 
ATOM     11  C   UNL     1       4.508   1.810   3.262  1.00  0.00    -0.014 A 
BRANCH  11  12
ATOM     12  C   UNL     1       5.303   2.312   4.414  1.00  0.00     0.031 A 
ATOM     13  C   UNL     1       5.871   1.369   5.442  1.00  0.00     0.074 A 
ATOM     14  C   UNL     1       5.568   3.631   4.490  1.00  0.00     0.049 A 
ATOM     15  N   UNL     1       6.654   1.638   6.457  1.00  0.00    -0.248 NA
ATOM     16  C   UNL     1       5.512  -0.053   5.326  1.00  0.00     0.031 C 
ATOM     17  C   UNL     1       5.069   4.647   3.558  1.00  0.00     0.029 A 
ATOM     18  N   UNL     1       6.354   4.341   5.362  1.00  0.00    -0.354 N 
ATOM     19  C   UNL     1       6.852   0.431   7.119  1.00  0.00     0.074 A 
ATOM     20  C   UNL     1       6.096  -0.571   6.399  1.00  0.00     0.031 C 
ATOM     21  C   UNL     1       5.622   5.830   3.858  1.00  0.00     0.029 A 
ATOM     22  C   UNL     1       6.462   5.674   5.040  1.00  0.00     0.049 A 
ATOM     23  H   UNL     1       6.798   3.936   6.141  1.00  0.00     0.167 HD
ATOM     24  C   UNL     1       7.597   0.179   8.223  1.00  0.00     0.031 A 
ATOM     25  C   UNL     1       7.157   6.665   5.628  1.00  0.00     0.031 A 
ATOM     26  C   UNL     1       8.365   1.174   8.927  1.00  0.00     0.049 A 
ATOM     27  C   UNL     1       7.981   6.358   6.843  1.00  0.00     0.074 A 
ATOM     28  C   UNL     1       9.182   1.008  10.033  1.00  0.00     0.029 A 
ATOM     29  N   UNL     1       8.413   2.519   8.594  1.00  0.00    -0.354 N 
ATOM     30  N   UNL     1       8.172   5.204   7.435  1.00  0.00    -0.248 NA
ATOM     31  C   UNL     1       8.679   7.487   7.470  1.00  0.00     0.031 C 
ATOM     32  C   UNL     1       9.691   2.261  10.393  1.00  0.00     0.029 A 
ATOM     33  C   UNL     1       9.229   3.199   9.484  1.00  0.00     0.049 A 
ATOM     34  H   UNL     1       7.937   2.931   7.837  1.00  0.00     0.167 HD
ATOM     35  C   UNL     1       9.024   5.466   8.501  1.00  0.00     0.074 A 
ATOM     36  C   UNL     1       9.326   6.883   8.457  1.00  0.00     0.031 C 
ATOM     37  C   UNL     1       9.510   4.610   9.433  1.00  0.00     0.031 A 
BRANCH  24  38
ATOM     38  C   UNL     1       7.590  -1.227   8.763  1.00  0.00    -0.014 A 
ATOM     39  C   UNL     1       8.278  -2.266   8.112  1.00  0.00     0.010 A 
ATOM     40  C   UNL     1       6.909  -1.505   9.963  1.00  0.00     0.010 A 
ATOM     41  C   UNL     1       8.251  -3.565   8.629  1.00  0.00     0.020 A 
ATOM     42  C   UNL     1       6.899  -2.798  10.495  1.00  0.00     0.020 A 
ATOM     43  C   UNL     1       7.554  -3.824   9.813  1.00  0.00     0.054 A 
BRANCH  43  44
ATOM     44  S   UNL     1       7.539  -5.516  10.469  1.00  0.00     0.124 S 
ATOM     45  O   UNL     1       6.579  -6.171   9.584  1.00  0.00    -0.237 OA
ATOM     46  O   UNL     1       8.928  -5.938  10.308  1.00  0.00    -0.237 OA
ATOM     47  O   UNL     1       7.099  -5.348  11.852  1.00  0.00    -0.744 OA
ENDBRANCH  43  44
ENDBRANCH  24  38
BRANCH  25  48
ATOM     48  C   UNL     1       7.104   8.038   5.059  1.00  0.00    -0.014 A 
ATOM     49  C   UNL     1       8.218   8.578   4.396  1.00  0.00     0.010 A 
ATOM     50  C   UNL     1       5.921   8.795   5.144  1.00  0.00     0.010 A 
ATOM     51  C   UNL     1       8.153   9.855   3.831  1.00  0.00     0.020 A 
ATOM     52  C   UNL     1       5.843  10.060   4.559  1.00  0.00     0.020 A 
ATOM     53  C   UNL     1       6.964  10.587   3.914  1.00  0.00     0.054 A 
BRANCH  53  54
ATOM     54  S   UNL     1       6.874  12.213   3.114  1.00  0.00     0.124 S 
ATOM     55  O   UNL     1       7.580  13.059   4.070  1.00  0.00    -0.237 OA
ATOM     56  O   UNL     1       7.560  11.982   1.845  1.00  0.00    -0.237 OA
ATOM     57  O   UNL     1       5.438  12.456   3.000  1.00  0.00    -0.744 OA
ENDBRANCH  53  54
ENDBRANCH  25  48
BRANCH  37  58
ATOM     58  C   UNL     1      10.437   5.186  10.467  1.00  0.00    -0.014 A 
ATOM     59  C   UNL     1       9.948   5.991  11.511  1.00  0.00     0.010 A 
ATOM     60  C   UNL     1      11.812   4.901  10.402  1.00  0.00     0.010 A 
ATOM     61  C   UNL     1      10.826   6.534  12.452  1.00  0.00     0.020 A 
ATOM     62  C   UNL     1      12.690   5.423  11.355  1.00  0.00     0.020 A 
ATOM     63  C   UNL     1      12.193   6.252  12.364  1.00  0.00     0.054 A 
BRANCH  63  64
ATOM     64  S   UNL     1      13.315   6.948  13.607  1.00  0.00     0.124 S 
ATOM     65  O   UNL     1      13.460   8.326  13.146  1.00  0.00    -0.237 OA
ATOM     66  O   UNL     1      12.568   6.777  14.851  1.00  0.00    -0.237 OA
ATOM     67  O   UNL     1      14.514   6.122  13.490  1.00  0.00    -0.744 OA
ENDBRANCH  63  64
ENDBRANCH  37  58
ENDBRANCH  11  12
ENDBRANCH   4   6
ENDBRANCH   1   2
BRANCH   1  68
ATOM     68  C   UNL     1       4.939  -2.212  -1.176  1.00  0.00     0.042 C 
BRANCH  68  69
ATOM     69  C   UNL     1       4.417  -2.943  -2.401  1.00  0.00     0.117 C 
BRANCH  69  70
ATOM     70  N   UNL     1       4.985  -2.434  -3.642  1.00  0.00    -0.353 N 
ATOM     71  C   UNL     1       5.693  -3.110  -4.599  1.00  0.00     0.253 C 
ATOM     72  H   UNL     1       4.840  -1.476  -3.815  1.00  0.00     0.163 HD
ATOM     73  O   UNL     1       6.013  -2.500  -5.623  1.00  0.00    -0.272 OA
BRANCH  71  74
ATOM     74  C   UNL     1       6.090  -4.589  -4.386  1.00  0.00     0.235 C 
BRANCH  74  75
ATOM     75  O   UNL     1       6.811  -4.713  -3.157  1.00  0.00    -0.378 OA
ATOM     76  H   UNL     1       6.237  -4.455  -2.419  1.00  0.00     0.212 HD
ENDBRANCH  74  75
BRANCH  74  77
ATOM     77  C   UNL     1       4.920  -5.551  -4.451  1.00  0.00     0.015 A 
ATOM     78  C   UNL     1       3.603  -5.209  -4.738  1.00  0.00     0.073 A 
ATOM     79  C   UNL     1       4.996  -6.968  -4.240  1.00  0.00     0.035 A 
ATOM     80  S   UNL     1       2.515  -6.525  -4.648  1.00  0.00    -0.151 S 
ATOM     81  C   UNL     1       3.782  -7.608  -4.290  1.00  0.00     0.080 A 
ATOM     82  Br  UNL     1       6.615  -7.899  -3.922  1.00  0.00    -0.050 Br
ENDBRANCH  74  77
ENDBRANCH  71  74
ENDBRANCH  69  70
ENDBRANCH  68  69
ENDBRANCH   1  68
TORSDOF 15
