REMARK SMILES CCNC(=O)N1CC[C@@H](C(=O)NCCCNC(=O)c2ccc(-c3c4nc(c(-c5ccc(S(=O)(=O)[O-])cc5)c5ccc([nH]5)c(-c5ccc(S(=O)(=O)[O-])cc5)c5nc(c(-c6ccc(S(=O)(=O)[O-])cc6)c6ccc3[nH]6)C=C5)C=C4)cc2)[C@H]1C
REMARK SMILES IDX 14 1 13 2 12 3 10 4 11 5 9 7 6 8 7 9 79 10 8 11 80 12 4 13
REMARK SMILES IDX 3 14 5 16 2 17 1 18 15 19 16 20 17 21 18 23 19 24 20 25
REMARK SMILES IDX 78 26 21 27 77 28 22 29 23 30 24 31 71 32 25 33 76 34 70 35
REMARK SMILES IDX 72 36 26 37 75 38 69 39 68 40 27 42 57 43 38 44 56 45 39 46
REMARK SMILES IDX 42 47 55 48 73 49 40 50 41 51 54 53 74 54 43 55 28 56 29 57
REMARK SMILES IDX 37 58 30 59 36 60 31 61 32 62 33 63 34 64 35 65 58 66 59 67
REMARK SMILES IDX 67 68 60 69 66 70 61 71 62 72 63 73 64 74 65 75 44 76 45 77
REMARK SMILES IDX 53 78 46 79 52 80 47 81 48 82 49 83 50 84 51 85
REMARK H PARENT 12 6 3 15 16 22 72 41 42 52
REMARK Flexibility Score: inf
ROOT
ATOM      1  C   UNL     1      -3.108   1.507  -0.113  1.00  0.00     0.042 C 
ENDROOT
BRANCH   1   2
ATOM      2  C   UNL     1      -3.808   0.150  -0.162  1.00  0.00     0.117 C 
BRANCH   2   3
ATOM      3  N   UNL     1      -4.553  -0.063  -1.394  1.00  0.00    -0.356 N 
ATOM      4  C   UNL     1      -4.531  -1.044  -2.328  1.00  0.00     0.225 C 
ATOM      5  O   UNL     1      -5.323  -0.922  -3.270  1.00  0.00    -0.275 OA
ATOM      6  H   UNL     1      -5.205   0.649  -1.588  1.00  0.00     0.163 HD
BRANCH   4   7
ATOM      7  C   UNL     1      -3.610  -2.251  -2.284  1.00  0.00     0.102 C 
ATOM      8  N   UNL     1      -1.413  -2.572  -1.400  1.00  0.00    -0.321 N 
ATOM      9  C   UNL     1      -2.273  -3.563  -0.780  1.00  0.00     0.122 C 
ATOM     10  C   UNL     1      -2.112  -2.031  -2.572  1.00  0.00     0.096 C 
ATOM     11  C   UNL     1      -3.689  -3.072  -0.995  1.00  0.00     0.037 C 
ATOM     12  C   UNL     1      -1.706  -0.643  -3.037  1.00  0.00     0.032 C 
BRANCH   8  13
ATOM     13  C   UNL     1      -0.078  -2.902  -1.483  1.00  0.00     0.317 C 
ATOM     14  N   UNL     1       0.834  -1.909  -1.359  1.00  0.00    -0.338 N 
ATOM     15  H   UNL     1       1.745  -2.136  -1.654  1.00  0.00     0.165 HD
ATOM     16  O   UNL     1       0.315  -4.060  -1.622  1.00  0.00    -0.249 OA
BRANCH  14  17
ATOM     17  C   UNL     1       0.665  -0.560  -0.857  1.00  0.00     0.114 C 
ATOM     18  C   UNL     1       1.643  -0.275   0.269  1.00  0.00     0.027 C 
ENDBRANCH  14  17
ENDBRANCH   8  13
ENDBRANCH   4   7
ENDBRANCH   2   3
ENDBRANCH   1   2
BRANCH   1  19
ATOM     19  C   UNL     1      -4.022   2.716  -0.274  1.00  0.00     0.118 C 
BRANCH  19  20
ATOM     20  N   UNL     1      -4.672   3.102   0.966  1.00  0.00    -0.352 N 
ATOM     21  C   UNL     1      -4.412   4.153   1.815  1.00  0.00     0.251 C 
ATOM     22  H   UNL     1      -5.415   2.519   1.243  1.00  0.00     0.163 HD
ATOM     23  O   UNL     1      -4.963   4.181   2.912  1.00  0.00    -0.269 OA
BRANCH  21  24
ATOM     24  C   UNL     1      -3.463   5.232   1.441  1.00  0.00     0.039 A 
ATOM     25  C   UNL     1      -2.609   5.746   2.423  1.00  0.00     0.014 A 
ATOM     26  C   UNL     1      -3.441   5.785   0.159  1.00  0.00     0.014 A 
ATOM     27  C   UNL     1      -1.704   6.766   2.106  1.00  0.00     0.010 A 
ATOM     28  C   UNL     1      -2.480   6.738  -0.180  1.00  0.00     0.010 A 
ATOM     29  C   UNL     1      -1.612   7.255   0.793  1.00  0.00    -0.014 A 
BRANCH  29  30
ATOM     30  C   UNL     1      -0.656   8.335   0.425  1.00  0.00     0.031 A 
ATOM     31  C   UNL     1      -1.175   9.656  -0.086  1.00  0.00     0.074 A 
ATOM     32  C   UNL     1       0.673   8.120   0.489  1.00  0.00     0.049 A 
ATOM     33  N   UNL     1      -0.508  10.681  -0.555  1.00  0.00    -0.248 NA
ATOM     34  C   UNL     1      -2.636   9.838  -0.095  1.00  0.00     0.031 C 
ATOM     35  C   UNL     1       1.315   6.882   0.939  1.00  0.00     0.029 A 
ATOM     36  N   UNL     1       1.728   8.939   0.165  1.00  0.00    -0.354 N 
ATOM     37  C   UNL     1      -1.467  11.611  -0.943  1.00  0.00     0.074 A 
ATOM     38  C   UNL     1      -2.760  11.013  -0.694  1.00  0.00     0.031 C 
ATOM     39  C   UNL     1       2.648   7.033   0.885  1.00  0.00     0.029 A 
ATOM     40  C   UNL     1       2.959   8.359   0.360  1.00  0.00     0.049 A 
ATOM     41  H   UNL     1       1.612   9.856  -0.174  1.00  0.00     0.167 HD
ATOM     42  C   UNL     1      -1.292  12.857  -1.445  1.00  0.00     0.031 A 
ATOM     43  C   UNL     1       4.200   8.835   0.135  1.00  0.00     0.031 A 
ATOM     44  C   UNL     1      -0.009  13.469  -1.662  1.00  0.00     0.049 A 
ATOM     45  C   UNL     1       4.372  10.227  -0.410  1.00  0.00     0.074 A 
ATOM     46  C   UNL     1       0.269  14.746  -2.121  1.00  0.00     0.029 A 
ATOM     47  N   UNL     1       1.210  12.855  -1.425  1.00  0.00    -0.354 N 
ATOM     48  N   UNL     1       3.451  11.101  -0.739  1.00  0.00    -0.248 NA
ATOM     49  C   UNL     1       5.750  10.699  -0.605  1.00  0.00     0.031 C 
ATOM     50  C   UNL     1       1.658  14.892  -2.191  1.00  0.00     0.029 A 
ATOM     51  C   UNL     1       2.244  13.722  -1.735  1.00  0.00     0.049 A 
ATOM     52  H   UNL     1       1.324  11.937  -1.087  1.00  0.00     0.167 HD
ATOM     53  C   UNL     1       4.140  12.237  -1.151  1.00  0.00     0.074 A 
ATOM     54  C   UNL     1       5.552  11.942  -1.024  1.00  0.00     0.031 C 
ATOM     55  C   UNL     1       3.644  13.419  -1.592  1.00  0.00     0.031 A 
BRANCH  42  56
ATOM     56  C   UNL     1      -2.528  13.643  -1.795  1.00  0.00    -0.014 A 
ATOM     57  C   UNL     1      -3.368  14.157  -0.790  1.00  0.00     0.010 A 
ATOM     58  C   UNL     1      -2.840  13.892  -3.143  1.00  0.00     0.010 A 
ATOM     59  C   UNL     1      -4.524  14.864  -1.129  1.00  0.00     0.020 A 
ATOM     60  C   UNL     1      -3.982  14.622  -3.486  1.00  0.00     0.020 A 
ATOM     61  C   UNL     1      -4.828  15.086  -2.476  1.00  0.00     0.054 A 
BRANCH  61  62
ATOM     62  S   UNL     1      -6.331  16.013  -2.889  1.00  0.00     0.124 S 
ATOM     63  O   UNL     1      -7.372  15.014  -2.661  1.00  0.00    -0.237 OA
ATOM     64  O   UNL     1      -6.302  17.118  -1.935  1.00  0.00    -0.237 OA
ATOM     65  O   UNL     1      -6.129  16.395  -4.285  1.00  0.00    -0.744 OA
ENDBRANCH  61  62
ENDBRANCH  42  56
BRANCH  43  66
ATOM     66  C   UNL     1       5.386   7.991   0.445  1.00  0.00    -0.014 A 
ATOM     67  C   UNL     1       6.192   8.283   1.559  1.00  0.00     0.010 A 
ATOM     68  C   UNL     1       5.707   6.887  -0.364  1.00  0.00     0.010 A 
ATOM     69  C   UNL     1       7.309   7.494   1.850  1.00  0.00     0.020 A 
ATOM     70  C   UNL     1       6.809   6.081  -0.062  1.00  0.00     0.020 A 
ATOM     71  C   UNL     1       7.610   6.397   1.038  1.00  0.00     0.054 A 
BRANCH  71  72
ATOM     72  S   UNL     1       9.029   5.350   1.466  1.00  0.00     0.124 S 
ATOM     73  O   UNL     1      10.152   6.159   1.005  1.00  0.00    -0.237 OA
ATOM     74  O   UNL     1       8.898   5.215   2.915  1.00  0.00    -0.237 OA
ATOM     75  O   UNL     1       8.785   4.123   0.711  1.00  0.00    -0.744 OA
ENDBRANCH  71  72
ENDBRANCH  43  66
BRANCH  55  76
ATOM     76  C   UNL     1       4.630  14.504  -1.929  1.00  0.00    -0.014 A 
ATOM     77  C   UNL     1       5.385  14.460  -3.114  1.00  0.00     0.010 A 
ATOM     78  C   UNL     1       4.752  15.616  -1.076  1.00  0.00     0.010 A 
ATOM     79  C   UNL     1       6.262  15.501  -3.429  1.00  0.00     0.020 A 
ATOM     80  C   UNL     1       5.611  16.669  -1.399  1.00  0.00     0.020 A 
ATOM     81  C   UNL     1       6.370  16.599  -2.570  1.00  0.00     0.054 A 
BRANCH  81  82
ATOM     82  S   UNL     1       7.472  17.966  -3.027  1.00  0.00     0.124 S 
ATOM     83  O   UNL     1       8.786  17.414  -2.710  1.00  0.00    -0.237 OA
ATOM     84  O   UNL     1       7.191  18.144  -4.450  1.00  0.00    -0.237 OA
ATOM     85  O   UNL     1       7.034  19.065  -2.170  1.00  0.00    -0.744 OA
ENDBRANCH  81  82
ENDBRANCH  55  76
ENDBRANCH  29  30
ENDBRANCH  21  24
ENDBRANCH  19  20
ENDBRANCH   1  19
TORSDOF 15
