REMARK SMILES CC[C@H]([NH3+])C(=O)N(C)c1snc(C)c1C(=O)NCCCNC(=O)c1ccc(-c2c3nc(c(-c4ccc(S(=O)(=O)[O-])cc4)c4ccc([nH]4)c(-c4ccc(S(=O)(=O)[O-])cc4)c4nc(c(-c5ccc(S(=O)(=O)[O-])cc5)c5ccc2[nH]5)C=C4)C=C3)cc1
REMARK SMILES IDX 18 1 17 2 15 3 16 4 14 6 9 7 10 8 11 9 12 10 13 11 7 12 8 13
REMARK SMILES IDX 5 14 6 15 3 16 2 17 1 18 4 19 19 23 20 24 21 25 22 26 23 28
REMARK SMILES IDX 24 29 25 30 83 31 26 32 82 33 27 34 28 35 29 36 76 37 30 38
REMARK SMILES IDX 81 39 75 40 77 41 31 42 80 43 74 44 73 45 32 47 62 48 43 49
REMARK SMILES IDX 61 50 44 51 47 52 60 53 78 54 45 55 46 56 59 58 79 59 48 60
REMARK SMILES IDX 33 61 34 62 42 63 35 64 41 65 36 66 37 67 38 68 39 69 40 70
REMARK SMILES IDX 63 71 64 72 72 73 65 74 71 75 66 76 67 77 68 78 69 79 70 80
REMARK SMILES IDX 49 81 50 82 58 83 51 84 57 85 52 86 53 87 54 88 55 89 56 90
REMARK H PARENT 17 5 4 20 4 21 4 22 21 27 77 46 47 57
REMARK Flexibility Score: inf
ROOT
ATOM      1  C   UNL     1       1.076  -5.383   0.299  1.00  0.00     0.118 C 
ENDROOT
BRANCH   1   2
ATOM      2  N   UNL     1       0.634  -6.605  -0.302  1.00  0.00    -0.352 N 
ATOM      3  C   UNL     1       0.202  -6.704  -1.603  1.00  0.00     0.256 C 
ATOM      4  O   UNL     1       0.795  -7.518  -2.315  1.00  0.00    -0.269 OA
ATOM      5  H   UNL     1       0.640  -7.421   0.249  1.00  0.00     0.163 HD
BRANCH   3   6
ATOM      6  C   UNL     1      -1.104  -6.170  -1.998  1.00  0.00     0.097 A 
ATOM      7  C   UNL     1      -1.724  -4.914  -1.896  1.00  0.00     0.131 A 
ATOM      8  S   UNL     1      -3.275  -5.056  -2.665  1.00  0.00    -0.017 S 
ATOM      9  N   UNL     1      -3.237  -6.649  -2.973  1.00  0.00    -0.195 NA
ATOM     10  C   UNL     1      -2.074  -7.134  -2.557  1.00  0.00     0.066 A 
ATOM     11  C   UNL     1      -1.912  -8.621  -2.668  1.00  0.00     0.069 C 
BRANCH   7  12
ATOM     12  N   UNL     1      -1.454  -3.593  -1.414  1.00  0.00    -0.300 N 
ATOM     13  C   UNL     1      -2.554  -2.793  -0.869  1.00  0.00     0.154 C 
BRANCH  12  14
ATOM     14  C   UNL     1      -0.189  -3.031  -1.617  1.00  0.00     0.285 C 
ATOM     15  O   UNL     1       0.627  -3.544  -2.396  1.00  0.00    -0.268 OA
BRANCH  14  16
ATOM     16  C   UNL     1       0.251  -1.714  -0.834  1.00  0.00     0.271 C 
BRANCH  16  17
ATOM     17  C   UNL     1      -0.142  -1.548   0.653  1.00  0.00     0.072 C 
ATOM     18  C   UNL     1       0.721  -0.546   1.421  1.00  0.00     0.011 C 
ENDBRANCH  16  17
BRANCH  16  19
ATOM     19  N   UNL     1      -0.078  -0.506  -1.609  1.00  0.00    -0.347 N 
ATOM     20  H   UNL     1      -1.091  -0.403  -1.663  1.00  0.00     0.345 HD
ATOM     21  H   UNL     1       0.306  -0.590  -2.550  1.00  0.00     0.345 HD
ATOM     22  H   UNL     1       0.323   0.312  -1.150  1.00  0.00     0.345 HD
ENDBRANCH  16  19
ENDBRANCH  14  16
ENDBRANCH  12  14
ENDBRANCH   7  12
ENDBRANCH   3   6
ENDBRANCH   1   2
BRANCH   1  23
ATOM     23  C   UNL     1       0.534  -5.130   1.690  1.00  0.00     0.042 C 
BRANCH  23  24
ATOM     24  C   UNL     1       1.544  -4.363   2.544  1.00  0.00     0.118 C 
BRANCH  24  25
ATOM     25  N   UNL     1       2.320  -3.318   1.843  1.00  0.00    -0.352 N 
ATOM     26  C   UNL     1       3.516  -2.697   2.205  1.00  0.00     0.251 C 
ATOM     27  H   UNL     1       1.934  -3.014   0.990  1.00  0.00     0.163 HD
ATOM     28  O   UNL     1       3.919  -1.699   1.692  1.00  0.00    -0.269 OA
BRANCH  26  29
ATOM     29  C   UNL     1       4.301  -3.404   3.227  1.00  0.00     0.039 A 
ATOM     30  C   UNL     1       4.560  -2.845   4.481  1.00  0.00     0.014 A 
ATOM     31  C   UNL     1       4.474  -4.747   2.956  1.00  0.00     0.014 A 
ATOM     32  C   UNL     1       4.850  -3.706   5.537  1.00  0.00     0.010 A 
ATOM     33  C   UNL     1       4.508  -5.579   4.033  1.00  0.00     0.010 A 
ATOM     34  C   UNL     1       4.761  -5.087   5.319  1.00  0.00    -0.014 A 
BRANCH  34  35
ATOM     35  C   UNL     1       4.769  -6.069   6.405  1.00  0.00     0.031 A 
ATOM     36  C   UNL     1       3.795  -5.861   7.519  1.00  0.00     0.074 A 
ATOM     37  C   UNL     1       5.357  -7.273   6.210  1.00  0.00     0.049 A 
ATOM     38  N   UNL     1       4.053  -5.763   8.783  1.00  0.00    -0.248 NA
ATOM     39  C   UNL     1       2.370  -5.664   7.199  1.00  0.00     0.031 C 
ATOM     40  C   UNL     1       6.098  -7.727   5.019  1.00  0.00     0.029 A 
ATOM     41  N   UNL     1       5.218  -8.422   6.920  1.00  0.00    -0.354 N 
ATOM     42  C   UNL     1       2.822  -5.712   9.437  1.00  0.00     0.074 A 
ATOM     43  C   UNL     1       1.841  -5.470   8.410  1.00  0.00     0.031 C 
ATOM     44  C   UNL     1       6.036  -9.071   4.938  1.00  0.00     0.029 A 
ATOM     45  C   UNL     1       5.478  -9.570   6.177  1.00  0.00     0.049 A 
ATOM     46  H   UNL     1       4.957  -8.441   7.870  1.00  0.00     0.167 HD
ATOM     47  C   UNL     1       2.678  -6.111  10.735  1.00  0.00     0.031 A 
ATOM     48  C   UNL     1       5.240 -10.853   6.536  1.00  0.00     0.031 A 
ATOM     49  C   UNL     1       3.956  -6.322  11.368  1.00  0.00     0.049 A 
ATOM     50  C   UNL     1       5.148 -10.867   8.014  1.00  0.00     0.074 A 
ATOM     51  C   UNL     1       5.065  -5.538  11.613  1.00  0.00     0.029 A 
ATOM     52  N   UNL     1       4.376  -7.627  11.496  1.00  0.00    -0.354 N 
ATOM     53  N   UNL     1       6.152 -10.560   8.790  1.00  0.00    -0.248 NA
ATOM     54  C   UNL     1       3.838 -10.780   8.638  1.00  0.00     0.031 C 
ATOM     55  C   UNL     1       6.177  -6.402  11.391  1.00  0.00     0.029 A 
ATOM     56  C   UNL     1       5.689  -7.679  11.103  1.00  0.00     0.049 A 
ATOM     57  H   UNL     1       3.833  -8.385  11.812  1.00  0.00     0.167 HD
ATOM     58  C   UNL     1       5.590  -9.813   9.815  1.00  0.00     0.074 A 
ATOM     59  C   UNL     1       4.160 -10.107   9.748  1.00  0.00     0.031 C 
ATOM     60  C   UNL     1       6.292  -8.808  10.422  1.00  0.00     0.031 A 
BRANCH  47  61
ATOM     61  C   UNL     1       1.412  -6.696  11.326  1.00  0.00    -0.014 A 
ATOM     62  C   UNL     1       1.390  -7.024  12.701  1.00  0.00     0.010 A 
ATOM     63  C   UNL     1       0.355  -7.195  10.540  1.00  0.00     0.010 A 
ATOM     64  C   UNL     1       0.416  -7.880  13.235  1.00  0.00     0.020 A 
ATOM     65  C   UNL     1      -0.647  -8.011  11.072  1.00  0.00     0.020 A 
ATOM     66  C   UNL     1      -0.585  -8.385  12.407  1.00  0.00     0.054 A 
BRANCH  66  67
ATOM     67  S   UNL     1      -1.756  -9.601  13.063  1.00  0.00     0.124 S 
ATOM     68  O   UNL     1      -0.893 -10.757  13.280  1.00  0.00    -0.237 OA
ATOM     69  O   UNL     1      -2.249  -8.940  14.268  1.00  0.00    -0.237 OA
ATOM     70  O   UNL     1      -2.737  -9.742  11.989  1.00  0.00    -0.744 OA
ENDBRANCH  66  67
ENDBRANCH  47  61
BRANCH  48  71
ATOM     71  C   UNL     1       4.896 -12.001   5.664  1.00  0.00    -0.014 A 
ATOM     72  C   UNL     1       4.961 -13.318   6.148  1.00  0.00     0.010 A 
ATOM     73  C   UNL     1       4.257 -11.789   4.423  1.00  0.00     0.010 A 
ATOM     74  C   UNL     1       4.345 -14.373   5.455  1.00  0.00     0.020 A 
ATOM     75  C   UNL     1       3.652 -12.837   3.719  1.00  0.00     0.020 A 
ATOM     76  C   UNL     1       3.673 -14.121   4.256  1.00  0.00     0.054 A 
BRANCH  76  77
ATOM     77  S   UNL     1       2.700 -15.447   3.482  1.00  0.00     0.124 S 
ATOM     78  O   UNL     1       3.738 -16.320   2.943  1.00  0.00    -0.237 OA
ATOM     79  O   UNL     1       1.943 -15.983   4.609  1.00  0.00    -0.237 OA
ATOM     80  O   UNL     1       1.898 -14.743   2.482  1.00  0.00    -0.744 OA
ENDBRANCH  76  77
ENDBRANCH  48  71
BRANCH  60  81
ATOM     81  C   UNL     1       7.780  -8.701  10.151  1.00  0.00    -0.014 A 
ATOM     82  C   UNL     1       8.323  -8.479   8.870  1.00  0.00     0.010 A 
ATOM     83  C   UNL     1       8.647  -8.652  11.256  1.00  0.00     0.010 A 
ATOM     84  C   UNL     1       9.695  -8.241   8.696  1.00  0.00     0.020 A 
ATOM     85  C   UNL     1      10.012  -8.396  11.093  1.00  0.00     0.020 A 
ATOM     86  C   UNL     1      10.532  -8.201   9.813  1.00  0.00     0.054 A 
BRANCH  86  87
ATOM     87  S   UNL     1      12.296  -7.838   9.590  1.00  0.00     0.124 S 
ATOM     88  O   UNL     1      12.791  -9.055   8.952  1.00  0.00    -0.237 OA
ATOM     89  O   UNL     1      12.280  -6.646   8.744  1.00  0.00    -0.237 OA
ATOM     90  O   UNL     1      12.779  -7.612  10.951  1.00  0.00    -0.744 OA
ENDBRANCH  86  87
ENDBRANCH  60  81
ENDBRANCH  34  35
ENDBRANCH  26  29
ENDBRANCH  24  25
ENDBRANCH  23  24
ENDBRANCH   1  23
TORSDOF 18
