REMARK SMILES CC1(C)CCN(c2ncccc2C(=O)NCCCNC(=O)c2ccc(-c3c4nc(c(-c5ccc(S(=O)(=O)[O-])cc5)c5ccc([nH]5)c(-c5ccc(S(=O)(=O)[O-])cc5)c5nc(c(-c6ccc(S(=O)(=O)[O-])cc6)c6ccc3[nH]6)C=C5)C=C4)cc2)C1
REMARK SMILES IDX 18 1 17 2 16 3 15 4 13 5 14 6 12 8 7 9 8 10 9 11 11 12 10 13
REMARK SMILES IDX 6 14 1 15 2 16 3 17 4 18 82 19 5 20 19 21 20 22 21 24 22 25
REMARK SMILES IDX 23 26 81 27 24 28 80 29 25 30 26 31 27 32 74 33 28 34 79 35
REMARK SMILES IDX 73 36 75 37 29 38 78 39 72 40 71 41 30 43 60 44 41 45 59 46
REMARK SMILES IDX 42 47 45 48 58 49 76 50 43 51 44 52 57 54 77 55 46 56 31 57
REMARK SMILES IDX 32 58 40 59 33 60 39 61 34 62 35 63 36 64 37 65 38 66 61 67
REMARK SMILES IDX 62 68 70 69 63 70 69 71 64 72 65 73 66 74 67 75 68 76 47 77
REMARK SMILES IDX 48 78 56 79 49 80 55 81 50 82 51 83 52 84 53 85 54 86
REMARK H PARENT 15 7 19 23 75 42 45 53
REMARK Flexibility Score: inf
ROOT
ATOM      1  C   UNL     1       3.363   6.285   3.863  1.00  0.00     0.118 C 
ENDROOT
BRANCH   1   2
ATOM      2  C   UNL     1       4.099   5.812   2.606  1.00  0.00     0.042 C 
BRANCH   2   3
ATOM      3  C   UNL     1       4.550   4.353   2.678  1.00  0.00     0.118 C 
BRANCH   3   4
ATOM      4  N   UNL     1       3.408   3.466   2.754  1.00  0.00    -0.352 N 
ATOM      5  C   UNL     1       2.695   2.688   1.877  1.00  0.00     0.255 C 
ATOM      6  O   UNL     1       1.752   2.110   2.419  1.00  0.00    -0.269 OA
ATOM      7  H   UNL     1       3.052   3.405   3.670  1.00  0.00     0.163 HD
BRANCH   5   8
ATOM      8  C   UNL     1       3.035   2.501   0.424  1.00  0.00     0.082 A 
ATOM      9  C   UNL     1       2.578   1.368  -0.289  1.00  0.00     0.141 A 
ATOM     10  N   UNL     1       3.061   1.066  -1.528  1.00  0.00    -0.238 NA
ATOM     11  C   UNL     1       3.918   1.917  -2.121  1.00  0.00     0.113 A 
ATOM     12  C   UNL     1       3.858   3.397  -0.271  1.00  0.00     0.019 A 
ATOM     13  C   UNL     1       4.319   3.102  -1.551  1.00  0.00     0.021 A 
BRANCH   9  14
ATOM     14  N   UNL     1       1.559   0.552   0.152  1.00  0.00    -0.355 N 
ATOM     15  C   UNL     1      -1.077  -0.175  -1.623  1.00  0.00     0.013 C 
ATOM     16  C   UNL     1      -0.721  -0.105  -0.130  1.00  0.00    -0.016 C 
ATOM     17  C   UNL     1      -2.010  -0.038   0.695  1.00  0.00     0.013 C 
ATOM     18  C   UNL     1       0.156  -1.296   0.291  1.00  0.00     0.030 C 
ATOM     19  C   UNL     1       0.198   1.105   0.158  1.00  0.00     0.124 C 
ATOM     20  C   UNL     1       1.559  -0.870  -0.136  1.00  0.00     0.119 C 
ENDBRANCH   9  14
ENDBRANCH   5   8
ENDBRANCH   3   4
ENDBRANCH   2   3
ENDBRANCH   1   2
BRANCH   1  21
ATOM     21  N   UNL     1       4.215   6.249   5.044  1.00  0.00    -0.352 N 
ATOM     22  C   UNL     1       4.657   7.269   5.849  1.00  0.00     0.251 C 
ATOM     23  H   UNL     1       4.522   5.351   5.307  1.00  0.00     0.163 HD
ATOM     24  O   UNL     1       5.570   7.058   6.641  1.00  0.00    -0.269 OA
BRANCH  22  25
ATOM     25  C   UNL     1       4.044   8.611   5.766  1.00  0.00     0.039 A 
ATOM     26  C   UNL     1       4.870   9.737   5.834  1.00  0.00     0.014 A 
ATOM     27  C   UNL     1       2.658   8.765   5.674  1.00  0.00     0.014 A 
ATOM     28  C   UNL     1       4.310  11.014   5.756  1.00  0.00     0.010 A 
ATOM     29  C   UNL     1       2.108  10.037   5.529  1.00  0.00     0.010 A 
ATOM     30  C   UNL     1       2.927  11.174   5.574  1.00  0.00    -0.014 A 
BRANCH  30  31
ATOM     31  C   UNL     1       2.320  12.521   5.423  1.00  0.00     0.031 A 
ATOM     32  C   UNL     1       1.347  13.035   6.449  1.00  0.00     0.074 A 
ATOM     33  C   UNL     1       2.592  13.251   4.323  1.00  0.00     0.049 A 
ATOM     34  N   UNL     1       0.663  14.150   6.451  1.00  0.00    -0.248 NA
ATOM     35  C   UNL     1       1.089  12.171   7.613  1.00  0.00     0.031 C 
ATOM     36  C   UNL     1       3.488  12.845   3.237  1.00  0.00     0.029 A 
ATOM     37  N   UNL     1       2.135  14.485   3.932  1.00  0.00    -0.354 N 
ATOM     38  C   UNL     1      -0.119  14.114   7.599  1.00  0.00     0.074 A 
ATOM     39  C   UNL     1       0.142  12.847   8.247  1.00  0.00     0.031 C 
ATOM     40  C   UNL     1       3.532  13.820   2.316  1.00  0.00     0.029 A 
ATOM     41  C   UNL     1       2.639  14.901   2.722  1.00  0.00     0.049 A 
ATOM     42  H   UNL     1       1.506  15.021   4.467  1.00  0.00     0.167 HD
ATOM     43  C   UNL     1      -0.967  15.056   8.080  1.00  0.00     0.031 A 
ATOM     44  C   UNL     1       2.404  16.022   2.014  1.00  0.00     0.031 A 
ATOM     45  C   UNL     1      -1.214  16.320   7.437  1.00  0.00     0.049 A 
ATOM     46  C   UNL     1       1.461  17.054   2.567  1.00  0.00     0.074 A 
ATOM     47  C   UNL     1      -2.010  17.365   7.872  1.00  0.00     0.029 A 
ATOM     48  N   UNL     1      -0.670  16.710   6.223  1.00  0.00    -0.354 N 
ATOM     49  N   UNL     1       0.777  17.027   3.686  1.00  0.00    -0.248 NA
ATOM     50  C   UNL     1       1.268  18.272   1.769  1.00  0.00     0.031 C 
ATOM     51  C   UNL     1      -1.984  18.369   6.898  1.00  0.00     0.029 A 
ATOM     52  C   UNL     1      -1.128  17.972   5.883  1.00  0.00     0.049 A 
ATOM     53  H   UNL     1      -0.049  16.170   5.683  1.00  0.00     0.167 HD
ATOM     54  C   UNL     1       0.092  18.236   3.739  1.00  0.00     0.074 A 
ATOM     55  C   UNL     1       0.455  18.975   2.546  1.00  0.00     0.031 C 
ATOM     56  C   UNL     1      -0.759  18.693   4.690  1.00  0.00     0.031 A 
BRANCH  43  57
ATOM     57  C   UNL     1      -1.695  14.748   9.363  1.00  0.00    -0.014 A 
ATOM     58  C   UNL     1      -1.012  14.691  10.591  1.00  0.00     0.010 A 
ATOM     59  C   UNL     1      -3.087  14.543   9.345  1.00  0.00     0.010 A 
ATOM     60  C   UNL     1      -1.698  14.387  11.770  1.00  0.00     0.020 A 
ATOM     61  C   UNL     1      -3.781  14.267  10.527  1.00  0.00     0.020 A 
ATOM     62  C   UNL     1      -3.078  14.172  11.730  1.00  0.00     0.054 A 
BRANCH  62  63
ATOM     63  S   UNL     1      -3.945  13.792  13.277  1.00  0.00     0.124 S 
ATOM     64  O   UNL     1      -3.533  12.411  13.521  1.00  0.00    -0.237 OA
ATOM     65  O   UNL     1      -3.400  14.782  14.203  1.00  0.00    -0.237 OA
ATOM     66  O   UNL     1      -5.355  13.970  12.938  1.00  0.00    -0.744 OA
ENDBRANCH  62  63
ENDBRANCH  43  57
BRANCH  44  67
ATOM     67  C   UNL     1       3.092  16.231   0.711  1.00  0.00    -0.014 A 
ATOM     68  C   UNL     1       4.119  17.183   0.592  1.00  0.00     0.010 A 
ATOM     69  C   UNL     1       2.742  15.458  -0.412  1.00  0.00     0.010 A 
ATOM     70  C   UNL     1       4.777  17.367  -0.627  1.00  0.00     0.020 A 
ATOM     71  C   UNL     1       3.415  15.621  -1.626  1.00  0.00     0.020 A 
ATOM     72  C   UNL     1       4.423  16.582  -1.728  1.00  0.00     0.054 A 
BRANCH  72  73
ATOM     73  S   UNL     1       5.333  16.794  -3.284  1.00  0.00     0.124 S 
ATOM     74  O   UNL     1       4.793  18.054  -3.783  1.00  0.00    -0.237 OA
ATOM     75  O   UNL     1       6.723  16.832  -2.834  1.00  0.00    -0.237 OA
ATOM     76  O   UNL     1       4.971  15.606  -4.055  1.00  0.00    -0.744 OA
ENDBRANCH  72  73
ENDBRANCH  44  67
BRANCH  56  77
ATOM     77  C   UNL     1      -1.333  20.071   4.500  1.00  0.00    -0.014 A 
ATOM     78  C   UNL     1      -2.324  20.320   3.534  1.00  0.00     0.010 A 
ATOM     79  C   UNL     1      -0.912  21.119   5.339  1.00  0.00     0.010 A 
ATOM     80  C   UNL     1      -2.863  21.602   3.392  1.00  0.00     0.020 A 
ATOM     81  C   UNL     1      -1.468  22.394   5.217  1.00  0.00     0.020 A 
ATOM     82  C   UNL     1      -2.431  22.631   4.234  1.00  0.00     0.054 A 
BRANCH  82  83
ATOM     83  S   UNL     1      -3.178  24.274   4.060  1.00  0.00     0.124 S 
ATOM     84  O   UNL     1      -2.548  24.766   2.838  1.00  0.00    -0.237 OA
ATOM     85  O   UNL     1      -4.603  23.970   3.954  1.00  0.00    -0.237 OA
ATOM     86  O   UNL     1      -2.785  24.965   5.286  1.00  0.00    -0.744 OA
ENDBRANCH  82  83
ENDBRANCH  56  77
ENDBRANCH  30  31
ENDBRANCH  22  25
ENDBRANCH   1  21
TORSDOF 14
