REMARK SMILES Cc1nc(C[N@H+](C)[C@H](C)c2ccc(C(=O)NCCCNC(=O)c3ccc(-c4c5nc(c(-c6ccc(S(=O)(=O)[O-])cc6)c6ccc([nH]6)c(-c6ccc(S(=O)(=O)[O-])cc6)c6nc(c(-c7ccc(S(=O)(=O)[O-])cc7)c7ccc4[nH]7)C=C6)C=C5)cc3)o2)cs1
REMARK SMILES IDX 17 1 16 2 14 3 15 4 13 6 10 7 11 8 83 9 12 10 8 11 9 12 6 13
REMARK SMILES IDX 7 14 5 16 4 17 1 18 2 19 3 20 85 21 84 22 18 23 19 24 20 25
REMARK SMILES IDX 21 26 22 28 23 29 24 30 82 31 25 32 81 33 26 34 27 35 28 36
REMARK SMILES IDX 75 37 29 38 80 39 74 40 76 41 30 42 79 43 73 44 72 45 31 47
REMARK SMILES IDX 61 48 42 49 60 50 43 51 46 52 59 53 77 54 44 55 45 56 58 58
REMARK SMILES IDX 78 59 47 60 32 61 33 62 41 63 34 64 40 65 35 66 36 67 37 68
REMARK SMILES IDX 38 69 39 70 62 71 63 72 71 73 64 74 70 75 65 76 66 77 67 78
REMARK SMILES IDX 68 79 69 80 48 81 49 82 57 83 50 84 56 85 51 86 52 87 53 88
REMARK SMILES IDX 54 89 55 90
REMARK H PARENT 16 5 6 15 20 27 76 46 46 57
REMARK Flexibility Score: inf
ROOT
ATOM      1  C   UNL     1      -2.131   2.281  -2.457  1.00  0.00     0.118 C 
ENDROOT
BRANCH   1   2
ATOM      2  N   UNL     1      -0.772   2.796  -2.454  1.00  0.00    -0.349 N 
ATOM      3  C   UNL     1       0.420   2.119  -2.592  1.00  0.00     0.287 C 
ATOM      4  O   UNL     1       1.452   2.757  -2.374  1.00  0.00    -0.266 OA
ATOM      5  H   UNL     1      -0.692   3.771  -2.337  1.00  0.00     0.163 HD
BRANCH   3   6
ATOM      6  C   UNL     1       0.409   0.728  -2.984  1.00  0.00     0.191 A 
ATOM      7  C   UNL     1       1.119  -1.360  -2.914  1.00  0.00     0.161 A 
ATOM      8  C   UNL     1       0.053  -1.336  -3.791  1.00  0.00     0.053 A 
ATOM      9  O   UNL     1       1.362  -0.101  -2.449  1.00  0.00    -0.450 OA
ATOM     10  C   UNL     1      -0.386   0.002  -3.853  1.00  0.00     0.057 A 
BRANCH   7  11
ATOM     11  C   UNL     1       2.003  -2.485  -2.450  1.00  0.00     0.248 C 
ATOM     12  C   UNL     1       2.982  -2.106  -1.330  1.00  0.00     0.084 C 
BRANCH  11  13
ATOM     13  N   UNL     1       1.204  -3.712  -2.215  1.00  0.00    -0.324 N 
ATOM     14  C   UNL     1       2.024  -4.911  -2.408  1.00  0.00     0.333 C 
ATOM     15  H   UNL     1       0.466  -3.641  -2.915  1.00  0.00     0.348 HD
BRANCH  13  16
ATOM     16  C   UNL     1       0.492  -3.814  -0.922  1.00  0.00     0.320 C 
BRANCH  16  17
ATOM     17  C   UNL     1      -0.497  -2.713  -0.641  1.00  0.00     0.106 A 
ATOM     18  C   UNL     1      -3.928  -1.516  -1.108  1.00  0.00     0.079 C 
ATOM     19  C   UNL     1      -2.506  -1.763  -0.743  1.00  0.00     0.090 A 
ATOM     20  N   UNL     1      -1.789  -2.786  -1.162  1.00  0.00    -0.241 NA
ATOM     21  S   UNL     1      -1.691  -0.661   0.291  1.00  0.00    -0.127 S 
ATOM     22  C   UNL     1      -0.285  -1.623   0.186  1.00  0.00     0.096 A 
ENDBRANCH  16  17
ENDBRANCH  13  16
ENDBRANCH  11  13
ENDBRANCH   7  11
ENDBRANCH   3   6
ENDBRANCH   1   2
BRANCH   1  23
ATOM     23  C   UNL     1      -2.924   2.715  -1.231  1.00  0.00     0.042 C 
BRANCH  23  24
ATOM     24  C   UNL     1      -3.215   4.207  -1.158  1.00  0.00     0.118 C 
BRANCH  24  25
ATOM     25  N   UNL     1      -4.085   4.670  -2.230  1.00  0.00    -0.352 N 
ATOM     26  C   UNL     1      -5.344   5.218  -2.187  1.00  0.00     0.251 C 
ATOM     27  H   UNL     1      -3.708   4.574  -3.135  1.00  0.00     0.163 HD
ATOM     28  O   UNL     1      -5.959   5.378  -3.239  1.00  0.00    -0.269 OA
BRANCH  26  29
ATOM     29  C   UNL     1      -5.975   5.590  -0.899  1.00  0.00     0.039 A 
ATOM     30  C   UNL     1      -7.344   5.362  -0.731  1.00  0.00     0.014 A 
ATOM     31  C   UNL     1      -5.244   6.185   0.132  1.00  0.00     0.014 A 
ATOM     32  C   UNL     1      -7.958   5.663   0.489  1.00  0.00     0.010 A 
ATOM     33  C   UNL     1      -5.834   6.395   1.377  1.00  0.00     0.010 A 
ATOM     34  C   UNL     1      -7.200   6.144   1.569  1.00  0.00    -0.014 A 
BRANCH  34  35
ATOM     35  C   UNL     1      -7.819   6.391   2.899  1.00  0.00     0.031 A 
ATOM     36  C   UNL     1      -7.823   7.776   3.493  1.00  0.00     0.074 A 
ATOM     37  C   UNL     1      -8.328   5.358   3.601  1.00  0.00     0.049 A 
ATOM     38  N   UNL     1      -8.275   8.174   4.655  1.00  0.00    -0.248 NA
ATOM     39  C   UNL     1      -7.217   8.850   2.688  1.00  0.00     0.031 C 
ATOM     40  C   UNL     1      -8.345   3.960   3.162  1.00  0.00     0.029 A 
ATOM     41  N   UNL     1      -8.929   5.323   4.835  1.00  0.00    -0.354 N 
ATOM     42  C   UNL     1      -7.994   9.534   4.728  1.00  0.00     0.074 A 
ATOM     43  C   UNL     1      -7.283   9.882   3.517  1.00  0.00     0.031 C 
ATOM     44  C   UNL     1      -8.957   3.213   4.094  1.00  0.00     0.029 A 
ATOM     45  C   UNL     1      -9.338   4.066   5.215  1.00  0.00     0.049 A 
ATOM     46  H   UNL     1      -9.054   6.122   5.396  1.00  0.00     0.167 HD
ATOM     47  C   UNL     1      -8.317  10.420   5.701  1.00  0.00     0.031 A 
ATOM     48  C   UNL     1      -9.950   3.643   6.338  1.00  0.00     0.031 A 
ATOM     49  C   UNL     1      -9.036  10.075   6.899  1.00  0.00     0.049 A 
ATOM     50  C   UNL     1     -10.297   4.644   7.406  1.00  0.00     0.074 A 
ATOM     51  C   UNL     1      -9.459  10.911   7.919  1.00  0.00     0.029 A 
ATOM     52  N   UNL     1      -9.441   8.793   7.240  1.00  0.00    -0.354 N 
ATOM     53  N   UNL     1     -10.077   5.938   7.426  1.00  0.00    -0.248 NA
ATOM     54  C   UNL     1     -10.987   4.130   8.597  1.00  0.00     0.031 C 
ATOM     55  C   UNL     1     -10.074  10.126   8.900  1.00  0.00     0.029 A 
ATOM     56  C   UNL     1     -10.089   8.811   8.463  1.00  0.00     0.049 A 
ATOM     57  H   UNL     1      -9.289   7.989   6.692  1.00  0.00     0.167 HD
ATOM     58  C   UNL     1     -10.627   6.396   8.618  1.00  0.00     0.074 A 
ATOM     59  C   UNL     1     -11.203   5.245   9.282  1.00  0.00     0.031 C 
ATOM     60  C   UNL     1     -10.653   7.657   9.116  1.00  0.00     0.031 A 
BRANCH  47  61
ATOM     61  C   UNL     1      -7.891  11.853   5.507  1.00  0.00    -0.014 A 
ATOM     62  C   UNL     1      -8.482  12.659   4.516  1.00  0.00     0.010 A 
ATOM     63  C   UNL     1      -6.913  12.413   6.349  1.00  0.00     0.010 A 
ATOM     64  C   UNL     1      -8.070  13.983   4.341  1.00  0.00     0.020 A 
ATOM     65  C   UNL     1      -6.521  13.747   6.197  1.00  0.00     0.020 A 
ATOM     66  C   UNL     1      -7.090  14.518   5.181  1.00  0.00     0.054 A 
BRANCH  66  67
ATOM     67  S   UNL     1      -6.590  16.245   4.943  1.00  0.00     0.124 S 
ATOM     68  O   UNL     1      -5.811  16.165   3.709  1.00  0.00    -0.237 OA
ATOM     69  O   UNL     1      -7.871  16.937   4.833  1.00  0.00    -0.237 OA
ATOM     70  O   UNL     1      -5.820  16.553   6.146  1.00  0.00    -0.744 OA
ENDBRANCH  66  67
ENDBRANCH  47  61
BRANCH  48  71
ATOM     71  C   UNL     1     -10.296   2.204   6.500  1.00  0.00    -0.014 A 
ATOM     72  C   UNL     1     -11.636   1.783   6.453  1.00  0.00     0.010 A 
ATOM     73  C   UNL     1      -9.284   1.244   6.686  1.00  0.00     0.010 A 
ATOM     74  C   UNL     1     -11.961   0.432   6.608  1.00  0.00     0.020 A 
ATOM     75  C   UNL     1      -9.603  -0.111   6.812  1.00  0.00     0.020 A 
ATOM     76  C   UNL     1     -10.941  -0.507   6.784  1.00  0.00     0.054 A 
BRANCH  76  77
ATOM     77  S   UNL     1     -11.383  -2.261   6.927  1.00  0.00     0.124 S 
ATOM     78  O   UNL     1     -11.949  -2.323   8.271  1.00  0.00    -0.237 OA
ATOM     79  O   UNL     1     -12.331  -2.438   5.830  1.00  0.00    -0.237 OA
ATOM     80  O   UNL     1     -10.106  -2.950   6.752  1.00  0.00    -0.744 OA
ENDBRANCH  76  77
ENDBRANCH  48  71
BRANCH  60  81
ATOM     81  C   UNL     1     -11.359   7.866  10.430  1.00  0.00    -0.014 A 
ATOM     82  C   UNL     1     -10.809   7.399  11.638  1.00  0.00     0.010 A 
ATOM     83  C   UNL     1     -12.572   8.578  10.460  1.00  0.00     0.010 A 
ATOM     84  C   UNL     1     -11.481   7.606  12.845  1.00  0.00     0.020 A 
ATOM     85  C   UNL     1     -13.231   8.813  11.668  1.00  0.00     0.020 A 
ATOM     86  C   UNL     1     -12.690   8.310  12.853  1.00  0.00     0.054 A 
BRANCH  86  87
ATOM     87  S   UNL     1     -13.527   8.592  14.437  1.00  0.00     0.124 S 
ATOM     88  O   UNL     1     -14.069   7.269  14.733  1.00  0.00    -0.237 OA
ATOM     89  O   UNL     1     -12.436   9.033  15.302  1.00  0.00    -0.237 OA
ATOM     90  O   UNL     1     -14.521   9.617  14.126  1.00  0.00    -0.744 OA
ENDBRANCH  86  87
ENDBRANCH  60  81
ENDBRANCH  34  35
ENDBRANCH  26  29
ENDBRANCH  24  25
ENDBRANCH  23  24
ENDBRANCH   1  23
TORSDOF 17
