REMARK SMILES C=CCn1nc(C(=O)NCCCNC(=O)c2ccc(-c3c4nc(c(-c5ccc(S(=O)(=O)[O-])cc5)c5ccc([nH]5)c(-c5ccc(S(=O)(=O)[O-])cc5)c5nc(c(-c6ccc(S(=O)(=O)[O-])cc6)c6ccc3[nH]6)C=C5)C=C4)cc2)c2c1CC[C@@H]([NH+]1CCC(C(C)(C)O)CC1)C2
REMARK SMILES IDX 11 1 10 2 9 3 7 4 8 5 6 7 4 8 5 9 77 10 76 11 78 12 91 13
REMARK SMILES IDX 79 14 80 15 3 16 2 17 1 18 81 19 82 20 90 21 83 23 89 24
REMARK SMILES IDX 84 25 85 26 86 27 87 28 88 29 12 31 13 32 14 33 15 35 16 36
REMARK SMILES IDX 17 37 75 38 18 39 74 40 19 41 20 42 21 43 68 44 22 45 73 46
REMARK SMILES IDX 67 47 69 48 23 49 72 50 66 51 65 52 24 54 54 55 35 56 53 57
REMARK SMILES IDX 36 58 39 59 52 60 70 61 37 62 38 63 51 65 71 66 40 67 25 68
REMARK SMILES IDX 26 69 34 70 27 71 33 72 28 73 29 74 30 75 31 76 32 77 55 78
REMARK SMILES IDX 56 79 64 80 57 81 63 82 58 83 59 84 60 85 61 86 62 87 41 88
REMARK SMILES IDX 42 89 50 90 43 91 49 92 44 93 45 94 46 95 47 96 48 97
REMARK H PARENT 9 6 81 22 88 30 13 34 69 53 39 64
REMARK Flexibility Score: inf
ROOT
ATOM      1  C   UNL     1      -2.325   7.393  -3.088  1.00  0.00     0.042 C 
ENDROOT
BRANCH   1   2
ATOM      2  C   UNL     1      -3.683   6.723  -2.800  1.00  0.00     0.118 C 
BRANCH   2   3
ATOM      3  N   UNL     1      -3.917   5.517  -3.599  1.00  0.00    -0.351 N 
ATOM      4  C   UNL     1      -3.713   4.153  -3.456  1.00  0.00     0.272 C 
ATOM      5  O   UNL     1      -4.247   3.474  -4.340  1.00  0.00    -0.267 OA
ATOM      6  H   UNL     1      -4.328   5.732  -4.468  1.00  0.00     0.163 HD
BRANCH   4   7
ATOM      7  C   UNL     1      -2.942   3.505  -2.357  1.00  0.00     0.153 A 
ATOM      8  N   UNL     1      -2.136   1.871  -1.187  1.00  0.00    -0.265 N 
ATOM      9  N   UNL     1      -3.013   2.163  -2.175  1.00  0.00    -0.167 NA
ATOM     10  C   UNL     1      -1.658   2.993  -0.579  1.00  0.00     0.043 A 
ATOM     11  C   UNL     1      -2.003   4.013  -1.429  1.00  0.00     0.012 A 
ATOM     12  C   UNL     1      -0.803   3.135   0.628  1.00  0.00     0.062 C 
ATOM     13  C   UNL     1      -1.377   5.327  -1.331  1.00  0.00     0.105 C 
ATOM     14  C   UNL     1      -0.279   4.591   0.749  1.00  0.00     0.072 C 
ATOM     15  C   UNL     1      -0.065   5.405  -0.551  1.00  0.00     0.189 C 
BRANCH   8  16
ATOM     16  C   UNL     1      -1.791   0.472  -0.936  1.00  0.00     0.171 C 
BRANCH  16  17
ATOM     17  C   UNL     1      -0.361   0.128  -1.276  1.00  0.00    -0.011 C 
ATOM     18  C   UNL     1       0.429  -0.654  -0.526  1.00  0.00     0.006 C 
ENDBRANCH  16  17
ENDBRANCH   8  16
BRANCH  15  19
ATOM     19  N   UNL     1       1.059   5.310  -1.505  1.00  0.00    -0.332 N 
ATOM     20  C   UNL     1       1.349   4.054  -2.167  1.00  0.00     0.262 C 
ATOM     21  C   UNL     1       2.297   5.965  -1.125  1.00  0.00     0.262 C 
ATOM     22  H   UNL     1       0.594   5.868  -2.221  1.00  0.00     0.348 HD
ATOM     23  C   UNL     1       2.075   3.074  -1.265  1.00  0.00     0.068 C 
ATOM     24  C   UNL     1       3.039   5.187  -0.058  1.00  0.00     0.068 C 
ATOM     25  C   UNL     1       3.142   3.658  -0.306  1.00  0.00     0.031 C 
BRANCH  25  26
ATOM     26  C   UNL     1       3.238   2.877   1.055  1.00  0.00     0.062 C 
ATOM     27  C   UNL     1       3.115   1.361   0.903  1.00  0.00     0.042 C 
ATOM     28  C   UNL     1       4.533   3.231   1.787  1.00  0.00     0.042 C 
BRANCH  26  29
ATOM     29  O   UNL     1       2.172   3.266   1.924  1.00  0.00    -0.390 OA
ATOM     30  H   UNL     1       1.321   3.062   1.505  1.00  0.00     0.211 HD
ENDBRANCH  26  29
ENDBRANCH  25  26
ENDBRANCH  15  19
ENDBRANCH   4   7
ENDBRANCH   2   3
ENDBRANCH   1   2
BRANCH   1  31
ATOM     31  C   UNL     1      -2.321   8.793  -3.634  1.00  0.00     0.118 C 
BRANCH  31  32
ATOM     32  N   UNL     1      -2.641   9.800  -2.615  1.00  0.00    -0.352 N 
ATOM     33  C   UNL     1      -2.930  11.142  -2.837  1.00  0.00     0.251 C 
ATOM     34  H   UNL     1      -2.653   9.494  -1.680  1.00  0.00     0.163 HD
ATOM     35  O   UNL     1      -2.770  11.983  -1.979  1.00  0.00    -0.269 OA
BRANCH  33  36
ATOM     36  C   UNL     1      -3.435  11.480  -4.181  1.00  0.00     0.039 A 
ATOM     37  C   UNL     1      -2.892  12.516  -4.942  1.00  0.00     0.014 A 
ATOM     38  C   UNL     1      -4.317  10.561  -4.728  1.00  0.00     0.014 A 
ATOM     39  C   UNL     1      -3.163  12.535  -6.309  1.00  0.00     0.010 A 
ATOM     40  C   UNL     1      -4.337  10.429  -6.086  1.00  0.00     0.010 A 
ATOM     41  C   UNL     1      -3.850  11.453  -6.884  1.00  0.00    -0.014 A 
BRANCH  41  42
ATOM     42  C   UNL     1      -4.016  11.300  -8.323  1.00  0.00     0.031 A 
ATOM     43  C   UNL     1      -2.788  11.499  -9.134  1.00  0.00     0.074 A 
ATOM     44  C   UNL     1      -5.157  10.831  -8.878  1.00  0.00     0.049 A 
ATOM     45  N   UNL     1      -2.498  12.537  -9.843  1.00  0.00    -0.248 NA
ATOM     46  C   UNL     1      -1.694  10.520  -9.044  1.00  0.00     0.031 C 
ATOM     47  C   UNL     1      -6.371  10.320  -8.221  1.00  0.00     0.029 A 
ATOM     48  N   UNL     1      -5.428  10.608 -10.188  1.00  0.00    -0.354 N 
ATOM     49  C   UNL     1      -1.295  12.255 -10.476  1.00  0.00     0.074 A 
ATOM     50  C   UNL     1      -0.758  11.095  -9.807  1.00  0.00     0.031 C 
ATOM     51  C   UNL     1      -7.117   9.627  -9.107  1.00  0.00     0.029 A 
ATOM     52  C   UNL     1      -6.552   9.827 -10.426  1.00  0.00     0.049 A 
ATOM     53  H   UNL     1      -4.871  10.971 -10.914  1.00  0.00     0.167 HD
ATOM     54  C   UNL     1      -0.956  12.861 -11.649  1.00  0.00     0.031 A 
ATOM     55  C   UNL     1      -6.997   9.386 -11.627  1.00  0.00     0.031 A 
ATOM     56  C   UNL     1      -1.871  13.928 -11.972  1.00  0.00     0.049 A 
ATOM     57  C   UNL     1      -6.421  10.296 -12.647  1.00  0.00     0.074 A 
ATOM     58  C   UNL     1      -2.240  15.108 -11.358  1.00  0.00     0.029 A 
ATOM     59  N   UNL     1      -2.879  13.629 -12.863  1.00  0.00    -0.354 N 
ATOM     60  N   UNL     1      -6.747  11.556 -12.733  1.00  0.00    -0.248 NA
ATOM     61  C   UNL     1      -5.141   9.944 -13.241  1.00  0.00     0.031 C 
ATOM     62  C   UNL     1      -3.651  15.191 -11.547  1.00  0.00     0.029 A 
ATOM     63  C   UNL     1      -4.052  14.112 -12.339  1.00  0.00     0.049 A 
ATOM     64  H   UNL     1      -2.776  13.154 -13.719  1.00  0.00     0.167 HD
ATOM     65  C   UNL     1      -5.550  12.217 -12.970  1.00  0.00     0.074 A 
ATOM     66  C   UNL     1      -4.617  11.167 -13.380  1.00  0.00     0.031 C 
ATOM     67  C   UNL     1      -5.351  13.500 -12.541  1.00  0.00     0.031 A 
BRANCH  54  68
ATOM     68  C   UNL     1      -0.048  12.268 -12.693  1.00  0.00    -0.014 A 
ATOM     69  C   UNL     1       0.313  13.059 -13.804  1.00  0.00     0.010 A 
ATOM     70  C   UNL     1       0.246  10.892 -12.762  1.00  0.00     0.010 A 
ATOM     71  C   UNL     1       0.880  12.489 -14.950  1.00  0.00     0.020 A 
ATOM     72  C   UNL     1       0.850  10.320 -13.884  1.00  0.00     0.020 A 
ATOM     73  C   UNL     1       1.134  11.119 -14.985  1.00  0.00     0.054 A 
BRANCH  73  74
ATOM     74  S   UNL     1       1.777  10.379 -16.506  1.00  0.00     0.124 S 
ATOM     75  O   UNL     1       0.667  10.581 -17.432  1.00  0.00    -0.237 OA
ATOM     76  O   UNL     1       2.969  11.184 -16.760  1.00  0.00    -0.237 OA
ATOM     77  O   UNL     1       2.036   8.992 -16.129  1.00  0.00    -0.744 OA
ENDBRANCH  73  74
ENDBRANCH  54  68
BRANCH  55  78
ATOM     78  C   UNL     1      -7.669   8.107 -11.957  1.00  0.00    -0.014 A 
ATOM     79  C   UNL     1      -8.295   7.920 -13.203  1.00  0.00     0.010 A 
ATOM     80  C   UNL     1      -7.440   6.965 -11.160  1.00  0.00     0.010 A 
ATOM     81  C   UNL     1      -8.606   6.631 -13.670  1.00  0.00     0.020 A 
ATOM     82  C   UNL     1      -7.751   5.678 -11.617  1.00  0.00     0.020 A 
ATOM     83  C   UNL     1      -8.307   5.515 -12.884  1.00  0.00     0.054 A 
BRANCH  83  84
ATOM     84  S   UNL     1      -8.517   3.849 -13.584  1.00  0.00     0.124 S 
ATOM     85  O   UNL     1      -9.970   3.714 -13.636  1.00  0.00    -0.237 OA
ATOM     86  O   UNL     1      -7.847   3.961 -14.877  1.00  0.00    -0.237 OA
ATOM     87  O   UNL     1      -7.847   2.982 -12.617  1.00  0.00    -0.744 OA
ENDBRANCH  83  84
ENDBRANCH  55  78
BRANCH  67  88
ATOM     88  C   UNL     1      -6.543  14.279 -12.024  1.00  0.00    -0.014 A 
ATOM     89  C   UNL     1      -7.311  13.896 -10.905  1.00  0.00     0.010 A 
ATOM     90  C   UNL     1      -6.798  15.532 -12.607  1.00  0.00     0.010 A 
ATOM     91  C   UNL     1      -8.323  14.731 -10.406  1.00  0.00     0.020 A 
ATOM     92  C   UNL     1      -7.791  16.377 -12.105  1.00  0.00     0.020 A 
ATOM     93  C   UNL     1      -8.558  15.968 -11.014  1.00  0.00     0.054 A 
BRANCH  93  94
ATOM     94  S   UNL     1      -9.844  17.064 -10.350  1.00  0.00     0.124 S 
ATOM     95  O   UNL     1     -11.073  16.352 -10.688  1.00  0.00    -0.237 OA
ATOM     96  O   UNL     1      -9.522  17.122  -8.926  1.00  0.00    -0.237 OA
ATOM     97  O   UNL     1      -9.640  18.319 -11.073  1.00  0.00    -0.744 OA
ENDBRANCH  93  94
ENDBRANCH  67  88
ENDBRANCH  41  42
ENDBRANCH  33  36
ENDBRANCH  31  32
ENDBRANCH   1  31
TORSDOF 18
