REMARK SMILES Cc1ccc([C@@H](CC(=O)NCCCNC(=O)c2ccc(-c3c4nc(c(-c5ccc(S(=O)(=O)[O-])cc5)c5ccc([nH]5)c(-c5ccc(S(=O)(=O)[O-])cc5)c5nc(c(-c6ccc(S(=O)(=O)[O-])cc6)c6ccc3[nH]6)C=C5)C=C4)cc2)NC(=O)c2ccc(OC(F)F)cc2)cc1
REMARK SMILES IDX 11 1 10 2 8 3 9 4 7 6 6 7 5 8 1 9 2 10 3 11 91 12 4 13 90 14
REMARK SMILES IDX 77 15 78 16 79 18 80 19 81 20 89 21 82 22 88 23 83 24 84 25
REMARK SMILES IDX 85 26 86 27 87 28 12 29 13 30 14 31 15 32 16 34 17 35 18 36
REMARK SMILES IDX 76 37 19 38 75 39 20 40 21 41 22 42 69 43 23 44 74 45 68 46
REMARK SMILES IDX 70 47 24 48 73 49 67 50 66 51 25 53 55 54 36 55 54 56 37 57
REMARK SMILES IDX 40 58 53 59 71 60 38 61 39 62 52 64 72 65 41 66 26 67 27 68
REMARK SMILES IDX 35 69 28 70 34 71 29 72 30 73 31 74 32 75 33 76 56 77 57 78
REMARK SMILES IDX 65 79 58 80 64 81 59 82 60 83 61 84 62 85 63 86 42 87 43 88
REMARK SMILES IDX 51 89 44 90 50 91 45 92 46 93 47 94 48 95 49 96
REMARK H PARENT 10 5 77 17 14 33 70 52 40 63
REMARK Flexibility Score: inf
ROOT
ATOM      1  C   UNL     1      -1.210  -2.261  -1.958  1.00  0.00     0.117 C 
ENDROOT
BRANCH   1   2
ATOM      2  N   UNL     1      -2.634  -2.473  -1.730  1.00  0.00    -0.356 N 
ATOM      3  C   UNL     1      -3.635  -1.620  -1.403  1.00  0.00     0.222 C 
ATOM      4  O   UNL     1      -4.762  -2.087  -1.222  1.00  0.00    -0.275 OA
ATOM      5  H   UNL     1      -2.922  -3.409  -1.833  1.00  0.00     0.163 HD
BRANCH   3   6
ATOM      6  C   UNL     1      -3.405  -0.132  -1.339  1.00  0.00     0.129 C 
BRANCH   6   7
ATOM      7  C   UNL     1      -3.225   0.476   0.067  1.00  0.00     0.122 C 
BRANCH   7   8
ATOM      8  C   UNL     1      -1.749   0.793   0.292  1.00  0.00    -0.025 A 
ATOM      9  C   UNL     1       2.516   1.459   0.164  1.00  0.00     0.044 C 
ATOM     10  C   UNL     1       1.033   1.284   0.299  1.00  0.00    -0.051 A 
ATOM     11  C   UNL     1       0.501   0.186   0.980  1.00  0.00     0.004 A 
ATOM     12  C   UNL     1       0.165   2.167  -0.344  1.00  0.00     0.004 A 
ATOM     13  C   UNL     1      -0.876  -0.055   0.984  1.00  0.00     0.006 A 
ATOM     14  C   UNL     1      -1.209   1.929  -0.339  1.00  0.00     0.006 A 
ENDBRANCH   7   8
BRANCH   7  15
ATOM     15  N   UNL     1      -3.826  -0.261   1.176  1.00  0.00    -0.345 N 
ATOM     16  C   UNL     1      -4.974  -0.007   1.882  1.00  0.00     0.251 C 
ATOM     17  H   UNL     1      -3.330  -1.063   1.460  1.00  0.00     0.164 HD
ATOM     18  O   UNL     1      -5.150  -0.523   2.983  1.00  0.00    -0.269 OA
BRANCH  16  19
ATOM     19  C   UNL     1      -6.016   0.891   1.341  1.00  0.00     0.040 A 
ATOM     20  C   UNL     1      -6.588   1.855   2.173  1.00  0.00     0.017 A 
ATOM     21  C   UNL     1      -6.519   0.706   0.053  1.00  0.00     0.017 A 
ATOM     22  C   UNL     1      -7.619   2.667   1.689  1.00  0.00     0.047 A 
ATOM     23  C   UNL     1      -7.536   1.532  -0.435  1.00  0.00     0.047 A 
ATOM     24  C   UNL     1      -8.087   2.522   0.378  1.00  0.00     0.126 A 
BRANCH  24  25
ATOM     25  O   UNL     1      -9.092   3.380   0.030  1.00  0.00    -0.435 OA
BRANCH  25  26
ATOM     26  C   UNL     1      -9.512   3.401  -1.328  1.00  0.00     0.542 C 
ATOM     27  F   UNL     1      -8.460   3.666  -2.139  1.00  0.00    -0.167 F 
ATOM     28  F   UNL     1     -10.032   2.200  -1.679  1.00  0.00    -0.167 F 
ENDBRANCH  25  26
ENDBRANCH  24  25
ENDBRANCH  16  19
ENDBRANCH   7  15
ENDBRANCH   6   7
ENDBRANCH   3   6
ENDBRANCH   1   2
BRANCH   1  29
ATOM     29  C   UNL     1      -0.403  -3.097  -0.971  1.00  0.00     0.042 C 
BRANCH  29  30
ATOM     30  C   UNL     1       1.043  -3.307  -1.410  1.00  0.00     0.118 C 
BRANCH  30  31
ATOM     31  N   UNL     1       1.921  -2.164  -1.140  1.00  0.00    -0.352 N 
ATOM     32  C   UNL     1       3.134  -2.182  -0.470  1.00  0.00     0.251 C 
ATOM     33  H   UNL     1       1.616  -1.288  -1.470  1.00  0.00     0.163 HD
ATOM     34  O   UNL     1       3.882  -1.213  -0.399  1.00  0.00    -0.269 OA
BRANCH  32  35
ATOM     35  C   UNL     1       3.467  -3.423   0.238  1.00  0.00     0.039 A 
ATOM     36  C   UNL     1       4.173  -4.407  -0.463  1.00  0.00     0.014 A 
ATOM     37  C   UNL     1       2.676  -3.719   1.347  1.00  0.00     0.014 A 
ATOM     38  C   UNL     1       3.903  -5.744  -0.191  1.00  0.00     0.010 A 
ATOM     39  C   UNL     1       2.378  -5.045   1.580  1.00  0.00     0.010 A 
ATOM     40  C   UNL     1       2.916  -6.048   0.748  1.00  0.00    -0.014 A 
BRANCH  40  41
ATOM     41  C   UNL     1       2.210  -7.327   0.800  1.00  0.00     0.031 A 
ATOM     42  C   UNL     1       2.260  -8.160   2.024  1.00  0.00     0.074 A 
ATOM     43  C   UNL     1       1.326  -7.657  -0.173  1.00  0.00     0.049 A 
ATOM     44  N   UNL     1       1.789  -9.360   2.098  1.00  0.00    -0.248 NA
ATOM     45  C   UNL     1       2.928  -7.736   3.251  1.00  0.00     0.031 C 
ATOM     46  C   UNL     1       0.191  -8.569  -0.035  1.00  0.00     0.029 A 
ATOM     47  N   UNL     1       1.379  -7.409  -1.548  1.00  0.00    -0.354 N 
ATOM     48  C   UNL     1       1.777  -9.718   3.423  1.00  0.00     0.074 A 
ATOM     49  C   UNL     1       2.621  -8.745   4.072  1.00  0.00     0.031 C 
ATOM     50  C   UNL     1      -0.139  -9.037  -1.246  1.00  0.00     0.029 A 
ATOM     51  C   UNL     1       0.862  -8.560  -2.179  1.00  0.00     0.049 A 
ATOM     52  H   UNL     1       1.711  -6.594  -1.988  1.00  0.00     0.167 HD
ATOM     53  C   UNL     1       0.948 -10.721   3.832  1.00  0.00     0.031 A 
ATOM     54  C   UNL     1       1.539  -9.335  -3.077  1.00  0.00     0.031 A 
ATOM     55  C   UNL     1       0.367 -11.455   2.705  1.00  0.00     0.049 A 
ATOM     56  C   UNL     1       1.642 -10.799  -2.687  1.00  0.00     0.074 A 
ATOM     57  C   UNL     1      -0.899 -11.619   2.169  1.00  0.00     0.029 A 
ATOM     58  N   UNL     1       1.236 -12.035   1.796  1.00  0.00    -0.354 N 
ATOM     59  N   UNL     1       1.075 -11.324  -1.638  1.00  0.00    -0.248 NA
ATOM     60  C   UNL     1       2.503 -11.758  -3.385  1.00  0.00     0.031 C 
ATOM     61  C   UNL     1      -0.772 -12.330   0.936  1.00  0.00     0.029 A 
ATOM     62  C   UNL     1       0.567 -12.610   0.739  1.00  0.00     0.049 A 
ATOM     63  H   UNL     1       2.216 -12.037   1.895  1.00  0.00     0.167 HD
ATOM     64  C   UNL     1       1.586 -12.579  -1.427  1.00  0.00     0.074 A 
ATOM     65  C   UNL     1       2.438 -12.829  -2.574  1.00  0.00     0.031 C 
ATOM     66  C   UNL     1       1.353 -13.281  -0.282  1.00  0.00     0.031 A 
BRANCH  53  67
ATOM     67  C   UNL     1       0.531 -10.965   5.269  1.00  0.00    -0.014 A 
ATOM     68  C   UNL     1      -0.477 -11.911   5.552  1.00  0.00     0.010 A 
ATOM     69  C   UNL     1       1.023 -10.248   6.377  1.00  0.00     0.010 A 
ATOM     70  C   UNL     1      -0.995 -12.089   6.847  1.00  0.00     0.020 A 
ATOM     71  C   UNL     1       0.530 -10.425   7.676  1.00  0.00     0.020 A 
ATOM     72  C   UNL     1      -0.493 -11.332   7.902  1.00  0.00     0.054 A 
BRANCH  72  73
ATOM     73  S   UNL     1      -1.199 -11.517   9.558  1.00  0.00     0.124 S 
ATOM     74  O   UNL     1      -2.576 -11.074   9.360  1.00  0.00    -0.237 OA
ATOM     75  O   UNL     1      -1.022 -12.941   9.821  1.00  0.00    -0.237 OA
ATOM     76  O   UNL     1      -0.380 -10.630  10.384  1.00  0.00    -0.744 OA
ENDBRANCH  72  73
ENDBRANCH  53  67
BRANCH  54  77
ATOM     77  C   UNL     1       2.561  -8.596  -3.864  1.00  0.00    -0.014 A 
ATOM     78  C   UNL     1       2.086  -7.721  -4.862  1.00  0.00     0.010 A 
ATOM     79  C   UNL     1       3.849  -8.407  -3.333  1.00  0.00     0.010 A 
ATOM     80  C   UNL     1       2.794  -6.561  -5.168  1.00  0.00     0.020 A 
ATOM     81  C   UNL     1       4.561  -7.243  -3.642  1.00  0.00     0.020 A 
ATOM     82  C   UNL     1       3.988  -6.296  -4.495  1.00  0.00     0.054 A 
BRANCH  82  83
ATOM     83  S   UNL     1       4.619  -4.592  -4.540  1.00  0.00     0.124 S 
ATOM     84  O   UNL     1       4.886  -4.391  -5.959  1.00  0.00    -0.237 OA
ATOM     85  O   UNL     1       3.484  -3.850  -3.995  1.00  0.00    -0.237 OA
ATOM     86  O   UNL     1       5.793  -4.645  -3.674  1.00  0.00    -0.744 OA
ENDBRANCH  82  83
ENDBRANCH  54  77
BRANCH  66  87
ATOM     87  C   UNL     1       1.941 -14.637   0.013  1.00  0.00    -0.014 A 
ATOM     88  C   UNL     1       1.970 -15.672  -0.934  1.00  0.00     0.010 A 
ATOM     89  C   UNL     1       2.374 -14.947   1.323  1.00  0.00     0.010 A 
ATOM     90  C   UNL     1       2.451 -16.947  -0.596  1.00  0.00     0.020 A 
ATOM     91  C   UNL     1       2.839 -16.216   1.675  1.00  0.00     0.020 A 
ATOM     92  C   UNL     1       2.886 -17.209   0.706  1.00  0.00     0.054 A 
BRANCH  92  93
ATOM     93  S   UNL     1       3.457 -18.873   1.137  1.00  0.00     0.124 S 
ATOM     94  O   UNL     1       2.429 -19.726   0.546  1.00  0.00    -0.237 OA
ATOM     95  O   UNL     1       4.763 -18.923   0.486  1.00  0.00    -0.237 OA
ATOM     96  O   UNL     1       3.489 -18.866   2.598  1.00  0.00    -0.744 OA
ENDBRANCH  92  93
ENDBRANCH  66  87
ENDBRANCH  40  41
ENDBRANCH  32  35
ENDBRANCH  30  31
ENDBRANCH  29  30
ENDBRANCH   1  29
TORSDOF 19
