REMARK SMILES CN(Cc1ncc(C(=O)NCCCNC(=O)c2ccc(-c3c4nc(c(-c5ccc(S(=O)(=O)[O-])cc5)c5ccc([nH]5)c(-c5ccc(S(=O)(=O)[O-])cc5)c5nc(c(-c6ccc(S(=O)(=O)[O-])cc6)c6ccc3[nH]6)C=C5)C=C4)cc2)cn1)S(=O)(=O)c1ccc(Cl)cc1
REMARK SMILES IDX 11 1 10 2 8 3 9 4 7 6 4 7 5 8 78 9 6 10 77 11 3 12 2 13 1 14
REMARK SMILES IDX 79 15 80 16 81 17 82 18 83 19 88 20 84 21 87 22 85 23 86 24
REMARK SMILES IDX 12 25 13 26 14 27 15 28 16 30 17 31 18 32 76 33 19 34 75 35
REMARK SMILES IDX 20 36 21 37 22 38 69 39 23 40 74 41 68 42 70 43 24 44 73 45
REMARK SMILES IDX 67 46 66 47 25 49 55 50 36 51 54 52 37 53 40 54 53 55 71 56
REMARK SMILES IDX 38 57 39 58 52 60 72 61 41 62 26 63 27 64 35 65 28 66 34 67
REMARK SMILES IDX 29 68 30 69 31 70 32 71 33 72 56 73 57 74 65 75 58 76 64 77
REMARK SMILES IDX 59 78 60 79 61 80 62 81 63 82 42 83 43 84 51 85 44 86 50 87
REMARK SMILES IDX 45 88 46 89 47 90 48 91 49 92
REMARK H PARENT 10 5 14 29 70 48 40 59
REMARK Flexibility Score: inf
ROOT
ATOM      1  C   UNL     1      -5.526   4.091  -1.350  1.00  0.00     0.118 C 
ENDROOT
BRANCH   1   2
ATOM      2  N   UNL     1      -4.338   4.897  -1.143  1.00  0.00    -0.352 N 
ATOM      3  C   UNL     1      -3.033   4.592  -0.875  1.00  0.00     0.254 C 
ATOM      4  O   UNL     1      -2.261   5.538  -0.712  1.00  0.00    -0.269 OA
ATOM      5  H   UNL     1      -4.507   5.864  -1.210  1.00  0.00     0.163 HD
BRANCH   3   6
ATOM      6  C   UNL     1      -2.486   3.224  -0.831  1.00  0.00     0.076 A 
ATOM      7  C   UNL     1      -1.252   0.780  -0.971  1.00  0.00     0.143 A 
ATOM      8  N   UNL     1      -2.586   0.811  -0.783  1.00  0.00    -0.239 NA
ATOM      9  N   UNL     1      -0.490   1.880  -0.998  1.00  0.00    -0.239 NA
ATOM     10  C   UNL     1      -3.163   2.036  -0.686  1.00  0.00     0.128 A 
ATOM     11  C   UNL     1      -1.121   3.073  -0.951  1.00  0.00     0.128 A 
BRANCH   7  12
ATOM     12  C   UNL     1      -0.615  -0.579  -1.214  1.00  0.00     0.179 C 
BRANCH  12  13
ATOM     13  N   UNL     1       0.871  -0.705  -1.328  1.00  0.00    -0.193 NA
ATOM     14  C   UNL     1       1.566  -0.344  -0.073  1.00  0.00     0.125 C 
BRANCH  13  15
ATOM     15  S   UNL     1       1.636  -0.117  -2.728  1.00  0.00     0.243 S 
ATOM     16  O   UNL     1       1.415   1.299  -2.881  1.00  0.00    -0.207 OA
ATOM     17  O   UNL     1       2.990  -0.642  -2.732  1.00  0.00    -0.207 OA
BRANCH  15  18
ATOM     18  C   UNL     1       0.782  -0.936  -4.057  1.00  0.00     0.082 A 
ATOM     19  C   UNL     1      -0.034  -0.197  -4.922  1.00  0.00     0.023 A 
ATOM     20  C   UNL     1       1.002  -2.300  -4.269  1.00  0.00     0.023 A 
ATOM     21  C   UNL     1      -0.640  -0.836  -6.006  1.00  0.00     0.022 A 
ATOM     22  C   UNL     1       0.392  -2.932  -5.353  1.00  0.00     0.022 A 
ATOM     23  C   UNL     1      -0.422  -2.198  -6.218  1.00  0.00     0.041 A 
ATOM     24  Cl  UNL     1      -1.151  -2.978  -7.568  1.00  0.00    -0.084 Cl
ENDBRANCH  15  18
ENDBRANCH  13  15
ENDBRANCH  12  13
ENDBRANCH   7  12
ENDBRANCH   3   6
ENDBRANCH   1   2
BRANCH   1  25
ATOM     25  C   UNL     1      -6.276   3.882  -0.036  1.00  0.00     0.042 C 
BRANCH  25  26
ATOM     26  C   UNL     1      -6.921   5.164   0.490  1.00  0.00     0.118 C 
BRANCH  26  27
ATOM     27  N   UNL     1      -7.987   5.626  -0.388  1.00  0.00    -0.352 N 
ATOM     28  C   UNL     1      -9.328   5.769  -0.138  1.00  0.00     0.251 C 
ATOM     29  H   UNL     1      -7.702   5.874  -1.297  1.00  0.00     0.163 HD
ATOM     30  O   UNL     1     -10.105   5.898  -1.079  1.00  0.00    -0.269 OA
BRANCH  28  31
ATOM     31  C   UNL     1      -9.834   5.772   1.251  1.00  0.00     0.039 A 
ATOM     32  C   UNL     1     -11.035   5.118   1.535  1.00  0.00     0.014 A 
ATOM     33  C   UNL     1      -9.157   6.467   2.258  1.00  0.00     0.014 A 
ATOM     34  C   UNL     1     -11.537   5.126   2.839  1.00  0.00     0.010 A 
ATOM     35  C   UNL     1      -9.622   6.417   3.569  1.00  0.00     0.010 A 
ATOM     36  C   UNL     1     -10.823   5.758   3.869  1.00  0.00    -0.014 A 
BRANCH  36  37
ATOM     37  C   UNL     1     -11.319   5.750   5.268  1.00  0.00     0.031 A 
ATOM     38  C   UNL     1     -11.713   7.040   5.936  1.00  0.00     0.074 A 
ATOM     39  C   UNL     1     -11.348   4.592   5.955  1.00  0.00     0.049 A 
ATOM     40  N   UNL     1     -12.100   7.244   7.169  1.00  0.00    -0.248 NA
ATOM     41  C   UNL     1     -11.636   8.263   5.121  1.00  0.00     0.031 C 
ATOM     42  C   UNL     1     -10.950   3.284   5.427  1.00  0.00     0.029 A 
ATOM     43  N   UNL     1     -11.720   4.328   7.248  1.00  0.00    -0.354 N 
ATOM     44  C   UNL     1     -12.287   8.617   7.285  1.00  0.00     0.074 A 
ATOM     45  C   UNL     1     -11.933   9.200   6.009  1.00  0.00     0.031 C 
ATOM     46  C   UNL     1     -11.120   2.355   6.382  1.00  0.00     0.029 A 
ATOM     47  C   UNL     1     -11.601   3.004   7.597  1.00  0.00     0.049 A 
ATOM     48  H   UNL     1     -12.042   5.022   7.868  1.00  0.00     0.167 HD
ATOM     49  C   UNL     1     -12.727   9.325   8.352  1.00  0.00     0.031 A 
ATOM     50  C   UNL     1     -11.846   2.381   8.766  1.00  0.00     0.031 A 
ATOM     51  C   UNL     1     -13.098   8.735   9.611  1.00  0.00     0.049 A 
ATOM     52  C   UNL     1     -12.352   3.184   9.930  1.00  0.00     0.074 A 
ATOM     53  C   UNL     1     -13.619   9.356  10.732  1.00  0.00     0.029 A 
ATOM     54  N   UNL     1     -12.988   7.386   9.915  1.00  0.00    -0.354 N 
ATOM     55  N   UNL     1     -12.582   4.474  10.001  1.00  0.00    -0.248 NA
ATOM     56  C   UNL     1     -12.645   2.449  11.168  1.00  0.00     0.031 C 
ATOM     57  C   UNL     1     -13.783   8.389  11.730  1.00  0.00     0.029 A 
ATOM     58  C   UNL     1     -13.413   7.158  11.212  1.00  0.00     0.049 A 
ATOM     59  H   UNL     1     -12.657   6.693   9.298  1.00  0.00     0.167 HD
ATOM     60  C   UNL     1     -13.068   4.701  11.283  1.00  0.00     0.074 A 
ATOM     61  C   UNL     1     -13.112   3.414  11.948  1.00  0.00     0.031 C 
ATOM     62  C   UNL     1     -13.446   5.870  11.858  1.00  0.00     0.031 A 
BRANCH  49  63
ATOM     63  C   UNL     1     -12.825  10.821   8.205  1.00  0.00    -0.014 A 
ATOM     64  C   UNL     1     -13.807  11.409   7.387  1.00  0.00     0.010 A 
ATOM     65  C   UNL     1     -11.948  11.652   8.925  1.00  0.00     0.010 A 
ATOM     66  C   UNL     1     -13.882  12.799   7.259  1.00  0.00     0.020 A 
ATOM     67  C   UNL     1     -12.038  13.044   8.821  1.00  0.00     0.020 A 
ATOM     68  C   UNL     1     -12.994  13.607   7.974  1.00  0.00     0.054 A 
BRANCH  68  69
ATOM     69  S   UNL     1     -13.129  15.409   7.806  1.00  0.00     0.124 S 
ATOM     70  O   UNL     1     -12.566  15.628   6.475  1.00  0.00    -0.237 OA
ATOM     71  O   UNL     1     -14.566  15.636   7.925  1.00  0.00    -0.237 OA
ATOM     72  O   UNL     1     -12.326  15.921   8.913  1.00  0.00    -0.744 OA
ENDBRANCH  68  69
ENDBRANCH  49  63
BRANCH  50  73
ATOM     73  C   UNL     1     -11.635   0.913   8.877  1.00  0.00    -0.014 A 
ATOM     74  C   UNL     1     -12.733   0.038   8.939  1.00  0.00     0.010 A 
ATOM     75  C   UNL     1     -10.333   0.379   8.883  1.00  0.00     0.010 A 
ATOM     76  C   UNL     1     -12.535  -1.343   9.014  1.00  0.00     0.020 A 
ATOM     77  C   UNL     1     -10.131  -1.004   8.932  1.00  0.00     0.020 A 
ATOM     78  C   UNL     1     -11.235  -1.856   9.005  1.00  0.00     0.054 A 
BRANCH  78  79
ATOM     79  S   UNL     1     -11.002  -3.655   9.030  1.00  0.00     0.124 S 
ATOM     80  O   UNL     1     -11.304  -3.982  10.420  1.00  0.00    -0.237 OA
ATOM     81  O   UNL     1     -11.979  -4.114   8.045  1.00  0.00    -0.237 OA
ATOM     82  O   UNL     1      -9.606  -3.824   8.634  1.00  0.00    -0.744 OA
ENDBRANCH  78  79
ENDBRANCH  50  73
BRANCH  62  83
ATOM     83  C   UNL     1     -13.966   5.809  13.268  1.00  0.00    -0.014 A 
ATOM     84  C   UNL     1     -13.100   5.595  14.354  1.00  0.00     0.010 A 
ATOM     85  C   UNL     1     -15.335   6.027  13.511  1.00  0.00     0.010 A 
ATOM     86  C   UNL     1     -13.600   5.570  15.659  1.00  0.00     0.020 A 
ATOM     87  C   UNL     1     -15.833   6.029  14.816  1.00  0.00     0.020 A 
ATOM     88  C   UNL     1     -14.963   5.787  15.881  1.00  0.00     0.054 A 
BRANCH  88  89
ATOM     89  S   UNL     1     -15.580   5.795  17.587  1.00  0.00     0.124 S 
ATOM     90  O   UNL     1     -15.579   4.373  17.916  1.00  0.00    -0.237 OA
ATOM     91  O   UNL     1     -14.583   6.603  18.285  1.00  0.00    -0.237 OA
ATOM     92  O   UNL     1     -16.902   6.408  17.474  1.00  0.00    -0.744 OA
ENDBRANCH  88  89
ENDBRANCH  62  83
ENDBRANCH  36  37
ENDBRANCH  28  31
ENDBRANCH  26  27
ENDBRANCH  25  26
ENDBRANCH   1  25
TORSDOF 17
