REMARK SMILES COc1nc(Cl)nc(N(CC(=O)NCCCNC(=O)c2ccc(-c3c4nc(c(-c5ccc(S(=O)(=O)[O-])cc5)c5ccc([nH]5)c(-c5ccc(S(=O)(=O)[O-])cc5)c5nc(c(-c6ccc(S(=O)(=O)[O-])cc6)c6ccc3[nH]6)C=C5)C=C4)cc2)C(C)(C)C)n1
REMARK SMILES IDX 15 1 14 2 13 3 11 4 12 5 10 7 9 8 8 9 3 10 4 11 84 12 5 13
REMARK SMILES IDX 6 14 7 15 2 16 1 17 80 18 81 19 82 20 83 21 16 22 17 23
REMARK SMILES IDX 18 24 19 26 20 27 21 28 79 29 22 30 78 31 23 32 24 33 25 34
REMARK SMILES IDX 72 35 26 36 77 37 71 38 73 39 27 40 76 41 70 42 69 43 28 45
REMARK SMILES IDX 58 46 39 47 57 48 40 49 43 50 56 51 74 52 41 53 42 54 55 56
REMARK SMILES IDX 75 57 44 58 29 59 30 60 38 61 31 62 37 63 32 64 33 65 34 66
REMARK SMILES IDX 35 67 36 68 59 69 60 70 68 71 61 72 67 73 62 74 63 75 64 76
REMARK SMILES IDX 65 77 66 78 45 79 46 80 54 81 47 82 53 83 48 84 49 85 50 86
REMARK SMILES IDX 51 87 52 88
REMARK H PARENT 13 6 17 25 73 44 43 55
REMARK Flexibility Score: inf
ROOT
ATOM      1  C   UNL     1       0.786  -4.301   5.325  1.00  0.00     0.042 C 
ENDROOT
BRANCH   1   2
ATOM      2  C   UNL     1       1.145  -5.691   4.811  1.00  0.00     0.117 C 
BRANCH   2   3
ATOM      3  N   UNL     1       0.027  -6.612   4.816  1.00  0.00    -0.354 N 
ATOM      4  C   UNL     1      -0.723  -7.071   3.772  1.00  0.00     0.239 C 
ATOM      5  O   UNL     1      -1.520  -7.986   4.004  1.00  0.00    -0.273 OA
ATOM      6  H   UNL     1      -0.229  -6.958   5.701  1.00  0.00     0.163 HD
BRANCH   4   7
ATOM      7  C   UNL     1      -0.539  -6.520   2.352  1.00  0.00     0.220 C 
BRANCH   7   8
ATOM      8  N   UNL     1      -0.943  -5.108   2.197  1.00  0.00    -0.326 N 
BRANCH   8   9
ATOM      9  C   UNL     1       0.046  -4.230   1.758  1.00  0.00     0.233 A 
ATOM     10  C   UNL     1       0.740  -2.136   1.210  1.00  0.00     0.322 A 
ATOM     11  N   UNL     1       1.961  -2.507   0.876  1.00  0.00    -0.164 NA
ATOM     12  N   UNL     1      -0.221  -2.936   1.663  1.00  0.00    -0.158 NA
ATOM     13  C   UNL     1       2.130  -3.804   1.038  1.00  0.00     0.230 A 
ATOM     14  Cl  UNL     1       3.686  -4.411   0.674  1.00  0.00    -0.041 Cl
ATOM     15  N   UNL     1       1.246  -4.704   1.451  1.00  0.00    -0.182 NA
BRANCH  10  16
ATOM     16  O   UNL     1       0.387  -0.808   1.133  1.00  0.00    -0.467 OA
ATOM     17  C   UNL     1       1.101  -0.115   0.117  1.00  0.00     0.282 C 
ENDBRANCH  10  16
ENDBRANCH   8   9
BRANCH   8  18
ATOM     18  C   UNL     1      -2.380  -4.683   2.247  1.00  0.00     0.035 C 
ATOM     19  C   UNL     1      -2.607  -3.650   3.369  1.00  0.00     0.034 C 
ATOM     20  C   UNL     1      -2.837  -4.119   0.881  1.00  0.00     0.034 C 
ATOM     21  C   UNL     1      -3.350  -5.851   2.548  1.00  0.00     0.034 C 
ENDBRANCH   8  18
ENDBRANCH   7   8
ENDBRANCH   4   7
ENDBRANCH   2   3
ENDBRANCH   1   2
BRANCH   1  22
ATOM     22  C   UNL     1       0.303  -4.265   6.775  1.00  0.00     0.118 C 
BRANCH  22  23
ATOM     23  N   UNL     1       1.330  -4.687   7.716  1.00  0.00    -0.352 N 
ATOM     24  C   UNL     1       1.864  -4.040   8.800  1.00  0.00     0.251 C 
ATOM     25  H   UNL     1       1.702  -5.583   7.545  1.00  0.00     0.163 HD
ATOM     26  O   UNL     1       2.865  -4.513   9.340  1.00  0.00    -0.269 OA
BRANCH  24  27
ATOM     27  C   UNL     1       1.271  -2.789   9.323  1.00  0.00     0.039 A 
ATOM     28  C   UNL     1       2.131  -1.774   9.756  1.00  0.00     0.014 A 
ATOM     29  C   UNL     1      -0.112  -2.626   9.451  1.00  0.00     0.014 A 
ATOM     30  C   UNL     1       1.608  -0.583  10.265  1.00  0.00     0.010 A 
ATOM     31  C   UNL     1      -0.635  -1.413   9.906  1.00  0.00     0.010 A 
ATOM     32  C   UNL     1       0.219  -0.381  10.321  1.00  0.00    -0.014 A 
BRANCH  32  33
ATOM     33  C   UNL     1      -0.338   0.918  10.780  1.00  0.00     0.031 A 
ATOM     34  C   UNL     1      -1.129   1.017  12.055  1.00  0.00     0.074 A 
ATOM     35  C   UNL     1      -0.169   2.013  10.012  1.00  0.00     0.049 A 
ATOM     36  N   UNL     1      -1.667   2.074  12.610  1.00  0.00    -0.248 NA
ATOM     37  C   UNL     1      -1.366  -0.234  12.790  1.00  0.00     0.031 C 
ATOM     38  C   UNL     1       0.522   2.040   8.722  1.00  0.00     0.029 A 
ATOM     39  N   UNL     1      -0.569   3.311  10.204  1.00  0.00    -0.354 N 
ATOM     40  C   UNL     1      -2.320   1.616  13.748  1.00  0.00     0.074 A 
ATOM     41  C   UNL     1      -2.143   0.179  13.781  1.00  0.00     0.031 C 
ATOM     42  C   UNL     1       0.518   3.296   8.249  1.00  0.00     0.029 A 
ATOM     43  C   UNL     1      -0.195   4.157   9.188  1.00  0.00     0.049 A 
ATOM     44  H   UNL     1      -1.076   3.608  10.994  1.00  0.00     0.167 HD
ATOM     45  C   UNL     1      -2.994   2.325  14.687  1.00  0.00     0.031 A 
ATOM     46  C   UNL     1      -0.396   5.479   9.026  1.00  0.00     0.031 A 
ATOM     47  C   UNL     1      -3.169   3.754  14.655  1.00  0.00     0.049 A 
ATOM     48  C   UNL     1      -1.112   6.253  10.094  1.00  0.00     0.074 A 
ATOM     49  C   UNL     1      -3.770   4.571  15.598  1.00  0.00     0.029 A 
ATOM     50  N   UNL     1      -2.753   4.580  13.621  1.00  0.00    -0.354 N 
ATOM     51  N   UNL     1      -1.643   5.814  11.210  1.00  0.00    -0.248 NA
ATOM     52  C   UNL     1      -1.240   7.701   9.889  1.00  0.00     0.031 C 
ATOM     53  C   UNL     1      -3.757   5.885  15.113  1.00  0.00     0.029 A 
ATOM     54  C   UNL     1      -3.106   5.893  13.889  1.00  0.00     0.049 A 
ATOM     55  H   UNL     1      -2.276   4.277  12.815  1.00  0.00     0.167 HD
ATOM     56  C   UNL     1      -2.161   6.936  11.847  1.00  0.00     0.074 A 
ATOM     57  C   UNL     1      -1.859   8.074  11.001  1.00  0.00     0.031 C 
ATOM     58  C   UNL     1      -2.826   7.014  13.027  1.00  0.00     0.031 A 
BRANCH  45  59
ATOM     59  C   UNL     1      -3.610   1.549  15.822  1.00  0.00    -0.014 A 
ATOM     60  C   UNL     1      -2.809   0.947  16.811  1.00  0.00     0.010 A 
ATOM     61  C   UNL     1      -5.008   1.419  15.903  1.00  0.00     0.010 A 
ATOM     62  C   UNL     1      -3.392   0.179  17.823  1.00  0.00     0.020 A 
ATOM     63  C   UNL     1      -5.596   0.673  16.929  1.00  0.00     0.020 A 
ATOM     64  C   UNL     1      -4.782   0.036  17.868  1.00  0.00     0.054 A 
BRANCH  64  65
ATOM     65  S   UNL     1      -5.514  -0.981  19.179  1.00  0.00     0.124 S 
ATOM     66  O   UNL     1      -5.255  -2.333  18.689  1.00  0.00    -0.237 OA
ATOM     67  O   UNL     1      -4.752  -0.586  20.361  1.00  0.00    -0.237 OA
ATOM     68  O   UNL     1      -6.919  -0.578  19.185  1.00  0.00    -0.744 OA
ENDBRANCH  64  65
ENDBRANCH  45  59
BRANCH  46  69
ATOM     69  C   UNL     1       0.130   6.147   7.807  1.00  0.00    -0.014 A 
ATOM     70  C   UNL     1       1.294   6.931   7.870  1.00  0.00     0.010 A 
ATOM     71  C   UNL     1      -0.493   5.940   6.562  1.00  0.00     0.010 A 
ATOM     72  C   UNL     1       1.834   7.489   6.709  1.00  0.00     0.020 A 
ATOM     73  C   UNL     1       0.056   6.480   5.396  1.00  0.00     0.020 A 
ATOM     74  C   UNL     1       1.216   7.253   5.477  1.00  0.00     0.054 A 
BRANCH  74  75
ATOM     75  S   UNL     1       1.992   7.896   3.968  1.00  0.00     0.124 S 
ATOM     76  O   UNL     1       1.626   9.308   4.015  1.00  0.00    -0.237 OA
ATOM     77  O   UNL     1       3.406   7.601   4.188  1.00  0.00    -0.237 OA
ATOM     78  O   UNL     1       1.363   7.119   2.903  1.00  0.00    -0.744 OA
ENDBRANCH  74  75
ENDBRANCH  46  69
BRANCH  58  79
ATOM     79  C   UNL     1      -3.272   8.382  13.469  1.00  0.00    -0.014 A 
ATOM     80  C   UNL     1      -4.345   9.034  12.836  1.00  0.00     0.010 A 
ATOM     81  C   UNL     1      -2.620   9.017  14.542  1.00  0.00     0.010 A 
ATOM     82  C   UNL     1      -4.732  10.315  13.239  1.00  0.00     0.020 A 
ATOM     83  C   UNL     1      -3.020  10.288  14.964  1.00  0.00     0.020 A 
ATOM     84  C   UNL     1      -4.061  10.937  14.296  1.00  0.00     0.054 A 
BRANCH  84  85
ATOM     85  S   UNL     1      -4.585  12.595  14.814  1.00  0.00     0.124 S 
ATOM     86  O   UNL     1      -3.985  13.438  13.783  1.00  0.00    -0.237 OA
ATOM     87  O   UNL     1      -6.043  12.500  14.777  1.00  0.00    -0.237 OA
ATOM     88  O   UNL     1      -4.011  12.737  16.149  1.00  0.00    -0.744 OA
ENDBRANCH  84  85
ENDBRANCH  58  79
ENDBRANCH  32  33
ENDBRANCH  24  27
ENDBRANCH  22  23
ENDBRANCH   1  22
TORSDOF 17
