REMARK SMILES COc1ccc(-n2c(SCc3cn(-c4ccc(C(=O)NCCCNC(=O)c5ccc(-c6c7nc(c(-c8ccc(S(=O)(=O)[O-])cc8)c8ccc([nH]8)c(-c8ccc(S(=O)(=O)[O-])cc8)c8nc(c(-c9ccc(S(=O)(=O)[O-])cc9)c9ccc6[nH]9)C=C8)C=C7)cc5)cc4)nn3)nc3ccccc3c2=O)cc1
REMARK SMILES IDX 18 1 19 2 20 3 17 5 14 6 15 7 88 8 16 9 87 10 13 11 11 12
REMARK SMILES IDX 12 13 90 14 89 15 10 16 9 17 8 18 7 19 98 20 91 21 97 22
REMARK SMILES IDX 99 23 92 24 96 25 93 26 95 27 94 28 6 29 3 30 4 31 101 32
REMARK SMILES IDX 5 33 100 34 2 35 1 36 21 37 22 38 23 39 24 40 25 41 26 43
REMARK SMILES IDX 27 44 28 45 86 46 29 47 85 48 30 49 31 50 32 51 79 52 33 53
REMARK SMILES IDX 84 54 78 55 80 56 34 57 83 58 77 59 76 60 35 62 65 63 46 64
REMARK SMILES IDX 64 65 47 66 50 67 63 68 81 69 48 70 49 71 62 73 82 74 51 75
REMARK SMILES IDX 36 76 37 77 45 78 38 79 44 80 39 81 40 82 41 83 42 84 43 85
REMARK SMILES IDX 66 86 67 87 75 88 68 89 74 90 69 91 70 92 71 93 72 94 73 95
REMARK SMILES IDX 52 96 53 97 61 98 54 99 60 100 55 101 56 102 57 103 58 104
REMARK SMILES IDX 59 105
REMARK H PARENT 20 4 24 42 80 61 50 72
REMARK Flexibility Score: inf
ROOT
ATOM      1  C   UNL     1      -4.757   0.705  -4.775  1.00  0.00     0.251 C 
ATOM      2  O   UNL     1      -5.218   1.432  -5.653  1.00  0.00    -0.269 OA
ATOM      3  N   UNL     1      -5.629  -0.079  -4.061  1.00  0.00    -0.352 N 
ATOM      4  H   UNL     1      -6.578   0.130  -4.220  1.00  0.00     0.163 HD
ENDROOT
BRANCH   1   5
ATOM      5  C   UNL     1      -3.288   0.699  -4.552  1.00  0.00     0.039 A 
ATOM      6  C   UNL     1      -0.530   0.822  -4.219  1.00  0.00     0.066 A 
ATOM      7  C   UNL     1      -1.071   1.127  -5.466  1.00  0.00     0.029 A 
ATOM      8  C   UNL     1      -1.332   0.448  -3.148  1.00  0.00     0.029 A 
ATOM      9  C   UNL     1      -2.458   1.088  -5.619  1.00  0.00     0.016 A 
ATOM     10  C   UNL     1      -2.705   0.393  -3.321  1.00  0.00     0.016 A 
BRANCH   6  11
ATOM     11  N   UNL     1       0.852   0.806  -4.042  1.00  0.00    -0.220 N 
ATOM     12  C   UNL     1       2.848  -0.006  -3.797  1.00  0.00     0.093 A 
ATOM     13  C   UNL     1       1.666  -0.204  -4.473  1.00  0.00     0.141 A 
ATOM     14  N   UNL     1       2.716   1.095  -2.993  1.00  0.00    -0.134 NA
ATOM     15  N   UNL     1       1.473   1.538  -3.097  1.00  0.00    -0.062 NA
BRANCH  12  16
ATOM     16  C   UNL     1       4.090  -0.792  -3.734  1.00  0.00     0.138 C 
BRANCH  16  17
ATOM     17  S   UNL     1       4.520  -1.696  -5.205  1.00  0.00    -0.081 SA
BRANCH  17  18
ATOM     18  C   UNL     1       3.109  -2.709  -5.610  1.00  0.00     0.176 A 
ATOM     19  N   UNL     1       2.978  -3.853  -4.841  1.00  0.00    -0.255 N 
ATOM     20  C   UNL     1       3.346  -5.055  -5.431  1.00  0.00     0.266 A 
ATOM     21  N   UNL     1       2.838  -2.754  -6.881  1.00  0.00    -0.223 NA
ATOM     22  C   UNL     1       4.029  -4.868  -6.744  1.00  0.00     0.066 A 
ATOM     23  O   UNL     1       3.203  -6.178  -4.963  1.00  0.00    -0.268 OA
ATOM     24  C   UNL     1       3.643  -3.740  -7.489  1.00  0.00     0.079 A 
ATOM     25  C   UNL     1       5.175  -5.580  -7.082  1.00  0.00     0.016 A 
ATOM     26  C   UNL     1       4.331  -3.401  -8.652  1.00  0.00     0.029 A 
ATOM     27  C   UNL     1       5.925  -5.162  -8.186  1.00  0.00     0.001 A 
ATOM     28  C   UNL     1       5.489  -4.099  -8.986  1.00  0.00     0.002 A 
BRANCH  19  29
ATOM     29  C   UNL     1       2.234  -3.790  -3.638  1.00  0.00     0.052 A 
ATOM     30  C   UNL     1       0.963  -2.692  -1.412  1.00  0.00     0.119 A 
ATOM     31  C   UNL     1       0.211  -3.023  -2.538  1.00  0.00     0.048 A 
ATOM     32  C   UNL     1       2.300  -3.081  -1.332  1.00  0.00     0.048 A 
ATOM     33  C   UNL     1       0.852  -3.549  -3.666  1.00  0.00     0.030 A 
ATOM     34  C   UNL     1       2.931  -3.654  -2.438  1.00  0.00     0.030 A 
BRANCH  30  35
ATOM     35  O   UNL     1       0.346  -2.014  -0.397  1.00  0.00    -0.497 OA
ATOM     36  C   UNL     1       0.981  -0.760  -0.113  1.00  0.00     0.278 C 
ENDBRANCH  30  35
ENDBRANCH  19  29
ENDBRANCH  17  18
ENDBRANCH  16  17
ENDBRANCH  12  16
ENDBRANCH   6  11
ENDBRANCH   1   5
BRANCH   3  37
ATOM     37  C   UNL     1      -5.412  -1.163  -3.112  1.00  0.00     0.118 C 
BRANCH  37  38
ATOM     38  C   UNL     1      -5.523  -0.710  -1.647  1.00  0.00     0.042 C 
BRANCH  38  39
ATOM     39  C   UNL     1      -6.960  -0.529  -1.206  1.00  0.00     0.118 C 
BRANCH  39  40
ATOM     40  N   UNL     1      -7.696  -1.794  -1.084  1.00  0.00    -0.352 N 
ATOM     41  C   UNL     1      -9.027  -2.017  -0.730  1.00  0.00     0.251 C 
ATOM     42  H   UNL     1      -7.174  -2.604  -1.282  1.00  0.00     0.163 HD
ATOM     43  O   UNL     1      -9.386  -3.110  -0.341  1.00  0.00    -0.269 OA
BRANCH  41  44
ATOM     44  C   UNL     1      -9.992  -0.902  -0.846  1.00  0.00     0.039 A 
ATOM     45  C   UNL     1     -11.132  -0.746  -0.049  1.00  0.00     0.014 A 
ATOM     46  C   UNL     1      -9.706   0.053  -1.790  1.00  0.00     0.014 A 
ATOM     47  C   UNL     1     -11.942   0.374  -0.272  1.00  0.00     0.010 A 
ATOM     48  C   UNL     1     -10.146   1.302  -1.530  1.00  0.00     0.010 A 
ATOM     49  C   UNL     1     -11.439   1.388  -1.085  1.00  0.00    -0.014 A 
BRANCH  49  50
ATOM     50  C   UNL     1     -12.117   2.613  -1.464  1.00  0.00     0.031 A 
ATOM     51  C   UNL     1     -12.260   3.571  -0.352  1.00  0.00     0.074 A 
ATOM     52  C   UNL     1     -12.278   2.972  -2.761  1.00  0.00     0.049 A 
ATOM     53  N   UNL     1     -13.322   3.794   0.341  1.00  0.00    -0.248 NA
ATOM     54  C   UNL     1     -11.042   4.188   0.200  1.00  0.00     0.031 C 
ATOM     55  C   UNL     1     -11.822   2.289  -3.983  1.00  0.00     0.029 A 
ATOM     56  N   UNL     1     -12.799   4.123  -3.259  1.00  0.00    -0.354 N 
ATOM     57  C   UNL     1     -12.965   4.769   1.261  1.00  0.00     0.074 A 
ATOM     58  C   UNL     1     -11.525   4.763   1.303  1.00  0.00     0.031 C 
ATOM     59  C   UNL     1     -11.885   3.142  -5.035  1.00  0.00     0.029 A 
ATOM     60  C   UNL     1     -12.522   4.373  -4.600  1.00  0.00     0.049 A 
ATOM     61  H   UNL     1     -13.335   4.738  -2.709  1.00  0.00     0.167 HD
ATOM     62  C   UNL     1     -13.862   5.695   1.698  1.00  0.00     0.031 A 
ATOM     63  C   UNL     1     -12.763   5.532  -5.271  1.00  0.00     0.031 A 
ATOM     64  C   UNL     1     -15.187   5.402   1.206  1.00  0.00     0.049 A 
ATOM     65  C   UNL     1     -13.775   6.279  -4.472  1.00  0.00     0.074 A 
ATOM     66  C   UNL     1     -16.055   4.338   1.344  1.00  0.00     0.029 A 
ATOM     67  N   UNL     1     -15.584   6.081   0.072  1.00  0.00    -0.354 N 
ATOM     68  N   UNL     1     -14.994   5.848  -4.289  1.00  0.00    -0.248 NA
ATOM     69  C   UNL     1     -13.295   7.214  -3.462  1.00  0.00     0.031 C 
ATOM     70  C   UNL     1     -16.615   4.154   0.046  1.00  0.00     0.029 A 
ATOM     71  C   UNL     1     -16.141   5.169  -0.791  1.00  0.00     0.049 A 
ATOM     72  H   UNL     1     -15.486   7.047  -0.090  1.00  0.00     0.167 HD
ATOM     73  C   UNL     1     -15.264   6.088  -2.947  1.00  0.00     0.074 A 
ATOM     74  C   UNL     1     -14.220   7.019  -2.514  1.00  0.00     0.031 C 
ATOM     75  C   UNL     1     -16.111   5.282  -2.237  1.00  0.00     0.031 A 
BRANCH  62  76
ATOM     76  C   UNL     1     -13.504   7.064   2.213  1.00  0.00    -0.014 A 
ATOM     77  C   UNL     1     -14.539   7.877   2.715  1.00  0.00     0.010 A 
ATOM     78  C   UNL     1     -12.251   7.676   2.007  1.00  0.00     0.010 A 
ATOM     79  C   UNL     1     -14.351   9.248   2.924  1.00  0.00     0.020 A 
ATOM     80  C   UNL     1     -12.040   9.033   2.253  1.00  0.00     0.020 A 
ATOM     81  C   UNL     1     -13.103   9.818   2.675  1.00  0.00     0.054 A 
BRANCH  81  82
ATOM     82  S   UNL     1     -12.903  11.607   2.840  1.00  0.00     0.124 S 
ATOM     83  O   UNL     1     -13.766  12.105   1.773  1.00  0.00    -0.237 OA
ATOM     84  O   UNL     1     -13.372  11.846   4.201  1.00  0.00    -0.237 OA
ATOM     85  O   UNL     1     -11.470  11.811   2.633  1.00  0.00    -0.744 OA
ENDBRANCH  81  82
ENDBRANCH  62  76
BRANCH  63  86
ATOM     86  C   UNL     1     -11.957   6.160  -6.354  1.00  0.00    -0.014 A 
ATOM     87  C   UNL     1     -12.449   7.242  -7.111  1.00  0.00     0.010 A 
ATOM     88  C   UNL     1     -10.579   5.871  -6.462  1.00  0.00     0.010 A 
ATOM     89  C   UNL     1     -11.586   8.041  -7.889  1.00  0.00     0.020 A 
ATOM     90  C   UNL     1      -9.716   6.659  -7.237  1.00  0.00     0.020 A 
ATOM     91  C   UNL     1     -10.218   7.758  -7.928  1.00  0.00     0.054 A 
BRANCH  91  92
ATOM     92  S   UNL     1      -9.082   8.904  -8.769  1.00  0.00     0.124 S 
ATOM     93  O   UNL     1      -9.394   8.679 -10.177  1.00  0.00    -0.237 OA
ATOM     94  O   UNL     1      -9.484  10.202  -8.233  1.00  0.00    -0.237 OA
ATOM     95  O   UNL     1      -7.758   8.450  -8.347  1.00  0.00    -0.744 OA
ENDBRANCH  91  92
ENDBRANCH  63  86
BRANCH  75  96
ATOM     96  C   UNL     1     -16.935   4.259  -2.994  1.00  0.00    -0.014 A 
ATOM     97  C   UNL     1     -16.381   3.188  -3.725  1.00  0.00     0.010 A 
ATOM     98  C   UNL     1     -18.326   4.280  -2.798  1.00  0.00     0.010 A 
ATOM     99  C   UNL     1     -17.200   2.180  -4.261  1.00  0.00     0.020 A 
ATOM    100  C   UNL     1     -19.145   3.271  -3.311  1.00  0.00     0.020 A 
ATOM    101  C   UNL     1     -18.581   2.231  -4.048  1.00  0.00     0.054 A 
BRANCH 101 102
ATOM    102  S   UNL     1     -19.638   0.905  -4.699  1.00  0.00     0.124 S 
ATOM    103  O   UNL     1     -19.578   1.132  -6.141  1.00  0.00    -0.237 OA
ATOM    104  O   UNL     1     -18.974  -0.306  -4.224  1.00  0.00    -0.237 OA
ATOM    105  O   UNL     1     -20.940   1.167  -4.087  1.00  0.00    -0.744 OA
ENDBRANCH 101 102
ENDBRANCH  75  96
ENDBRANCH  49  50
ENDBRANCH  41  44
ENDBRANCH  39  40
ENDBRANCH  38  39
ENDBRANCH  37  38
ENDBRANCH   3  37
TORSDOF 19
