REMARK SMILES Cc1cc(Cl)c(C)c2c1O[C@H](C(F)(F)F)C(C(=O)NCCCNC(=O)c1ccc(-c3c4nc(c(-c5ccc(S(=O)(=O)[O-])cc5)c5ccc([nH]5)c(-c5ccc(S(=O)(=O)[O-])cc5)c5nc(c(-c6ccc(S(=O)(=O)[O-])cc6)c6ccc3[nH]6)C=C5)C=C4)cc1)=C2
REMARK SMILES IDX 22 1 21 2 20 3 19 4 17 5 18 6 16 8 1 9 2 10 3 11 9 12 4 13
REMARK SMILES IDX 8 14 10 15 5 16 6 17 86 18 11 19 7 20 12 21 13 22 14 23
REMARK SMILES IDX 15 24 23 25 24 26 25 28 26 29 27 30 85 31 28 32 84 33 29 34
REMARK SMILES IDX 30 35 31 36 78 37 32 38 83 39 77 40 79 41 33 42 82 43 76 44
REMARK SMILES IDX 75 45 34 47 64 48 45 49 63 50 46 51 49 52 62 53 80 54 47 55
REMARK SMILES IDX 48 56 61 58 81 59 50 60 35 61 36 62 44 63 37 64 43 65 38 66
REMARK SMILES IDX 39 67 40 68 41 69 42 70 65 71 66 72 74 73 67 74 73 75 68 76
REMARK SMILES IDX 69 77 70 78 71 79 72 80 51 81 52 82 60 83 53 84 59 85 54 86
REMARK SMILES IDX 55 87 56 88 57 89 58 90
REMARK H PARENT 19 7 23 27 79 46 49 57
REMARK Flexibility Score: inf
ROOT
ATOM      1  C   UNL     1       8.180  -5.117   1.131  1.00  0.00     0.118 C 
ENDROOT
BRANCH   1   2
ATOM      2  C   UNL     1       7.071  -4.091   0.934  1.00  0.00     0.042 C 
BRANCH   2   3
ATOM      3  C   UNL     1       6.271  -4.350  -0.333  1.00  0.00     0.118 C 
BRANCH   3   4
ATOM      4  N   UNL     1       5.317  -5.436  -0.161  1.00  0.00    -0.352 N 
ATOM      5  C   UNL     1       3.976  -5.570  -0.043  1.00  0.00     0.251 C 
ATOM      6  O   UNL     1       3.570  -6.730   0.080  1.00  0.00    -0.270 OA
ATOM      7  H   UNL     1       5.770  -6.309  -0.120  1.00  0.00     0.163 HD
BRANCH   5   8
ATOM      8  C   UNL     1       2.999  -4.444  -0.063  1.00  0.00     0.067 C 
ATOM      9  C   UNL     1       0.633   0.114   0.098  1.00  0.00     0.048 C 
ATOM     10  C   UNL     1       0.197  -1.325   0.107  1.00  0.00    -0.007 A 
ATOM     11  C   UNL     1      -1.168  -1.621   0.099  1.00  0.00     0.028 A 
ATOM     12  C   UNL     1       1.107  -2.386   0.113  1.00  0.00     0.131 A 
ATOM     13  C   UNL     1      -1.616  -2.948   0.102  1.00  0.00     0.045 A 
ATOM     14  C   UNL     1       0.678  -3.726   0.118  1.00  0.00     0.022 A 
ATOM     15  O   UNL     1       2.430  -2.049   0.167  1.00  0.00    -0.475 OA
ATOM     16  Cl  UNL     1      -3.331  -3.179   0.097  1.00  0.00    -0.084 Cl
ATOM     17  C   UNL     1      -0.706  -4.023   0.110  1.00  0.00    -0.021 A 
ATOM     18  C   UNL     1       1.712  -4.769   0.162  1.00  0.00     0.026 C 
ATOM     19  C   UNL     1       3.371  -3.022  -0.342  1.00  0.00     0.314 C 
ATOM     20  C   UNL     1      -1.173  -5.457   0.114  1.00  0.00     0.047 C 
BRANCH  19  21
ATOM     21  C   UNL     1       3.639  -2.755  -1.835  1.00  0.00     0.429 C 
ATOM     22  F   UNL     1       4.320  -1.594  -1.996  1.00  0.00    -0.167 F 
ATOM     23  F   UNL     1       4.391  -3.724  -2.411  1.00  0.00    -0.167 F 
ATOM     24  F   UNL     1       2.503  -2.663  -2.563  1.00  0.00    -0.167 F 
ENDBRANCH  19  21
ENDBRANCH   5   8
ENDBRANCH   3   4
ENDBRANCH   2   3
ENDBRANCH   1   2
BRANCH   1  25
ATOM     25  N   UNL     1       9.172  -5.050   0.060  1.00  0.00    -0.352 N 
ATOM     26  C   UNL     1      10.440  -4.528   0.064  1.00  0.00     0.251 C 
ATOM     27  H   UNL     1       8.885  -5.439  -0.797  1.00  0.00     0.163 HD
ATOM     28  O   UNL     1      11.005  -4.295  -1.003  1.00  0.00    -0.269 OA
BRANCH  26  29
ATOM     29  C   UNL     1      11.119  -4.251   1.343  1.00  0.00     0.039 A 
ATOM     30  C   UNL     1      11.902  -3.103   1.475  1.00  0.00     0.014 A 
ATOM     31  C   UNL     1      10.999  -5.147   2.408  1.00  0.00     0.014 A 
ATOM     32  C   UNL     1      12.514  -2.825   2.698  1.00  0.00     0.010 A 
ATOM     33  C   UNL     1      11.519  -4.817   3.651  1.00  0.00     0.010 A 
ATOM     34  C   UNL     1      12.299  -3.664   3.804  1.00  0.00    -0.014 A 
BRANCH  34  35
ATOM     35  C   UNL     1      12.913  -3.381   5.122  1.00  0.00     0.031 A 
ATOM     36  C   UNL     1      13.899  -4.355   5.709  1.00  0.00     0.074 A 
ATOM     37  C   UNL     1      12.545  -2.281   5.807  1.00  0.00     0.049 A 
ATOM     38  N   UNL     1      14.506  -4.313   6.866  1.00  0.00    -0.248 NA
ATOM     39  C   UNL     1      14.225  -5.546   4.904  1.00  0.00     0.031 C 
ATOM     40  C   UNL     1      11.570  -1.286   5.352  1.00  0.00     0.029 A 
ATOM     41  N   UNL     1      12.951  -1.811   7.030  1.00  0.00    -0.354 N 
ATOM     42  C   UNL     1      15.273  -5.470   6.930  1.00  0.00     0.074 A 
ATOM     43  C   UNL     1      15.004  -6.228   5.729  1.00  0.00     0.031 C 
ATOM     44  C   UNL     1      11.489  -0.302   6.262  1.00  0.00     0.029 A 
ATOM     45  C   UNL     1      12.370  -0.616   7.383  1.00  0.00     0.049 A 
ATOM     46  H   UNL     1      13.598  -2.285   7.601  1.00  0.00     0.167 HD
ATOM     47  C   UNL     1      16.150  -5.853   7.887  1.00  0.00     0.031 A 
ATOM     48  C   UNL     1      12.532   0.142   8.484  1.00  0.00     0.031 A 
ATOM     49  C   UNL     1      16.427  -5.084   9.068  1.00  0.00     0.049 A 
ATOM     50  C   UNL     1      13.493  -0.316   9.547  1.00  0.00     0.074 A 
ATOM     51  C   UNL     1      17.331  -5.357  10.079  1.00  0.00     0.029 A 
ATOM     52  N   UNL     1      15.807  -3.888   9.395  1.00  0.00    -0.354 N 
ATOM     53  N   UNL     1      14.250  -1.388   9.564  1.00  0.00    -0.248 NA
ATOM     54  C   UNL     1      13.626   0.537  10.735  1.00  0.00     0.031 C 
ATOM     55  C   UNL     1      17.219  -4.353  11.044  1.00  0.00     0.029 A 
ATOM     56  C   UNL     1      16.289  -3.422  10.605  1.00  0.00     0.049 A 
ATOM     57  H   UNL     1      15.124  -3.436   8.848  1.00  0.00     0.167 HD
ATOM     58  C   UNL     1      14.964  -1.327  10.755  1.00  0.00     0.074 A 
ATOM     59  C   UNL     1      14.561  -0.106  11.422  1.00  0.00     0.031 C 
ATOM     60  C   UNL     1      15.870  -2.205  11.252  1.00  0.00     0.031 A 
BRANCH  47  61
ATOM     61  C   UNL     1      16.882  -7.152   7.684  1.00  0.00    -0.014 A 
ATOM     62  C   UNL     1      17.861  -7.280   6.681  1.00  0.00     0.010 A 
ATOM     63  C   UNL     1      16.625  -8.245   8.532  1.00  0.00     0.010 A 
ATOM     64  C   UNL     1      18.544  -8.486   6.507  1.00  0.00     0.020 A 
ATOM     65  C   UNL     1      17.328  -9.444   8.381  1.00  0.00     0.020 A 
ATOM     66  C   UNL     1      18.274  -9.560   7.360  1.00  0.00     0.054 A 
BRANCH  66  67
ATOM     67  S   UNL     1      19.204 -11.100   7.130  1.00  0.00     0.124 S 
ATOM     68  O   UNL     1      18.665 -11.591   5.864  1.00  0.00    -0.237 OA
ATOM     69  O   UNL     1      20.587 -10.633   7.085  1.00  0.00    -0.237 OA
ATOM     70  O   UNL     1      18.855 -11.896   8.305  1.00  0.00    -0.744 OA
ENDBRANCH  66  67
ENDBRANCH  47  61
BRANCH  48  71
ATOM     71  C   UNL     1      11.790   1.426   8.617  1.00  0.00    -0.014 A 
ATOM     72  C   UNL     1      12.471   2.652   8.520  1.00  0.00     0.010 A 
ATOM     73  C   UNL     1      10.396   1.432   8.805  1.00  0.00     0.010 A 
ATOM     74  C   UNL     1      11.774   3.860   8.618  1.00  0.00     0.020 A 
ATOM     75  C   UNL     1       9.691   2.638   8.876  1.00  0.00     0.020 A 
ATOM     76  C   UNL     1      10.387   3.845   8.789  1.00  0.00     0.054 A 
BRANCH  76  77
ATOM     77  S   UNL     1       9.500   5.427   8.851  1.00  0.00     0.124 S 
ATOM     78  O   UNL     1       9.932   5.969  10.135  1.00  0.00    -0.237 OA
ATOM     79  O   UNL     1      10.008   6.117   7.668  1.00  0.00    -0.237 OA
ATOM     80  O   UNL     1       8.094   5.034   8.778  1.00  0.00    -0.744 OA
ENDBRANCH  76  77
ENDBRANCH  48  71
BRANCH  60  81
ATOM     81  C   UNL     1      16.501  -1.878  12.578  1.00  0.00    -0.014 A 
ATOM     82  C   UNL     1      15.773  -2.005  13.774  1.00  0.00     0.010 A 
ATOM     83  C   UNL     1      17.865  -1.536  12.635  1.00  0.00     0.010 A 
ATOM     84  C   UNL     1      16.396  -1.780  15.004  1.00  0.00     0.020 A 
ATOM     85  C   UNL     1      18.497  -1.338  13.864  1.00  0.00     0.020 A 
ATOM     86  C   UNL     1      17.756  -1.456  15.041  1.00  0.00     0.054 A 
BRANCH  86  87
ATOM     87  S   UNL     1      18.552  -1.240  16.656  1.00  0.00     0.124 S 
ATOM     88  O   UNL     1      17.960   0.011  17.123  1.00  0.00    -0.237 OA
ATOM     89  O   UNL     1      18.136  -2.440  17.378  1.00  0.00    -0.237 OA
ATOM     90  O   UNL     1      19.976  -1.174  16.336  1.00  0.00    -0.744 OA
ENDBRANCH  86  87
ENDBRANCH  60  81
ENDBRANCH  34  35
ENDBRANCH  26  29
ENDBRANCH   1  25
TORSDOF 14
