REMARK SMILES C/C(=C/C[NH+]1C[C@@H](C)[C@H](C)C1)C(=O)NCCCNC(=O)c1ccc(-c2c3nc(c(-c4ccc(S(=O)(=O)[O-])cc4)c4ccc([nH]4)c(-c4ccc(S(=O)(=O)[O-])cc4)c4nc(c(-c5ccc(S(=O)(=O)[O-])cc5)c5ccc2[nH]5)C=C4)C=C3)cc1
REMARK SMILES IDX 16 1 15 2 14 3 12 4 13 5 2 7 1 8 3 9 4 10 5 11 6 12 11 13
REMARK SMILES IDX 7 15 9 16 8 17 10 18 17 19 18 20 19 21 20 23 21 24 22 25
REMARK SMILES IDX 80 26 23 27 79 28 24 29 25 30 26 31 73 32 27 33 78 34 72 35
REMARK SMILES IDX 74 36 28 37 77 38 71 39 70 40 29 42 59 43 40 44 58 45 41 46
REMARK SMILES IDX 44 47 57 48 75 49 42 50 43 51 56 53 76 54 45 55 30 56 31 57
REMARK SMILES IDX 39 58 32 59 38 60 33 61 34 62 35 63 36 64 37 65 60 66 61 67
REMARK SMILES IDX 69 68 62 69 68 70 63 71 64 72 65 73 66 74 67 75 46 76 47 77
REMARK SMILES IDX 55 78 48 79 54 80 49 81 50 82 51 83 52 84 53 85
REMARK H PARENT 14 6 5 14 18 22 74 41 44 52
REMARK Flexibility Score: inf
ROOT
ATOM      1  C   UNL     1      -1.254  -0.257  -4.951  1.00  0.00     0.042 C 
ENDROOT
BRANCH   1   2
ATOM      2  C   UNL     1       0.193  -0.327  -4.465  1.00  0.00     0.118 C 
BRANCH   2   3
ATOM      3  N   UNL     1       0.511   0.805  -3.627  1.00  0.00    -0.352 N 
ATOM      4  C   UNL     1       0.551   1.010  -2.295  1.00  0.00     0.246 C 
ATOM      5  O   UNL     1       0.892   2.151  -1.955  1.00  0.00    -0.270 OA
ATOM      6  H   UNL     1       0.754   1.607  -4.145  1.00  0.00     0.163 HD
BRANCH   4   7
ATOM      7  C   UNL     1       0.328  -0.017  -1.214  1.00  0.00     0.015 C 
ATOM      8  C   UNL     1       1.058   0.413   0.054  1.00  0.00     0.050 C 
ATOM      9  C   UNL     1      -0.366  -1.169  -1.117  1.00  0.00     0.042 C 
BRANCH   9  10
ATOM     10  C   UNL     1      -1.236  -2.009  -2.001  1.00  0.00     0.291 C 
BRANCH  10  11
ATOM     11  N   UNL     1      -0.513  -3.078  -2.691  1.00  0.00    -0.331 N 
ATOM     12  C   UNL     1       0.684  -3.593  -2.030  1.00  0.00     0.266 C 
ATOM     13  C   UNL     1      -1.346  -4.217  -3.100  1.00  0.00     0.266 C 
ATOM     14  H   UNL     1      -0.203  -2.568  -3.518  1.00  0.00     0.348 HD
ATOM     15  C   UNL     1       0.929  -4.917  -2.734  1.00  0.00     0.049 C 
ATOM     16  C   UNL     1      -0.492  -5.468  -2.834  1.00  0.00     0.049 C 
ATOM     17  C   UNL     1       1.898  -5.794  -1.957  1.00  0.00     0.014 C 
ATOM     18  C   UNL     1      -0.656  -6.551  -3.887  1.00  0.00     0.014 C 
ENDBRANCH  10  11
ENDBRANCH   9  10
ENDBRANCH   4   7
ENDBRANCH   2   3
ENDBRANCH   1   2
BRANCH   1  19
ATOM     19  C   UNL     1      -1.448   0.633  -6.175  1.00  0.00     0.118 C 
BRANCH  19  20
ATOM     20  N   UNL     1      -0.954   0.003  -7.391  1.00  0.00    -0.352 N 
ATOM     21  C   UNL     1      -1.601  -0.280  -8.569  1.00  0.00     0.251 C 
ATOM     22  H   UNL     1      -0.006  -0.263  -7.364  1.00  0.00     0.163 HD
ATOM     23  O   UNL     1      -1.051  -1.009  -9.390  1.00  0.00    -0.269 OA
BRANCH  21  24
ATOM     24  C   UNL     1      -2.950   0.265  -8.857  1.00  0.00     0.039 A 
ATOM     25  C   UNL     1      -3.868  -0.544  -9.537  1.00  0.00     0.014 A 
ATOM     26  C   UNL     1      -3.303   1.575  -8.521  1.00  0.00     0.014 A 
ATOM     27  C   UNL     1      -5.145  -0.059  -9.836  1.00  0.00     0.010 A 
ATOM     28  C   UNL     1      -4.599   2.034  -8.758  1.00  0.00     0.010 A 
ATOM     29  C   UNL     1      -5.532   1.226  -9.427  1.00  0.00    -0.014 A 
BRANCH  29  30
ATOM     30  C   UNL     1      -6.899   1.746  -9.696  1.00  0.00     0.031 A 
ATOM     31  C   UNL     1      -7.092   2.941 -10.594  1.00  0.00     0.074 A 
ATOM     32  C   UNL     1      -7.960   1.189  -9.077  1.00  0.00     0.049 A 
ATOM     33  N   UNL     1      -8.193   3.590 -10.876  1.00  0.00    -0.248 NA
ATOM     34  C   UNL     1      -5.888   3.498 -11.235  1.00  0.00     0.031 C 
ATOM     35  C   UNL     1      -7.901   0.061  -8.143  1.00  0.00     0.029 A 
ATOM     36  N   UNL     1      -9.294   1.509  -9.123  1.00  0.00    -0.354 N 
ATOM     37  C   UNL     1      -7.811   4.649 -11.693  1.00  0.00     0.074 A 
ATOM     38  C   UNL     1      -6.375   4.572 -11.842  1.00  0.00     0.031 C 
ATOM     39  C   UNL     1      -9.142  -0.220  -7.713  1.00  0.00     0.029 A 
ATOM     40  C   UNL     1     -10.080   0.726  -8.310  1.00  0.00     0.049 A 
ATOM     41  H   UNL     1      -9.655   2.232  -9.685  1.00  0.00     0.167 HD
ATOM     42  C   UNL     1      -8.588   5.593 -12.276  1.00  0.00     0.031 A 
ATOM     43  C   UNL     1     -11.403   0.770  -8.060  1.00  0.00     0.031 A 
ATOM     44  C   UNL     1     -10.022   5.640 -12.165  1.00  0.00     0.049 A 
ATOM     45  C   UNL     1     -12.248   1.801  -8.758  1.00  0.00     0.074 A 
ATOM     46  C   UNL     1     -10.904   6.501 -12.795  1.00  0.00     0.029 A 
ATOM     47  N   UNL     1     -10.784   4.793 -11.377  1.00  0.00    -0.354 N 
ATOM     48  N   UNL     1     -11.876   2.740  -9.595  1.00  0.00    -0.248 NA
ATOM     49  C   UNL     1     -13.693   1.772  -8.488  1.00  0.00     0.031 C 
ATOM     50  C   UNL     1     -12.197   6.201 -12.355  1.00  0.00     0.029 A 
ATOM     51  C   UNL     1     -12.123   5.123 -11.488  1.00  0.00     0.049 A 
ATOM     52  H   UNL     1     -10.426   4.063 -10.820  1.00  0.00     0.167 HD
ATOM     53  C   UNL     1     -13.043   3.395  -9.970  1.00  0.00     0.074 A 
ATOM     54  C   UNL     1     -14.134   2.736  -9.283  1.00  0.00     0.031 C 
ATOM     55  C   UNL     1     -13.197   4.450 -10.806  1.00  0.00     0.031 A 
BRANCH  42  56
ATOM     56  C   UNL     1      -7.912   6.661 -13.094  1.00  0.00    -0.014 A 
ATOM     57  C   UNL     1      -7.377   6.377 -14.362  1.00  0.00     0.010 A 
ATOM     58  C   UNL     1      -7.889   7.987 -12.622  1.00  0.00     0.010 A 
ATOM     59  C   UNL     1      -6.811   7.394 -15.135  1.00  0.00     0.020 A 
ATOM     60  C   UNL     1      -7.345   9.011 -13.401  1.00  0.00     0.020 A 
ATOM     61  C   UNL     1      -6.800   8.706 -14.650  1.00  0.00     0.054 A 
BRANCH  61  62
ATOM     62  S   UNL     1      -6.112  10.017 -15.699  1.00  0.00     0.124 S 
ATOM     63  O   UNL     1      -4.676   9.767 -15.590  1.00  0.00    -0.237 OA
ATOM     64  O   UNL     1      -6.702   9.728 -17.003  1.00  0.00    -0.237 OA
ATOM     65  O   UNL     1      -6.579  11.248 -15.067  1.00  0.00    -0.744 OA
ENDBRANCH  61  62
ENDBRANCH  42  56
BRANCH  43  66
ATOM     66  C   UNL     1     -12.017  -0.187  -7.100  1.00  0.00    -0.014 A 
ATOM     67  C   UNL     1     -12.860  -1.217  -7.554  1.00  0.00     0.010 A 
ATOM     68  C   UNL     1     -11.773  -0.062  -5.720  1.00  0.00     0.010 A 
ATOM     69  C   UNL     1     -13.474  -2.083  -6.644  1.00  0.00     0.020 A 
ATOM     70  C   UNL     1     -12.363  -0.943  -4.810  1.00  0.00     0.020 A 
ATOM     71  C   UNL     1     -13.225  -1.937  -5.277  1.00  0.00     0.054 A 
BRANCH  71  72
ATOM     72  S   UNL     1     -14.009  -3.086  -4.111  1.00  0.00     0.124 S 
ATOM     73  O   UNL     1     -15.367  -2.558  -4.034  1.00  0.00    -0.237 OA
ATOM     74  O   UNL     1     -13.868  -4.373  -4.787  1.00  0.00    -0.237 OA
ATOM     75  O   UNL     1     -13.208  -2.938  -2.898  1.00  0.00    -0.744 OA
ENDBRANCH  71  72
ENDBRANCH  43  66
BRANCH  55  76
ATOM     76  C   UNL     1     -14.598   4.938 -11.056  1.00  0.00    -0.014 A 
ATOM     77  C   UNL     1     -15.297   5.669 -10.080  1.00  0.00     0.010 A 
ATOM     78  C   UNL     1     -15.200   4.708 -12.306  1.00  0.00     0.010 A 
ATOM     79  C   UNL     1     -16.587   6.138 -10.341  1.00  0.00     0.020 A 
ATOM     80  C   UNL     1     -16.479   5.196 -12.579  1.00  0.00     0.020 A 
ATOM     81  C   UNL     1     -17.171   5.897 -11.589  1.00  0.00     0.054 A 
BRANCH  81  82
ATOM     82  S   UNL     1     -18.828   6.554 -11.922  1.00  0.00     0.124 S 
ATOM     83  O   UNL     1     -19.678   5.620 -11.189  1.00  0.00    -0.237 OA
ATOM     84  O   UNL     1     -18.757   7.905 -11.370  1.00  0.00    -0.237 OA
ATOM     85  O   UNL     1     -18.940   6.488 -13.377  1.00  0.00    -0.744 OA
ENDBRANCH  81  82
ENDBRANCH  55  76
ENDBRANCH  29  30
ENDBRANCH  21  24
ENDBRANCH  19  20
ENDBRANCH   1  19
TORSDOF 15
