REMARK SMILES CN1C(=O)Cc2cc([C@@H](O)CCCCC(=O)NCCCNC(=O)c3ccc(-c4c5nc(c(-c6ccc(S(=O)(=O)[O-])cc6)c6ccc([nH]6)c(-c6ccc(S(=O)(=O)[O-])cc6)c6nc(c(-c7ccc(S(=O)(=O)[O-])cc7)c7ccc4[nH]7)C=C6)C=C5)cc3)ccc21
REMARK SMILES IDX 18 1 17 2 15 3 16 4 14 6 13 7 12 8 11 9 9 10 8 11 1 12 2 13
REMARK SMILES IDX 3 14 86 15 4 16 5 17 6 18 85 19 7 20 84 21 10 22 19 24 20 25
REMARK SMILES IDX 21 26 22 27 23 29 24 30 25 31 83 32 26 33 82 34 27 35 28 36
REMARK SMILES IDX 29 37 76 38 30 39 81 40 75 41 77 42 31 43 80 44 74 45 73 46
REMARK SMILES IDX 32 48 62 49 43 50 61 51 44 52 47 53 60 54 78 55 45 56 46 57
REMARK SMILES IDX 59 59 79 60 48 61 33 62 34 63 42 64 35 65 41 66 36 67 37 68
REMARK SMILES IDX 38 69 39 70 40 71 63 72 64 73 72 74 65 75 71 76 66 77 67 78
REMARK SMILES IDX 68 79 69 80 70 81 49 82 50 83 58 84 51 85 57 86 52 87 53 88
REMARK SMILES IDX 54 89 55 90 56 91
REMARK H PARENT 17 5 10 23 21 28 77 47 47 58
REMARK Flexibility Score: inf
ROOT
ATOM      1  C   UNL     1       5.774   3.174   3.525  1.00  0.00     0.117 C 
ENDROOT
BRANCH   1   2
ATOM      2  N   UNL     1       6.488   2.231   4.367  1.00  0.00    -0.356 N 
ATOM      3  C   UNL     1       6.990   0.997   4.088  1.00  0.00     0.219 C 
ATOM      4  O   UNL     1       7.518   0.365   5.005  1.00  0.00    -0.275 OA
ATOM      5  H   UNL     1       6.635   2.535   5.292  1.00  0.00     0.163 HD
BRANCH   3   6
ATOM      6  C   UNL     1       6.939   0.423   2.684  1.00  0.00     0.100 C 
BRANCH   6   7
ATOM      7  C   UNL     1       5.706  -0.434   2.386  1.00  0.00     0.010 C 
BRANCH   7   8
ATOM      8  C   UNL     1       4.434   0.321   2.015  1.00  0.00     0.004 C 
BRANCH   8   9
ATOM      9  C   UNL     1       4.544   1.257   0.802  1.00  0.00     0.037 C 
BRANCH   9  10
ATOM     10  C   UNL     1       4.172   0.607  -0.532  1.00  0.00     0.144 C 
BRANCH  10  11
ATOM     11  C   UNL     1       2.717   0.193  -0.545  1.00  0.00    -0.019 A 
ATOM     12  C   UNL     1      -1.953  -2.038   0.061  1.00  0.00     0.153 C 
ATOM     13  N   UNL     1      -1.281  -0.772  -0.050  1.00  0.00    -0.315 N 
ATOM     14  C   UNL     1      -1.921   0.468   0.031  1.00  0.00     0.231 C 
ATOM     15  C   UNL     1       0.092  -0.621  -0.238  1.00  0.00     0.047 A 
ATOM     16  O   UNL     1      -3.105   0.683   0.200  1.00  0.00    -0.274 OA
ATOM     17  C   UNL     1      -0.846   1.546  -0.123  1.00  0.00     0.138 C 
ATOM     18  C   UNL     1       0.400   0.736  -0.304  1.00  0.00    -0.014 A 
ATOM     19  C   UNL     1       1.064  -1.597  -0.335  1.00  0.00     0.027 A 
ATOM     20  C   UNL     1       1.701   1.163  -0.470  1.00  0.00     0.012 A 
ATOM     21  C   UNL     1       2.386  -1.180  -0.493  1.00  0.00     0.008 A 
ENDBRANCH  10  11
BRANCH  10  22
ATOM     22  O   UNL     1       4.429   1.543  -1.578  1.00  0.00    -0.388 OA
ATOM     23  H   UNL     1       3.892   2.339  -1.439  1.00  0.00     0.211 HD
ENDBRANCH  10  22
ENDBRANCH   9  10
ENDBRANCH   8   9
ENDBRANCH   7   8
ENDBRANCH   6   7
ENDBRANCH   3   6
ENDBRANCH   1   2
BRANCH   1  24
ATOM     24  C   UNL     1       4.298   3.252   3.906  1.00  0.00     0.042 C 
BRANCH  24  25
ATOM     25  C   UNL     1       4.005   4.213   5.043  1.00  0.00     0.118 C 
BRANCH  25  26
ATOM     26  N   UNL     1       4.087   5.602   4.627  1.00  0.00    -0.352 N 
ATOM     27  C   UNL     1       3.133   6.590   4.667  1.00  0.00     0.251 C 
ATOM     28  H   UNL     1       4.959   5.878   4.261  1.00  0.00     0.163 HD
ATOM     29  O   UNL     1       3.347   7.649   4.084  1.00  0.00    -0.269 OA
BRANCH  27  30
ATOM     30  C   UNL     1       1.850   6.380   5.380  1.00  0.00     0.039 A 
ATOM     31  C   UNL     1       0.684   6.937   4.846  1.00  0.00     0.014 A 
ATOM     32  C   UNL     1       1.786   5.664   6.578  1.00  0.00     0.014 A 
ATOM     33  C   UNL     1      -0.542   6.734   5.487  1.00  0.00     0.010 A 
ATOM     34  C   UNL     1       0.554   5.368   7.152  1.00  0.00     0.010 A 
ATOM     35  C   UNL     1      -0.622   5.922   6.629  1.00  0.00    -0.014 A 
BRANCH  35  36
ATOM     36  C   UNL     1      -1.919   5.668   7.309  1.00  0.00     0.031 A 
ATOM     37  C   UNL     1      -2.119   6.094   8.740  1.00  0.00     0.074 A 
ATOM     38  C   UNL     1      -2.894   5.002   6.659  1.00  0.00     0.049 A 
ATOM     39  N   UNL     1      -3.162   5.930   9.513  1.00  0.00    -0.248 NA
ATOM     40  C   UNL     1      -0.986   6.763   9.401  1.00  0.00     0.031 C 
ATOM     41  C   UNL     1      -2.802   4.490   5.290  1.00  0.00     0.029 A 
ATOM     42  N   UNL     1      -4.152   4.635   7.066  1.00  0.00    -0.354 N 
ATOM     43  C   UNL     1      -2.802   6.450  10.751  1.00  0.00     0.074 A 
ATOM     44  C   UNL     1      -1.425   6.877  10.644  1.00  0.00     0.031 C 
ATOM     45  C   UNL     1      -3.964   3.907   4.959  1.00  0.00     0.029 A 
ATOM     46  C   UNL     1      -4.867   3.961   6.104  1.00  0.00     0.049 A 
ATOM     47  H   UNL     1      -4.510   4.837   7.961  1.00  0.00     0.167 HD
ATOM     48  C   UNL     1      -3.553   6.580  11.871  1.00  0.00     0.031 A 
ATOM     49  C   UNL     1      -6.108   3.437   6.139  1.00  0.00     0.031 A 
ATOM     50  C   UNL     1      -4.925   6.155  11.966  1.00  0.00     0.049 A 
ATOM     51  C   UNL     1      -6.930   3.593   7.389  1.00  0.00     0.074 A 
ATOM     52  C   UNL     1      -5.799   6.301  13.028  1.00  0.00     0.029 A 
ATOM     53  N   UNL     1      -5.617   5.489  10.965  1.00  0.00    -0.354 N 
ATOM     54  N   UNL     1      -6.602   4.166   8.524  1.00  0.00    -0.248 NA
ATOM     55  C   UNL     1      -8.293   3.048   7.360  1.00  0.00     0.031 C 
ATOM     56  C   UNL     1      -6.998   5.661  12.695  1.00  0.00     0.029 A 
ATOM     57  C   UNL     1      -6.897   5.184  11.397  1.00  0.00     0.049 A 
ATOM     58  H   UNL     1      -5.253   5.266  10.078  1.00  0.00     0.167 HD
ATOM     59  C   UNL     1      -7.726   4.070   9.337  1.00  0.00     0.074 A 
ATOM     60  C   UNL     1      -8.747   3.399   8.556  1.00  0.00     0.031 C 
ATOM     61  C   UNL     1      -7.899   4.502  10.612  1.00  0.00     0.031 A 
BRANCH  48  62
ATOM     62  C   UNL     1      -2.889   7.183  13.086  1.00  0.00    -0.014 A 
ATOM     63  C   UNL     1      -2.461   8.524  13.101  1.00  0.00     0.010 A 
ATOM     64  C   UNL     1      -2.687   6.392  14.232  1.00  0.00     0.010 A 
ATOM     65  C   UNL     1      -1.780   9.039  14.208  1.00  0.00     0.020 A 
ATOM     66  C   UNL     1      -2.039   6.915  15.356  1.00  0.00     0.020 A 
ATOM     67  C   UNL     1      -1.565   8.227  15.325  1.00  0.00     0.054 A 
BRANCH  67  68
ATOM     68  S   UNL     1      -0.662   8.915  16.740  1.00  0.00     0.124 S 
ATOM     69  O   UNL     1       0.702   8.985  16.219  1.00  0.00    -0.237 OA
ATOM     70  O   UNL     1      -1.321  10.202  16.946  1.00  0.00    -0.237 OA
ATOM     71  O   UNL     1      -0.874   7.932  17.799  1.00  0.00    -0.744 OA
ENDBRANCH  67  68
ENDBRANCH  48  62
BRANCH  49  72
ATOM     72  C   UNL     1      -6.642   2.740   4.935  1.00  0.00    -0.014 A 
ATOM     73  C   UNL     1      -7.653   3.327   4.155  1.00  0.00     0.010 A 
ATOM     74  C   UNL     1      -6.093   1.509   4.524  1.00  0.00     0.010 A 
ATOM     75  C   UNL     1      -8.111   2.694   2.995  1.00  0.00     0.020 A 
ATOM     76  C   UNL     1      -6.525   0.890   3.347  1.00  0.00     0.020 A 
ATOM     77  C   UNL     1      -7.539   1.483   2.593  1.00  0.00     0.054 A 
BRANCH  77  78
ATOM     78  S   UNL     1      -8.125   0.712   1.058  1.00  0.00     0.124 S 
ATOM     79  O   UNL     1      -9.501   0.364   1.399  1.00  0.00    -0.237 OA
ATOM     80  O   UNL     1      -7.973   1.793   0.086  1.00  0.00    -0.237 OA
ATOM     81  O   UNL     1      -7.228  -0.426   0.873  1.00  0.00    -0.744 OA
ENDBRANCH  77  78
ENDBRANCH  49  72
BRANCH  61  82
ATOM     82  C   UNL     1      -9.251   4.285  11.242  1.00  0.00    -0.014 A 
ATOM     83  C   UNL     1      -9.694   3.001  11.605  1.00  0.00     0.010 A 
ATOM     84  C   UNL     1     -10.064   5.396  11.532  1.00  0.00     0.010 A 
ATOM     85  C   UNL     1     -10.940   2.829  12.214  1.00  0.00     0.020 A 
ATOM     86  C   UNL     1     -11.296   5.232  12.171  1.00  0.00     0.020 A 
ATOM     87  C   UNL     1     -11.732   3.947  12.495  1.00  0.00     0.054 A 
BRANCH  87  88
ATOM     88  S   UNL     1     -13.325   3.701  13.327  1.00  0.00     0.124 S 
ATOM     89  O   UNL     1     -14.128   3.091  12.271  1.00  0.00    -0.237 OA
ATOM     90  O   UNL     1     -12.973   2.819  14.437  1.00  0.00    -0.237 OA
ATOM     91  O   UNL     1     -13.727   5.051  13.714  1.00  0.00    -0.744 OA
ENDBRANCH  87  88
ENDBRANCH  61  82
ENDBRANCH  35  36
ENDBRANCH  27  30
ENDBRANCH  25  26
ENDBRANCH  24  25
ENDBRANCH   1  24
TORSDOF 19
