REMARK SMILES C[C@H]1[C@H](C(=O)NCCCNC(=O)c2ccc(-c3c4nc(c(-c5ccc(S(=O)(=O)[O-])cc5)c5ccc([nH]5)c(-c5ccc(S(=O)(=O)[O-])cc5)c5nc(c(-c6ccc(S(=O)(=O)[O-])cc6)c6ccc3[nH]6)C=C5)C=C4)cc2)CC[N@@H+]1[C@@H](c1ccccc1)c1ccco1
REMARK SMILES IDX 8 1 7 2 6 3 4 4 5 5 3 7 1 8 2 9 75 10 73 11 74 12 76 14
REMARK SMILES IDX 77 15 78 16 82 17 79 18 81 19 80 20 83 21 84 22 87 23 85 24
REMARK SMILES IDX 86 25 9 26 10 27 11 28 12 30 13 31 14 32 72 33 15 34 71 35
REMARK SMILES IDX 16 36 17 37 18 38 65 39 19 40 70 41 64 42 66 43 20 44 69 45
REMARK SMILES IDX 63 46 62 47 21 49 51 50 32 51 50 52 33 53 36 54 49 55 67 56
REMARK SMILES IDX 34 57 35 58 48 60 68 61 37 62 22 63 23 64 31 65 24 66 30 67
REMARK SMILES IDX 25 68 26 69 27 70 28 71 29 72 52 73 53 74 61 75 54 76 60 77
REMARK SMILES IDX 55 78 56 79 57 80 58 81 59 82 38 83 39 84 47 85 40 86 46 87
REMARK SMILES IDX 41 88 42 89 43 90 44 91 45 92
REMARK H PARENT 6 6 75 13 10 29 66 48 36 59
REMARK Flexibility Score: inf
ROOT
ATOM      1  C   UNL     1       0.482   1.102   4.127  1.00  0.00     0.042 C 
ENDROOT
BRANCH   1   2
ATOM      2  C   UNL     1      -0.486   1.607   3.064  1.00  0.00     0.117 C 
BRANCH   2   3
ATOM      3  N   UNL     1       0.108   2.581   2.178  1.00  0.00    -0.356 N 
ATOM      4  C   UNL     1       0.358   2.504   0.845  1.00  0.00     0.229 C 
ATOM      5  O   UNL     1       0.774   3.536   0.305  1.00  0.00    -0.275 OA
ATOM      6  H   UNL     1       0.372   3.428   2.605  1.00  0.00     0.163 HD
BRANCH   4   7
ATOM      7  C   UNL     1       0.099   1.262  -0.011  1.00  0.00     0.142 C 
ATOM      8  C   UNL     1       1.912  -0.447  -0.292  1.00  0.00     0.076 C 
ATOM      9  C   UNL     1       0.631  -0.099   0.483  1.00  0.00     0.194 C 
ATOM     10  N   UNL     1      -0.410  -1.102   0.157  1.00  0.00    -0.319 N 
ATOM     11  C   UNL     1      -1.363   1.009  -0.345  1.00  0.00     0.081 C 
ATOM     12  C   UNL     1      -1.375  -0.467  -0.726  1.00  0.00     0.264 C 
ATOM     13  H   UNL     1       0.018  -1.872  -0.357  1.00  0.00     0.349 HD
BRANCH  10  14
ATOM     14  C   UNL     1      -0.906  -1.967   1.261  1.00  0.00     0.283 C 
BRANCH  14  15
ATOM     15  C   UNL     1      -1.851  -1.397   2.332  1.00  0.00     0.017 A 
ATOM     16  C   UNL     1      -1.603  -1.707   3.684  1.00  0.00     0.010 A 
ATOM     17  C   UNL     1      -3.035  -0.693   2.049  1.00  0.00     0.010 A 
ATOM     18  C   UNL     1      -2.440  -1.242   4.701  1.00  0.00     0.001 A 
ATOM     19  C   UNL     1      -3.852  -0.193   3.067  1.00  0.00     0.001 A 
ATOM     20  C   UNL     1      -3.546  -0.457   4.395  1.00  0.00     0.000 A 
ENDBRANCH  14  15
BRANCH  14  21
ATOM     21  C   UNL     1      -1.406  -3.312   0.777  1.00  0.00     0.165 A 
ATOM     22  C   UNL     1      -0.783  -4.396   0.186  1.00  0.00     0.052 A 
ATOM     23  O   UNL     1      -2.697  -3.652   1.089  1.00  0.00    -0.463 OA
ATOM     24  C   UNL     1      -1.720  -5.460   0.204  1.00  0.00     0.042 A 
ATOM     25  C   UNL     1      -2.863  -4.958   0.774  1.00  0.00     0.195 A 
ENDBRANCH  14  21
ENDBRANCH  10  14
ENDBRANCH   4   7
ENDBRANCH   2   3
ENDBRANCH   1   2
BRANCH   1  26
ATOM     26  C   UNL     1       0.348   1.815   5.467  1.00  0.00     0.118 C 
BRANCH  26  27
ATOM     27  N   UNL     1      -0.970   1.668   6.083  1.00  0.00    -0.352 N 
ATOM     28  C   UNL     1      -1.414   0.995   7.193  1.00  0.00     0.251 C 
ATOM     29  H   UNL     1      -1.683   2.150   5.604  1.00  0.00     0.163 HD
ATOM     30  O   UNL     1      -2.630   0.949   7.408  1.00  0.00    -0.269 OA
BRANCH  28  31
ATOM     31  C   UNL     1      -0.494   0.297   8.117  1.00  0.00     0.039 A 
ATOM     32  C   UNL     1      -0.924  -0.879   8.746  1.00  0.00     0.014 A 
ATOM     33  C   UNL     1       0.762   0.814   8.423  1.00  0.00     0.014 A 
ATOM     34  C   UNL     1      -0.077  -1.554   9.632  1.00  0.00     0.010 A 
ATOM     35  C   UNL     1       1.646   0.082   9.207  1.00  0.00     0.010 A 
ATOM     36  C   UNL     1       1.230  -1.094   9.847  1.00  0.00    -0.014 A 
BRANCH  36  37
ATOM     37  C   UNL     1       2.170  -1.768  10.781  1.00  0.00     0.031 A 
ATOM     38  C   UNL     1       2.740  -0.995  11.946  1.00  0.00     0.074 A 
ATOM     39  C   UNL     1       2.585  -3.027  10.539  1.00  0.00     0.049 A 
ATOM     40  N   UNL     1       3.696  -1.328  12.774  1.00  0.00    -0.248 NA
ATOM     41  C   UNL     1       2.190   0.352  12.180  1.00  0.00     0.031 C 
ATOM     42  C   UNL     1       2.139  -3.870   9.427  1.00  0.00     0.029 A 
ATOM     43  N   UNL     1       3.494  -3.810  11.205  1.00  0.00    -0.354 N 
ATOM     44  C   UNL     1       3.886  -0.221  13.595  1.00  0.00     0.074 A 
ATOM     45  C   UNL     1       2.992   0.813  13.127  1.00  0.00     0.031 C 
ATOM     46  C   UNL     1       2.762  -5.058   9.499  1.00  0.00     0.029 A 
ATOM     47  C   UNL     1       3.686  -5.044  10.628  1.00  0.00     0.049 A 
ATOM     48  H   UNL     1       3.964  -3.517  12.018  1.00  0.00     0.167 HD
ATOM     49  C   UNL     1       4.712  -0.083  14.661  1.00  0.00     0.031 A 
ATOM     50  C   UNL     1       4.524  -6.045  10.960  1.00  0.00     0.031 A 
ATOM     51  C   UNL     1       5.576  -1.128  15.143  1.00  0.00     0.049 A 
ATOM     52  C   UNL     1       5.424  -5.878  12.155  1.00  0.00     0.074 A 
ATOM     53  C   UNL     1       6.408  -1.116  16.247  1.00  0.00     0.029 A 
ATOM     54  N   UNL     1       5.710  -2.376  14.553  1.00  0.00    -0.354 N 
ATOM     55  N   UNL     1       5.559  -4.839  12.946  1.00  0.00    -0.248 NA
ATOM     56  C   UNL     1       6.272  -7.022  12.510  1.00  0.00     0.031 C 
ATOM     57  C   UNL     1       7.083  -2.341  16.297  1.00  0.00     0.029 A 
ATOM     58  C   UNL     1       6.624  -3.138  15.260  1.00  0.00     0.049 A 
ATOM     59  H   UNL     1       5.227  -2.676  13.749  1.00  0.00     0.167 HD
ATOM     60  C   UNL     1       6.491  -5.215  13.907  1.00  0.00     0.074 A 
ATOM     61  C   UNL     1       6.867  -6.582  13.610  1.00  0.00     0.031 C 
ATOM     62  C   UNL     1       6.991  -4.495  14.943  1.00  0.00     0.031 A 
BRANCH  49  63
ATOM     63  C   UNL     1       4.713   1.246  15.374  1.00  0.00    -0.014 A 
ATOM     64  C   UNL     1       3.587   1.687  16.095  1.00  0.00     0.010 A 
ATOM     65  C   UNL     1       5.862   2.057  15.345  1.00  0.00     0.010 A 
ATOM     66  C   UNL     1       3.591   2.934  16.725  1.00  0.00     0.020 A 
ATOM     67  C   UNL     1       5.882   3.291  16.004  1.00  0.00     0.020 A 
ATOM     68  C   UNL     1       4.738   3.729  16.673  1.00  0.00     0.054 A 
BRANCH  68  69
ATOM     69  S   UNL     1       4.719   5.335  17.517  1.00  0.00     0.124 S 
ATOM     70  O   UNL     1       3.846   6.121  16.648  1.00  0.00    -0.237 OA
ATOM     71  O   UNL     1       4.166   5.002  18.826  1.00  0.00    -0.237 OA
ATOM     72  O   UNL     1       6.122   5.742  17.521  1.00  0.00    -0.744 OA
ENDBRANCH  68  69
ENDBRANCH  49  63
BRANCH  50  73
ATOM     73  C   UNL     1       4.539  -7.298  10.155  1.00  0.00    -0.014 A 
ATOM     74  C   UNL     1       4.024  -8.494  10.686  1.00  0.00     0.010 A 
ATOM     75  C   UNL     1       5.044  -7.296   8.841  1.00  0.00     0.010 A 
ATOM     76  C   UNL     1       4.027  -9.667   9.924  1.00  0.00     0.020 A 
ATOM     77  C   UNL     1       5.020  -8.459   8.066  1.00  0.00     0.020 A 
ATOM     78  C   UNL     1       4.520  -9.641   8.617  1.00  0.00     0.054 A 
BRANCH  78  79
ATOM     79  S   UNL     1       4.453 -11.160   7.627  1.00  0.00     0.124 S 
ATOM     80  O   UNL     1       5.500 -11.970   8.241  1.00  0.00    -0.237 OA
ATOM     81  O   UNL     1       3.084 -11.619   7.848  1.00  0.00    -0.237 OA
ATOM     82  O   UNL     1       4.734 -10.696   6.270  1.00  0.00    -0.744 OA
ENDBRANCH  78  79
ENDBRANCH  50  73
BRANCH  62  83
ATOM     83  C   UNL     1       7.977  -5.185  15.848  1.00  0.00    -0.014 A 
ATOM     84  C   UNL     1       9.278  -5.492  15.414  1.00  0.00     0.010 A 
ATOM     85  C   UNL     1       7.603  -5.498  17.168  1.00  0.00     0.010 A 
ATOM     86  C   UNL     1      10.173  -6.140  16.268  1.00  0.00     0.020 A 
ATOM     87  C   UNL     1       8.505  -6.117  18.036  1.00  0.00     0.020 A 
ATOM     88  C   UNL     1       9.779  -6.452  17.574  1.00  0.00     0.054 A 
BRANCH  88  89
ATOM     89  S   UNL     1      10.966  -7.274  18.670  1.00  0.00     0.124 S 
ATOM     90  O   UNL     1      10.993  -8.629  18.126  1.00  0.00    -0.237 OA
ATOM     91  O   UNL     1      12.183  -6.492  18.469  1.00  0.00    -0.237 OA
ATOM     92  O   UNL     1      10.362  -7.146  19.994  1.00  0.00    -0.744 OA
ENDBRANCH  88  89
ENDBRANCH  62  83
ENDBRANCH  36  37
ENDBRANCH  28  31
ENDBRANCH  26  27
ENDBRANCH   1  26
TORSDOF 16
