REMARK SMILES CCCCCCNC(=O)Oc1cccc(-c2ccc([C@@H](C)C(=O)NCCCNC(=O)c3ccc(-c4c5nc(c(-c6ccc(S(=O)(=O)[O-])cc6)c6ccc([nH]6)c(-c6ccc(S(=O)(=O)[O-])cc6)c6nc(c(-c7ccc(S(=O)(=O)[O-])cc7)c7ccc4[nH]7)C=C6)C=C5)cc3)cc2)c1
REMARK SMILES IDX 20 1 21 2 19 3 16 4 17 5 92 6 18 7 91 8 15 9 11 10 12 11
REMARK SMILES IDX 93 12 13 13 14 14 10 15 8 16 7 17 9 19 6 20 5 21 4 22 3 23
REMARK SMILES IDX 2 24 1 25 22 26 23 27 24 28 25 30 26 31 27 32 28 33 29 34
REMARK SMILES IDX 30 36 31 37 32 38 90 39 33 40 89 41 34 42 35 43 36 44 83 45
REMARK SMILES IDX 37 46 88 47 82 48 84 49 38 50 87 51 81 52 80 53 39 55 69 56
REMARK SMILES IDX 50 57 68 58 51 59 54 60 67 61 85 62 52 63 53 64 66 66 86 67
REMARK SMILES IDX 55 68 40 69 41 70 49 71 42 72 48 73 43 74 44 75 45 76 46 77
REMARK SMILES IDX 47 78 70 79 71 80 79 81 72 82 78 83 73 84 74 85 75 86 76 87
REMARK SMILES IDX 77 88 56 89 57 90 65 91 58 92 64 93 59 94 60 95 61 96 62 97
REMARK SMILES IDX 63 98
REMARK H PARENT 7 18 24 29 28 35 84 54 54 65
REMARK Flexibility Score: inf
ROOT
ATOM      1  C   UNL     1      -4.463  -0.697 -13.553  1.00  0.00     0.105 C 
ATOM      2  C   UNL     1      -5.586  -0.725 -14.589  1.00  0.00     0.023 C 
ENDROOT
BRANCH   1   3
ATOM      3  C   UNL     1      -4.809  -0.055 -12.220  1.00  0.00    -0.036 A 
ATOM      4  C   UNL     1      -5.171   1.221  -9.692  1.00  0.00    -0.018 A 
ATOM      5  C   UNL     1      -5.612   1.812 -10.884  1.00  0.00     0.009 A 
ATOM      6  C   UNL     1      -4.603  -0.058  -9.788  1.00  0.00     0.009 A 
ATOM      7  C   UNL     1      -5.470   1.170 -12.118  1.00  0.00     0.005 A 
ATOM      8  C   UNL     1      -4.405  -0.676 -11.029  1.00  0.00     0.005 A 
BRANCH   4   9
ATOM      9  C   UNL     1      -5.268   1.944  -8.405  1.00  0.00    -0.015 A 
ATOM     10  C   UNL     1      -4.324   2.587  -6.258  1.00  0.00     0.133 A 
ATOM     11  C   UNL     1      -5.409   3.415  -5.988  1.00  0.00     0.047 A 
ATOM     12  C   UNL     1      -4.249   1.851  -7.441  1.00  0.00     0.056 A 
ATOM     13  C   UNL     1      -6.429   3.517  -6.925  1.00  0.00     0.004 A 
ATOM     14  C   UNL     1      -6.362   2.784  -8.115  1.00  0.00     0.009 A 
BRANCH  10  15
ATOM     15  O   UNL     1      -3.370   2.439  -5.239  1.00  0.00    -0.410 OA
BRANCH  15  16
ATOM     16  C   UNL     1      -2.032   2.619  -5.554  1.00  0.00     0.412 C 
ATOM     17  N   UNL     1      -1.203   2.387  -4.490  1.00  0.00    -0.321 N 
ATOM     18  H   UNL     1      -0.240   2.530  -4.641  1.00  0.00     0.167 HD
ATOM     19  O   UNL     1      -1.581   2.942  -6.645  1.00  0.00    -0.224 OA
BRANCH  17  20
ATOM     20  C   UNL     1      -1.597   1.953  -3.166  1.00  0.00     0.119 C 
BRANCH  20  21
ATOM     21  C   UNL     1      -1.002   0.588  -2.820  1.00  0.00     0.021 C 
BRANCH  21  22
ATOM     22  C   UNL     1       0.529   0.566  -2.719  1.00  0.00     0.002 C 
BRANCH  22  23
ATOM     23  C   UNL     1       1.132   1.522  -1.684  1.00  0.00    -0.000 C 
BRANCH  23  24
ATOM     24  C   UNL     1       0.651   1.317  -0.245  1.00  0.00    -0.003 C 
ATOM     25  C   UNL     1       1.021  -0.045   0.323  1.00  0.00     0.004 C 
ENDBRANCH  23  24
ENDBRANCH  22  23
ENDBRANCH  21  22
ENDBRANCH  20  21
ENDBRANCH  17  20
ENDBRANCH  15  16
ENDBRANCH  10  15
ENDBRANCH   4   9
ENDBRANCH   1   3
BRANCH   1  26
ATOM     26  C   UNL     1      -3.099  -0.256 -14.110  1.00  0.00     0.227 C 
ATOM     27  O   UNL     1      -2.136  -1.031 -14.060  1.00  0.00    -0.274 OA
ATOM     28  N   UNL     1      -2.868   0.954 -14.688  1.00  0.00    -0.356 N 
ATOM     29  H   UNL     1      -1.954   1.064 -15.038  1.00  0.00     0.163 HD
BRANCH  28  30
ATOM     30  C   UNL     1      -3.719   2.111 -14.882  1.00  0.00     0.117 C 
BRANCH  30  31
ATOM     31  C   UNL     1      -3.495   3.184 -13.821  1.00  0.00     0.042 C 
BRANCH  31  32
ATOM     32  C   UNL     1      -2.317   4.102 -14.111  1.00  0.00     0.118 C 
BRANCH  32  33
ATOM     33  N   UNL     1      -2.550   4.935 -15.282  1.00  0.00    -0.352 N 
ATOM     34  C   UNL     1      -2.601   6.298 -15.416  1.00  0.00     0.251 C 
ATOM     35  H   UNL     1      -2.695   4.435 -16.117  1.00  0.00     0.163 HD
ATOM     36  O   UNL     1      -3.050   6.766 -16.461  1.00  0.00    -0.269 OA
BRANCH  34  37
ATOM     37  C   UNL     1      -2.126   7.206 -14.345  1.00  0.00     0.039 A 
ATOM     38  C   UNL     1      -2.726   8.464 -14.223  1.00  0.00     0.014 A 
ATOM     39  C   UNL     1      -1.046   6.878 -13.521  1.00  0.00     0.014 A 
ATOM     40  C   UNL     1      -2.249   9.378 -13.281  1.00  0.00     0.010 A 
ATOM     41  C   UNL     1      -0.640   7.748 -12.512  1.00  0.00     0.010 A 
ATOM     42  C   UNL     1      -1.206   9.025 -12.411  1.00  0.00    -0.014 A 
BRANCH  42  43
ATOM     43  C   UNL     1      -0.645  10.010 -11.450  1.00  0.00     0.031 A 
ATOM     44  C   UNL     1       0.789  10.459 -11.584  1.00  0.00     0.074 A 
ATOM     45  C   UNL     1      -1.415  10.487 -10.453  1.00  0.00     0.049 A 
ATOM     46  N   UNL     1       1.457  11.316 -10.854  1.00  0.00    -0.248 NA
ATOM     47  C   UNL     1       1.585   9.849 -12.662  1.00  0.00     0.031 C 
ATOM     48  C   UNL     1      -2.803  10.097 -10.194  1.00  0.00     0.029 A 
ATOM     49  N   UNL     1      -1.143  11.411  -9.477  1.00  0.00    -0.354 N 
ATOM     50  C   UNL     1       2.748  11.332 -11.373  1.00  0.00     0.074 A 
ATOM     51  C   UNL     1       2.788  10.355 -12.437  1.00  0.00     0.031 C 
ATOM     52  C   UNL     1      -3.272  10.806  -9.154  1.00  0.00     0.029 A 
ATOM     53  C   UNL     1      -2.211  11.672  -8.651  1.00  0.00     0.049 A 
ATOM     54  H   UNL     1      -0.265  11.846  -9.376  1.00  0.00     0.167 HD
ATOM     55  C   UNL     1       3.800  12.107 -11.017  1.00  0.00     0.031 A 
ATOM     56  C   UNL     1      -2.324  12.520  -7.610  1.00  0.00     0.031 A 
ATOM     57  C   UNL     1       3.751  13.089  -9.967  1.00  0.00     0.049 A 
ATOM     58  C   UNL     1      -1.146  13.380  -7.240  1.00  0.00     0.074 A 
ATOM     59  C   UNL     1       4.743  13.961  -9.555  1.00  0.00     0.029 A 
ATOM     60  N   UNL     1       2.646  13.331  -9.164  1.00  0.00    -0.354 N 
ATOM     61  N   UNL     1       0.049  13.422  -7.781  1.00  0.00    -0.248 NA
ATOM     62  C   UNL     1      -1.341  14.326  -6.134  1.00  0.00     0.031 C 
ATOM     63  C   UNL     1       4.254  14.696  -8.469  1.00  0.00     0.029 A 
ATOM     64  C   UNL     1       2.935  14.330  -8.250  1.00  0.00     0.049 A 
ATOM     65  H   UNL     1       1.783  12.862  -9.234  1.00  0.00     0.167 HD
ATOM     66  C   UNL     1       0.735  14.426  -7.106  1.00  0.00     0.074 A 
ATOM     67  C   UNL     1      -0.184  14.973  -6.128  1.00  0.00     0.031 C 
ATOM     68  C   UNL     1       2.007  14.862  -7.284  1.00  0.00     0.031 A 
BRANCH  55  69
ATOM     69  C   UNL     1       5.093  11.919 -11.771  1.00  0.00    -0.014 A 
ATOM     70  C   UNL     1       5.207  12.282 -13.126  1.00  0.00     0.010 A 
ATOM     71  C   UNL     1       6.221  11.401 -11.108  1.00  0.00     0.010 A 
ATOM     72  C   UNL     1       6.407  12.087 -13.815  1.00  0.00     0.020 A 
ATOM     73  C   UNL     1       7.433  11.235 -11.785  1.00  0.00     0.020 A 
ATOM     74  C   UNL     1       7.513  11.562 -13.140  1.00  0.00     0.054 A 
BRANCH  74  75
ATOM     75  S   UNL     1       9.064  11.342 -14.054  1.00  0.00     0.124 S 
ATOM     76  O   UNL     1       8.748  10.207 -14.917  1.00  0.00    -0.237 OA
ATOM     77  O   UNL     1       9.219  12.624 -14.736  1.00  0.00    -0.237 OA
ATOM     78  O   UNL     1      10.048  11.074 -13.008  1.00  0.00    -0.744 OA
ENDBRANCH  74  75
ENDBRANCH  55  69
BRANCH  56  79
ATOM     79  C   UNL     1      -3.612  12.620  -6.869  1.00  0.00    -0.014 A 
ATOM     80  C   UNL     1      -4.407  13.777  -6.965  1.00  0.00     0.010 A 
ATOM     81  C   UNL     1      -4.058  11.551  -6.070  1.00  0.00     0.010 A 
ATOM     82  C   UNL     1      -5.608  13.873  -6.255  1.00  0.00     0.020 A 
ATOM     83  C   UNL     1      -5.273  11.631  -5.385  1.00  0.00     0.020 A 
ATOM     84  C   UNL     1      -6.034  12.798  -5.471  1.00  0.00     0.054 A 
BRANCH  84  85
ATOM     85  S   UNL     1      -7.617  12.928  -4.593  1.00  0.00     0.124 S 
ATOM     86  O   UNL     1      -7.298  13.873  -3.527  1.00  0.00    -0.237 OA
ATOM     87  O   UNL     1      -8.514  13.425  -5.633  1.00  0.00    -0.237 OA
ATOM     88  O   UNL     1      -7.880  11.558  -4.158  1.00  0.00    -0.744 OA
ENDBRANCH  84  85
ENDBRANCH  56  79
BRANCH  68  89
ATOM     89  C   UNL     1       2.461  16.026  -6.442  1.00  0.00    -0.014 A 
ATOM     90  C   UNL     1       2.667  15.900  -5.057  1.00  0.00     0.010 A 
ATOM     91  C   UNL     1       2.707  17.265  -7.061  1.00  0.00     0.010 A 
ATOM     92  C   UNL     1       3.056  17.008  -4.298  1.00  0.00     0.020 A 
ATOM     93  C   UNL     1       3.129  18.366  -6.313  1.00  0.00     0.020 A 
ATOM     94  C   UNL     1       3.278  18.236  -4.931  1.00  0.00     0.054 A 
BRANCH  94  95
ATOM     95  S   UNL     1       3.786  19.657  -3.927  1.00  0.00     0.124 S 
ATOM     96  O   UNL     1       2.544  20.004  -3.242  1.00  0.00    -0.237 OA
ATOM     97  O   UNL     1       4.835  19.094  -3.080  1.00  0.00    -0.237 OA
ATOM     98  O   UNL     1       4.247  20.632  -4.914  1.00  0.00    -0.744 OA
ENDBRANCH  94  95
ENDBRANCH  68  89
ENDBRANCH  42  43
ENDBRANCH  34  37
ENDBRANCH  32  33
ENDBRANCH  31  32
ENDBRANCH  30  31
ENDBRANCH  28  30
ENDBRANCH   1  26
TORSDOF 22
