REMARK SMILES CC1(C)O[C@](C)([C@H](O)C2CCCCC2)CC[C@H]1C(=O)NCCCNC(=O)c1ccc(-c2c3nc(c(-c4ccc(S(=O)(=O)[O-])cc4)c4ccc([nH]4)c(-c4ccc(S(=O)(=O)[O-])cc4)c4nc(c(-c5ccc(S(=O)(=O)[O-])cc5)c5ccc2[nH]5)C=C4)C=C3)cc1
REMARK SMILES IDX 22 1 21 2 20 3 18 4 19 5 17 7 1 8 2 9 3 10 4 11 5 12 16 13
REMARK SMILES IDX 6 14 15 15 7 16 9 17 10 18 14 19 11 20 13 21 12 22 8 23
REMARK SMILES IDX 23 25 24 26 25 27 26 29 27 30 28 31 86 32 29 33 85 34 30 35
REMARK SMILES IDX 31 36 32 37 79 38 33 39 84 40 78 41 80 42 34 43 83 44 77 45
REMARK SMILES IDX 76 46 35 48 65 49 46 50 64 51 47 52 50 53 63 54 81 55 48 56
REMARK SMILES IDX 49 57 62 59 82 60 51 61 36 62 37 63 45 64 38 65 44 66 39 67
REMARK SMILES IDX 40 68 41 69 42 70 43 71 66 72 67 73 75 74 68 75 74 76 69 77
REMARK SMILES IDX 70 78 71 79 72 80 73 81 52 82 53 83 61 84 54 85 60 86 55 87
REMARK SMILES IDX 56 88 57 89 58 90 59 91
REMARK H PARENT 20 6 8 24 24 28 80 47 50 58
REMARK Flexibility Score: inf
ROOT
ATOM      1  C   UNL     1      -2.652   2.306   8.027  1.00  0.00     0.042 C 
ENDROOT
BRANCH   1   2
ATOM      2  C   UNL     1      -3.245   1.118   7.280  1.00  0.00     0.117 C 
BRANCH   2   3
ATOM      3  N   UNL     1      -4.683   1.239   7.097  1.00  0.00    -0.356 N 
ATOM      4  C   UNL     1      -5.473   1.413   6.008  1.00  0.00     0.226 C 
ATOM      5  O   UNL     1      -6.684   1.531   6.233  1.00  0.00    -0.275 OA
ATOM      6  H   UNL     1      -5.188   1.184   7.940  1.00  0.00     0.163 HD
BRANCH   4   7
ATOM      7  C   UNL     1      -4.971   1.464   4.564  1.00  0.00     0.110 C 
ATOM      8  C   UNL     1      -3.568   3.646   5.046  1.00  0.00     0.043 C 
ATOM      9  C   UNL     1      -4.447   2.849   4.084  1.00  0.00     0.075 C 
ATOM     10  C   UNL     1      -5.670   3.761   3.813  1.00  0.00     0.043 C 
ATOM     11  O   UNL     1      -3.773   2.781   2.817  1.00  0.00    -0.366 OA
ATOM     12  C   UNL     1      -2.848   1.720   2.550  1.00  0.00     0.092 C 
ATOM     13  C   UNL     1      -4.173   0.228   4.138  1.00  0.00     0.019 C 
ATOM     14  C   UNL     1      -1.593   1.721   3.448  1.00  0.00     0.045 C 
ATOM     15  C   UNL     1      -3.601   0.383   2.732  1.00  0.00     0.039 C 
BRANCH  12  16
ATOM     16  C   UNL     1      -2.434   1.855   1.037  1.00  0.00     0.149 C 
BRANCH  16  17
ATOM     17  C   UNL     1      -2.144   3.291   0.484  1.00  0.00     0.021 C 
ATOM     18  C   UNL     1      -1.270   4.232   1.328  1.00  0.00     0.006 C 
ATOM     19  C   UNL     1      -1.605   3.272  -0.966  1.00  0.00     0.006 C 
ATOM     20  C   UNL     1       0.217   3.908   1.260  1.00  0.00     0.000 C 
ATOM     21  C   UNL     1      -0.096   3.038  -1.084  1.00  0.00     0.000 C 
ATOM     22  C   UNL     1       0.712   3.962  -0.180  1.00  0.00     0.000 C 
ENDBRANCH  16  17
BRANCH  16  23
ATOM     23  O   UNL     1      -1.393   0.924   0.736  1.00  0.00    -0.390 OA
ATOM     24  H   UNL     1      -0.595   1.160   1.234  1.00  0.00     0.211 HD
ENDBRANCH  16  23
ENDBRANCH  12  16
ENDBRANCH   4   7
ENDBRANCH   2   3
ENDBRANCH   1   2
BRANCH   1  25
ATOM     25  C   UNL     1      -2.990   2.328   9.507  1.00  0.00     0.118 C 
BRANCH  25  26
ATOM     26  N   UNL     1      -2.111   1.464  10.276  1.00  0.00    -0.352 N 
ATOM     27  C   UNL     1      -1.031   1.778  11.065  1.00  0.00     0.251 C 
ATOM     28  H   UNL     1      -2.322   0.503  10.223  1.00  0.00     0.163 HD
ATOM     29  O   UNL     1      -0.274   0.875  11.422  1.00  0.00    -0.269 OA
BRANCH  27  30
ATOM     30  C   UNL     1      -0.755   3.177  11.474  1.00  0.00     0.039 A 
ATOM     31  C   UNL     1       0.573   3.604  11.576  1.00  0.00     0.014 A 
ATOM     32  C   UNL     1      -1.785   4.058  11.815  1.00  0.00     0.014 A 
ATOM     33  C   UNL     1       0.860   4.915  11.970  1.00  0.00     0.010 A 
ATOM     34  C   UNL     1      -1.503   5.391  12.103  1.00  0.00     0.010 A 
ATOM     35  C   UNL     1      -0.177   5.830  12.212  1.00  0.00    -0.014 A 
BRANCH  35  36
ATOM     36  C   UNL     1       0.098   7.230  12.632  1.00  0.00     0.031 A 
ATOM     37  C   UNL     1      -0.395   7.725  13.969  1.00  0.00     0.074 A 
ATOM     38  C   UNL     1       0.733   8.075  11.795  1.00  0.00     0.049 A 
ATOM     39  N   UNL     1      -0.326   8.927  14.482  1.00  0.00    -0.248 NA
ATOM     40  C   UNL     1      -1.083   6.747  14.830  1.00  0.00     0.031 C 
ATOM     41  C   UNL     1       1.222   7.737  10.456  1.00  0.00     0.029 A 
ATOM     42  N   UNL     1       1.072   9.396  11.946  1.00  0.00    -0.354 N 
ATOM     43  C   UNL     1      -0.986   8.856  15.704  1.00  0.00     0.074 A 
ATOM     44  C   UNL     1      -1.492   7.508  15.834  1.00  0.00     0.031 C 
ATOM     45  C   UNL     1       1.823   8.813   9.922  1.00  0.00     0.029 A 
ATOM     46  C   UNL     1       1.729   9.927  10.861  1.00  0.00     0.049 A 
ATOM     47  H   UNL     1       0.865   9.916  12.756  1.00  0.00     0.167 HD
ATOM     48  C   UNL     1      -1.140   9.817  16.647  1.00  0.00     0.031 A 
ATOM     49  C   UNL     1       2.199  11.170  10.642  1.00  0.00     0.031 A 
ATOM     50  C   UNL     1      -0.606  11.147  16.534  1.00  0.00     0.049 A 
ATOM     51  C   UNL     1       2.038  12.215  11.711  1.00  0.00     0.074 A 
ATOM     52  C   UNL     1      -0.650  12.174  17.461  1.00  0.00     0.029 A 
ATOM     53  N   UNL     1       0.077  11.632  15.430  1.00  0.00    -0.354 N 
ATOM     54  N   UNL     1       1.459  12.110  12.884  1.00  0.00    -0.248 NA
ATOM     55  C   UNL     1       2.604  13.543  11.433  1.00  0.00     0.031 C 
ATOM     56  C   UNL     1      -0.027  13.294  16.901  1.00  0.00     0.029 A 
ATOM     57  C   UNL     1       0.447  12.949  15.645  1.00  0.00     0.049 A 
ATOM     58  H   UNL     1       0.270  11.117  14.614  1.00  0.00     0.167 HD
ATOM     59  C   UNL     1       1.612  13.351  13.493  1.00  0.00     0.074 A 
ATOM     60  C   UNL     1       2.350  14.185  12.566  1.00  0.00     0.031 C 
ATOM     61  C   UNL     1       1.182  13.762  14.711  1.00  0.00     0.031 A 
BRANCH  48  62
ATOM     62  C   UNL     1      -1.919   9.457  17.885  1.00  0.00    -0.014 A 
ATOM     63  C   UNL     1      -1.394   8.569  18.842  1.00  0.00     0.010 A 
ATOM     64  C   UNL     1      -3.181  10.036  18.111  1.00  0.00     0.010 A 
ATOM     65  C   UNL     1      -2.136   8.228  19.975  1.00  0.00     0.020 A 
ATOM     66  C   UNL     1      -3.915   9.720  19.258  1.00  0.00     0.020 A 
ATOM     67  C   UNL     1      -3.396   8.802  20.174  1.00  0.00     0.054 A 
BRANCH  67  68
ATOM     68  S   UNL     1      -4.332   8.353  21.660  1.00  0.00     0.124 S 
ATOM     69  O   UNL     1      -4.798   7.009  21.327  1.00  0.00    -0.237 OA
ATOM     70  O   UNL     1      -3.321   8.423  22.712  1.00  0.00    -0.237 OA
ATOM     71  O   UNL     1      -5.375   9.373  21.735  1.00  0.00    -0.744 OA
ENDBRANCH  67  68
ENDBRANCH  48  62
BRANCH  49  72
ATOM     72  C   UNL     1       2.891  11.486   9.363  1.00  0.00    -0.014 A 
ATOM     73  C   UNL     1       4.283  11.678   9.335  1.00  0.00     0.010 A 
ATOM     74  C   UNL     1       2.164  11.578   8.162  1.00  0.00     0.010 A 
ATOM     75  C   UNL     1       4.935  11.969   8.133  1.00  0.00     0.020 A 
ATOM     76  C   UNL     1       2.815  11.844   6.954  1.00  0.00     0.020 A 
ATOM     77  C   UNL     1       4.196  12.048   6.949  1.00  0.00     0.054 A 
BRANCH  77  78
ATOM     78  S   UNL     1       5.070  12.369   5.391  1.00  0.00     0.124 S 
ATOM     79  O   UNL     1       5.356  13.796   5.491  1.00  0.00    -0.237 OA
ATOM     80  O   UNL     1       6.227  11.482   5.488  1.00  0.00    -0.237 OA
ATOM     81  O   UNL     1       4.093  11.994   4.370  1.00  0.00    -0.744 OA
ENDBRANCH  77  78
ENDBRANCH  49  72
BRANCH  61  82
ATOM     82  C   UNL     1       1.522  15.167  15.127  1.00  0.00    -0.014 A 
ATOM     83  C   UNL     1       0.858  16.272  14.566  1.00  0.00     0.010 A 
ATOM     84  C   UNL     1       2.481  15.379  16.134  1.00  0.00     0.010 A 
ATOM     85  C   UNL     1       1.167  17.568  14.988  1.00  0.00     0.020 A 
ATOM     86  C   UNL     1       2.775  16.671  16.576  1.00  0.00     0.020 A 
ATOM     87  C   UNL     1       2.125  17.759  15.989  1.00  0.00     0.054 A 
BRANCH  87  88
ATOM     88  S   UNL     1       2.476  19.447  16.552  1.00  0.00     0.124 S 
ATOM     89  O   UNL     1       3.289  19.969  15.457  1.00  0.00    -0.237 OA
ATOM     90  O   UNL     1       1.142  20.029  16.678  1.00  0.00    -0.237 OA
ATOM     91  O   UNL     1       3.184  19.250  17.816  1.00  0.00    -0.744 OA
ENDBRANCH  87  88
ENDBRANCH  61  82
ENDBRANCH  35  36
ENDBRANCH  27  30
ENDBRANCH  25  26
ENDBRANCH   1  25
TORSDOF 16
