REMARK SMILES CCOc1ccc(-n2ncc(C(=O)NCCCNC(=O)c3ccc(-c4c5nc(c(-c6ccc(S(=O)(=O)[O-])cc6)c6ccc([nH]6)c(-c6ccc(S(=O)(=O)[O-])cc6)c6nc(c(-c7ccc(S(=O)(=O)[O-])cc7)c7ccc4[nH]7)C=C6)C=C5)cc3)c2C)nn1
REMARK SMILES IDX 16 1 15 2 14 3 12 4 13 5 11 7 8 8 9 9 81 10 10 11 82 12 7 13
REMARK SMILES IDX 4 14 5 15 84 16 6 17 83 18 3 19 2 20 1 21 17 22 18 23 19 24
REMARK SMILES IDX 20 26 21 27 22 28 80 29 23 30 79 31 24 32 25 33 26 34 73 35
REMARK SMILES IDX 27 36 78 37 72 38 74 39 28 40 77 41 71 42 70 43 29 45 59 46
REMARK SMILES IDX 40 47 58 48 41 49 44 50 57 51 75 52 42 53 43 54 56 56 76 57
REMARK SMILES IDX 45 58 30 59 31 60 39 61 32 62 38 63 33 64 34 65 35 66 36 67
REMARK SMILES IDX 37 68 60 69 61 70 69 71 62 72 68 73 63 74 64 75 65 76 66 77
REMARK SMILES IDX 67 78 46 79 47 80 55 81 48 82 54 83 49 84 50 85 51 86 52 87
REMARK SMILES IDX 53 88
REMARK H PARENT 14 6 18 25 74 44 44 55
REMARK Flexibility Score: inf
ROOT
ATOM      1  C   UNL     1      11.394   5.119   1.088  1.00  0.00     0.042 C 
ENDROOT
BRANCH   1   2
ATOM      2  C   UNL     1      11.181   3.624   1.354  1.00  0.00     0.118 C 
BRANCH   2   3
ATOM      3  N   UNL     1      10.696   3.372   2.700  1.00  0.00    -0.352 N 
ATOM      4  C   UNL     1       9.442   3.197   3.221  1.00  0.00     0.254 C 
ATOM      5  O   UNL     1       9.385   2.940   4.431  1.00  0.00    -0.269 OA
ATOM      6  H   UNL     1      11.413   3.318   3.373  1.00  0.00     0.163 HD
BRANCH   4   7
ATOM      7  C   UNL     1       8.243   3.247   2.397  1.00  0.00     0.081 A 
ATOM      8  N   UNL     1       6.144   2.939   1.688  1.00  0.00    -0.217 N 
ATOM      9  N   UNL     1       6.832   3.397   0.605  1.00  0.00    -0.174 NA
ATOM     10  C   UNL     1       6.965   2.843   2.801  1.00  0.00     0.056 A 
ATOM     11  C   UNL     1       8.040   3.682   1.076  1.00  0.00     0.149 A 
ATOM     12  C   UNL     1       6.537   2.297   4.123  1.00  0.00     0.068 C 
BRANCH   8  13
ATOM     13  C   UNL     1       4.767   2.623   1.529  1.00  0.00     0.176 A 
ATOM     14  C   UNL     1       2.138   2.128   1.154  1.00  0.00     0.233 A 
ATOM     15  C   UNL     1       2.982   1.982   0.074  1.00  0.00     0.074 A 
ATOM     16  N   UNL     1       2.570   2.498   2.376  1.00  0.00    -0.110 NA
ATOM     17  C   UNL     1       4.329   2.237   0.265  1.00  0.00     0.057 A 
ATOM     18  N   UNL     1       3.910   2.728   2.571  1.00  0.00    -0.127 NA
BRANCH  14  19
ATOM     19  O   UNL     1       0.788   1.978   0.965  1.00  0.00    -0.477 OA
BRANCH  19  20
ATOM     20  C   UNL     1       0.385   0.641   1.269  1.00  0.00     0.228 C 
ATOM     21  C   UNL     1       0.546  -0.258   0.051  1.00  0.00     0.049 C 
ENDBRANCH  19  20
ENDBRANCH  14  19
ENDBRANCH   8  13
ENDBRANCH   4   7
ENDBRANCH   2   3
ENDBRANCH   1   2
BRANCH   1  22
ATOM     22  C   UNL     1      12.729   5.595   1.644  1.00  0.00     0.118 C 
BRANCH  22  23
ATOM     23  N   UNL     1      13.869   5.022   0.913  1.00  0.00    -0.352 N 
ATOM     24  C   UNL     1      15.224   5.177   1.142  1.00  0.00     0.251 C 
ATOM     25  H   UNL     1      13.634   4.444   0.151  1.00  0.00     0.163 HD
ATOM     26  O   UNL     1      16.037   4.911   0.264  1.00  0.00    -0.269 OA
BRANCH  24  27
ATOM     27  C   UNL     1      15.671   5.652   2.462  1.00  0.00     0.039 A 
ATOM     28  C   UNL     1      16.753   6.524   2.624  1.00  0.00     0.014 A 
ATOM     29  C   UNL     1      14.943   5.215   3.561  1.00  0.00     0.014 A 
ATOM     30  C   UNL     1      17.041   7.002   3.903  1.00  0.00     0.010 A 
ATOM     31  C   UNL     1      15.077   5.855   4.756  1.00  0.00     0.010 A 
ATOM     32  C   UNL     1      16.184   6.665   4.960  1.00  0.00    -0.014 A 
BRANCH  32  33
ATOM     33  C   UNL     1      16.314   7.224   6.298  1.00  0.00     0.031 A 
ATOM     34  C   UNL     1      16.115   8.694   6.336  1.00  0.00     0.074 A 
ATOM     35  C   UNL     1      16.276   6.433   7.396  1.00  0.00     0.049 A 
ATOM     36  N   UNL     1      17.016   9.608   6.485  1.00  0.00    -0.248 NA
ATOM     37  C   UNL     1      14.793   9.226   5.946  1.00  0.00     0.031 C 
ATOM     38  C   UNL     1      16.107   4.971   7.451  1.00  0.00     0.029 A 
ATOM     39  N   UNL     1      16.231   6.774   8.709  1.00  0.00    -0.354 N 
ATOM     40  C   UNL     1      16.315  10.809   6.512  1.00  0.00     0.074 A 
ATOM     41  C   UNL     1      15.044  10.536   5.894  1.00  0.00     0.031 C 
ATOM     42  C   UNL     1      15.728   4.602   8.696  1.00  0.00     0.029 A 
ATOM     43  C   UNL     1      15.791   5.763   9.563  1.00  0.00     0.049 A 
ATOM     44  H   UNL     1      16.488   7.667   9.033  1.00  0.00     0.167 HD
ATOM     45  C   UNL     1      16.679  11.814   7.360  1.00  0.00     0.031 A 
ATOM     46  C   UNL     1      15.472   5.885  10.880  1.00  0.00     0.031 A 
ATOM     47  C   UNL     1      17.971  11.550   7.948  1.00  0.00     0.049 A 
ATOM     48  C   UNL     1      16.101   7.144  11.351  1.00  0.00     0.074 A 
ATOM     49  C   UNL     1      19.244  11.320   7.467  1.00  0.00     0.029 A 
ATOM     50  N   UNL     1      17.958  11.076   9.241  1.00  0.00    -0.354 N 
ATOM     51  N   UNL     1      17.392   7.321  11.399  1.00  0.00    -0.248 NA
ATOM     52  C   UNL     1      15.306   8.360  11.301  1.00  0.00     0.031 C 
ATOM     53  C   UNL     1      19.788  10.321   8.327  1.00  0.00     0.029 A 
ATOM     54  C   UNL     1      18.863  10.056   9.339  1.00  0.00     0.049 A 
ATOM     55  H   UNL     1      17.391  11.414   9.971  1.00  0.00     0.167 HD
ATOM     56  C   UNL     1      17.587   8.613  10.930  1.00  0.00     0.074 A 
ATOM     57  C   UNL     1      16.264   9.237  10.987  1.00  0.00     0.031 C 
ATOM     58  C   UNL     1      18.733   8.950  10.265  1.00  0.00     0.031 A 
BRANCH  45  59
ATOM     59  C   UNL     1      15.694  12.747   8.040  1.00  0.00    -0.014 A 
ATOM     60  C   UNL     1      16.206  13.706   8.940  1.00  0.00     0.010 A 
ATOM     61  C   UNL     1      14.301  12.533   8.070  1.00  0.00     0.010 A 
ATOM     62  C   UNL     1      15.387  14.325   9.892  1.00  0.00     0.020 A 
ATOM     63  C   UNL     1      13.467  13.179   8.985  1.00  0.00     0.020 A 
ATOM     64  C   UNL     1      14.024  14.040   9.918  1.00  0.00     0.054 A 
BRANCH  64  65
ATOM     65  S   UNL     1      12.995  14.754  11.222  1.00  0.00     0.124 S 
ATOM     66  O   UNL     1      13.530  14.102  12.413  1.00  0.00    -0.237 OA
ATOM     67  O   UNL     1      13.283  16.179  11.092  1.00  0.00    -0.237 OA
ATOM     68  O   UNL     1      11.641  14.358  10.841  1.00  0.00    -0.744 OA
ENDBRANCH  64  65
ENDBRANCH  45  59
BRANCH  46  69
ATOM     69  C   UNL     1      14.429   5.176  11.672  1.00  0.00    -0.014 A 
ATOM     70  C   UNL     1      14.404   5.255  13.080  1.00  0.00     0.010 A 
ATOM     71  C   UNL     1      13.281   4.668  11.032  1.00  0.00     0.010 A 
ATOM     72  C   UNL     1      13.251   4.907  13.811  1.00  0.00     0.020 A 
ATOM     73  C   UNL     1      12.130   4.316  11.754  1.00  0.00     0.020 A 
ATOM     74  C   UNL     1      12.111   4.461  13.139  1.00  0.00     0.054 A 
BRANCH  74  75
ATOM     75  S   UNL     1      10.566   4.195  14.067  1.00  0.00     0.124 S 
ATOM     76  O   UNL     1      10.869   2.995  14.841  1.00  0.00    -0.237 OA
ATOM     77  O   UNL     1      10.439   5.428  14.838  1.00  0.00    -0.237 OA
ATOM     78  O   UNL     1       9.562   4.018  13.019  1.00  0.00    -0.744 OA
ENDBRANCH  74  75
ENDBRANCH  46  69
BRANCH  58  79
ATOM     79  C   UNL     1      19.909   8.004  10.337  1.00  0.00    -0.014 A 
ATOM     80  C   UNL     1      19.915   6.695   9.813  1.00  0.00     0.010 A 
ATOM     81  C   UNL     1      21.113   8.534  10.832  1.00  0.00     0.010 A 
ATOM     82  C   UNL     1      21.095   5.932   9.811  1.00  0.00     0.020 A 
ATOM     83  C   UNL     1      22.291   7.788  10.815  1.00  0.00     0.020 A 
ATOM     84  C   UNL     1      22.277   6.487  10.315  1.00  0.00     0.054 A 
BRANCH  84  85
ATOM     85  S   UNL     1      23.811   5.517  10.287  1.00  0.00     0.124 S 
ATOM     86  O   UNL     1      23.538   4.462  11.258  1.00  0.00    -0.237 OA
ATOM     87  O   UNL     1      23.896   5.083   8.894  1.00  0.00    -0.237 OA
ATOM     88  O   UNL     1      24.838   6.477  10.690  1.00  0.00    -0.744 OA
ENDBRANCH  84  85
ENDBRANCH  58  79
ENDBRANCH  32  33
ENDBRANCH  24  27
ENDBRANCH  22  23
ENDBRANCH   1  22
TORSDOF 16
