REMARK SMILES O=C(NCCCNC(=O)[C@@H](CO)NC(=O)[C@H]1CCCc2ccccc21)c1ccc(-c2c3nc(c(-c4ccc(S(=O)(=O)[O-])cc4)c4ccc([nH]4)c(-c4ccc(S(=O)(=O)[O-])cc4)c4nc(c(-c5ccc(S(=O)(=O)[O-])cc5)c5ccc2[nH]5)C=C4)C=C3)cc1
REMARK SMILES IDX 4 1 3 2 1 3 2 4 26 6 27 7 85 8 28 9 84 10 29 11 30 12 31 13
REMARK SMILES IDX 78 14 32 15 83 16 77 17 79 18 33 19 82 20 76 21 75 22 34 24
REMARK SMILES IDX 64 25 45 26 63 27 46 28 49 29 62 30 80 31 47 32 48 33 61 35
REMARK SMILES IDX 81 36 50 37 35 38 36 39 44 40 37 41 43 42 38 43 39 44 40 45
REMARK SMILES IDX 41 46 42 47 65 48 66 49 74 50 67 51 73 52 68 53 69 54 70 55
REMARK SMILES IDX 71 56 72 57 51 58 52 59 60 60 53 61 59 62 54 63 55 64 56 65
REMARK SMILES IDX 57 66 58 67 5 68 6 69 7 70 8 71 9 73 10 74 11 75 12 76 13 78
REMARK SMILES IDX 14 79 15 81 16 82 17 83 25 84 18 85 20 86 24 87 19 88 21 89
REMARK SMILES IDX 23 90 22 91
REMARK H PARENT 3 5 79 23 49 34 7 72 12 77 13 80
REMARK Flexibility Score: inf
ROOT
ATOM      1  C   UNL     1      12.194   1.547   4.649  1.00  0.00     0.118 C 
ENDROOT
BRANCH   1   2
ATOM      2  N   UNL     1      12.709   2.901   4.772  1.00  0.00    -0.352 N 
ATOM      3  O   UNL     1      14.302   4.472   5.029  1.00  0.00    -0.269 OA
ATOM      4  C   UNL     1      14.004   3.347   4.650  1.00  0.00     0.251 C 
ATOM      5  H   UNL     1      12.039   3.594   4.969  1.00  0.00     0.163 HD
BRANCH   4   6
ATOM      6  C   UNL     1      15.028   2.450   4.074  1.00  0.00     0.039 A 
ATOM      7  C   UNL     1      14.731   1.674   2.951  1.00  0.00     0.014 A 
ATOM      8  C   UNL     1      16.298   2.394   4.651  1.00  0.00     0.014 A 
ATOM      9  C   UNL     1      15.642   0.730   2.503  1.00  0.00     0.010 A 
ATOM     10  C   UNL     1      17.258   1.530   4.119  1.00  0.00     0.010 A 
ATOM     11  C   UNL     1      16.932   0.679   3.051  1.00  0.00    -0.014 A 
BRANCH  11  12
ATOM     12  C   UNL     1      17.953  -0.186   2.411  1.00  0.00     0.031 A 
ATOM     13  C   UNL     1      18.620  -1.300   3.163  1.00  0.00     0.074 A 
ATOM     14  C   UNL     1      18.278   0.062   1.127  1.00  0.00     0.049 A 
ATOM     15  N   UNL     1      19.554  -2.119   2.754  1.00  0.00    -0.248 NA
ATOM     16  C   UNL     1      18.196  -1.518   4.555  1.00  0.00     0.031 C 
ATOM     17  C   UNL     1      17.701   1.131   0.303  1.00  0.00     0.029 A 
ATOM     18  N   UNL     1      19.163  -0.559   0.286  1.00  0.00    -0.354 N 
ATOM     19  C   UNL     1      19.854  -2.931   3.842  1.00  0.00     0.074 A 
ATOM     20  C   UNL     1      19.014  -2.491   4.936  1.00  0.00     0.031 C 
ATOM     21  C   UNL     1      18.218   1.067  -0.930  1.00  0.00     0.029 A 
ATOM     22  C   UNL     1      19.224   0.014  -0.962  1.00  0.00     0.049 A 
ATOM     23  H   UNL     1      19.703  -1.339   0.549  1.00  0.00     0.167 HD
ATOM     24  C   UNL     1      20.750  -3.945   3.916  1.00  0.00     0.031 A 
ATOM     25  C   UNL     1      20.027  -0.243  -2.010  1.00  0.00     0.031 A 
ATOM     26  C   UNL     1      21.588  -4.358   2.819  1.00  0.00     0.049 A 
ATOM     27  C   UNL     1      21.035  -1.346  -1.892  1.00  0.00     0.074 A 
ATOM     28  C   UNL     1      22.501  -5.398   2.778  1.00  0.00     0.029 A 
ATOM     29  N   UNL     1      21.632  -3.741   1.576  1.00  0.00    -0.354 N 
ATOM     30  N   UNL     1      21.269  -2.135  -0.870  1.00  0.00    -0.248 NA
ATOM     31  C   UNL     1      21.883  -1.597  -3.062  1.00  0.00     0.031 C 
ATOM     32  C   UNL     1      23.143  -5.367   1.536  1.00  0.00     0.029 A 
ATOM     33  C   UNL     1      22.580  -4.356   0.773  1.00  0.00     0.049 A 
ATOM     34  H   UNL     1      21.071  -2.979   1.304  1.00  0.00     0.167 HD
ATOM     35  C   UNL     1      22.284  -2.990  -1.280  1.00  0.00     0.074 A 
ATOM     36  C   UNL     1      22.602  -2.632  -2.648  1.00  0.00     0.031 C 
ATOM     37  C   UNL     1      22.893  -3.981  -0.585  1.00  0.00     0.031 A 
BRANCH  24  38
ATOM     38  C   UNL     1      20.903  -4.646   5.244  1.00  0.00    -0.014 A 
ATOM     39  C   UNL     1      19.879  -5.452   5.775  1.00  0.00     0.010 A 
ATOM     40  C   UNL     1      22.105  -4.511   5.964  1.00  0.00     0.010 A 
ATOM     41  C   UNL     1      20.033  -6.062   7.024  1.00  0.00     0.020 A 
ATOM     42  C   UNL     1      22.275  -5.145   7.198  1.00  0.00     0.020 A 
ATOM     43  C   UNL     1      21.228  -5.898   7.731  1.00  0.00     0.054 A 
BRANCH  43  44
ATOM     44  S   UNL     1      21.394  -6.691   9.354  1.00  0.00     0.124 S 
ATOM     45  O   UNL     1      20.499  -5.880  10.177  1.00  0.00    -0.237 OA
ATOM     46  O   UNL     1      20.940  -8.055   9.092  1.00  0.00    -0.237 OA
ATOM     47  O   UNL     1      22.815  -6.558   9.663  1.00  0.00    -0.744 OA
ENDBRANCH  43  44
ENDBRANCH  24  38
BRANCH  25  48
ATOM     48  C   UNL     1      19.916   0.596  -3.233  1.00  0.00    -0.014 A 
ATOM     49  C   UNL     1      19.384   0.071  -4.422  1.00  0.00     0.010 A 
ATOM     50  C   UNL     1      20.280   1.956  -3.186  1.00  0.00     0.010 A 
ATOM     51  C   UNL     1      19.220   0.891  -5.543  1.00  0.00     0.020 A 
ATOM     52  C   UNL     1      20.086   2.786  -4.292  1.00  0.00     0.020 A 
ATOM     53  C   UNL     1      19.564   2.245  -5.468  1.00  0.00     0.054 A 
BRANCH  53  54
ATOM     54  S   UNL     1      19.267   3.304  -6.910  1.00  0.00     0.124 S 
ATOM     55  O   UNL     1      20.302   2.853  -7.835  1.00  0.00    -0.237 OA
ATOM     56  O   UNL     1      17.896   2.960  -7.276  1.00  0.00    -0.237 OA
ATOM     57  O   UNL     1      19.442   4.657  -6.384  1.00  0.00    -0.744 OA
ENDBRANCH  53  54
ENDBRANCH  25  48
BRANCH  37  58
ATOM     58  C   UNL     1      23.951  -4.775  -1.303  1.00  0.00    -0.014 A 
ATOM     59  C   UNL     1      25.208  -4.218  -1.599  1.00  0.00     0.010 A 
ATOM     60  C   UNL     1      23.701  -6.120  -1.631  1.00  0.00     0.010 A 
ATOM     61  C   UNL     1      26.189  -4.988  -2.231  1.00  0.00     0.020 A 
ATOM     62  C   UNL     1      24.689  -6.901  -2.234  1.00  0.00     0.020 A 
ATOM     63  C   UNL     1      25.924  -6.326  -2.540  1.00  0.00     0.054 A 
BRANCH  63  64
ATOM     64  S   UNL     1      27.235  -7.320  -3.303  1.00  0.00     0.124 S 
ATOM     65  O   UNL     1      27.287  -6.769  -4.654  1.00  0.00    -0.237 OA
ATOM     66  O   UNL     1      28.390  -7.027  -2.459  1.00  0.00    -0.237 OA
ATOM     67  O   UNL     1      26.732  -8.689  -3.208  1.00  0.00    -0.744 OA
ENDBRANCH  63  64
ENDBRANCH  37  58
ENDBRANCH  11  12
ENDBRANCH   4   6
ENDBRANCH   1   2
BRANCH   1  68
ATOM     68  C   UNL     1      11.814   0.954   5.993  1.00  0.00     0.042 C 
BRANCH  68  69
ATOM     69  C   UNL     1      10.623   1.642   6.650  1.00  0.00     0.117 C 
BRANCH  69  70
ATOM     70  N   UNL     1       9.452   1.632   5.787  1.00  0.00    -0.354 N 
ATOM     71  C   UNL     1       8.355   0.834   5.762  1.00  0.00     0.244 C 
ATOM     72  H   UNL     1       9.456   2.333   5.096  1.00  0.00     0.163 HD
ATOM     73  O   UNL     1       7.719   0.799   4.701  1.00  0.00    -0.273 OA
BRANCH  71  74
ATOM     74  C   UNL     1       7.936  -0.075   6.926  1.00  0.00     0.197 C 
BRANCH  74  75
ATOM     75  C   UNL     1       8.700  -1.412   6.900  1.00  0.00     0.191 C 
BRANCH  75  76
ATOM     76  O   UNL     1      10.080  -1.274   7.213  1.00  0.00    -0.394 OA
ATOM     77  H   UNL     1      10.506  -0.707   6.551  1.00  0.00     0.210 HD
ENDBRANCH  75  76
ENDBRANCH  74  75
BRANCH  74  78
ATOM     78  N   UNL     1       7.950   0.593   8.227  1.00  0.00    -0.342 N 
ATOM     79  C   UNL     1       7.060   0.647   9.253  1.00  0.00     0.228 C 
ATOM     80  H   UNL     1       8.771   1.109   8.393  1.00  0.00     0.164 HD
ATOM     81  O   UNL     1       7.391   1.414  10.164  1.00  0.00    -0.274 OA
BRANCH  79  82
ATOM     82  C   UNL     1       5.698  -0.113   9.244  1.00  0.00     0.109 C 
ATOM     83  C   UNL     1       5.852  -1.561   8.742  1.00  0.00     0.018 C 
ATOM     84  C   UNL     1       5.003  -0.069  10.621  1.00  0.00    -0.032 A 
ATOM     85  C   UNL     1       4.732  -2.492   9.164  1.00  0.00     0.006 C 
ATOM     86  C   UNL     1       4.593  -1.241  11.294  1.00  0.00    -0.044 A 
ATOM     87  C   UNL     1       4.741   1.169  11.238  1.00  0.00     0.005 A 
ATOM     88  C   UNL     1       4.741  -2.603  10.674  1.00  0.00     0.036 C 
ATOM     89  C   UNL     1       4.052  -1.161  12.587  1.00  0.00     0.004 A 
ATOM     90  C   UNL     1       4.185   1.238  12.518  1.00  0.00     0.000 A 
ATOM     91  C   UNL     1       3.856   0.072  13.199  1.00  0.00     0.000 A 
ENDBRANCH  79  82
ENDBRANCH  74  78
ENDBRANCH  71  74
ENDBRANCH  69  70
ENDBRANCH  68  69
ENDBRANCH   1  68
TORSDOF 17
