REMARK SMILES COc1ccc(C2=NN=C[C@@H]2C(=O)NCCCNC(=O)c2ccc(-c3c4nc(c(-c5ccc(S(=O)(=O)[O-])cc5)c5ccc([nH]5)c(-c5ccc(S(=O)(=O)[O-])cc5)c5nc(c(-c6ccc(S(=O)(=O)[O-])cc6)c6ccc3[nH]6)C=C5)C=C4)cc2)cc1OC
REMARK SMILES IDX 16 1 15 2 14 3 12 4 13 5 11 7 7 8 8 9 9 10 10 11 6 12 3 13
REMARK SMILES IDX 4 14 82 15 5 16 81 17 2 18 1 19 83 20 84 21 17 22 18 23
REMARK SMILES IDX 19 24 20 26 21 27 22 28 80 29 23 30 79 31 24 32 25 33 26 34
REMARK SMILES IDX 73 35 27 36 78 37 72 38 74 39 28 40 77 41 71 42 70 43 29 45
REMARK SMILES IDX 59 46 40 47 58 48 41 49 44 50 57 51 75 52 42 53 43 54 56 56
REMARK SMILES IDX 76 57 45 58 30 59 31 60 39 61 32 62 38 63 33 64 34 65 35 66
REMARK SMILES IDX 36 67 37 68 60 69 61 70 69 71 62 72 68 73 63 74 64 75 65 76
REMARK SMILES IDX 66 77 67 78 46 79 47 80 55 81 48 82 54 83 49 84 50 85 51 86
REMARK SMILES IDX 52 87 53 88
REMARK H PARENT 14 6 18 25 74 44 44 55
REMARK Flexibility Score: inf
ROOT
ATOM      1  C   UNL     1       4.912   8.051   1.939  1.00  0.00     0.042 C 
ENDROOT
BRANCH   1   2
ATOM      2  C   UNL     1       4.110   6.827   1.493  1.00  0.00     0.117 C 
BRANCH   2   3
ATOM      3  N   UNL     1       2.832   6.697   2.185  1.00  0.00    -0.355 N 
ATOM      4  C   UNL     1       1.552   6.870   1.754  1.00  0.00     0.234 C 
ATOM      5  O   UNL     1       0.647   6.638   2.560  1.00  0.00    -0.274 OA
ATOM      6  H   UNL     1       2.909   6.439   3.132  1.00  0.00     0.163 HD
BRANCH   4   7
ATOM      7  C   UNL     1       1.211   7.297   0.359  1.00  0.00     0.173 C 
ATOM      8  C   UNL     1       1.708   6.417  -0.733  1.00  0.00     0.088 C 
ATOM      9  N   UNL     1       2.433   7.050  -1.607  1.00  0.00    -0.154 NA
ATOM     10  N   UNL     1       2.508   8.425  -1.204  1.00  0.00    -0.162 NA
ATOM     11  C   UNL     1       1.841   8.557  -0.102  1.00  0.00     0.128 C 
BRANCH   8  12
ATOM     12  C   UNL     1       1.434   4.979  -0.763  1.00  0.00     0.003 A 
ATOM     13  C   UNL     1       0.994   2.229  -0.897  1.00  0.00     0.160 A 
ATOM     14  C   UNL     1      -0.080   3.128  -1.009  1.00  0.00     0.051 A 
ATOM     15  C   UNL     1       2.297   2.708  -0.703  1.00  0.00     0.161 A 
ATOM     16  C   UNL     1       0.135   4.507  -0.925  1.00  0.00     0.014 A 
ATOM     17  C   UNL     1       2.506   4.092  -0.651  1.00  0.00     0.060 A 
BRANCH  13  18
ATOM     18  O   UNL     1       0.753   0.905  -1.152  1.00  0.00    -0.493 OA
ATOM     19  C   UNL     1       0.111   0.245  -0.061  1.00  0.00     0.278 C 
ENDBRANCH  13  18
BRANCH  15  20
ATOM     20  O   UNL     1       3.459   1.993  -0.594  1.00  0.00    -0.493 OA
ATOM     21  C   UNL     1       3.369   0.618  -0.253  1.00  0.00     0.278 C 
ENDBRANCH  15  20
ENDBRANCH   8  12
ENDBRANCH   4   7
ENDBRANCH   2   3
ENDBRANCH   1   2
BRANCH   1  22
ATOM     22  C   UNL     1       5.517   7.877   3.323  1.00  0.00     0.118 C 
BRANCH  22  23
ATOM     23  N   UNL     1       6.582   6.869   3.365  1.00  0.00    -0.352 N 
ATOM     24  C   UNL     1       7.343   6.480   4.458  1.00  0.00     0.251 C 
ATOM     25  H   UNL     1       6.781   6.415   2.515  1.00  0.00     0.163 HD
ATOM     26  O   UNL     1       8.408   5.905   4.310  1.00  0.00    -0.269 OA
BRANCH  24  27
ATOM     27  C   UNL     1       6.820   6.774   5.805  1.00  0.00     0.039 A 
ATOM     28  C   UNL     1       7.633   7.268   6.829  1.00  0.00     0.014 A 
ATOM     29  C   UNL     1       5.454   6.600   6.002  1.00  0.00     0.014 A 
ATOM     30  C   UNL     1       7.034   7.673   8.021  1.00  0.00     0.010 A 
ATOM     31  C   UNL     1       4.851   7.171   7.088  1.00  0.00     0.010 A 
ATOM     32  C   UNL     1       5.634   7.646   8.133  1.00  0.00    -0.014 A 
BRANCH  32  33
ATOM     33  C   UNL     1       4.939   8.241   9.271  1.00  0.00     0.031 A 
ATOM     34  C   UNL     1       5.287   9.669   9.504  1.00  0.00     0.074 A 
ATOM     35  C   UNL     1       3.893   7.636   9.881  1.00  0.00     0.049 A 
ATOM     36  N   UNL     1       5.982  10.158  10.476  1.00  0.00    -0.248 NA
ATOM     37  C   UNL     1       4.984  10.648   8.443  1.00  0.00     0.031 C 
ATOM     38  C   UNL     1       3.258   6.357   9.525  1.00  0.00     0.029 A 
ATOM     39  N   UNL     1       3.080   8.092  10.873  1.00  0.00    -0.354 N 
ATOM     40  C   UNL     1       5.970  11.537  10.291  1.00  0.00     0.074 A 
ATOM     41  C   UNL     1       5.553  11.753   8.930  1.00  0.00     0.031 C 
ATOM     42  C   UNL     1       2.039   6.271  10.103  1.00  0.00     0.029 A 
ATOM     43  C   UNL     1       1.884   7.388  11.014  1.00  0.00     0.049 A 
ATOM     44  H   UNL     1       3.317   8.858  11.444  1.00  0.00     0.167 HD
ATOM     45  C   UNL     1       6.005  12.388  11.356  1.00  0.00     0.031 A 
ATOM     46  C   UNL     1       0.833   7.697  11.818  1.00  0.00     0.031 A 
ATOM     47  C   UNL     1       6.345  11.687  12.569  1.00  0.00     0.049 A 
ATOM     48  C   UNL     1       1.355   8.605  12.864  1.00  0.00     0.074 A 
ATOM     49  C   UNL     1       7.431  10.968  13.021  1.00  0.00     0.029 A 
ATOM     50  N   UNL     1       5.281  11.332  13.364  1.00  0.00    -0.354 N 
ATOM     51  N   UNL     1       2.240   8.238  13.749  1.00  0.00    -0.248 NA
ATOM     52  C   UNL     1       1.250  10.037  12.646  1.00  0.00     0.031 C 
ATOM     53  C   UNL     1       6.875   9.902  13.790  1.00  0.00     0.029 A 
ATOM     54  C   UNL     1       5.488  10.066  13.841  1.00  0.00     0.049 A 
ATOM     55  H   UNL     1       4.498  11.896  13.559  1.00  0.00     0.167 HD
ATOM     56  C   UNL     1       3.099   9.322  13.858  1.00  0.00     0.074 A 
ATOM     57  C   UNL     1       2.370  10.437  13.254  1.00  0.00     0.031 C 
ATOM     58  C   UNL     1       4.418   9.141  14.167  1.00  0.00     0.031 A 
BRANCH  45  59
ATOM     59  C   UNL     1       5.275  13.715  11.403  1.00  0.00    -0.014 A 
ATOM     60  C   UNL     1       5.375  14.493  12.576  1.00  0.00     0.010 A 
ATOM     61  C   UNL     1       4.274  14.082  10.481  1.00  0.00     0.010 A 
ATOM     62  C   UNL     1       4.466  15.525  12.848  1.00  0.00     0.020 A 
ATOM     63  C   UNL     1       3.390  15.136  10.722  1.00  0.00     0.020 A 
ATOM     64  C   UNL     1       3.470  15.829  11.922  1.00  0.00     0.054 A 
BRANCH  64  65
ATOM     65  S   UNL     1       2.242  17.095  12.323  1.00  0.00     0.124 S 
ATOM     66  O   UNL     1       1.539  16.485  13.447  1.00  0.00    -0.237 OA
ATOM     67  O   UNL     1       3.082  18.245  12.647  1.00  0.00    -0.237 OA
ATOM     68  O   UNL     1       1.467  17.222  11.091  1.00  0.00    -0.744 OA
ENDBRANCH  64  65
ENDBRANCH  45  59
BRANCH  46  69
ATOM     69  C   UNL     1      -0.620   7.492  11.582  1.00  0.00    -0.014 A 
ATOM     70  C   UNL     1      -1.558   7.548  12.631  1.00  0.00     0.010 A 
ATOM     71  C   UNL     1      -1.119   7.520  10.263  1.00  0.00     0.010 A 
ATOM     72  C   UNL     1      -2.938   7.673  12.370  1.00  0.00     0.020 A 
ATOM     73  C   UNL     1      -2.490   7.645   9.995  1.00  0.00     0.020 A 
ATOM     74  C   UNL     1      -3.394   7.737  11.051  1.00  0.00     0.054 A 
BRANCH  74  75
ATOM     75  S   UNL     1      -5.158   8.044  10.719  1.00  0.00     0.124 S 
ATOM     76  O   UNL     1      -5.780   6.800  11.163  1.00  0.00    -0.237 OA
ATOM     77  O   UNL     1      -5.439   9.219  11.539  1.00  0.00    -0.237 OA
ATOM     78  O   UNL     1      -5.203   8.276   9.276  1.00  0.00    -0.744 OA
ENDBRANCH  74  75
ENDBRANCH  46  69
BRANCH  58  79
ATOM     79  C   UNL     1       4.843   7.801  14.728  1.00  0.00    -0.014 A 
ATOM     80  C   UNL     1       4.768   6.580  14.029  1.00  0.00     0.010 A 
ATOM     81  C   UNL     1       5.477   7.815  15.983  1.00  0.00     0.010 A 
ATOM     82  C   UNL     1       5.293   5.402  14.587  1.00  0.00     0.020 A 
ATOM     83  C   UNL     1       6.018   6.652  16.534  1.00  0.00     0.020 A 
ATOM     84  C   UNL     1       5.914   5.448  15.839  1.00  0.00     0.054 A 
BRANCH  84  85
ATOM     85  S   UNL     1       6.623   3.935  16.550  1.00  0.00     0.124 S 
ATOM     86  O   UNL     1       5.437   3.132  16.835  1.00  0.00    -0.237 OA
ATOM     87  O   UNL     1       7.476   3.438  15.473  1.00  0.00    -0.237 OA
ATOM     88  O   UNL     1       7.345   4.409  17.730  1.00  0.00    -0.744 OA
ENDBRANCH  84  85
ENDBRANCH  58  79
ENDBRANCH  32  33
ENDBRANCH  24  27
ENDBRANCH  22  23
ENDBRANCH   1  22
TORSDOF 16
