REMARK SMILES CC(C)n1cc(C(=O)NCCCNC(=O)c2ccc(-c3c4nc(c(-c5ccc(S(=O)(=O)[O-])cc5)c5ccc([nH]5)c(-c5ccc(S(=O)(=O)[O-])cc5)c5nc(c(-c6ccc(S(=O)(=O)[O-])cc6)c6ccc3[nH]6)C=C5)C=C4)cc2)c2ccccc2c1=O
REMARK SMILES IDX 12 1 11 2 10 3 9 4 7 5 8 6 6 8 4 9 5 10 82 11 81 12 83 13
REMARK SMILES IDX 76 14 80 15 77 16 79 17 78 18 2 19 1 20 3 21 13 22 14 23
REMARK SMILES IDX 15 25 16 26 17 27 75 28 18 29 74 30 19 31 20 32 21 33 68 34
REMARK SMILES IDX 22 35 73 36 67 37 69 38 23 39 72 40 66 41 65 42 24 44 54 45
REMARK SMILES IDX 35 46 53 47 36 48 39 49 52 50 70 51 37 52 38 53 51 55 71 56
REMARK SMILES IDX 40 57 25 58 26 59 34 60 27 61 33 62 28 63 29 64 30 65 31 66
REMARK SMILES IDX 32 67 55 68 56 69 64 70 57 71 63 72 58 73 59 74 60 75 61 76
REMARK SMILES IDX 62 77 41 78 42 79 50 80 43 81 49 82 44 83 45 84 46 85 47 86
REMARK SMILES IDX 48 87
REMARK H PARENT 9 7 13 24 69 43 39 54
REMARK Flexibility Score: inf
ROOT
ATOM      1  C   UNL     1      -1.205   4.861  -2.160  1.00  0.00     0.118 C 
ENDROOT
BRANCH   1   2
ATOM      2  C   UNL     1      -0.779   3.461  -1.722  1.00  0.00     0.042 C 
BRANCH   2   3
ATOM      3  C   UNL     1      -1.554   2.966  -0.501  1.00  0.00     0.118 C 
BRANCH   3   4
ATOM      4  N   UNL     1      -2.920   2.642  -0.874  1.00  0.00    -0.352 N 
ATOM      5  C   UNL     1      -3.557   1.516  -1.296  1.00  0.00     0.253 C 
ATOM      6  O   UNL     1      -4.712   1.700  -1.686  1.00  0.00    -0.269 OA
ATOM      7  H   UNL     1      -3.525   3.415  -0.806  1.00  0.00     0.163 HD
BRANCH   5   8
ATOM      8  C   UNL     1      -2.963   0.128  -1.221  1.00  0.00     0.064 A 
ATOM      9  N   UNL     1      -0.979  -1.275  -1.111  1.00  0.00    -0.312 N 
ATOM     10  C   UNL     1      -1.638  -0.067  -1.336  1.00  0.00     0.104 A 
ATOM     11  C   UNL     1      -1.704  -2.445  -0.854  1.00  0.00     0.258 A 
ATOM     12  C   UNL     1      -3.181  -2.349  -0.986  1.00  0.00     0.048 A 
ATOM     13  O   UNL     1      -1.226  -3.527  -0.541  1.00  0.00    -0.269 OA
ATOM     14  C   UNL     1      -3.804  -1.099  -1.119  1.00  0.00     0.001 A 
ATOM     15  C   UNL     1      -3.926  -3.543  -0.993  1.00  0.00     0.014 A 
ATOM     16  C   UNL     1      -5.208  -1.095  -1.212  1.00  0.00     0.010 A 
ATOM     17  C   UNL     1      -5.310  -3.509  -1.123  1.00  0.00     0.001 A 
ATOM     18  C   UNL     1      -5.951  -2.282  -1.223  1.00  0.00     0.001 A 
BRANCH   9  19
ATOM     19  C   UNL     1       0.517  -1.230  -1.069  1.00  0.00     0.084 C 
ATOM     20  C   UNL     1       1.020  -0.341   0.082  1.00  0.00     0.031 C 
ATOM     21  C   UNL     1       1.252  -2.572  -0.984  1.00  0.00     0.031 C 
ENDBRANCH   9  19
ENDBRANCH   5   8
ENDBRANCH   3   4
ENDBRANCH   2   3
ENDBRANCH   1   2
BRANCH   1  22
ATOM     22  N   UNL     1      -0.774   5.887  -1.216  1.00  0.00    -0.352 N 
ATOM     23  C   UNL     1       0.071   6.954  -1.411  1.00  0.00     0.251 C 
ATOM     24  H   UNL     1      -1.143   5.803  -0.307  1.00  0.00     0.163 HD
ATOM     25  O   UNL     1       0.490   7.589  -0.449  1.00  0.00    -0.269 OA
BRANCH  23  26
ATOM     26  C   UNL     1       0.490   7.305  -2.783  1.00  0.00     0.039 A 
ATOM     27  C   UNL     1      -0.451   7.338  -3.813  1.00  0.00     0.014 A 
ATOM     28  C   UNL     1       1.837   7.559  -3.049  1.00  0.00     0.014 A 
ATOM     29  C   UNL     1      -0.020   7.426  -5.130  1.00  0.00     0.010 A 
ATOM     30  C   UNL     1       2.255   7.749  -4.369  1.00  0.00     0.010 A 
ATOM     31  C   UNL     1       1.339   7.623  -5.426  1.00  0.00    -0.014 A 
BRANCH  31  32
ATOM     32  C   UNL     1       1.776   7.672  -6.846  1.00  0.00     0.031 A 
ATOM     33  C   UNL     1       2.712   6.627  -7.396  1.00  0.00     0.074 A 
ATOM     34  C   UNL     1       1.271   8.623  -7.657  1.00  0.00     0.049 A 
ATOM     35  N   UNL     1       3.177   6.503  -8.614  1.00  0.00    -0.248 NA
ATOM     36  C   UNL     1       3.191   5.588  -6.468  1.00  0.00     0.031 C 
ATOM     37  C   UNL     1       0.329   9.665  -7.241  1.00  0.00     0.029 A 
ATOM     38  N   UNL     1       1.446   8.851  -8.999  1.00  0.00    -0.354 N 
ATOM     39  C   UNL     1       4.008   5.388  -8.594  1.00  0.00     0.074 A 
ATOM     40  C   UNL     1       4.017   4.891  -7.237  1.00  0.00     0.031 C 
ATOM     41  C   UNL     1      -0.043  10.375  -8.315  1.00  0.00     0.029 A 
ATOM     42  C   UNL     1       0.696   9.899  -9.480  1.00  0.00     0.049 A 
ATOM     43  H   UNL     1       2.049   8.315  -9.563  1.00  0.00     0.167 HD
ATOM     44  C   UNL     1       4.686   4.822  -9.620  1.00  0.00     0.031 A 
ATOM     45  C   UNL     1       0.616  10.434 -10.716  1.00  0.00     0.031 A 
ATOM     46  C   UNL     1       4.653   5.317 -10.973  1.00  0.00     0.049 A 
ATOM     47  C   UNL     1       1.428   9.827 -11.823  1.00  0.00     0.074 A 
ATOM     48  C   UNL     1       5.295   4.802 -12.085  1.00  0.00     0.029 A 
ATOM     49  N   UNL     1       3.939   6.427 -11.402  1.00  0.00    -0.354 N 
ATOM     50  N   UNL     1       2.204   8.770 -11.785  1.00  0.00    -0.248 NA
ATOM     51  C   UNL     1       1.357  10.477 -13.138  1.00  0.00     0.031 C 
ATOM     52  C   UNL     1       5.034   5.644 -13.168  1.00  0.00     0.029 A 
ATOM     53  C   UNL     1       4.155   6.633 -12.754  1.00  0.00     0.049 A 
ATOM     54  H   UNL     1       3.365   6.985 -10.829  1.00  0.00     0.167 HD
ATOM     55  C   UNL     1       2.704   8.620 -13.073  1.00  0.00     0.074 A 
ATOM     56  C   UNL     1       2.123   9.679 -13.872  1.00  0.00     0.031 C 
ATOM     57  C   UNL     1       3.571   7.690 -13.544  1.00  0.00     0.031 A 
BRANCH  44  58
ATOM     58  C   UNL     1       5.527   3.600  -9.345  1.00  0.00    -0.014 A 
ATOM     59  C   UNL     1       6.925   3.662  -9.511  1.00  0.00     0.010 A 
ATOM     60  C   UNL     1       4.932   2.358  -9.058  1.00  0.00     0.010 A 
ATOM     61  C   UNL     1       7.704   2.505  -9.437  1.00  0.00     0.020 A 
ATOM     62  C   UNL     1       5.712   1.202  -8.950  1.00  0.00     0.020 A 
ATOM     63  C   UNL     1       7.090   1.279  -9.167  1.00  0.00     0.054 A 
BRANCH  63  64
ATOM     64  S   UNL     1       8.112  -0.219  -9.117  1.00  0.00     0.124 S 
ATOM     65  O   UNL     1       8.419  -0.431 -10.528  1.00  0.00    -0.237 OA
ATOM     66  O   UNL     1       9.237   0.192  -8.280  1.00  0.00    -0.237 OA
ATOM     67  O   UNL     1       7.229  -1.215  -8.513  1.00  0.00    -0.744 OA
ENDBRANCH  63  64
ENDBRANCH  44  58
BRANCH  45  68
ATOM     68  C   UNL     1      -0.289  11.596 -10.944  1.00  0.00    -0.014 A 
ATOM     69  C   UNL     1      -0.049  12.823 -10.294  1.00  0.00     0.010 A 
ATOM     70  C   UNL     1      -1.451  11.454 -11.721  1.00  0.00     0.010 A 
ATOM     71  C   UNL     1      -0.987  13.855 -10.354  1.00  0.00     0.020 A 
ATOM     72  C   UNL     1      -2.375  12.501 -11.815  1.00  0.00     0.020 A 
ATOM     73  C   UNL     1      -2.153  13.680 -11.101  1.00  0.00     0.054 A 
BRANCH  73  74
ATOM     74  S   UNL     1      -3.391  15.006 -11.099  1.00  0.00     0.124 S 
ATOM     75  O   UNL     1      -3.964  14.878  -9.762  1.00  0.00    -0.237 OA
ATOM     76  O   UNL     1      -2.579  16.199 -11.325  1.00  0.00    -0.237 OA
ATOM     77  O   UNL     1      -4.282  14.645 -12.199  1.00  0.00    -0.744 OA
ENDBRANCH  73  74
ENDBRANCH  45  68
BRANCH  57  78
ATOM     78  C   UNL     1       3.965   7.753 -14.997  1.00  0.00    -0.014 A 
ATOM     79  C   UNL     1       3.607   6.702 -15.863  1.00  0.00     0.010 A 
ATOM     80  C   UNL     1       4.815   8.769 -15.469  1.00  0.00     0.010 A 
ATOM     81  C   UNL     1       4.132   6.638 -17.156  1.00  0.00     0.020 A 
ATOM     82  C   UNL     1       5.314   8.727 -16.774  1.00  0.00     0.020 A 
ATOM     83  C   UNL     1       4.994   7.645 -17.598  1.00  0.00     0.054 A 
BRANCH  83  84
ATOM     84  S   UNL     1       5.712   7.511 -19.258  1.00  0.00     0.124 S 
ATOM     85  O   UNL     1       6.697   6.448 -19.083  1.00  0.00    -0.237 OA
ATOM     86  O   UNL     1       4.554   7.168 -20.080  1.00  0.00    -0.237 OA
ATOM     87  O   UNL     1       6.266   8.842 -19.501  1.00  0.00    -0.744 OA
ENDBRANCH  83  84
ENDBRANCH  57  78
ENDBRANCH  31  32
ENDBRANCH  23  26
ENDBRANCH   1  22
TORSDOF 14
