REMARK SMILES Cc1ccc(NC(=O)c2cnn3c2NC2=C(C(=O)CCC2)[C@H]3c2ccc(C(=O)NCCCNC(=O)c3ccc(-c4c5nc(c(-c6ccc(S(=O)(=O)[O-])cc6)c6ccc([nH]6)c(-c6ccc(S(=O)(=O)[O-])cc6)c6nc(c(-c7ccc(S(=O)(=O)[O-])cc7)c7ccc4[nH]7)C=C6)C=C5)cc3)cc2)cc1
REMARK SMILES IDX 31 1 30 2 29 3 27 4 28 5 26 7 23 8 24 9 97 10 25 11 96 12
REMARK SMILES IDX 22 13 9 14 10 15 13 16 11 17 12 18 14 19 15 20 16 22 21 23
REMARK SMILES IDX 17 24 20 25 18 26 19 27 7 28 6 29 8 31 5 32 1 33 2 34 3 35
REMARK SMILES IDX 99 36 4 37 98 38 32 39 33 40 34 41 35 43 36 44 37 45 95 46
REMARK SMILES IDX 38 47 94 48 39 49 40 50 41 51 88 52 42 53 93 54 87 55 89 56
REMARK SMILES IDX 43 57 92 58 86 59 85 60 44 62 74 63 55 64 73 65 56 66 59 67
REMARK SMILES IDX 72 68 90 69 57 70 58 71 71 73 91 74 60 75 45 76 46 77 54 78
REMARK SMILES IDX 47 79 53 80 48 81 49 82 50 83 51 84 52 85 75 86 76 87 84 88
REMARK SMILES IDX 77 89 83 90 78 91 79 92 80 93 81 94 82 95 61 96 62 97 70 98
REMARK SMILES IDX 63 99 69 100 64 101 65 102 66 103 67 104 68 105
REMARK H PARENT 29 6 14 21 6 30 33 42 89 61 59 72
REMARK Flexibility Score: inf
ROOT
ATOM      1  C   UNL     1      -0.779  -1.995  -6.094  1.00  0.00     0.042 C 
ENDROOT
BRANCH   1   2
ATOM      2  C   UNL     1      -1.978  -2.854  -6.493  1.00  0.00     0.118 C 
BRANCH   2   3
ATOM      3  N   UNL     1      -1.585  -4.153  -7.030  1.00  0.00    -0.352 N 
ATOM      4  C   UNL     1      -1.438  -5.395  -6.454  1.00  0.00     0.251 C 
ATOM      5  O   UNL     1      -1.294  -6.364  -7.202  1.00  0.00    -0.269 OA
ATOM      6  H   UNL     1      -1.385  -4.138  -7.994  1.00  0.00     0.163 HD
BRANCH   4   7
ATOM      7  C   UNL     1      -1.482  -5.650  -4.981  1.00  0.00     0.039 A 
ATOM      8  C   UNL     1      -1.837  -6.215  -2.208  1.00  0.00    -0.019 A 
ATOM      9  C   UNL     1      -2.035  -7.214  -3.175  1.00  0.00     0.007 A 
ATOM     10  C   UNL     1      -1.246  -5.020  -2.648  1.00  0.00     0.007 A 
ATOM     11  C   UNL     1      -1.868  -6.928  -4.541  1.00  0.00     0.014 A 
ATOM     12  C   UNL     1      -1.106  -4.729  -4.011  1.00  0.00     0.014 A 
BRANCH   8  13
ATOM     13  C   UNL     1      -2.443  -6.341  -0.773  1.00  0.00     0.175 C 
ATOM     14  C   UNL     1      -3.480  -2.959  -0.234  1.00  0.00     0.102 A 
ATOM     15  C   UNL     1      -2.561  -3.211   0.829  1.00  0.00     0.151 A 
ATOM     16  C   UNL     1      -3.732  -4.219  -0.731  1.00  0.00     0.142 A 
ATOM     17  N   UNL     1      -2.067  -4.455   0.824  1.00  0.00    -0.178 NA
ATOM     18  N   UNL     1      -2.706  -5.001  -0.225  1.00  0.00    -0.237 N 
ATOM     19  N   UNL     1      -4.645  -4.828  -1.552  1.00  0.00    -0.343 N 
ATOM     20  C   UNL     1      -4.812  -6.221  -1.460  1.00  0.00     0.026 C 
ATOM     21  H   UNL     1      -5.173  -4.301  -2.193  1.00  0.00     0.168 HD
ATOM     22  C   UNL     1      -3.834  -6.936  -0.848  1.00  0.00     0.044 C 
ATOM     23  C   UNL     1      -6.157  -6.844  -1.698  1.00  0.00     0.055 C 
ATOM     24  C   UNL     1      -4.331  -7.739   0.300  1.00  0.00     0.163 C 
ATOM     25  C   UNL     1      -6.700  -7.544  -0.448  1.00  0.00     0.014 C 
ATOM     26  O   UNL     1      -3.577  -8.465   0.938  1.00  0.00    -0.294 OA
ATOM     27  C   UNL     1      -5.756  -7.439   0.744  1.00  0.00     0.081 C 
BRANCH  14  28
ATOM     28  C   UNL     1      -4.080  -1.709  -0.643  1.00  0.00     0.261 C 
ATOM     29  N   UNL     1      -3.325  -0.549  -0.612  1.00  0.00    -0.322 N 
ATOM     30  H   UNL     1      -3.859   0.277  -0.652  1.00  0.00     0.170 HD
ATOM     31  O   UNL     1      -5.266  -1.647  -0.968  1.00  0.00    -0.269 OA
BRANCH  29  32
ATOM     32  C   UNL     1      -1.931  -0.331  -0.534  1.00  0.00     0.041 A 
ATOM     33  C   UNL     1       2.293   0.425   0.030  1.00  0.00     0.044 C 
ATOM     34  C   UNL     1       0.830   0.192  -0.205  1.00  0.00    -0.051 A 
ATOM     35  C   UNL     1       0.392  -1.053  -0.655  1.00  0.00     0.005 A 
ATOM     36  C   UNL     1      -0.119   1.189   0.035  1.00  0.00     0.005 A 
ATOM     37  C   UNL     1      -0.971  -1.290  -0.851  1.00  0.00     0.026 A 
ATOM     38  C   UNL     1      -1.488   0.933  -0.138  1.00  0.00     0.026 A 
ENDBRANCH  29  32
ENDBRANCH  14  28
ENDBRANCH   8  13
ENDBRANCH   4   7
ENDBRANCH   2   3
ENDBRANCH   1   2
BRANCH   1  39
ATOM     39  C   UNL     1      -0.254  -1.086  -7.200  1.00  0.00     0.118 C 
BRANCH  39  40
ATOM     40  N   UNL     1      -0.327   0.326  -6.823  1.00  0.00    -0.352 N 
ATOM     41  C   UNL     1       0.426   1.385  -7.300  1.00  0.00     0.251 C 
ATOM     42  H   UNL     1      -1.000   0.552  -6.140  1.00  0.00     0.163 HD
ATOM     43  O   UNL     1       0.395   2.499  -6.811  1.00  0.00    -0.269 OA
BRANCH  41  44
ATOM     44  C   UNL     1       1.209   1.120  -8.519  1.00  0.00     0.039 A 
ATOM     45  C   UNL     1       0.653   1.548  -9.729  1.00  0.00     0.014 A 
ATOM     46  C   UNL     1       2.234   0.181  -8.471  1.00  0.00     0.014 A 
ATOM     47  C   UNL     1       0.990   0.880 -10.900  1.00  0.00     0.010 A 
ATOM     48  C   UNL     1       2.499  -0.538  -9.619  1.00  0.00     0.010 A 
ATOM     49  C   UNL     1       1.833  -0.227 -10.815  1.00  0.00    -0.014 A 
BRANCH  49  50
ATOM     50  C   UNL     1       2.009  -1.179 -11.904  1.00  0.00     0.031 A 
ATOM     51  C   UNL     1       3.264  -1.169 -12.686  1.00  0.00     0.074 A 
ATOM     52  C   UNL     1       1.070  -2.122 -12.144  1.00  0.00     0.049 A 
ATOM     53  N   UNL     1       3.393  -1.663 -13.871  1.00  0.00    -0.248 NA
ATOM     54  C   UNL     1       4.478  -0.525 -12.196  1.00  0.00     0.031 C 
ATOM     55  C   UNL     1       1.227  -3.322 -12.961  1.00  0.00     0.029 A 
ATOM     56  N   UNL     1      -0.301  -2.074 -11.877  1.00  0.00    -0.354 N 
ATOM     57  C   UNL     1       4.740  -1.697 -14.155  1.00  0.00     0.074 A 
ATOM     58  C   UNL     1       5.358  -0.885 -13.133  1.00  0.00     0.031 C 
ATOM     59  C   UNL     1       0.015  -3.716 -13.382  1.00  0.00     0.029 A 
ATOM     60  C   UNL     1      -0.931  -2.693 -12.969  1.00  0.00     0.049 A 
ATOM     61  H   UNL     1      -0.737  -1.685 -11.084  1.00  0.00     0.167 HD
ATOM     62  C   UNL     1       5.203  -2.536 -15.125  1.00  0.00     0.031 A 
ATOM     63  C   UNL     1      -1.823  -2.072 -13.794  1.00  0.00     0.031 A 
ATOM     64  C   UNL     1       4.108  -3.191 -15.840  1.00  0.00     0.049 A 
ATOM     65  C   UNL     1      -1.405  -2.107 -15.250  1.00  0.00     0.074 A 
ATOM     66  C   UNL     1       3.556  -4.460 -15.767  1.00  0.00     0.029 A 
ATOM     67  N   UNL     1       3.224  -2.420 -16.585  1.00  0.00    -0.354 N 
ATOM     68  N   UNL     1      -0.196  -2.381 -15.654  1.00  0.00    -0.248 NA
ATOM     69  C   UNL     1      -2.303  -1.803 -16.360  1.00  0.00     0.031 C 
ATOM     70  C   UNL     1       2.296  -4.428 -16.421  1.00  0.00     0.029 A 
ATOM     71  C   UNL     1       2.098  -3.150 -16.913  1.00  0.00     0.049 A 
ATOM     72  H   UNL     1       3.379  -1.483 -16.844  1.00  0.00     0.167 HD
ATOM     73  C   UNL     1      -0.133  -2.307 -17.022  1.00  0.00     0.074 A 
ATOM     74  C   UNL     1      -1.483  -1.948 -17.417  1.00  0.00     0.031 C 
ATOM     75  C   UNL     1       1.030  -2.545 -17.702  1.00  0.00     0.031 A 
BRANCH  62  76
ATOM     76  C   UNL     1       6.648  -2.988 -15.213  1.00  0.00    -0.014 A 
ATOM     77  C   UNL     1       6.953  -4.244 -15.779  1.00  0.00     0.010 A 
ATOM     78  C   UNL     1       7.742  -2.267 -14.698  1.00  0.00     0.010 A 
ATOM     79  C   UNL     1       8.245  -4.793 -15.731  1.00  0.00     0.020 A 
ATOM     80  C   UNL     1       9.031  -2.814 -14.609  1.00  0.00     0.020 A 
ATOM     81  C   UNL     1       9.273  -4.085 -15.115  1.00  0.00     0.054 A 
BRANCH  81  82
ATOM     82  S   UNL     1      10.914  -4.839 -14.978  1.00  0.00     0.124 S 
ATOM     83  O   UNL     1      10.632  -6.084 -14.268  1.00  0.00    -0.237 OA
ATOM     84  O   UNL     1      11.310  -4.985 -16.375  1.00  0.00    -0.237 OA
ATOM     85  O   UNL     1      11.684  -3.858 -14.214  1.00  0.00    -0.744 OA
ENDBRANCH  81  82
ENDBRANCH  62  76
BRANCH  63  86
ATOM     86  C   UNL     1      -2.605  -0.980 -13.153  1.00  0.00    -0.014 A 
ATOM     87  C   UNL     1      -3.572  -1.354 -12.195  1.00  0.00     0.010 A 
ATOM     88  C   UNL     1      -2.118   0.339 -13.150  1.00  0.00     0.010 A 
ATOM     89  C   UNL     1      -3.914  -0.487 -11.155  1.00  0.00     0.020 A 
ATOM     90  C   UNL     1      -2.464   1.212 -12.107  1.00  0.00     0.020 A 
ATOM     91  C   UNL     1      -3.308   0.767 -11.084  1.00  0.00     0.054 A 
BRANCH  91  92
ATOM     92  S   UNL     1      -3.477   1.705  -9.533  1.00  0.00     0.124 S 
ATOM     93  O   UNL     1      -4.909   1.978  -9.489  1.00  0.00    -0.237 OA
ATOM     94  O   UNL     1      -2.989   0.744  -8.542  1.00  0.00    -0.237 OA
ATOM     95  O   UNL     1      -2.619   2.865  -9.748  1.00  0.00    -0.744 OA
ENDBRANCH  91  92
ENDBRANCH  63  86
BRANCH  75  96
ATOM     96  C   UNL     1       1.290  -2.313 -19.178  1.00  0.00    -0.014 A 
ATOM     97  C   UNL     1       0.489  -1.530 -20.021  1.00  0.00     0.010 A 
ATOM     98  C   UNL     1       2.487  -2.825 -19.743  1.00  0.00     0.010 A 
ATOM     99  C   UNL     1       0.834  -1.310 -21.365  1.00  0.00     0.020 A 
ATOM    100  C   UNL     1       2.865  -2.575 -21.066  1.00  0.00     0.020 A 
ATOM    101  C   UNL     1       2.020  -1.834 -21.879  1.00  0.00     0.054 A 
BRANCH 101 102
ATOM    102  S   UNL     1       2.490  -1.479 -23.591  1.00  0.00     0.124 S 
ATOM    103  O   UNL     1       1.772  -2.519 -24.323  1.00  0.00    -0.237 OA
ATOM    104  O   UNL     1       1.994  -0.119 -23.790  1.00  0.00    -0.237 OA
ATOM    105  O   UNL     1       3.945  -1.607 -23.582  1.00  0.00    -0.744 OA
ENDBRANCH 101 102
ENDBRANCH  75  96
ENDBRANCH  49  50
ENDBRANCH  41  44
ENDBRANCH  39  40
ENDBRANCH   1  39
TORSDOF 16
