REMARK SMILES COc1cc(OC)cc(-n2nnc(C(=O)NCCCNC(=O)c3ccc(-c4c5nc(c(-c6ccc(S(=O)(=O)[O-])cc6)c6ccc([nH]6)c(-c6ccc(S(=O)(=O)[O-])cc6)c6nc(c(-c7ccc(S(=O)(=O)[O-])cc7)c7ccc4[nH]7)C=C6)C=C5)cc3)c2C(C)(C)C)c1
REMARK SMILES IDX 18 1 17 2 16 3 14 4 15 5 13 7 10 8 11 9 83 10 12 11 9 12
REMARK SMILES IDX 3 13 4 14 88 15 5 16 8 17 2 18 1 19 6 20 7 21 84 22 85 23
REMARK SMILES IDX 86 24 87 25 19 26 20 27 21 28 22 30 23 31 24 32 82 33 25 34
REMARK SMILES IDX 81 35 26 36 27 37 28 38 75 39 29 40 80 41 74 42 76 43 30 44
REMARK SMILES IDX 79 45 73 46 72 47 31 49 61 50 42 51 60 52 43 53 46 54 59 55
REMARK SMILES IDX 77 56 44 57 45 58 58 60 78 61 47 62 32 63 33 64 41 65 34 66
REMARK SMILES IDX 40 67 35 68 36 69 37 70 38 71 39 72 62 73 63 74 71 75 64 76
REMARK SMILES IDX 70 77 65 78 66 79 67 80 68 81 69 82 48 83 49 84 57 85 50 86
REMARK SMILES IDX 56 87 51 88 52 89 53 90 54 91 55 92
REMARK H PARENT 16 6 20 29 76 48 46 59
REMARK Flexibility Score: inf
ROOT
ATOM      1  C   UNL     1       6.856   3.687  -3.288  1.00  0.00     0.042 C 
ENDROOT
BRANCH   1   2
ATOM      2  C   UNL     1       7.557   3.008  -2.113  1.00  0.00     0.118 C 
BRANCH   2   3
ATOM      3  N   UNL     1       7.723   3.862  -0.935  1.00  0.00    -0.351 N 
ATOM      4  C   UNL     1       7.153   4.211   0.265  1.00  0.00     0.273 C 
ATOM      5  O   UNL     1       7.977   4.797   0.983  1.00  0.00    -0.267 OA
ATOM      6  H   UNL     1       8.554   4.378  -1.043  1.00  0.00     0.163 HD
BRANCH   4   7
ATOM      7  C   UNL     1       5.776   4.032   0.791  1.00  0.00     0.174 A 
ATOM      8  N   UNL     1       3.663   3.901   1.386  1.00  0.00    -0.216 N 
ATOM      9  N   UNL     1       4.327   4.404   2.429  1.00  0.00    -0.061 NA
ATOM     10  C   UNL     1       4.500   3.693   0.296  1.00  0.00     0.083 A 
ATOM     11  N   UNL     1       5.606   4.427   2.115  1.00  0.00    -0.124 NA
BRANCH   8  12
ATOM     12  C   UNL     1       2.266   3.820   1.424  1.00  0.00     0.074 A 
ATOM     13  C   UNL     1       0.370   2.443   0.923  1.00  0.00     0.124 A 
ATOM     14  C   UNL     1      -0.360   3.610   0.650  1.00  0.00     0.093 A 
ATOM     15  C   UNL     1       1.685   2.552   1.361  1.00  0.00     0.075 A 
ATOM     16  C   UNL     1       0.215   4.885   0.782  1.00  0.00     0.124 A 
ATOM     17  C   UNL     1       1.538   4.995   1.198  1.00  0.00     0.075 A 
BRANCH  13  18
ATOM     18  O   UNL     1      -0.255   1.264   0.614  1.00  0.00    -0.497 OA
ATOM     19  C   UNL     1       0.578   0.111   0.494  1.00  0.00     0.278 C 
ENDBRANCH  13  18
BRANCH  16  20
ATOM     20  O   UNL     1      -0.582   5.928   0.393  1.00  0.00    -0.497 OA
ATOM     21  C   UNL     1       0.056   7.191   0.221  1.00  0.00     0.278 C 
ENDBRANCH  16  20
ENDBRANCH   8  12
BRANCH  10  22
ATOM     22  C   UNL     1       4.043   3.345  -1.111  1.00  0.00     0.007 C 
ATOM     23  C   UNL     1       4.371   4.617  -1.928  1.00  0.00     0.017 C 
ATOM     24  C   UNL     1       4.653   1.955  -1.405  1.00  0.00     0.017 C 
ATOM     25  C   UNL     1       2.571   3.136  -1.509  1.00  0.00     0.017 C 
ENDBRANCH  10  22
ENDBRANCH   4   7
ENDBRANCH   2   3
ENDBRANCH   1   2
BRANCH   1  26
ATOM     26  C   UNL     1       7.378   3.333  -4.658  1.00  0.00     0.118 C 
BRANCH  26  27
ATOM     27  N   UNL     1       6.912   2.037  -5.162  1.00  0.00    -0.352 N 
ATOM     28  C   UNL     1       7.256   1.466  -6.385  1.00  0.00     0.251 C 
ATOM     29  H   UNL     1       6.301   1.526  -4.584  1.00  0.00     0.163 HD
ATOM     30  O   UNL     1       6.592   0.579  -6.886  1.00  0.00    -0.269 OA
BRANCH  28  31
ATOM     31  C   UNL     1       8.449   2.026  -7.055  1.00  0.00     0.039 A 
ATOM     32  C   UNL     1       8.354   2.620  -8.312  1.00  0.00     0.014 A 
ATOM     33  C   UNL     1       9.557   2.227  -6.248  1.00  0.00     0.014 A 
ATOM     34  C   UNL     1       9.314   3.569  -8.672  1.00  0.00     0.010 A 
ATOM     35  C   UNL     1      10.357   3.314  -6.517  1.00  0.00     0.010 A 
ATOM     36  C   UNL     1      10.277   3.988  -7.734  1.00  0.00    -0.014 A 
BRANCH  36  37
ATOM     37  C   UNL     1      11.099   5.187  -7.972  1.00  0.00     0.031 A 
ATOM     38  C   UNL     1      10.445   6.309  -8.708  1.00  0.00     0.074 A 
ATOM     39  C   UNL     1      12.333   5.410  -7.462  1.00  0.00     0.049 A 
ATOM     40  N   UNL     1      10.597   6.610  -9.957  1.00  0.00    -0.248 NA
ATOM     41  C   UNL     1       9.435   7.130  -8.022  1.00  0.00     0.031 C 
ATOM     42  C   UNL     1      13.095   4.597  -6.504  1.00  0.00     0.029 A 
ATOM     43  N   UNL     1      13.155   6.486  -7.649  1.00  0.00    -0.354 N 
ATOM     44  C   UNL     1       9.890   7.791 -10.163  1.00  0.00     0.074 A 
ATOM     45  C   UNL     1       9.056   7.963  -8.999  1.00  0.00     0.031 C 
ATOM     46  C   UNL     1      14.128   5.309  -6.008  1.00  0.00     0.029 A 
ATOM     47  C   UNL     1      14.248   6.517  -6.795  1.00  0.00     0.049 A 
ATOM     48  H   UNL     1      12.987   7.177  -8.330  1.00  0.00     0.167 HD
ATOM     49  C   UNL     1      10.238   8.661 -11.154  1.00  0.00     0.031 A 
ATOM     50  C   UNL     1      15.276   7.391  -6.779  1.00  0.00     0.031 A 
ATOM     51  C   UNL     1      11.251   8.102 -12.013  1.00  0.00     0.049 A 
ATOM     52  C   UNL     1      15.412   7.936  -8.143  1.00  0.00     0.074 A 
ATOM     53  C   UNL     1      11.323   7.154 -13.008  1.00  0.00     0.029 A 
ATOM     54  N   UNL     1      12.534   8.347 -11.589  1.00  0.00    -0.354 N 
ATOM     55  N   UNL     1      15.732   7.197  -9.170  1.00  0.00    -0.248 NA
ATOM     56  C   UNL     1      14.888   9.255  -8.464  1.00  0.00     0.031 C 
ATOM     57  C   UNL     1      12.662   6.658 -12.982  1.00  0.00     0.029 A 
ATOM     58  C   UNL     1      13.371   7.339 -11.992  1.00  0.00     0.049 A 
ATOM     59  H   UNL     1      12.813   9.136 -11.070  1.00  0.00     0.167 HD
ATOM     60  C   UNL     1      15.063   7.773 -10.230  1.00  0.00     0.074 A 
ATOM     61  C   UNL     1      14.723   9.116  -9.782  1.00  0.00     0.031 C 
ATOM     62  C   UNL     1      14.574   7.012 -11.252  1.00  0.00     0.031 A 
BRANCH  49  63
ATOM     63  C   UNL     1      10.040  10.163 -11.108  1.00  0.00    -0.014 A 
ATOM     64  C   UNL     1      10.412  10.929 -12.237  1.00  0.00     0.010 A 
ATOM     65  C   UNL     1       9.792  10.870  -9.916  1.00  0.00     0.010 A 
ATOM     66  C   UNL     1      10.594  12.318 -12.156  1.00  0.00     0.020 A 
ATOM     67  C   UNL     1       9.933  12.260  -9.834  1.00  0.00     0.020 A 
ATOM     68  C   UNL     1      10.369  12.971 -10.945  1.00  0.00     0.054 A 
BRANCH  68  69
ATOM     69  S   UNL     1      10.725  14.742 -10.811  1.00  0.00     0.124 S 
ATOM     70  O   UNL     1      12.177  14.769 -10.957  1.00  0.00    -0.237 OA
ATOM     71  O   UNL     1       9.963  15.298 -11.926  1.00  0.00    -0.237 OA
ATOM     72  O   UNL     1      10.221  15.091  -9.484  1.00  0.00    -0.744 OA
ENDBRANCH  68  69
ENDBRANCH  49  63
BRANCH  50  73
ATOM     73  C   UNL     1      16.094   7.830  -5.634  1.00  0.00    -0.014 A 
ATOM     74  C   UNL     1      17.372   8.380  -5.823  1.00  0.00     0.010 A 
ATOM     75  C   UNL     1      15.485   7.968  -4.369  1.00  0.00     0.010 A 
ATOM     76  C   UNL     1      17.986   9.122  -4.806  1.00  0.00     0.020 A 
ATOM     77  C   UNL     1      16.094   8.705  -3.349  1.00  0.00     0.020 A 
ATOM     78  C   UNL     1      17.329   9.307  -3.586  1.00  0.00     0.054 A 
BRANCH  78  79
ATOM     79  S   UNL     1      18.032  10.457  -2.368  1.00  0.00     0.124 S 
ATOM     80  O   UNL     1      19.203   9.726  -1.892  1.00  0.00    -0.237 OA
ATOM     81  O   UNL     1      18.311  11.640  -3.177  1.00  0.00    -0.237 OA
ATOM     82  O   UNL     1      16.959  10.619  -1.389  1.00  0.00    -0.744 OA
ENDBRANCH  78  79
ENDBRANCH  50  73
BRANCH  62  83
ATOM     83  C   UNL     1      15.202   5.663 -11.487  1.00  0.00    -0.014 A 
ATOM     84  C   UNL     1      15.121   4.589 -10.581  1.00  0.00     0.010 A 
ATOM     85  C   UNL     1      15.839   5.454 -12.722  1.00  0.00     0.010 A 
ATOM     86  C   UNL     1      15.682   3.343 -10.898  1.00  0.00     0.020 A 
ATOM     87  C   UNL     1      16.384   4.212 -13.051  1.00  0.00     0.020 A 
ATOM     88  C   UNL     1      16.311   3.163 -12.134  1.00  0.00     0.054 A 
BRANCH  88  89
ATOM     89  S   UNL     1      16.996   1.537 -12.560  1.00  0.00     0.124 S 
ATOM     90  O   UNL     1      18.153   1.438 -11.675  1.00  0.00    -0.237 OA
ATOM     91  O   UNL     1      15.891   0.630 -12.255  1.00  0.00    -0.237 OA
ATOM     92  O   UNL     1      17.313   1.655 -13.983  1.00  0.00    -0.744 OA
ENDBRANCH  88  89
ENDBRANCH  62  83
ENDBRANCH  36  37
ENDBRANCH  28  31
ENDBRANCH  26  27
ENDBRANCH   1  26
TORSDOF 17
