REMARK SMILES COC(=O)c1ccc([C@H]([NH3+])CC(=O)NCCCNC(=O)c2ccc(-c3c4nc(c(-c5ccc(S(=O)(=O)[O-])cc5)c5ccc([nH]5)c(-c5ccc(S(=O)(=O)[O-])cc5)c5nc(c(-c6ccc(S(=O)(=O)[O-])cc6)c6ccc3[nH]6)C=C5)C=C4)cc2)cc1
REMARK SMILES IDX 15 1 14 2 12 3 13 4 11 6 9 7 8 8 5 9 6 10 82 11 7 12 81 13
REMARK SMILES IDX 3 14 4 15 2 16 1 17 10 18 16 22 17 23 18 24 19 25 20 27
REMARK SMILES IDX 21 28 22 29 80 30 23 31 79 32 24 33 25 34 26 35 73 36 27 37
REMARK SMILES IDX 78 38 72 39 74 40 28 41 77 42 71 43 70 44 29 46 59 47 40 48
REMARK SMILES IDX 58 49 41 50 44 51 57 52 75 53 42 54 43 55 56 57 76 58 45 59
REMARK SMILES IDX 30 60 31 61 39 62 32 63 38 64 33 65 34 66 35 67 36 68 37 69
REMARK SMILES IDX 60 70 61 71 69 72 62 73 68 74 63 75 64 76 65 77 66 78 67 79
REMARK SMILES IDX 46 80 47 81 55 82 48 83 54 84 49 85 50 86 51 87 52 88 53 89
REMARK H PARENT 14 5 10 19 10 20 10 21 18 26 74 45 44 56
REMARK Flexibility Score: inf
ROOT
ATOM      1  C   UNL     1       1.016  -5.813   0.017  1.00  0.00     0.117 C 
ENDROOT
BRANCH   1   2
ATOM      2  N   UNL     1       0.273  -6.877   0.671  1.00  0.00    -0.356 N 
ATOM      3  C   UNL     1      -0.359  -7.953   0.118  1.00  0.00     0.226 C 
ATOM      4  O   UNL     1      -1.033  -8.682   0.849  1.00  0.00    -0.275 OA
ATOM      5  H   UNL     1       0.217  -6.812   1.652  1.00  0.00     0.163 HD
BRANCH   3   6
ATOM      6  C   UNL     1      -0.177  -8.273  -1.351  1.00  0.00     0.170 C 
BRANCH   6   7
ATOM      7  C   UNL     1      -1.317  -7.755  -2.245  1.00  0.00     0.221 C 
BRANCH   7   8
ATOM      8  C   UNL     1      -1.118  -8.198  -3.696  1.00  0.00     0.010 A 
ATOM      9  C   UNL     1      -0.764  -9.101  -6.352  1.00  0.00     0.060 A 
ATOM     10  C   UNL     1      -0.952 -10.018  -5.314  1.00  0.00     0.016 A 
ATOM     11  C   UNL     1      -0.764  -7.733  -6.071  1.00  0.00     0.016 A 
ATOM     12  C   UNL     1      -1.129  -9.570  -4.002  1.00  0.00     0.011 A 
ATOM     13  C   UNL     1      -0.937  -7.290  -4.758  1.00  0.00     0.011 A 
BRANCH   9  14
ATOM     14  C   UNL     1      -0.595  -9.609  -7.734  1.00  0.00     0.337 C 
ATOM     15  O   UNL     1      -0.949 -10.723  -8.095  1.00  0.00    -0.246 OA
BRANCH  14  16
ATOM     16  O   UNL     1       0.033  -8.680  -8.494  1.00  0.00    -0.465 OA
ATOM     17  C   UNL     1       0.251  -9.071  -9.849  1.00  0.00     0.282 C 
ENDBRANCH  14  16
ENDBRANCH   9  14
ENDBRANCH   7   8
BRANCH   7  18
ATOM     18  N   UNL     1      -1.464  -6.305  -2.140  1.00  0.00    -0.351 N 
ATOM     19  H   UNL     1      -0.611  -5.852  -2.467  1.00  0.00     0.345 HD
ATOM     20  H   UNL     1      -1.634  -6.050  -1.167  1.00  0.00     0.345 HD
ATOM     21  H   UNL     1      -2.252  -6.001  -2.713  1.00  0.00     0.345 HD
ENDBRANCH   7  18
ENDBRANCH   6   7
ENDBRANCH   3   6
ENDBRANCH   1   2
BRANCH   1  22
ATOM     22  C   UNL     1       0.210  -4.521  -0.072  1.00  0.00     0.042 C 
BRANCH  22  23
ATOM     23  C   UNL     1       0.028  -3.812   1.257  1.00  0.00     0.118 C 
BRANCH  23  24
ATOM     24  N   UNL     1       1.256  -3.186   1.717  1.00  0.00    -0.352 N 
ATOM     25  C   UNL     1       1.574  -1.855   1.843  1.00  0.00     0.251 C 
ATOM     26  H   UNL     1       1.971  -3.811   1.977  1.00  0.00     0.163 HD
ATOM     27  O   UNL     1       2.746  -1.537   2.028  1.00  0.00    -0.269 OA
BRANCH  25  28
ATOM     28  C   UNL     1       0.529  -0.809   1.739  1.00  0.00     0.039 A 
ATOM     29  C   UNL     1       0.844   0.395   1.103  1.00  0.00     0.014 A 
ATOM     30  C   UNL     1      -0.743  -0.986   2.290  1.00  0.00     0.014 A 
ATOM     31  C   UNL     1      -0.128   1.392   0.975  1.00  0.00     0.010 A 
ATOM     32  C   UNL     1      -1.738  -0.036   2.074  1.00  0.00     0.010 A 
ATOM     33  C   UNL     1      -1.439   1.172   1.430  1.00  0.00    -0.014 A 
BRANCH  33  34
ATOM     34  C   UNL     1      -2.499   2.200   1.258  1.00  0.00     0.031 A 
ATOM     35  C   UNL     1      -3.166   2.811   2.463  1.00  0.00     0.074 A 
ATOM     36  C   UNL     1      -2.898   2.548   0.018  1.00  0.00     0.049 A 
ATOM     37  N   UNL     1      -4.135   3.690   2.512  1.00  0.00    -0.248 NA
ATOM     38  C   UNL     1      -2.703   2.359   3.785  1.00  0.00     0.031 C 
ATOM     39  C   UNL     1      -2.360   2.002  -1.230  1.00  0.00     0.029 A 
ATOM     40  N   UNL     1      -3.852   3.443  -0.398  1.00  0.00    -0.354 N 
ATOM     41  C   UNL     1      -4.406   3.881   3.863  1.00  0.00     0.074 A 
ATOM     42  C   UNL     1      -3.540   2.986   4.597  1.00  0.00     0.031 C 
ATOM     43  C   UNL     1      -2.966   2.598  -2.269  1.00  0.00     0.029 A 
ATOM     44  C   UNL     1      -3.968   3.531  -1.766  1.00  0.00     0.049 A 
ATOM     45  H   UNL     1      -4.402   3.973   0.224  1.00  0.00     0.167 HD
ATOM     46  C   UNL     1      -5.281   4.738   4.442  1.00  0.00     0.031 A 
ATOM     47  C   UNL     1      -4.792   4.273  -2.531  1.00  0.00     0.031 A 
ATOM     48  C   UNL     1      -6.137   5.631   3.708  1.00  0.00     0.049 A 
ATOM     49  C   UNL     1      -5.769   5.204  -1.867  1.00  0.00     0.074 A 
ATOM     50  C   UNL     1      -7.019   6.577   4.201  1.00  0.00     0.029 A 
ATOM     51  N   UNL     1      -6.224   5.688   2.324  1.00  0.00    -0.354 N 
ATOM     52  N   UNL     1      -5.962   5.419  -0.587  1.00  0.00    -0.248 NA
ATOM     53  C   UNL     1      -6.632   6.000  -2.749  1.00  0.00     0.031 C 
ATOM     54  C   UNL     1      -7.684   7.161   3.119  1.00  0.00     0.029 A 
ATOM     55  C   UNL     1      -7.166   6.631   1.948  1.00  0.00     0.049 A 
ATOM     56  H   UNL     1      -5.694   5.139   1.702  1.00  0.00     0.167 HD
ATOM     57  C   UNL     1      -6.948   6.397  -0.512  1.00  0.00     0.074 A 
ATOM     58  C   UNL     1      -7.299   6.741  -1.875  1.00  0.00     0.031 C 
ATOM     59  C   UNL     1      -7.509   6.961   0.587  1.00  0.00     0.031 A 
BRANCH  46  60
ATOM     60  C   UNL     1      -5.364   4.739   5.948  1.00  0.00    -0.014 A 
ATOM     61  C   UNL     1      -4.297   5.205   6.738  1.00  0.00     0.010 A 
ATOM     62  C   UNL     1      -6.540   4.299   6.583  1.00  0.00     0.010 A 
ATOM     63  C   UNL     1      -4.385   5.186   8.132  1.00  0.00     0.020 A 
ATOM     64  C   UNL     1      -6.645   4.310   7.978  1.00  0.00     0.020 A 
ATOM     65  C   UNL     1      -5.559   4.736   8.744  1.00  0.00     0.054 A 
BRANCH  65  66
ATOM     66  S   UNL     1      -5.650   4.737  10.555  1.00  0.00     0.124 S 
ATOM     67  O   UNL     1      -4.747   3.643  10.903  1.00  0.00    -0.237 OA
ATOM     68  O   UNL     1      -5.175   6.076  10.898  1.00  0.00    -0.237 OA
ATOM     69  O   UNL     1      -7.062   4.490  10.833  1.00  0.00    -0.744 OA
ENDBRANCH  65  66
ENDBRANCH  46  60
BRANCH  47  70
ATOM     70  C   UNL     1      -4.715   4.174  -4.016  1.00  0.00    -0.014 A 
ATOM     71  C   UNL     1      -4.219   5.245  -4.780  1.00  0.00     0.010 A 
ATOM     72  C   UNL     1      -5.120   2.997  -4.672  1.00  0.00     0.010 A 
ATOM     73  C   UNL     1      -4.143   5.146  -6.173  1.00  0.00     0.020 A 
ATOM     74  C   UNL     1      -5.017   2.883  -6.061  1.00  0.00     0.020 A 
ATOM     75  C   UNL     1      -4.538   3.963  -6.804  1.00  0.00     0.054 A 
BRANCH  75  76
ATOM     76  S   UNL     1      -4.373   3.837  -8.607  1.00  0.00     0.124 S 
ATOM     77  O   UNL     1      -5.439   4.718  -9.072  1.00  0.00    -0.237 OA
ATOM     78  O   UNL     1      -3.011   4.314  -8.832  1.00  0.00    -0.237 OA
ATOM     79  O   UNL     1      -4.576   2.413  -8.869  1.00  0.00    -0.744 OA
ENDBRANCH  75  76
ENDBRANCH  47  70
BRANCH  59  80
ATOM     80  C   UNL     1      -8.538   8.039   0.366  1.00  0.00    -0.014 A 
ATOM     81  C   UNL     1      -9.816   7.740  -0.138  1.00  0.00     0.010 A 
ATOM     82  C   UNL     1      -8.237   9.366   0.724  1.00  0.00     0.010 A 
ATOM     83  C   UNL     1     -10.762   8.754  -0.311  1.00  0.00     0.020 A 
ATOM     84  C   UNL     1      -9.190  10.377   0.583  1.00  0.00     0.020 A 
ATOM     85  C   UNL     1     -10.443  10.066   0.052  1.00  0.00     0.054 A 
BRANCH  85  86
ATOM     86  S   UNL     1     -11.704  11.355  -0.140  1.00  0.00     0.124 S 
ATOM     87  O   UNL     1     -11.753  11.520  -1.590  1.00  0.00    -0.237 OA
ATOM     88  O   UNL     1     -12.884  10.741   0.463  1.00  0.00    -0.237 OA
ATOM     89  O   UNL     1     -11.155  12.491   0.598  1.00  0.00    -0.744 OA
ENDBRANCH  85  86
ENDBRANCH  59  80
ENDBRANCH  33  34
ENDBRANCH  25  28
ENDBRANCH  23  24
ENDBRANCH  22  23
ENDBRANCH   1  22
TORSDOF 18
