REMARK SMILES C[C@@H]1CCCN(c2cc(Br)ccc2/C=C/C(=O)NCCCNC(=O)c2ccc(-c3c4nc(c(-c5ccc(S(=O)(=O)[O-])cc5)c5ccc([nH]5)c(-c5ccc(S(=O)(=O)[O-])cc5)c5nc(c(-c6ccc(S(=O)(=O)[O-])cc6)c6ccc3[nH]6)C=C5)C=C4)cc2)C1
REMARK SMILES IDX 20 1 19 2 18 3 16 4 17 5 15 7 14 8 13 9 7 10 8 11 9 12 12 13
REMARK SMILES IDX 10 14 11 15 6 16 1 17 2 18 3 19 85 20 4 21 5 22 21 23 22 24
REMARK SMILES IDX 23 25 24 27 25 28 26 29 84 30 27 31 83 32 28 33 29 34 30 35
REMARK SMILES IDX 77 36 31 37 82 38 76 39 78 40 32 41 81 42 75 43 74 44 33 46
REMARK SMILES IDX 63 47 44 48 62 49 45 50 48 51 61 52 79 53 46 54 47 55 60 57
REMARK SMILES IDX 80 58 49 59 34 60 35 61 43 62 36 63 42 64 37 65 38 66 39 67
REMARK SMILES IDX 40 68 41 69 64 70 65 71 73 72 66 73 72 74 67 75 68 76 69 77
REMARK SMILES IDX 70 78 71 79 50 80 51 81 59 82 52 83 58 84 53 85 54 86 55 87
REMARK SMILES IDX 56 88 57 89
REMARK H PARENT 18 6 22 26 78 45 48 56
REMARK Flexibility Score: inf
ROOT
ATOM      1  C   UNL     1       0.031   2.546   3.700  1.00  0.00     0.042 C 
ENDROOT
BRANCH   1   2
ATOM      2  C   UNL     1      -0.516   3.756   2.946  1.00  0.00     0.118 C 
BRANCH   2   3
ATOM      3  N   UNL     1       0.273   4.947   3.191  1.00  0.00    -0.352 N 
ATOM      4  C   UNL     1       1.094   5.631   2.350  1.00  0.00     0.244 C 
ATOM      5  O   UNL     1       1.557   6.716   2.693  1.00  0.00    -0.270 OA
ATOM      6  H   UNL     1       0.204   5.316   4.102  1.00  0.00     0.163 HD
BRANCH   4   7
ATOM      7  C   UNL     1       1.360   5.130   0.984  1.00  0.00     0.072 C 
ATOM      8  C   UNL     1       1.805   3.895   0.706  1.00  0.00     0.016 C 
BRANCH   8   9
ATOM      9  C   UNL     1       2.149   3.430  -0.654  1.00  0.00    -0.002 A 
ATOM     10  C   UNL     1       1.900   2.095  -1.064  1.00  0.00     0.045 A 
ATOM     11  C   UNL     1       2.335   1.694  -2.340  1.00  0.00     0.042 A 
ATOM     12  C   UNL     1       3.000   2.579  -3.187  1.00  0.00     0.020 A 
ATOM     13  C   UNL     1       2.845   4.299  -1.517  1.00  0.00     0.011 A 
ATOM     14  Br  UNL     1       3.559   2.002  -4.899  1.00  0.00    -0.051 Br
ATOM     15  C   UNL     1       3.261   3.880  -2.780  1.00  0.00     0.016 A 
BRANCH  10  16
ATOM     16  N   UNL     1       1.242   1.174  -0.265  1.00  0.00    -0.371 N 
ATOM     17  C   UNL     1      -2.406   0.120  -0.057  1.00  0.00     0.009 C 
ATOM     18  C   UNL     1      -0.938   0.052  -0.478  1.00  0.00     0.005 C 
ATOM     19  C   UNL     1      -0.282  -1.222   0.078  1.00  0.00     0.007 C 
ATOM     20  C   UNL     1      -0.185   1.305  -0.005  1.00  0.00     0.119 C 
ATOM     21  C   UNL     1       1.202  -1.273  -0.284  1.00  0.00     0.022 C 
ATOM     22  C   UNL     1       1.933  -0.024   0.201  1.00  0.00     0.116 C 
ENDBRANCH  10  16
ENDBRANCH   8   9
ENDBRANCH   4   7
ENDBRANCH   2   3
ENDBRANCH   1   2
BRANCH   1  23
ATOM     23  C   UNL     1      -0.310   2.545   5.186  1.00  0.00     0.118 C 
BRANCH  23  24
ATOM     24  N   UNL     1      -1.738   2.368   5.410  1.00  0.00    -0.352 N 
ATOM     25  C   UNL     1      -2.421   1.424   6.133  1.00  0.00     0.251 C 
ATOM     26  H   UNL     1      -2.309   3.039   4.970  1.00  0.00     0.163 HD
ATOM     27  O   UNL     1      -3.638   1.336   5.984  1.00  0.00    -0.269 OA
BRANCH  25  28
ATOM     28  C   UNL     1      -1.725   0.515   7.073  1.00  0.00     0.039 A 
ATOM     29  C   UNL     1      -2.211  -0.789   7.217  1.00  0.00     0.014 A 
ATOM     30  C   UNL     1      -0.656   0.945   7.864  1.00  0.00     0.014 A 
ATOM     31  C   UNL     1      -1.605  -1.665   8.121  1.00  0.00     0.010 A 
ATOM     32  C   UNL     1      -0.006   0.049   8.713  1.00  0.00     0.010 A 
ATOM     33  C   UNL     1      -0.483  -1.260   8.861  1.00  0.00    -0.014 A 
BRANCH  33  34
ATOM     34  C   UNL     1       0.191  -2.208   9.784  1.00  0.00     0.031 A 
ATOM     35  C   UNL     1       0.176  -1.980  11.271  1.00  0.00     0.074 A 
ATOM     36  C   UNL     1       0.839  -3.273   9.274  1.00  0.00     0.049 A 
ATOM     37  N   UNL     1       0.655  -2.737  12.226  1.00  0.00    -0.248 NA
ATOM     38  C   UNL     1      -0.438  -0.730  11.747  1.00  0.00     0.031 C 
ATOM     39  C   UNL     1       0.968  -3.579   7.848  1.00  0.00     0.029 A 
ATOM     40  N   UNL     1       1.495  -4.303   9.898  1.00  0.00    -0.354 N 
ATOM     41  C   UNL     1       0.414  -2.052  13.411  1.00  0.00     0.074 A 
ATOM     42  C   UNL     1      -0.210  -0.797  13.050  1.00  0.00     0.031 C 
ATOM     43  C   UNL     1       1.614  -4.747   7.708  1.00  0.00     0.029 A 
ATOM     44  C   UNL     1       1.967  -5.257   9.029  1.00  0.00     0.049 A 
ATOM     45  H   UNL     1       1.617  -4.354  10.873  1.00  0.00     0.167 HD
ATOM     46  C   UNL     1       0.670  -2.438  14.686  1.00  0.00     0.031 A 
ATOM     47  C   UNL     1       2.594  -6.424   9.267  1.00  0.00     0.031 A 
ATOM     48  C   UNL     1       1.292  -3.686  15.043  1.00  0.00     0.049 A 
ATOM     49  C   UNL     1       2.852  -6.843  10.685  1.00  0.00     0.074 A 
ATOM     50  C   UNL     1       1.545  -4.197  16.305  1.00  0.00     0.029 A 
ATOM     51  N   UNL     1       1.766  -4.620  14.133  1.00  0.00    -0.354 N 
ATOM     52  N   UNL     1       2.553  -6.214  11.797  1.00  0.00    -0.248 NA
ATOM     53  C   UNL     1       3.516  -8.138  10.878  1.00  0.00     0.031 C 
ATOM     54  C   UNL     1       2.211  -5.421  16.157  1.00  0.00     0.029 A 
ATOM     55  C   UNL     1       2.329  -5.694  14.804  1.00  0.00     0.049 A 
ATOM     56  H   UNL     1       1.710  -4.533  13.155  1.00  0.00     0.167 HD
ATOM     57  C   UNL     1       2.978  -7.046  12.826  1.00  0.00     0.074 A 
ATOM     58  C   UNL     1       3.536  -8.230  12.201  1.00  0.00     0.031 C 
ATOM     59  C   UNL     1       2.908  -6.851  14.167  1.00  0.00     0.031 A 
BRANCH  46  60
ATOM     60  C   UNL     1       0.287  -1.474  15.780  1.00  0.00    -0.014 A 
ATOM     61  C   UNL     1      -1.063  -1.212  16.079  1.00  0.00     0.010 A 
ATOM     62  C   UNL     1       1.289  -0.807  16.507  1.00  0.00     0.010 A 
ATOM     63  C   UNL     1      -1.403  -0.249  17.034  1.00  0.00     0.020 A 
ATOM     64  C   UNL     1       0.953   0.136  17.483  1.00  0.00     0.020 A 
ATOM     65  C   UNL     1      -0.392   0.430  17.719  1.00  0.00     0.054 A 
BRANCH  65  66
ATOM     66  S   UNL     1      -0.856   1.700  18.929  1.00  0.00     0.124 S 
ATOM     67  O   UNL     1      -1.204   2.824  18.064  1.00  0.00    -0.237 OA
ATOM     68  O   UNL     1      -1.975   1.082  19.635  1.00  0.00    -0.237 OA
ATOM     69  O   UNL     1       0.357   1.878  19.724  1.00  0.00    -0.744 OA
ENDBRANCH  65  66
ENDBRANCH  46  60
BRANCH  47  70
ATOM     70  C   UNL     1       2.954  -7.305   8.125  1.00  0.00    -0.014 A 
ATOM     71  C   UNL     1       2.195  -8.458   7.861  1.00  0.00     0.010 A 
ATOM     72  C   UNL     1       4.012  -6.966   7.264  1.00  0.00     0.010 A 
ATOM     73  C   UNL     1       2.483  -9.256   6.751  1.00  0.00     0.020 A 
ATOM     74  C   UNL     1       4.290  -7.751   6.141  1.00  0.00     0.020 A 
ATOM     75  C   UNL     1       3.525  -8.892   5.893  1.00  0.00     0.054 A 
BRANCH  75  76
ATOM     76  S   UNL     1       3.818  -9.887   4.403  1.00  0.00     0.124 S 
ATOM     77  O   UNL     1       4.478 -11.067   4.950  1.00  0.00    -0.237 OA
ATOM     78  O   UNL     1       2.465 -10.097   3.892  1.00  0.00    -0.237 OA
ATOM     79  O   UNL     1       4.658  -9.022   3.577  1.00  0.00    -0.744 OA
ENDBRANCH  75  76
ENDBRANCH  47  70
BRANCH  59  80
ATOM     80  C   UNL     1       3.444  -7.954  15.040  1.00  0.00    -0.014 A 
ATOM     81  C   UNL     1       4.826  -8.192  15.142  1.00  0.00     0.010 A 
ATOM     82  C   UNL     1       2.552  -8.766  15.762  1.00  0.00     0.010 A 
ATOM     83  C   UNL     1       5.304  -9.258  15.908  1.00  0.00     0.020 A 
ATOM     84  C   UNL     1       3.027  -9.818  16.550  1.00  0.00     0.020 A 
ATOM     85  C   UNL     1       4.400 -10.072  16.598  1.00  0.00     0.054 A 
BRANCH  85  86
ATOM     86  S   UNL     1       5.038 -11.455  17.582  1.00  0.00     0.124 S 
ATOM     87  O   UNL     1       5.312 -12.456  16.555  1.00  0.00    -0.237 OA
ATOM     88  O   UNL     1       6.215 -10.879  18.228  1.00  0.00    -0.237 OA
ATOM     89  O   UNL     1       3.934 -11.773  18.485  1.00  0.00    -0.744 OA
ENDBRANCH  85  86
ENDBRANCH  59  80
ENDBRANCH  33  34
ENDBRANCH  25  28
ENDBRANCH  23  24
ENDBRANCH   1  23
TORSDOF 15
