REMARK SMILES Cc1nnc(C[N@H+]2[C@@H]3CC[C@H]2C[C@H](CC(=O)NCCCNC(=O)c2ccc(-c4c5nc(c(-c6ccc(S(=O)(=O)[O-])cc6)c6ccc([nH]6)c(-c6ccc(S(=O)(=O)[O-])cc6)c6nc(c(-c7ccc(S(=O)(=O)[O-])cc7)c7ccc4[nH]7)C=C6)C=C5)cc2)C3)n1C
REMARK SMILES IDX 19 1 18 2 17 3 15 4 16 5 14 7 13 8 7 9 8 10 11 11 9 13 84 14
REMARK SMILES IDX 10 15 12 16 6 17 5 18 1 19 2 20 3 21 85 22 4 23 86 24 20 25
REMARK SMILES IDX 21 26 22 27 23 29 24 30 25 31 83 32 26 33 82 34 27 35 28 36
REMARK SMILES IDX 29 37 76 38 30 39 81 40 75 41 77 42 31 43 80 44 74 45 73 46
REMARK SMILES IDX 32 48 62 49 43 50 61 51 44 52 47 53 60 54 78 55 45 56 46 57
REMARK SMILES IDX 59 59 79 60 48 61 33 62 34 63 42 64 35 65 41 66 36 67 37 68
REMARK SMILES IDX 38 69 39 70 40 71 63 72 64 73 72 74 65 75 71 76 66 77 67 78
REMARK SMILES IDX 68 79 69 80 70 81 49 82 50 83 58 84 51 85 57 86 52 87 53 88
REMARK SMILES IDX 54 89 55 90 56 91
REMARK H PARENT 17 6 7 12 21 28 77 47 47 58
REMARK Flexibility Score: inf
ROOT
ATOM      1  C   UNL     1      -3.076   5.130  -0.146  1.00  0.00     0.042 C 
ENDROOT
BRANCH   1   2
ATOM      2  C   UNL     1      -3.136   3.598  -0.326  1.00  0.00     0.117 C 
BRANCH   2   3
ATOM      3  N   UNL     1      -3.372   3.136  -1.697  1.00  0.00    -0.356 N 
ATOM      4  C   UNL     1      -2.560   2.513  -2.607  1.00  0.00     0.220 C 
ATOM      5  O   UNL     1      -3.088   2.056  -3.624  1.00  0.00    -0.275 OA
ATOM      6  H   UNL     1      -4.285   3.306  -2.025  1.00  0.00     0.163 HD
BRANCH   4   7
ATOM      7  C   UNL     1      -1.050   2.382  -2.420  1.00  0.00     0.104 C 
BRANCH   7   8
ATOM      8  C   UNL     1      -0.234   3.597  -2.929  1.00  0.00     0.010 C 
ATOM      9  N   UNL     1       1.592   5.458  -1.456  1.00  0.00    -0.324 N 
ATOM     10  C   UNL     1       2.110   4.655  -2.554  1.00  0.00     0.185 C 
ATOM     11  C   UNL     1       0.322   5.964  -1.958  1.00  0.00     0.185 C 
ATOM     12  H   UNL     1       2.277   6.183  -1.242  1.00  0.00     0.348 HD
ATOM     13  C   UNL     1       1.939   5.669  -3.707  1.00  0.00     0.071 C 
ATOM     14  C   UNL     1       1.290   3.373  -2.836  1.00  0.00     0.069 C 
ATOM     15  C   UNL     1       0.745   6.537  -3.304  1.00  0.00     0.071 C 
ATOM     16  C   UNL     1      -0.670   4.833  -2.157  1.00  0.00     0.069 C 
BRANCH   9  17
ATOM     17  C   UNL     1       1.703   5.074  -0.048  1.00  0.00     0.341 C 
BRANCH  17  18
ATOM     18  C   UNL     1       1.181   3.752   0.415  1.00  0.00     0.187 A 
ATOM     19  C   UNL     1       1.157   0.135   0.461  1.00  0.00     0.090 C 
ATOM     20  C   UNL     1       0.981   1.585   0.712  1.00  0.00     0.129 A 
ATOM     21  N   UNL     1      -0.129   2.158   1.129  1.00  0.00    -0.135 NA
ATOM     22  N   UNL     1       1.895   2.575   0.455  1.00  0.00    -0.314 N 
ATOM     23  N   UNL     1       0.004   3.515   0.962  1.00  0.00    -0.129 NA
ATOM     24  C   UNL     1       3.318   2.450   0.299  1.00  0.00     0.153 C 
ENDBRANCH  17  18
ENDBRANCH   9  17
ENDBRANCH   7   8
ENDBRANCH   4   7
ENDBRANCH   2   3
ENDBRANCH   1   2
BRANCH   1  25
ATOM     25  C   UNL     1      -4.413   5.824  -0.197  1.00  0.00     0.118 C 
BRANCH  25  26
ATOM     26  N   UNL     1      -5.017   6.014   1.117  1.00  0.00    -0.352 N 
ATOM     27  C   UNL     1      -6.179   6.707   1.383  1.00  0.00     0.251 C 
ATOM     28  H   UNL     1      -4.551   5.611   1.886  1.00  0.00     0.163 HD
ATOM     29  O   UNL     1      -6.408   7.152   2.513  1.00  0.00    -0.269 OA
BRANCH  27  30
ATOM     30  C   UNL     1      -7.125   6.930   0.277  1.00  0.00     0.039 A 
ATOM     31  C   UNL     1      -7.766   8.156   0.087  1.00  0.00     0.014 A 
ATOM     32  C   UNL     1      -7.289   5.898  -0.641  1.00  0.00     0.014 A 
ATOM     33  C   UNL     1      -8.508   8.353  -1.078  1.00  0.00     0.010 A 
ATOM     34  C   UNL     1      -7.831   6.168  -1.870  1.00  0.00     0.010 A 
ATOM     35  C   UNL     1      -8.519   7.359  -2.069  1.00  0.00    -0.014 A 
BRANCH  35  36
ATOM     36  C   UNL     1      -9.221   7.552  -3.334  1.00  0.00     0.031 A 
ATOM     37  C   UNL     1      -8.907   8.797  -4.088  1.00  0.00     0.074 A 
ATOM     38  C   UNL     1      -9.957   6.578  -3.914  1.00  0.00     0.049 A 
ATOM     39  N   UNL     1      -9.699   9.785  -4.343  1.00  0.00    -0.248 NA
ATOM     40  C   UNL     1      -7.524   9.012  -4.542  1.00  0.00     0.031 C 
ATOM     41  C   UNL     1     -10.129   5.181  -3.494  1.00  0.00     0.029 A 
ATOM     42  N   UNL     1     -10.597   6.604  -5.113  1.00  0.00    -0.354 N 
ATOM     43  C   UNL     1      -8.984  10.666  -5.150  1.00  0.00     0.074 A 
ATOM     44  C   UNL     1      -7.613  10.217  -5.112  1.00  0.00     0.031 C 
ATOM     45  C   UNL     1     -10.562   4.447  -4.540  1.00  0.00     0.029 A 
ATOM     46  C   UNL     1     -10.887   5.348  -5.627  1.00  0.00     0.049 A 
ATOM     47  H   UNL     1     -10.834   7.440  -5.575  1.00  0.00     0.167 HD
ATOM     48  C   UNL     1      -9.603  11.581  -5.950  1.00  0.00     0.031 A 
ATOM     49  C   UNL     1     -11.321   5.065  -6.878  1.00  0.00     0.031 A 
ATOM     50  C   UNL     1     -11.005  11.702  -5.645  1.00  0.00     0.049 A 
ATOM     51  C   UNL     1     -11.928   6.310  -7.413  1.00  0.00     0.074 A 
ATOM     52  C   UNL     1     -11.724  12.025  -4.510  1.00  0.00     0.029 A 
ATOM     53  N   UNL     1     -11.895  11.071  -6.484  1.00  0.00    -0.354 N 
ATOM     54  N   UNL     1     -13.003   6.855  -6.911  1.00  0.00    -0.248 NA
ATOM     55  C   UNL     1     -11.092   7.203  -8.201  1.00  0.00     0.031 C 
ATOM     56  C   UNL     1     -12.829  11.124  -4.515  1.00  0.00     0.029 A 
ATOM     57  C   UNL     1     -12.759  10.365  -5.685  1.00  0.00     0.049 A 
ATOM     58  H   UNL     1     -11.908  11.116  -7.468  1.00  0.00     0.167 HD
ATOM     59  C   UNL     1     -12.761   8.222  -6.944  1.00  0.00     0.074 A 
ATOM     60  C   UNL     1     -11.619   8.378  -7.845  1.00  0.00     0.031 C 
ATOM     61  C   UNL     1     -13.318   9.072  -6.028  1.00  0.00     0.031 A 
BRANCH  48  62
ATOM     62  C   UNL     1      -9.028  12.112  -7.240  1.00  0.00    -0.014 A 
ATOM     63  C   UNL     1      -9.704  13.149  -7.918  1.00  0.00     0.010 A 
ATOM     64  C   UNL     1      -8.000  11.453  -7.943  1.00  0.00     0.010 A 
ATOM     65  C   UNL     1      -9.407  13.463  -9.252  1.00  0.00     0.020 A 
ATOM     66  C   UNL     1      -7.665  11.789  -9.257  1.00  0.00     0.020 A 
ATOM     67  C   UNL     1      -8.397  12.768  -9.916  1.00  0.00     0.054 A 
BRANCH  67  68
ATOM     68  S   UNL     1      -8.096  13.099 -11.670  1.00  0.00     0.124 S 
ATOM     69  O   UNL     1      -9.315  12.584 -12.286  1.00  0.00    -0.237 OA
ATOM     70  O   UNL     1      -7.940  14.551 -11.691  1.00  0.00    -0.237 OA
ATOM     71  O   UNL     1      -6.879  12.343 -11.957  1.00  0.00    -0.744 OA
ENDBRANCH  67  68
ENDBRANCH  48  62
BRANCH  49  72
ATOM     72  C   UNL     1     -10.957   3.890  -7.708  1.00  0.00    -0.014 A 
ATOM     73  C   UNL     1     -11.621   3.627  -8.919  1.00  0.00     0.010 A 
ATOM     74  C   UNL     1      -9.774   3.166  -7.442  1.00  0.00     0.010 A 
ATOM     75  C   UNL     1     -11.085   2.728  -9.857  1.00  0.00     0.020 A 
ATOM     76  C   UNL     1      -9.240   2.259  -8.366  1.00  0.00     0.020 A 
ATOM     77  C   UNL     1      -9.884   2.067  -9.584  1.00  0.00     0.054 A 
BRANCH  77  78
ATOM     78  S   UNL     1      -9.099   1.064 -10.880  1.00  0.00     0.124 S 
ATOM     79  O   UNL     1      -9.983  -0.096 -10.954  1.00  0.00    -0.237 OA
ATOM     80  O   UNL     1      -9.131   1.957 -12.034  1.00  0.00    -0.237 OA
ATOM     81  O   UNL     1      -7.765   0.794 -10.347  1.00  0.00    -0.744 OA
ENDBRANCH  77  78
ENDBRANCH  49  72
BRANCH  61  82
ATOM     82  C   UNL     1     -14.413   8.560  -5.115  1.00  0.00    -0.014 A 
ATOM     83  C   UNL     1     -14.249   7.473  -4.233  1.00  0.00     0.010 A 
ATOM     84  C   UNL     1     -15.589   9.326  -5.013  1.00  0.00     0.010 A 
ATOM     85  C   UNL     1     -15.242   7.151  -3.294  1.00  0.00     0.020 A 
ATOM     86  C   UNL     1     -16.573   9.023  -4.068  1.00  0.00     0.020 A 
ATOM     87  C   UNL     1     -16.399   7.931  -3.217  1.00  0.00     0.054 A 
BRANCH  87  88
ATOM     88  S   UNL     1     -17.654   7.548  -1.962  1.00  0.00     0.124 S 
ATOM     89  O   UNL     1     -18.210   6.287  -2.444  1.00  0.00    -0.237 OA
ATOM     90  O   UNL     1     -16.870   7.461  -0.732  1.00  0.00    -0.237 OA
ATOM     91  O   UNL     1     -18.568   8.688  -2.023  1.00  0.00    -0.744 OA
ENDBRANCH  87  88
ENDBRANCH  61  82
ENDBRANCH  35  36
ENDBRANCH  27  30
ENDBRANCH  25  26
ENDBRANCH   1  25
TORSDOF 16
