REMARK SMILES Cc1nc2sc3c(c2c2nc(CCC(=O)NCCCNC(=O)c4ccc(-c5c6nc(c(-c7ccc(S(=O)(=O)[O-])cc7)c7ccc([nH]7)c(-c7ccc(S(=O)(=O)[O-])cc7)c7nc(c(-c8ccc(S(=O)(=O)[O-])cc8)c8ccc5[nH]8)C=C7)C=C6)cc4)nn12)[C@@H](C)CCC3
REMARK SMILES IDX 18 1 17 2 16 3 14 4 15 5 13 7 12 8 11 9 1 10 2 11 3 12 84 13
REMARK SMILES IDX 4 14 9 15 83 16 5 17 8 18 10 19 6 20 7 21 89 22 85 23 88 24
REMARK SMILES IDX 86 25 87 26 19 27 20 28 21 29 22 31 23 32 24 33 82 34 25 35
REMARK SMILES IDX 81 36 26 37 27 38 28 39 75 40 29 41 80 42 74 43 76 44 30 45
REMARK SMILES IDX 79 46 73 47 72 48 31 50 61 51 42 52 60 53 43 54 46 55 59 56
REMARK SMILES IDX 77 57 44 58 45 59 58 61 78 62 47 63 32 64 33 65 41 66 34 67
REMARK SMILES IDX 40 68 35 69 36 70 37 71 38 72 39 73 62 74 63 75 71 76 64 77
REMARK SMILES IDX 70 78 65 79 66 80 67 81 68 82 69 83 48 84 49 85 57 86 50 87
REMARK SMILES IDX 56 88 51 89 52 90 53 91 54 92 55 93
REMARK H PARENT 16 6 20 30 76 49 46 60
REMARK Flexibility Score: inf
ROOT
ATOM      1  C   UNL     1      -2.417  -1.584   2.934  1.00  0.00     0.042 C 
ENDROOT
BRANCH   1   2
ATOM      2  C   UNL     1      -3.405  -0.340   3.201  1.00  0.00     0.117 C 
BRANCH   2   3
ATOM      3  N   UNL     1      -3.324   0.496   4.413  1.00  0.00    -0.356 N 
ATOM      4  C   UNL     1      -3.248   1.846   4.691  1.00  0.00     0.220 C 
ATOM      5  O   UNL     1      -3.568   2.202   5.833  1.00  0.00    -0.275 OA
ATOM      6  H   UNL     1      -3.324  -0.048   5.234  1.00  0.00     0.163 HD
BRANCH   4   7
ATOM      7  C   UNL     1      -2.849   2.935   3.700  1.00  0.00     0.108 C 
BRANCH   7   8
ATOM      8  C   UNL     1      -1.542   3.670   4.062  1.00  0.00     0.089 C 
BRANCH   8   9
ATOM      9  C   UNL     1      -0.402   2.747   3.949  1.00  0.00     0.152 A 
ATOM     10  C   UNL     1       1.174   0.505   0.805  1.00  0.00     0.090 C 
ATOM     11  C   UNL     1       1.134   0.182   2.271  1.00  0.00     0.131 A 
ATOM     12  N   UNL     1       1.470  -0.996   2.716  1.00  0.00    -0.222 NA
ATOM     13  N   UNL     1       0.667   1.177   3.136  1.00  0.00    -0.199 N 
ATOM     14  C   UNL     1       1.150  -1.233   4.030  1.00  0.00     0.129 A 
ATOM     15  C   UNL     1       0.478   0.964   4.484  1.00  0.00     0.168 A 
ATOM     16  N   UNL     1       0.089   2.338   2.768  1.00  0.00    -0.150 NA
ATOM     17  S   UNL     1       1.183  -2.780   4.633  1.00  0.00    -0.120 S 
ATOM     18  C   UNL     1       0.619  -0.396   5.003  1.00  0.00     0.060 A 
ATOM     19  N   UNL     1      -0.070   2.002   5.036  1.00  0.00    -0.211 NA
ATOM     20  C   UNL     1       0.154  -2.404   5.929  1.00  0.00     0.011 A 
ATOM     21  C   UNL     1       0.100  -1.052   6.185  1.00  0.00    -0.018 A 
ATOM     22  C   UNL     1      -0.741  -3.368   6.627  1.00  0.00     0.047 C 
ATOM     23  C   UNL     1      -0.618  -0.595   7.464  1.00  0.00     0.018 C 
ATOM     24  C   UNL     1      -0.849  -3.067   8.075  1.00  0.00     0.006 C 
ATOM     25  C   UNL     1      -1.658   0.467   7.252  1.00  0.00     0.013 C 
ATOM     26  C   UNL     1      -1.446  -1.705   8.193  1.00  0.00     0.008 C 
ENDBRANCH   8   9
ENDBRANCH   7   8
ENDBRANCH   4   7
ENDBRANCH   2   3
ENDBRANCH   1   2
BRANCH   1  27
ATOM     27  C   UNL     1      -2.328  -2.843   3.917  1.00  0.00     0.118 C 
BRANCH  27  28
ATOM     28  N   UNL     1      -1.689  -4.222   3.433  1.00  0.00    -0.352 N 
ATOM     29  C   UNL     1      -1.016  -5.460   3.801  1.00  0.00     0.251 C 
ATOM     30  H   UNL     1      -1.798  -4.248   2.455  1.00  0.00     0.163 HD
ATOM     31  O   UNL     1      -1.131  -6.349   2.941  1.00  0.00    -0.269 OA
BRANCH  29  32
ATOM     32  C   UNL     1      -0.201  -5.922   5.046  1.00  0.00     0.039 A 
ATOM     33  C   UNL     1      -0.689  -6.789   6.042  1.00  0.00     0.014 A 
ATOM     34  C   UNL     1       1.142  -5.618   5.273  1.00  0.00     0.014 A 
ATOM     35  C   UNL     1      -0.148  -6.793   7.388  1.00  0.00     0.010 A 
ATOM     36  C   UNL     1       1.639  -5.516   6.618  1.00  0.00     0.010 A 
ATOM     37  C   UNL     1       0.888  -5.932   7.750  1.00  0.00    -0.014 A 
BRANCH  37  38
ATOM     38  C   UNL     1       1.270  -5.480   9.173  1.00  0.00     0.031 A 
ATOM     39  C   UNL     1       2.720  -5.150   9.264  1.00  0.00     0.074 A 
ATOM     40  C   UNL     1       0.615  -5.116  10.334  1.00  0.00     0.049 A 
ATOM     41  N   UNL     1       3.656  -6.038   9.299  1.00  0.00    -0.248 NA
ATOM     42  C   UNL     1       3.211  -3.769   9.080  1.00  0.00     0.031 C 
ATOM     43  C   UNL     1      -0.813  -4.891  10.613  1.00  0.00     0.029 A 
ATOM     44  N   UNL     1       1.162  -4.761  11.570  1.00  0.00    -0.354 N 
ATOM     45  C   UNL     1       4.829  -5.324   9.439  1.00  0.00     0.074 A 
ATOM     46  C   UNL     1       4.530  -3.986   8.991  1.00  0.00     0.031 C 
ATOM     47  C   UNL     1      -0.988  -4.236  11.798  1.00  0.00     0.029 A 
ATOM     48  C   UNL     1       0.275  -4.208  12.516  1.00  0.00     0.049 A 
ATOM     49  H   UNL     1       2.117  -4.891  11.770  1.00  0.00     0.167 HD
ATOM     50  C   UNL     1       5.827  -5.787  10.242  1.00  0.00     0.031 A 
ATOM     51  C   UNL     1       0.521  -3.894  13.828  1.00  0.00     0.031 A 
ATOM     52  C   UNL     1       5.428  -7.026  10.878  1.00  0.00     0.049 A 
ATOM     53  C   UNL     1       1.570  -4.840  14.268  1.00  0.00     0.074 A 
ATOM     54  C   UNL     1       5.234  -8.341  10.517  1.00  0.00     0.029 A 
ATOM     55  N   UNL     1       4.739  -6.823  12.049  1.00  0.00    -0.354 N 
ATOM     56  N   UNL     1       1.397  -6.131  14.301  1.00  0.00    -0.248 NA
ATOM     57  C   UNL     1       2.935  -4.378  14.471  1.00  0.00     0.031 C 
ATOM     58  C   UNL     1       4.261  -8.869  11.423  1.00  0.00     0.029 A 
ATOM     59  C   UNL     1       3.922  -7.883  12.345  1.00  0.00     0.049 A 
ATOM     60  H   UNL     1       4.823  -6.016  12.606  1.00  0.00     0.167 HD
ATOM     61  C   UNL     1       2.654  -6.631  14.049  1.00  0.00     0.074 A 
ATOM     62  C   UNL     1       3.573  -5.544  14.354  1.00  0.00     0.031 C 
ATOM     63  C   UNL     1       2.813  -7.734  13.268  1.00  0.00     0.031 A 
BRANCH  50  64
ATOM     64  C   UNL     1       6.927  -4.954  10.849  1.00  0.00    -0.014 A 
ATOM     65  C   UNL     1       7.971  -5.621  11.522  1.00  0.00     0.010 A 
ATOM     66  C   UNL     1       6.883  -3.552  10.968  1.00  0.00     0.010 A 
ATOM     67  C   UNL     1       8.917  -4.921  12.281  1.00  0.00     0.020 A 
ATOM     68  C   UNL     1       7.843  -2.840  11.691  1.00  0.00     0.020 A 
ATOM     69  C   UNL     1       8.848  -3.530  12.355  1.00  0.00     0.054 A 
BRANCH  69  70
ATOM     70  S   UNL     1      10.062  -2.642  13.360  1.00  0.00     0.124 S 
ATOM     71  O   UNL     1       9.770  -3.114  14.691  1.00  0.00    -0.237 OA
ATOM     72  O   UNL     1      11.329  -3.096  12.776  1.00  0.00    -0.237 OA
ATOM     73  O   UNL     1       9.747  -1.229  13.098  1.00  0.00    -0.744 OA
ENDBRANCH  69  70
ENDBRANCH  50  64
BRANCH  51  74
ATOM     74  C   UNL     1       0.024  -2.897  14.841  1.00  0.00    -0.014 A 
ATOM     75  C   UNL     1       0.239  -3.105  16.231  1.00  0.00     0.010 A 
ATOM     76  C   UNL     1      -0.270  -1.580  14.443  1.00  0.00     0.010 A 
ATOM     77  C   UNL     1       0.289  -2.037  17.152  1.00  0.00     0.020 A 
ATOM     78  C   UNL     1      -0.229  -0.506  15.361  1.00  0.00     0.020 A 
ATOM     79  C   UNL     1       0.093  -0.733  16.702  1.00  0.00     0.054 A 
BRANCH  79  80
ATOM     80  S   UNL     1       0.417   0.662  17.837  1.00  0.00     0.124 S 
ATOM     81  O   UNL     1      -0.667   0.540  18.808  1.00  0.00    -0.237 OA
ATOM     82  O   UNL     1       1.752   0.358  18.343  1.00  0.00    -0.237 OA
ATOM     83  O   UNL     1       0.340   1.836  16.969  1.00  0.00    -0.744 OA
ENDBRANCH  79  80
ENDBRANCH  51  74
BRANCH  63  84
ATOM     84  C   UNL     1       1.715  -8.764  13.261  1.00  0.00    -0.014 A 
ATOM     85  C   UNL     1       0.407  -8.555  12.784  1.00  0.00     0.010 A 
ATOM     86  C   UNL     1       2.063 -10.044  13.725  1.00  0.00     0.010 A 
ATOM     87  C   UNL     1      -0.523  -9.608  12.769  1.00  0.00     0.020 A 
ATOM     88  C   UNL     1       1.150 -11.098  13.697  1.00  0.00     0.020 A 
ATOM     89  C   UNL     1      -0.140 -10.876  13.220  1.00  0.00     0.054 A 
BRANCH  89  90
ATOM     90  S   UNL     1      -1.323 -12.251  13.142  1.00  0.00     0.124 S 
ATOM     91  O   UNL     1      -2.345 -11.849  14.104  1.00  0.00    -0.237 OA
ATOM     92  O   UNL     1      -1.737 -12.239  11.741  1.00  0.00    -0.237 OA
ATOM     93  O   UNL     1      -0.529 -13.416  13.535  1.00  0.00    -0.744 OA
ENDBRANCH  89  90
ENDBRANCH  63  84
ENDBRANCH  37  38
ENDBRANCH  29  32
ENDBRANCH  27  28
ENDBRANCH   1  27
TORSDOF 15
