REMARK SMILES O=C(Cn1cc(/C=C2\SC(N3CCOCC3)=[NH+]C2=O)c2ccccc21)NCCCNC(=O)c1ccc(-c2c3nc(c(-c4ccc(S(=O)(=O)[O-])cc4)c4ccc([nH]4)c(-c4ccc(S(=O)(=O)[O-])cc4)c4nc(c(-c5ccc(S(=O)(=O)[O-])cc5)c5ccc2[nH]5)C=C4)C=C3)cc1
REMARK SMILES IDX 28 1 27 2 26 3 1 4 2 5 3 7 4 8 5 9 25 10 6 11 20 12 24 13
REMARK SMILES IDX 21 14 23 15 22 16 7 17 8 18 9 19 18 20 10 21 17 22 19 23
REMARK SMILES IDX 11 24 12 26 16 27 13 28 15 29 14 30 29 31 30 32 31 33 32 35
REMARK SMILES IDX 33 36 34 37 92 38 35 39 91 40 36 41 37 42 38 43 85 44 39 45
REMARK SMILES IDX 90 46 84 47 86 48 40 49 89 50 83 51 82 52 41 54 71 55 52 56
REMARK SMILES IDX 70 57 53 58 56 59 69 60 87 61 54 62 55 63 68 65 88 66 57 67
REMARK SMILES IDX 42 68 43 69 51 70 44 71 50 72 45 73 46 74 47 75 48 76 49 77
REMARK SMILES IDX 72 78 73 79 81 80 74 81 80 82 75 83 76 84 77 85 78 86 79 87
REMARK SMILES IDX 58 88 59 89 67 90 60 91 66 92 61 93 62 94 63 95 64 96 65 97
REMARK H PARENT 26 6 17 25 30 34 86 53 56 64
REMARK Flexibility Score: inf
ROOT
ATOM      1  C   UNL     1       2.681   2.418  -2.608  1.00  0.00     0.042 C 
ENDROOT
BRANCH   1   2
ATOM      2  C   UNL     1       2.307   0.968  -2.284  1.00  0.00     0.117 C 
BRANCH   2   3
ATOM      3  N   UNL     1       2.950   0.460  -1.082  1.00  0.00    -0.354 N 
ATOM      4  O   UNL     1       1.025   0.022   0.102  1.00  0.00    -0.273 OA
ATOM      5  C   UNL     1       2.249  -0.020   0.009  1.00  0.00     0.239 C 
ATOM      6  H   UNL     1       3.934   0.458  -1.043  1.00  0.00     0.163 HD
BRANCH   5   7
ATOM      7  C   UNL     1       3.106  -0.528   1.154  1.00  0.00     0.222 C 
BRANCH   7   8
ATOM      8  N   UNL     1       3.913  -1.685   0.791  1.00  0.00    -0.337 N 
ATOM      9  C   UNL     1       5.195  -1.597   0.312  1.00  0.00     0.095 A 
ATOM     10  C   UNL     1       3.553  -3.011   0.937  1.00  0.00     0.049 A 
ATOM     11  C   UNL     1       5.651  -2.875   0.084  1.00  0.00     0.001 A 
ATOM     12  C   UNL     1       4.628  -3.782   0.472  1.00  0.00     0.007 A 
ATOM     13  C   UNL     1       2.380  -3.604   1.433  1.00  0.00     0.027 A 
ATOM     14  C   UNL     1       4.521  -5.189   0.497  1.00  0.00     0.011 A 
ATOM     15  C   UNL     1       2.307  -5.000   1.462  1.00  0.00     0.002 A 
ATOM     16  C   UNL     1       3.359  -5.784   0.998  1.00  0.00     0.001 A 
BRANCH  11  17
ATOM     17  C   UNL     1       6.944  -3.171  -0.440  1.00  0.00     0.034 C 
ATOM     18  C   UNL     1       8.108  -2.886   0.160  1.00  0.00     0.110 C 
ATOM     19  S   UNL     1       8.339  -2.230   1.730  1.00  0.00     0.006 SA
ATOM     20  C   UNL     1       9.433  -3.078  -0.486  1.00  0.00     0.346 C 
ATOM     21  C   UNL     1      10.053  -2.079   1.403  1.00  0.00     0.319 C 
ATOM     22  N   UNL     1      10.449  -2.512   0.250  1.00  0.00    -0.200 N 
ATOM     23  O   UNL     1       9.583  -3.668  -1.554  1.00  0.00    -0.240 OA
ATOM     24  N   UNL     1      10.829  -1.465   2.342  1.00  0.00    -0.251 N 
ATOM     25  H   UNL     1      11.379  -2.444  -0.067  1.00  0.00     0.316 HD
ATOM     26  C   UNL     1      10.798  -1.786   3.769  1.00  0.00     0.265 C 
ATOM     27  C   UNL     1      11.822  -0.452   1.982  1.00  0.00     0.265 C 
ATOM     28  C   UNL     1      10.611  -0.501   4.582  1.00  0.00     0.206 C 
ATOM     29  C   UNL     1      11.592   0.792   2.860  1.00  0.00     0.206 C 
ATOM     30  O   UNL     1      11.627   0.465   4.262  1.00  0.00    -0.373 OA
ENDBRANCH  11  17
ENDBRANCH   7   8
ENDBRANCH   5   7
ENDBRANCH   2   3
ENDBRANCH   1   2
BRANCH   1  31
ATOM     31  C   UNL     1       4.176   2.684  -2.793  1.00  0.00     0.118 C 
BRANCH  31  32
ATOM     32  N   UNL     1       4.825   1.840  -3.776  1.00  0.00    -0.352 N 
ATOM     33  C   UNL     1       5.256   2.004  -5.063  1.00  0.00     0.251 C 
ATOM     34  H   UNL     1       4.997   0.932  -3.436  1.00  0.00     0.163 HD
ATOM     35  O   UNL     1       6.046   1.143  -5.463  1.00  0.00    -0.269 OA
BRANCH  33  36
ATOM     36  C   UNL     1       4.801   3.054  -6.018  1.00  0.00     0.039 A 
ATOM     37  C   UNL     1       3.892   4.074  -5.745  1.00  0.00     0.014 A 
ATOM     38  C   UNL     1       5.263   2.906  -7.344  1.00  0.00     0.014 A 
ATOM     39  C   UNL     1       3.382   4.851  -6.790  1.00  0.00     0.010 A 
ATOM     40  C   UNL     1       4.755   3.677  -8.387  1.00  0.00     0.010 A 
ATOM     41  C   UNL     1       3.768   4.614  -8.118  1.00  0.00    -0.014 A 
BRANCH  41  42
ATOM     42  C   UNL     1       3.155   5.410  -9.182  1.00  0.00     0.031 A 
ATOM     43  C   UNL     1       3.354   6.879  -9.067  1.00  0.00     0.074 A 
ATOM     44  C   UNL     1       2.475   4.910 -10.237  1.00  0.00     0.049 A 
ATOM     45  N   UNL     1       2.464   7.762  -8.756  1.00  0.00    -0.248 NA
ATOM     46  C   UNL     1       4.713   7.420  -9.200  1.00  0.00     0.031 C 
ATOM     47  C   UNL     1       2.343   3.521 -10.682  1.00  0.00     0.029 A 
ATOM     48  N   UNL     1       1.783   5.598 -11.192  1.00  0.00    -0.354 N 
ATOM     49  C   UNL     1       3.098   8.999  -8.805  1.00  0.00     0.074 A 
ATOM     50  C   UNL     1       4.504   8.719  -8.971  1.00  0.00     0.031 C 
ATOM     51  C   UNL     1       1.803   3.494 -11.926  1.00  0.00     0.029 A 
ATOM     52  C   UNL     1       1.401   4.841 -12.293  1.00  0.00     0.049 A 
ATOM     53  H   UNL     1       1.571   6.555 -11.107  1.00  0.00     0.167 HD
ATOM     54  C   UNL     1       2.395  10.165  -8.850  1.00  0.00     0.031 A 
ATOM     55  C   UNL     1       0.796   5.289 -13.425  1.00  0.00     0.031 A 
ATOM     56  C   UNL     1       1.011   9.966  -8.509  1.00  0.00     0.049 A 
ATOM     57  C   UNL     1       0.103   6.552 -13.072  1.00  0.00     0.074 A 
ATOM     58  C   UNL     1       0.347   9.541  -7.376  1.00  0.00     0.029 A 
ATOM     59  N   UNL     1       0.111   9.854  -9.542  1.00  0.00    -0.354 N 
ATOM     60  N   UNL     1      -0.926   6.605 -12.273  1.00  0.00    -0.248 NA
ATOM     61  C   UNL     1       0.822   7.801 -13.256  1.00  0.00     0.031 C 
ATOM     62  C   UNL     1      -0.719   8.733  -7.864  1.00  0.00     0.029 A 
ATOM     63  C   UNL     1      -0.690   8.777  -9.260  1.00  0.00     0.049 A 
ATOM     64  H   UNL     1       0.052  10.436 -10.333  1.00  0.00     0.167 HD
ATOM     65  C   UNL     1      -0.725   7.752 -11.521  1.00  0.00     0.074 A 
ATOM     66  C   UNL     1       0.322   8.490 -12.227  1.00  0.00     0.031 C 
ATOM     67  C   UNL     1      -1.230   7.876 -10.259  1.00  0.00     0.031 A 
BRANCH  54  68
ATOM     68  C   UNL     1       2.882  11.445  -9.475  1.00  0.00    -0.014 A 
ATOM     69  C   UNL     1       3.986  11.504 -10.345  1.00  0.00     0.010 A 
ATOM     70  C   UNL     1       2.072  12.599  -9.389  1.00  0.00     0.010 A 
ATOM     71  C   UNL     1       4.279  12.650 -11.090  1.00  0.00     0.020 A 
ATOM     72  C   UNL     1       2.332  13.738 -10.162  1.00  0.00     0.020 A 
ATOM     73  C   UNL     1       3.440  13.756 -11.005  1.00  0.00     0.054 A 
BRANCH  73  74
ATOM     74  S   UNL     1       3.792  15.181 -12.063  1.00  0.00     0.124 S 
ATOM     75  O   UNL     1       5.046  15.672 -11.498  1.00  0.00    -0.237 OA
ATOM     76  O   UNL     1       3.891  14.572 -13.386  1.00  0.00    -0.237 OA
ATOM     77  O   UNL     1       2.635  16.051 -11.864  1.00  0.00    -0.744 OA
ENDBRANCH  73  74
ENDBRANCH  54  68
BRANCH  55  78
ATOM     78  C   UNL     1       1.182   4.986 -14.831  1.00  0.00    -0.014 A 
ATOM     79  C   UNL     1       2.498   4.573 -15.121  1.00  0.00     0.010 A 
ATOM     80  C   UNL     1       0.379   5.421 -15.907  1.00  0.00     0.010 A 
ATOM     81  C   UNL     1       3.025   4.682 -16.414  1.00  0.00     0.020 A 
ATOM     82  C   UNL     1       0.903   5.531 -17.208  1.00  0.00     0.020 A 
ATOM     83  C   UNL     1       2.238   5.199 -17.442  1.00  0.00     0.054 A 
BRANCH  83  84
ATOM     84  S   UNL     1       3.024   5.519 -19.050  1.00  0.00     0.124 S 
ATOM     85  O   UNL     1       3.946   6.604 -18.726  1.00  0.00    -0.237 OA
ATOM     86  O   UNL     1       3.651   4.235 -19.355  1.00  0.00    -0.237 OA
ATOM     87  O   UNL     1       1.908   5.884 -19.917  1.00  0.00    -0.744 OA
ENDBRANCH  83  84
ENDBRANCH  55  78
BRANCH  67  88
ATOM     88  C   UNL     1      -2.233   6.858  -9.753  1.00  0.00    -0.014 A 
ATOM     89  C   UNL     1      -3.397   7.357  -9.140  1.00  0.00     0.010 A 
ATOM     90  C   UNL     1      -1.974   5.475  -9.669  1.00  0.00     0.010 A 
ATOM     91  C   UNL     1      -4.252   6.519  -8.423  1.00  0.00     0.020 A 
ATOM     92  C   UNL     1      -2.847   4.620  -8.974  1.00  0.00     0.020 A 
ATOM     93  C   UNL     1      -3.966   5.157  -8.331  1.00  0.00     0.054 A 
BRANCH  93  94
ATOM     94  S   UNL     1      -5.069   4.122  -7.329  1.00  0.00     0.124 S 
ATOM     95  O   UNL     1      -4.762   4.569  -5.972  1.00  0.00    -0.237 OA
ATOM     96  O   UNL     1      -6.394   4.493  -7.822  1.00  0.00    -0.237 OA
ATOM     97  O   UNL     1      -4.655   2.756  -7.641  1.00  0.00    -0.744 OA
ENDBRANCH  93  94
ENDBRANCH  67  88
ENDBRANCH  41  42
ENDBRANCH  33  36
ENDBRANCH  31  32
ENDBRANCH   1  31
TORSDOF 15
