REMARK SMILES O=C(NCCCNC(=O)c1ccc(N2C(=O)/C(=C\c3ccc4c(c3)OCO4)[NH+]=C2c2ccccc2)cc1)c1ccc(-c2c3nc(c(-c4ccc(S(=O)(=O)[O-])cc4)c4ccc([nH]4)c(-c4ccc(S(=O)(=O)[O-])cc4)c4nc(c(-c5ccc(S(=O)(=O)[O-])cc5)c5ccc2[nH]5)C=C4)C=C3)cc1
REMARK SMILES IDX 4 1 3 2 1 3 2 4 38 6 39 7 97 8 40 9 96 10 41 11 42 12 43 13
REMARK SMILES IDX 90 14 44 15 95 16 89 17 91 18 45 19 94 20 88 21 87 22 46 24
REMARK SMILES IDX 76 25 57 26 75 27 58 28 61 29 74 30 92 31 59 32 60 33 73 35
REMARK SMILES IDX 93 36 62 37 47 38 48 39 56 40 49 41 55 42 50 43 51 44 52 45
REMARK SMILES IDX 53 46 54 47 77 48 78 49 86 50 79 51 85 52 80 53 81 54 82 55
REMARK SMILES IDX 83 56 84 57 63 58 64 59 72 60 65 61 71 62 66 63 67 64 68 65
REMARK SMILES IDX 69 66 70 67 5 68 6 69 7 70 8 71 9 73 10 74 11 75 37 76 12 77
REMARK SMILES IDX 36 78 13 79 14 80 15 81 29 82 16 83 17 84 28 85 18 86 30 88
REMARK SMILES IDX 31 89 35 90 32 91 34 92 33 93 19 94 20 95 24 96 21 97 23 98
REMARK SMILES IDX 22 99 25 100 27 101 26 102
REMARK H PARENT 3 5 91 23 61 34 7 72 28 87
REMARK Flexibility Score: inf
ROOT
ATOM      1  C   UNL     1       4.473   0.987  -1.067  1.00  0.00     0.118 C 
ENDROOT
BRANCH   1   2
ATOM      2  N   UNL     1       3.042   0.887  -0.790  1.00  0.00    -0.352 N 
ATOM      3  O   UNL     1       1.130   0.041   0.050  1.00  0.00    -0.269 OA
ATOM      4  C   UNL     1       2.357   0.069   0.080  1.00  0.00     0.251 C 
ATOM      5  H   UNL     1       2.477   1.504  -1.310  1.00  0.00     0.163 HD
BRANCH   4   6
ATOM      6  C   UNL     1       3.099  -0.792   1.026  1.00  0.00     0.039 A 
ATOM      7  C   UNL     1       4.234  -0.307   1.670  1.00  0.00     0.014 A 
ATOM      8  C   UNL     1       2.671  -2.102   1.264  1.00  0.00     0.014 A 
ATOM      9  C   UNL     1       5.057  -1.181   2.361  1.00  0.00     0.010 A 
ATOM     10  C   UNL     1       3.430  -2.945   2.087  1.00  0.00     0.010 A 
ATOM     11  C   UNL     1       4.653  -2.503   2.612  1.00  0.00    -0.014 A 
BRANCH  11  12
ATOM     12  C   UNL     1       5.505  -3.338   3.500  1.00  0.00     0.031 A 
ATOM     13  C   UNL     1       6.145  -4.613   3.022  1.00  0.00     0.074 A 
ATOM     14  C   UNL     1       5.766  -2.872   4.739  1.00  0.00     0.049 A 
ATOM     15  N   UNL     1       6.991  -5.388   3.655  1.00  0.00    -0.248 NA
ATOM     16  C   UNL     1       5.794  -5.088   1.675  1.00  0.00     0.031 C 
ATOM     17  C   UNL     1       5.185  -1.655   5.319  1.00  0.00     0.029 A 
ATOM     18  N   UNL     1       6.611  -3.328   5.716  1.00  0.00    -0.354 N 
ATOM     19  C   UNL     1       7.269  -6.441   2.791  1.00  0.00     0.074 A 
ATOM     20  C   UNL     1       6.473  -6.227   1.602  1.00  0.00     0.031 C 
ATOM     21  C   UNL     1       5.751  -1.419   6.510  1.00  0.00     0.029 A 
ATOM     22  C   UNL     1       6.662  -2.511   6.822  1.00  0.00     0.049 A 
ATOM     23  H   UNL     1       7.132  -4.160   5.635  1.00  0.00     0.167 HD
ATOM     24  C   UNL     1       8.117  -7.484   2.971  1.00  0.00     0.031 A 
ATOM     25  C   UNL     1       7.344  -2.631   7.975  1.00  0.00     0.031 A 
ATOM     26  C   UNL     1       8.896  -7.697   4.166  1.00  0.00     0.049 A 
ATOM     27  C   UNL     1       8.247  -3.814   8.157  1.00  0.00     0.074 A 
ATOM     28  C   UNL     1       9.787  -8.721   4.441  1.00  0.00     0.029 A 
ATOM     29  N   UNL     1       8.880  -6.875   5.284  1.00  0.00    -0.354 N 
ATOM     30  N   UNL     1       8.512  -4.783   7.314  1.00  0.00    -0.248 NA
ATOM     31  C   UNL     1       8.946  -3.918   9.443  1.00  0.00     0.031 C 
ATOM     32  C   UNL     1      10.265  -8.550   5.745  1.00  0.00     0.029 A 
ATOM     33  C   UNL     1       9.727  -7.381   6.258  1.00  0.00     0.049 A 
ATOM     34  H   UNL     1       8.345  -6.054   5.373  1.00  0.00     0.167 HD
ATOM     35  C   UNL     1       9.418  -5.610   7.966  1.00  0.00     0.074 A 
ATOM     36  C   UNL     1       9.685  -5.001   9.254  1.00  0.00     0.031 C 
ATOM     37  C   UNL     1       9.971  -6.773   7.542  1.00  0.00     0.031 A 
BRANCH  24  38
ATOM     38  C   UNL     1       8.245  -8.490   1.854  1.00  0.00    -0.014 A 
ATOM     39  C   UNL     1       8.895  -8.159   0.651  1.00  0.00     0.010 A 
ATOM     40  C   UNL     1       7.782  -9.807   2.036  1.00  0.00     0.010 A 
ATOM     41  C   UNL     1       9.056  -9.115  -0.356  1.00  0.00     0.020 A 
ATOM     42  C   UNL     1       7.965 -10.774   1.043  1.00  0.00     0.020 A 
ATOM     43  C   UNL     1       8.592 -10.418  -0.153  1.00  0.00     0.054 A 
BRANCH  43  44
ATOM     44  S   UNL     1       8.855 -11.647  -1.462  1.00  0.00     0.124 S 
ATOM     45  O   UNL     1       7.941 -11.179  -2.501  1.00  0.00    -0.237 OA
ATOM     46  O   UNL     1      10.277 -11.492  -1.761  1.00  0.00    -0.237 OA
ATOM     47  O   UNL     1       8.487 -12.912  -0.832  1.00  0.00    -0.744 OA
ENDBRANCH  43  44
ENDBRANCH  24  38
BRANCH  25  48
ATOM     48  C   UNL     1       7.151  -1.627   9.057  1.00  0.00    -0.014 A 
ATOM     49  C   UNL     1       8.201  -0.790   9.472  1.00  0.00     0.010 A 
ATOM     50  C   UNL     1       5.894  -1.507   9.681  1.00  0.00     0.010 A 
ATOM     51  C   UNL     1       8.005   0.125  10.511  1.00  0.00     0.020 A 
ATOM     52  C   UNL     1       5.683  -0.567  10.690  1.00  0.00     0.020 A 
ATOM     53  C   UNL     1       6.747   0.230  11.113  1.00  0.00     0.054 A 
BRANCH  53  54
ATOM     54  S   UNL     1       6.507   1.438  12.443  1.00  0.00     0.124 S 
ATOM     55  O   UNL     1       7.226   0.815  13.550  1.00  0.00    -0.237 OA
ATOM     56  O   UNL     1       7.119   2.643  11.888  1.00  0.00    -0.237 OA
ATOM     57  O   UNL     1       5.055   1.498  12.593  1.00  0.00    -0.744 OA
ENDBRANCH  53  54
ENDBRANCH  25  48
BRANCH  37  58
ATOM     58  C   UNL     1      10.940  -7.445   8.480  1.00  0.00    -0.014 A 
ATOM     59  C   UNL     1      10.505  -8.025   9.685  1.00  0.00     0.010 A 
ATOM     60  C   UNL     1      12.306  -7.497   8.148  1.00  0.00     0.010 A 
ATOM     61  C   UNL     1      11.427  -8.594  10.568  1.00  0.00     0.020 A 
ATOM     62  C   UNL     1      13.225  -8.097   9.011  1.00  0.00     0.020 A 
ATOM     63  C   UNL     1      12.782  -8.622  10.226  1.00  0.00     0.054 A 
BRANCH  63  64
ATOM     64  S   UNL     1      13.957  -9.372  11.385  1.00  0.00     0.124 S 
ATOM     65  O   UNL     1      14.011  -8.376  12.451  1.00  0.00    -0.237 OA
ATOM     66  O   UNL     1      13.304 -10.631  11.733  1.00  0.00    -0.237 OA
ATOM     67  O   UNL     1      15.181  -9.509  10.598  1.00  0.00    -0.744 OA
ENDBRANCH  63  64
ENDBRANCH  37  58
ENDBRANCH  11  12
ENDBRANCH   4   6
ENDBRANCH   1   2
BRANCH   1  68
ATOM     68  C   UNL     1       4.841   0.565  -2.480  1.00  0.00     0.042 C 
BRANCH  68  69
ATOM     69  C   UNL     1       4.283   1.482  -3.555  1.00  0.00     0.118 C 
BRANCH  69  70
ATOM     70  N   UNL     1       4.810   2.838  -3.456  1.00  0.00    -0.352 N 
ATOM     71  C   UNL     1       5.722   3.482  -4.254  1.00  0.00     0.251 C 
ATOM     72  H   UNL     1       4.460   3.370  -2.705  1.00  0.00     0.163 HD
ATOM     73  O   UNL     1       6.193   4.564  -3.921  1.00  0.00    -0.269 OA
BRANCH  71  74
ATOM     74  C   UNL     1       6.156   2.847  -5.511  1.00  0.00     0.040 A 
ATOM     75  C   UNL     1       7.516   2.625  -5.721  1.00  0.00     0.018 A 
ATOM     76  C   UNL     1       5.217   2.454  -6.467  1.00  0.00     0.018 A 
ATOM     77  C   UNL     1       7.925   1.883  -6.831  1.00  0.00     0.053 A 
ATOM     78  C   UNL     1       5.631   1.729  -7.584  1.00  0.00     0.053 A 
ATOM     79  C   UNL     1       6.980   1.385  -7.741  1.00  0.00     0.136 A 
BRANCH  79  80
ATOM     80  N   UNL     1       7.358   0.499  -8.771  1.00  0.00    -0.154 N 
ATOM     81  C   UNL     1       6.895   0.579 -10.059  1.00  0.00     0.385 C 
ATOM     82  C   UNL     1       8.184  -0.594  -8.697  1.00  0.00     0.295 C 
ATOM     83  O   UNL     1       6.089   1.353 -10.548  1.00  0.00    -0.236 OA
ATOM     84  C   UNL     1       7.634  -0.537 -10.742  1.00  0.00     0.216 C 
ATOM     85  N   UNL     1       8.380  -1.230  -9.816  1.00  0.00    -0.233 N 
ATOM     86  C   UNL     1       7.646  -0.812 -12.054  1.00  0.00     0.068 C 
ATOM     87  H   UNL     1       8.938  -2.027  -9.967  1.00  0.00     0.312 HD
BRANCH  82  88
ATOM     88  C   UNL     1       8.744  -1.091  -7.430  1.00  0.00     0.065 A 
ATOM     89  C   UNL     1      10.116  -1.341  -7.352  1.00  0.00     0.017 A 
ATOM     90  C   UNL     1       7.902  -1.396  -6.355  1.00  0.00     0.017 A 
ATOM     91  C   UNL     1      10.650  -1.876  -6.180  1.00  0.00     0.001 A 
ATOM     92  C   UNL     1       8.442  -1.932  -5.187  1.00  0.00     0.001 A 
ATOM     93  C   UNL     1       9.814  -2.171  -5.101  1.00  0.00     0.000 A 
ENDBRANCH  82  88
BRANCH  86  94
ATOM     94  C   UNL     1       7.053   0.091 -13.036  1.00  0.00    -0.017 A 
ATOM     95  C   UNL     1       5.762  -0.129 -13.557  1.00  0.00     0.012 A 
ATOM     96  C   UNL     1       7.744   1.279 -13.316  1.00  0.00     0.059 A 
ATOM     97  C   UNL     1       5.123   0.869 -14.303  1.00  0.00     0.051 A 
ATOM     98  C   UNL     1       7.071   2.256 -14.006  1.00  0.00     0.166 A 
ATOM     99  C   UNL     1       5.791   2.064 -14.474  1.00  0.00     0.165 A 
ATOM    100  O   UNL     1       7.524   3.519 -14.231  1.00  0.00    -0.454 OA
ATOM    101  O   UNL     1       5.286   3.194 -15.043  1.00  0.00    -0.454 OA
ATOM    102  C   UNL     1       6.296   4.146 -14.645  1.00  0.00     0.468 C 
ENDBRANCH  86  94
ENDBRANCH  79  80
ENDBRANCH  71  74
ENDBRANCH  69  70
ENDBRANCH  68  69
ENDBRANCH   1  68
TORSDOF 16
