REMARK SMILES N#Cc1cc(-c2cncc(C(=O)NCCCNC(=O)c3ccc(-c4c5nc(c(-c6ccc(S(=O)(=O)[O-])cc6)c6ccc([nH]6)c(-c6ccc(S(=O)(=O)[O-])cc6)c6nc(c(-c7ccc(S(=O)(=O)[O-])cc7)c7ccc4[nH]7)C=C6)C=C5)cc3)c2)ccc1Cl
REMARK SMILES IDX 15 1 14 2 13 3 11 4 12 5 10 7 6 8 7 9 80 10 8 11 9 12 5 13
REMARK SMILES IDX 3 14 4 15 83 16 82 17 84 18 81 19 2 20 1 21 16 22 17 23
REMARK SMILES IDX 18 24 19 26 20 27 21 28 79 29 22 30 78 31 23 32 24 33 25 34
REMARK SMILES IDX 72 35 26 36 77 37 71 38 73 39 27 40 76 41 70 42 69 43 28 45
REMARK SMILES IDX 58 46 39 47 57 48 40 49 43 50 56 51 74 52 41 53 42 54 55 56
REMARK SMILES IDX 75 57 44 58 29 59 30 60 38 61 31 62 37 63 32 64 33 65 34 66
REMARK SMILES IDX 35 67 36 68 59 69 60 70 68 71 61 72 67 73 62 74 63 75 64 76
REMARK SMILES IDX 65 77 66 78 45 79 46 80 54 81 47 82 53 83 48 84 49 85 50 86
REMARK SMILES IDX 51 87 52 88
REMARK H PARENT 13 6 17 25 73 44 43 55
REMARK Flexibility Score: inf
ROOT
ATOM      1  C   UNL     1       3.322   3.152   4.322  1.00  0.00     0.042 C 
ENDROOT
BRANCH   1   2
ATOM      2  C   UNL     1       3.485   4.159   3.184  1.00  0.00     0.118 C 
BRANCH   2   3
ATOM      3  N   UNL     1       4.889   4.391   2.897  1.00  0.00    -0.352 N 
ATOM      4  C   UNL     1       5.742   3.906   1.940  1.00  0.00     0.252 C 
ATOM      5  O   UNL     1       6.896   4.337   1.940  1.00  0.00    -0.269 OA
ATOM      6  H   UNL     1       5.315   5.028   3.515  1.00  0.00     0.163 HD
BRANCH   4   7
ATOM      7  C   UNL     1       5.339   2.946   0.884  1.00  0.00     0.058 A 
ATOM      8  C   UNL     1       3.855   1.347  -0.191  1.00  0.00     0.001 A 
ATOM      9  C   UNL     1       4.712   1.373  -1.287  1.00  0.00     0.119 A 
ATOM     10  C   UNL     1       4.229   2.107   0.926  1.00  0.00     0.025 A 
ATOM     11  N   UNL     1       5.848   2.106  -1.342  1.00  0.00    -0.263 NA
ATOM     12  C   UNL     1       6.126   2.882  -0.261  1.00  0.00     0.124 A 
BRANCH   8  13
ATOM     13  C   UNL     1       2.583   0.623  -0.190  1.00  0.00    -0.015 A 
ATOM     14  C   UNL     1       0.132   0.673  -0.099  1.00  0.00     0.071 A 
ATOM     15  C   UNL     1       1.368   1.336  -0.164  1.00  0.00     0.029 A 
ATOM     16  C   UNL     1       0.109  -0.723  -0.060  1.00  0.00     0.058 A 
ATOM     17  C   UNL     1       1.308  -1.442  -0.092  1.00  0.00     0.022 A 
ATOM     18  Cl  UNL     1      -1.368  -1.613   0.027  1.00  0.00    -0.083 Cl
ATOM     19  C   UNL     1       2.535  -0.775  -0.161  1.00  0.00     0.010 A 
BRANCH  14  20
ATOM     20  C   UNL     1      -1.067   1.457  -0.071  1.00  0.00     0.101 C 
ATOM     21  N   UNL     1      -2.011   2.135  -0.061  1.00  0.00    -0.192 NA
ENDBRANCH  14  20
ENDBRANCH   8  13
ENDBRANCH   4   7
ENDBRANCH   2   3
ENDBRANCH   1   2
BRANCH   1  22
ATOM     22  C   UNL     1       3.561   3.779   5.693  1.00  0.00     0.118 C 
BRANCH  22  23
ATOM     23  N   UNL     1       2.568   4.803   5.990  1.00  0.00    -0.352 N 
ATOM     24  C   UNL     1       1.672   4.896   7.021  1.00  0.00     0.251 C 
ATOM     25  H   UNL     1       2.537   5.548   5.348  1.00  0.00     0.163 HD
ATOM     26  O   UNL     1       0.740   5.690   6.933  1.00  0.00    -0.269 OA
BRANCH  24  27
ATOM     27  C   UNL     1       1.825   4.058   8.226  1.00  0.00     0.039 A 
ATOM     28  C   UNL     1       0.678   3.590   8.870  1.00  0.00     0.014 A 
ATOM     29  C   UNL     1       3.090   3.776   8.752  1.00  0.00     0.014 A 
ATOM     30  C   UNL     1       0.804   2.816  10.022  1.00  0.00     0.010 A 
ATOM     31  C   UNL     1       3.215   2.919   9.839  1.00  0.00     0.010 A 
ATOM     32  C   UNL     1       2.074   2.450  10.501  1.00  0.00    -0.014 A 
BRANCH  32  33
ATOM     33  C   UNL     1       2.207   1.581  11.696  1.00  0.00     0.031 A 
ATOM     34  C   UNL     1       2.904   2.081  12.932  1.00  0.00     0.074 A 
ATOM     35  C   UNL     1       1.722   0.325  11.651  1.00  0.00     0.049 A 
ATOM     36  N   UNL     1       3.078   1.475  14.078  1.00  0.00    -0.248 NA
ATOM     37  C   UNL     1       3.509   3.422  12.868  1.00  0.00     0.031 C 
ATOM     38  C   UNL     1       1.085  -0.291  10.484  1.00  0.00     0.029 A 
ATOM     39  N   UNL     1       1.683  -0.656  12.607  1.00  0.00    -0.354 N 
ATOM     40  C   UNL     1       3.825   2.349  14.860  1.00  0.00     0.074 A 
ATOM     41  C   UNL     1       4.122   3.500  14.039  1.00  0.00     0.031 C 
ATOM     42  C   UNL     1       0.677  -1.527  10.808  1.00  0.00     0.029 A 
ATOM     43  C   UNL     1       1.070  -1.812  12.184  1.00  0.00     0.049 A 
ATOM     44  H   UNL     1       2.058  -0.545  13.511  1.00  0.00     0.167 HD
ATOM     45  C   UNL     1       4.212   2.212  16.151  1.00  0.00     0.031 A 
ATOM     46  C   UNL     1       0.851  -2.975  12.826  1.00  0.00     0.031 A 
ATOM     47  C   UNL     1       3.914   1.055  16.955  1.00  0.00     0.049 A 
ATOM     48  C   UNL     1       1.284  -3.106  14.259  1.00  0.00     0.074 A 
ATOM     49  C   UNL     1       4.196   0.844  18.293  1.00  0.00     0.029 A 
ATOM     50  N   UNL     1       3.287  -0.093  16.492  1.00  0.00    -0.354 N 
ATOM     51  N   UNL     1       1.902  -2.229  15.014  1.00  0.00    -0.248 NA
ATOM     52  C   UNL     1       0.975  -4.374  14.931  1.00  0.00     0.031 C 
ATOM     53  C   UNL     1       3.817  -0.463  18.616  1.00  0.00     0.029 A 
ATOM     54  C   UNL     1       3.212  -1.033  17.506  1.00  0.00     0.049 A 
ATOM     55  H   UNL     1       2.946  -0.220  15.577  1.00  0.00     0.167 HD
ATOM     56  C   UNL     1       2.033  -2.829  16.261  1.00  0.00     0.074 A 
ATOM     57  C   UNL     1       1.414  -4.136  16.160  1.00  0.00     0.031 C 
ATOM     58  C   UNL     1       2.606  -2.338  17.389  1.00  0.00     0.031 A 
BRANCH  45  59
ATOM     59  C   UNL     1       5.032   3.324  16.758  1.00  0.00    -0.014 A 
ATOM     60  C   UNL     1       4.502   4.614  16.954  1.00  0.00     0.010 A 
ATOM     61  C   UNL     1       6.357   3.068  17.158  1.00  0.00     0.010 A 
ATOM     62  C   UNL     1       5.298   5.636  17.479  1.00  0.00     0.020 A 
ATOM     63  C   UNL     1       7.144   4.077  17.720  1.00  0.00     0.020 A 
ATOM     64  C   UNL     1       6.615   5.362  17.855  1.00  0.00     0.054 A 
BRANCH  64  65
ATOM     65  S   UNL     1       7.624   6.707  18.534  1.00  0.00     0.124 S 
ATOM     66  O   UNL     1       7.825   7.553  17.360  1.00  0.00    -0.237 OA
ATOM     67  O   UNL     1       6.757   7.265  19.568  1.00  0.00    -0.237 OA
ATOM     68  O   UNL     1       8.822   6.031  19.025  1.00  0.00    -0.744 OA
ENDBRANCH  64  65
ENDBRANCH  45  59
BRANCH  46  69
ATOM     69  C   UNL     1       0.189  -4.095  12.102  1.00  0.00    -0.014 A 
ATOM     70  C   UNL     1      -1.116  -4.502  12.428  1.00  0.00     0.010 A 
ATOM     71  C   UNL     1       0.854  -4.725  11.033  1.00  0.00     0.010 A 
ATOM     72  C   UNL     1      -1.742  -5.519  11.699  1.00  0.00     0.020 A 
ATOM     73  C   UNL     1       0.220  -5.716  10.281  1.00  0.00     0.020 A 
ATOM     74  C   UNL     1      -1.074  -6.111  10.623  1.00  0.00     0.054 A 
BRANCH  74  75
ATOM     75  S   UNL     1      -1.937  -7.366   9.638  1.00  0.00     0.124 S 
ATOM     76  O   UNL     1      -2.009  -8.488  10.569  1.00  0.00    -0.237 OA
ATOM     77  O   UNL     1      -3.206  -6.708   9.336  1.00  0.00    -0.237 OA
ATOM     78  O   UNL     1      -1.058  -7.563   8.487  1.00  0.00    -0.744 OA
ENDBRANCH  74  75
ENDBRANCH  46  69
BRANCH  58  79
ATOM     79  C   UNL     1       2.562  -3.201  18.624  1.00  0.00    -0.014 A 
ATOM     80  C   UNL     1       3.303  -4.392  18.722  1.00  0.00     0.010 A 
ATOM     81  C   UNL     1       1.802  -2.776  19.730  1.00  0.00     0.010 A 
ATOM     82  C   UNL     1       3.255  -5.160  19.889  1.00  0.00     0.020 A 
ATOM     83  C   UNL     1       1.782  -3.520  20.911  1.00  0.00     0.020 A 
ATOM     84  C   UNL     1       2.496  -4.716  20.977  1.00  0.00     0.054 A 
BRANCH  84  85
ATOM     85  S   UNL     1       2.483  -5.711  22.493  1.00  0.00     0.124 S 
ATOM     86  O   UNL     1       1.721  -6.886  22.079  1.00  0.00    -0.237 OA
ATOM     87  O   UNL     1       3.905  -5.938  22.737  1.00  0.00    -0.237 OA
ATOM     88  O   UNL     1       1.818  -4.850  23.468  1.00  0.00    -0.744 OA
ENDBRANCH  84  85
ENDBRANCH  58  79
ENDBRANCH  32  33
ENDBRANCH  24  27
ENDBRANCH  22  23
ENDBRANCH   1  22
TORSDOF 15
