REMARK SMILES CC[NH2+][C@]1(C(=O)NCCCNC(=O)c2ccc(-c3c4nc(c(-c5ccc(S(=O)(=O)[O-])cc5)c5ccc([nH]5)c(-c5ccc(S(=O)(=O)[O-])cc5)c5nc(c(-c6ccc(S(=O)(=O)[O-])cc6)c6ccc3[nH]6)C=C5)C=C4)cc2)CC[C@H](SC2COC2)C1
REMARK SMILES IDX 9 1 8 2 7 3 5 4 6 5 4 7 74 8 82 9 75 10 76 11 3 12 2 15 1 16
REMARK SMILES IDX 77 17 78 18 79 19 81 20 80 21 10 22 11 23 12 24 13 26 14 27
REMARK SMILES IDX 15 28 73 29 16 30 72 31 17 32 18 33 19 34 66 35 20 36 71 37
REMARK SMILES IDX 65 38 67 39 21 40 70 41 64 42 63 43 22 45 52 46 33 47 51 48
REMARK SMILES IDX 34 49 37 50 50 51 68 52 35 53 36 54 49 56 69 57 38 58 23 59
REMARK SMILES IDX 24 60 32 61 25 62 31 63 26 64 27 65 28 66 29 67 30 68 53 69
REMARK SMILES IDX 54 70 62 71 55 72 61 73 56 74 57 75 58 76 59 77 60 78 39 79
REMARK SMILES IDX 40 80 48 81 41 82 47 83 42 84 43 85 44 86 45 87 46 88
REMARK H PARENT 7 6 3 13 3 14 11 25 67 44 37 55
REMARK Flexibility Score: inf
ROOT
ATOM      1  C   UNL     1       4.770  -0.862  -3.119  1.00  0.00     0.042 C 
ENDROOT
BRANCH   1   2
ATOM      2  C   UNL     1       3.457  -1.540  -3.481  1.00  0.00     0.118 C 
BRANCH   2   3
ATOM      3  N   UNL     1       2.459  -1.397  -2.439  1.00  0.00    -0.351 N 
ATOM      4  C   UNL     1       1.183  -0.937  -2.418  1.00  0.00     0.281 C 
ATOM      5  O   UNL     1       0.714  -0.826  -1.278  1.00  0.00    -0.268 OA
ATOM      6  H   UNL     1       2.776  -1.698  -1.557  1.00  0.00     0.163 HD
BRANCH   4   7
ATOM      7  C   UNL     1       0.397  -0.520  -3.703  1.00  0.00     0.176 C 
ATOM      8  C   UNL     1       0.966   0.823  -4.193  1.00  0.00     0.080 C 
ATOM      9  C   UNL     1       0.530  -1.434  -4.943  1.00  0.00     0.093 C 
ATOM     10  C   UNL     1       0.554   0.923  -5.652  1.00  0.00     0.022 C 
ATOM     11  C   UNL     1       0.603  -0.509  -6.185  1.00  0.00     0.054 C 
BRANCH   7  12
ATOM     12  N   UNL     1      -1.065  -0.331  -3.427  1.00  0.00    -0.334 N 
ATOM     13  H   UNL     1      -1.177   0.499  -2.845  1.00  0.00     0.347 HD
ATOM     14  H   UNL     1      -1.527  -0.240  -4.332  1.00  0.00     0.347 HD
BRANCH  12  15
ATOM     15  C   UNL     1      -1.695  -1.465  -2.740  1.00  0.00     0.257 C 
ATOM     16  C   UNL     1      -3.205  -1.427  -2.921  1.00  0.00     0.071 C 
ENDBRANCH  12  15
ENDBRANCH   7  12
BRANCH  11  17
ATOM     17  S   UNL     1      -0.779  -0.892  -7.305  1.00  0.00    -0.150 SA
BRANCH  17  18
ATOM     18  C   UNL     1      -0.389  -0.081  -8.878  1.00  0.00     0.098 C 
ATOM     19  C   UNL     1      -0.335   1.444  -8.883  1.00  0.00     0.177 C 
ATOM     20  C   UNL     1       1.059  -0.001  -9.348  1.00  0.00     0.177 C 
ATOM     21  O   UNL     1       0.914   1.420  -9.625  1.00  0.00    -0.379 OA
ENDBRANCH  17  18
ENDBRANCH  11  17
ENDBRANCH   4   7
ENDBRANCH   2   3
ENDBRANCH   1   2
BRANCH   1  22
ATOM     22  C   UNL     1       5.369  -1.289  -1.786  1.00  0.00     0.118 C 
BRANCH  22  23
ATOM     23  N   UNL     1       5.719  -2.703  -1.733  1.00  0.00    -0.352 N 
ATOM     24  C   UNL     1       6.953  -3.293  -1.575  1.00  0.00     0.251 C 
ATOM     25  H   UNL     1       4.963  -3.327  -1.824  1.00  0.00     0.163 HD
ATOM     26  O   UNL     1       7.077  -4.505  -1.692  1.00  0.00    -0.269 OA
BRANCH  24  27
ATOM     27  C   UNL     1       8.132  -2.442  -1.304  1.00  0.00     0.039 A 
ATOM     28  C   UNL     1       9.285  -2.609  -2.075  1.00  0.00     0.014 A 
ATOM     29  C   UNL     1       8.074  -1.444  -0.330  1.00  0.00     0.014 A 
ATOM     30  C   UNL     1      10.342  -1.705  -1.940  1.00  0.00     0.010 A 
ATOM     31  C   UNL     1       9.084  -0.492  -0.265  1.00  0.00     0.010 A 
ATOM     32  C   UNL     1      10.226  -0.606  -1.073  1.00  0.00    -0.014 A 
BRANCH  32  33
ATOM     33  C   UNL     1      11.272   0.446  -0.985  1.00  0.00     0.031 A 
ATOM     34  C   UNL     1      11.945   0.716   0.334  1.00  0.00     0.074 A 
ATOM     35  C   UNL     1      11.534   1.231  -2.050  1.00  0.00     0.049 A 
ATOM     36  N   UNL     1      12.742   1.697   0.669  1.00  0.00    -0.248 NA
ATOM     37  C   UNL     1      11.650  -0.220   1.431  1.00  0.00     0.031 C 
ATOM     38  C   UNL     1      10.922   1.103  -3.376  1.00  0.00     0.029 A 
ATOM     39  N   UNL     1      12.376   2.309  -2.179  1.00  0.00    -0.354 N 
ATOM     40  C   UNL     1      13.006   1.522   2.022  1.00  0.00     0.074 A 
ATOM     41  C   UNL     1      12.255   0.364   2.454  1.00  0.00     0.031 C 
ATOM     42  C   UNL     1      11.424   2.050  -4.186  1.00  0.00     0.029 A 
ATOM     43  C   UNL     1      12.354   2.882  -3.429  1.00  0.00     0.049 A 
ATOM     44  H   UNL     1      12.941   2.640  -1.445  1.00  0.00     0.167 HD
ATOM     45  C   UNL     1      13.813   2.250   2.831  1.00  0.00     0.031 A 
ATOM     46  C   UNL     1      12.998   3.963  -3.911  1.00  0.00     0.031 A 
ATOM     47  C   UNL     1      14.591   3.375   2.390  1.00  0.00     0.049 A 
ATOM     48  C   UNL     1      13.916   4.736  -3.004  1.00  0.00     0.074 A 
ATOM     49  C   UNL     1      15.484   4.141   3.117  1.00  0.00     0.029 A 
ATOM     50  N   UNL     1      14.580   3.885   1.101  1.00  0.00    -0.354 N 
ATOM     51  N   UNL     1      14.180   4.532  -1.736  1.00  0.00    -0.248 NA
ATOM     52  C   UNL     1      14.629   5.877  -3.595  1.00  0.00     0.031 C 
ATOM     53  C   UNL     1      15.993   5.134   2.274  1.00  0.00     0.029 A 
ATOM     54  C   UNL     1      15.449   4.958   1.012  1.00  0.00     0.049 A 
ATOM     55  H   UNL     1      14.035   3.536   0.359  1.00  0.00     0.167 HD
ATOM     56  C   UNL     1      15.114   5.500  -1.385  1.00  0.00     0.074 A 
ATOM     57  C   UNL     1      15.371   6.286  -2.574  1.00  0.00     0.031 C 
ATOM     58  C   UNL     1      15.706   5.716  -0.186  1.00  0.00     0.031 A 
BRANCH  45  59
ATOM     59  C   UNL     1      13.890   1.844   4.278  1.00  0.00    -0.014 A 
ATOM     60  C   UNL     1      14.541   0.659   4.665  1.00  0.00     0.010 A 
ATOM     61  C   UNL     1      13.321   2.668   5.266  1.00  0.00     0.010 A 
ATOM     62  C   UNL     1      14.578   0.280   6.009  1.00  0.00     0.020 A 
ATOM     63  C   UNL     1      13.380   2.306   6.614  1.00  0.00     0.020 A 
ATOM     64  C   UNL     1      13.991   1.102   6.974  1.00  0.00     0.054 A 
BRANCH  64  65
ATOM     65  S   UNL     1      14.062   0.592   8.713  1.00  0.00     0.124 S 
ATOM     66  O   UNL     1      13.036  -0.447   8.762  1.00  0.00    -0.237 OA
ATOM     67  O   UNL     1      15.437   0.122   8.856  1.00  0.00    -0.237 OA
ATOM     68  O   UNL     1      13.745   1.815   9.446  1.00  0.00    -0.744 OA
ENDBRANCH  64  65
ENDBRANCH  45  59
BRANCH  46  69
ATOM     69  C   UNL     1      12.812   4.367  -5.331  1.00  0.00    -0.014 A 
ATOM     70  C   UNL     1      13.837   4.146  -6.268  1.00  0.00     0.010 A 
ATOM     71  C   UNL     1      11.608   4.954  -5.758  1.00  0.00     0.010 A 
ATOM     72  C   UNL     1      13.666   4.519  -7.605  1.00  0.00     0.020 A 
ATOM     73  C   UNL     1      11.425   5.306  -7.098  1.00  0.00     0.020 A 
ATOM     74  C   UNL     1      12.460   5.096  -8.012  1.00  0.00     0.054 A 
BRANCH  74  75
ATOM     75  S   UNL     1      12.237   5.517  -9.763  1.00  0.00     0.124 S 
ATOM     76  O   UNL     1      13.017   6.744  -9.881  1.00  0.00    -0.237 OA
ATOM     77  O   UNL     1      12.788   4.347 -10.444  1.00  0.00    -0.237 OA
ATOM     78  O   UNL     1      10.790   5.677  -9.892  1.00  0.00    -0.744 OA
ENDBRANCH  74  75
ENDBRANCH  46  69
BRANCH  58  79
ATOM     79  C   UNL     1      16.734   6.810  -0.103  1.00  0.00    -0.014 A 
ATOM     80  C   UNL     1      16.357   8.162  -0.056  1.00  0.00     0.010 A 
ATOM     81  C   UNL     1      18.094   6.469   0.012  1.00  0.00     0.010 A 
ATOM     82  C   UNL     1      17.326   9.158   0.091  1.00  0.00     0.020 A 
ATOM     83  C   UNL     1      19.063   7.460   0.180  1.00  0.00     0.020 A 
ATOM     84  C   UNL     1      18.673   8.800   0.210  1.00  0.00     0.054 A 
BRANCH  84  85
ATOM     85  S   UNL     1      19.907  10.105   0.469  1.00  0.00     0.124 S 
ATOM     86  O   UNL     1      20.033  10.674  -0.869  1.00  0.00    -0.237 OA
ATOM     87  O   UNL     1      19.264  10.964   1.460  1.00  0.00    -0.237 OA
ATOM     88  O   UNL     1      21.080   9.380   0.952  1.00  0.00    -0.744 OA
ENDBRANCH  84  85
ENDBRANCH  58  79
ENDBRANCH  32  33
ENDBRANCH  24  27
ENDBRANCH  22  23
ENDBRANCH   1  22
TORSDOF 17
