REMARK SMILES Cc1cc(=O)cc(C)n1C[C@H]1CCCC[C@@H]1C(=O)NCCCNC(=O)c1ccc(-c2c3nc(c(-c4ccc(S(=O)(=O)[O-])cc4)c4ccc([nH]4)c(-c4ccc(S(=O)(=O)[O-])cc4)c4nc(c(-c5ccc(S(=O)(=O)[O-])cc5)c5ccc2[nH]5)C=C4)C=C3)cc1
REMARK SMILES IDX 21 1 20 2 19 3 17 4 18 5 16 7 11 8 12 9 13 10 15 11 14 12
REMARK SMILES IDX 10 13 9 14 1 15 2 16 3 17 4 18 7 19 5 20 6 21 8 22 22 23
REMARK SMILES IDX 23 24 24 25 25 27 26 28 27 29 85 30 28 31 84 32 29 33 30 34
REMARK SMILES IDX 31 35 78 36 32 37 83 38 77 39 79 40 33 41 82 42 76 43 75 44
REMARK SMILES IDX 34 46 64 47 45 48 63 49 46 50 49 51 62 52 80 53 47 54 48 55
REMARK SMILES IDX 61 57 81 58 50 59 35 60 36 61 44 62 37 63 43 64 38 65 39 66
REMARK SMILES IDX 40 67 41 68 42 69 65 70 66 71 74 72 67 73 73 74 68 75 69 76
REMARK SMILES IDX 70 77 71 78 72 79 51 80 52 81 60 82 53 83 59 84 54 85 55 86
REMARK SMILES IDX 56 87 57 88 58 89
REMARK H PARENT 19 6 23 26 79 45 49 56
REMARK Flexibility Score: inf
ROOT
ATOM      1  C   UNL     1       0.952  -0.261   0.129  1.00  0.00     0.042 C 
ENDROOT
BRANCH   1   2
ATOM      2  C   UNL     1       2.023  -0.207  -0.953  1.00  0.00     0.117 C 
BRANCH   2   3
ATOM      3  N   UNL     1       1.829   0.915  -1.843  1.00  0.00    -0.356 N 
ATOM      4  C   UNL     1       2.597   1.994  -2.118  1.00  0.00     0.223 C 
ATOM      5  O   UNL     1       2.151   2.760  -2.975  1.00  0.00    -0.275 OA
ATOM      6  H   UNL     1       0.981   0.890  -2.342  1.00  0.00     0.163 HD
BRANCH   4   7
ATOM      7  C   UNL     1       3.935   2.238  -1.400  1.00  0.00     0.083 C 
ATOM      8  C   UNL     1       3.777   3.099  -0.107  1.00  0.00     0.021 C 
ATOM      9  C   UNL     1       3.308   4.503  -0.532  1.00  0.00     0.006 C 
ATOM     10  C   UNL     1       4.267   5.186  -1.513  1.00  0.00     0.000 C 
ATOM     11  C   UNL     1       4.922   2.883  -2.394  1.00  0.00     0.014 C 
ATOM     12  C   UNL     1       4.607   4.341  -2.733  1.00  0.00     0.001 C 
BRANCH   8  13
ATOM     13  C   UNL     1       5.111   3.122   0.713  1.00  0.00     0.126 C 
BRANCH  13  14
ATOM     14  N   UNL     1       4.990   3.568   2.141  1.00  0.00    -0.349 N 
ATOM     15  C   UNL     1       5.078   1.136   2.915  1.00  0.00     0.064 C 
ATOM     16  C   UNL     1       4.902   2.610   3.196  1.00  0.00     0.018 A 
ATOM     17  C   UNL     1       4.735   2.958   4.487  1.00  0.00     0.073 A 
ATOM     18  C   UNL     1       4.657   4.376   4.861  1.00  0.00     0.182 A 
ATOM     19  C   UNL     1       5.072   4.939   2.523  1.00  0.00     0.018 A 
ATOM     20  O   UNL     1       4.483   4.734   6.019  1.00  0.00    -0.290 OA
ATOM     21  C   UNL     1       4.884   5.353   3.791  1.00  0.00     0.073 A 
ATOM     22  C   UNL     1       5.489   6.021   1.561  1.00  0.00     0.064 C 
ENDBRANCH  13  14
ENDBRANCH   8  13
ENDBRANCH   4   7
ENDBRANCH   2   3
ENDBRANCH   1   2
BRANCH   1  23
ATOM     23  C   UNL     1      -0.484  -0.237  -0.391  1.00  0.00     0.118 C 
BRANCH  23  24
ATOM     24  N   UNL     1      -0.799  -1.354  -1.271  1.00  0.00    -0.352 N 
ATOM     25  C   UNL     1      -1.686  -2.393  -1.104  1.00  0.00     0.251 C 
ATOM     26  H   UNL     1      -0.298  -1.369  -2.119  1.00  0.00     0.163 HD
ATOM     27  O   UNL     1      -1.689  -3.322  -1.899  1.00  0.00    -0.269 OA
BRANCH  25  28
ATOM     28  C   UNL     1      -2.609  -2.399   0.052  1.00  0.00     0.039 A 
ATOM     29  C   UNL     1      -2.752  -3.575   0.793  1.00  0.00     0.014 A 
ATOM     30  C   UNL     1      -3.329  -1.256   0.406  1.00  0.00     0.014 A 
ATOM     31  C   UNL     1      -3.557  -3.580   1.934  1.00  0.00     0.010 A 
ATOM     32  C   UNL     1      -4.066  -1.239   1.587  1.00  0.00     0.010 A 
ATOM     33  C   UNL     1      -4.188  -2.400   2.364  1.00  0.00    -0.014 A 
BRANCH  33  34
ATOM     34  C   UNL     1      -4.983  -2.367   3.618  1.00  0.00     0.031 A 
ATOM     35  C   UNL     1      -6.462  -2.095   3.567  1.00  0.00     0.074 A 
ATOM     36  C   UNL     1      -4.368  -2.540   4.804  1.00  0.00     0.049 A 
ATOM     37  N   UNL     1      -7.315  -1.993   4.554  1.00  0.00    -0.248 NA
ATOM     38  C   UNL     1      -7.059  -1.895   2.235  1.00  0.00     0.031 C 
ATOM     39  C   UNL     1      -2.935  -2.785   4.988  1.00  0.00     0.029 A 
ATOM     40  N   UNL     1      -4.869  -2.541   6.083  1.00  0.00    -0.354 N 
ATOM     41  C   UNL     1      -8.542  -1.714   3.965  1.00  0.00     0.074 A 
ATOM     42  C   UNL     1      -8.315  -1.604   2.542  1.00  0.00     0.031 C 
ATOM     43  C   UNL     1      -2.681  -2.951   6.296  1.00  0.00     0.029 A 
ATOM     44  C   UNL     1      -3.920  -2.781   7.049  1.00  0.00     0.049 A 
ATOM     45  H   UNL     1      -5.819  -2.384   6.288  1.00  0.00     0.167 HD
ATOM     46  C   UNL     1      -9.755  -1.587   4.553  1.00  0.00     0.031 A 
ATOM     47  C   UNL     1      -4.033  -2.857   8.390  1.00  0.00     0.031 A 
ATOM     48  C   UNL     1      -9.980  -1.701   5.969  1.00  0.00     0.049 A 
ATOM     49  C   UNL     1      -5.385  -2.670   9.023  1.00  0.00     0.074 A 
ATOM     50  C   UNL     1     -11.178  -1.623   6.657  1.00  0.00     0.029 A 
ATOM     51  N   UNL     1      -8.989  -1.919   6.914  1.00  0.00    -0.354 N 
ATOM     52  N   UNL     1      -6.542  -2.453   8.444  1.00  0.00    -0.248 NA
ATOM     53  C   UNL     1      -5.447  -2.744  10.490  1.00  0.00     0.031 C 
ATOM     54  C   UNL     1     -10.905  -1.740   8.023  1.00  0.00     0.029 A 
ATOM     55  C   UNL     1      -9.545  -1.953   8.181  1.00  0.00     0.049 A 
ATOM     56  H   UNL     1      -8.032  -2.033   6.713  1.00  0.00     0.167 HD
ATOM     57  C   UNL     1      -7.473  -2.385   9.475  1.00  0.00     0.074 A 
ATOM     58  C   UNL     1      -6.748  -2.602  10.710  1.00  0.00     0.031 C 
ATOM     59  C   UNL     1      -8.809  -2.164   9.403  1.00  0.00     0.031 A 
BRANCH  46  60
ATOM     60  C   UNL     1     -10.938  -1.316   3.661  1.00  0.00    -0.014 A 
ATOM     61  C   UNL     1     -11.430  -2.311   2.796  1.00  0.00     0.010 A 
ATOM     62  C   UNL     1     -11.598  -0.076   3.723  1.00  0.00     0.010 A 
ATOM     63  C   UNL     1     -12.540  -2.059   1.986  1.00  0.00     0.020 A 
ATOM     64  C   UNL     1     -12.726   0.170   2.935  1.00  0.00     0.020 A 
ATOM     65  C   UNL     1     -13.182  -0.819   2.062  1.00  0.00     0.054 A 
BRANCH  65  66
ATOM     66  S   UNL     1     -14.640  -0.536   1.021  1.00  0.00     0.124 S 
ATOM     67  O   UNL     1     -14.050  -0.477  -0.315  1.00  0.00    -0.237 OA
ATOM     68  O   UNL     1     -15.459  -1.714   1.294  1.00  0.00    -0.237 OA
ATOM     69  O   UNL     1     -15.182   0.726   1.517  1.00  0.00    -0.744 OA
ENDBRANCH  65  66
ENDBRANCH  46  60
BRANCH  47  70
ATOM     70  C   UNL     1      -2.832  -3.151   9.220  1.00  0.00    -0.014 A 
ATOM     71  C   UNL     1      -2.700  -4.395   9.862  1.00  0.00     0.010 A 
ATOM     72  C   UNL     1      -1.802  -2.202   9.353  1.00  0.00     0.010 A 
ATOM     73  C   UNL     1      -1.565  -4.683  10.625  1.00  0.00     0.020 A 
ATOM     74  C   UNL     1      -0.653  -2.495  10.093  1.00  0.00     0.020 A 
ATOM     75  C   UNL     1      -0.545  -3.733  10.730  1.00  0.00     0.054 A 
BRANCH  75  76
ATOM     76  S   UNL     1       0.947  -4.158  11.672  1.00  0.00     0.124 S 
ATOM     77  O   UNL     1       0.449  -4.171  13.043  1.00  0.00    -0.237 OA
ATOM     78  O   UNL     1       1.307  -5.460  11.116  1.00  0.00    -0.237 OA
ATOM     79  O   UNL     1       1.874  -3.075  11.352  1.00  0.00    -0.744 OA
ENDBRANCH  75  76
ENDBRANCH  47  70
BRANCH  59  80
ATOM     80  C   UNL     1      -9.586  -2.157  10.692  1.00  0.00    -0.014 A 
ATOM     81  C   UNL     1      -9.482  -1.085  11.595  1.00  0.00     0.010 A 
ATOM     82  C   UNL     1     -10.494  -3.198  10.963  1.00  0.00     0.010 A 
ATOM     83  C   UNL     1     -10.259  -1.063  12.756  1.00  0.00     0.020 A 
ATOM     84  C   UNL     1     -11.293  -3.165  12.108  1.00  0.00     0.020 A 
ATOM     85  C   UNL     1     -11.164  -2.101  13.003  1.00  0.00     0.054 A 
BRANCH  85  86
ATOM     86  S   UNL     1     -12.203  -2.014  14.487  1.00  0.00     0.124 S 
ATOM     87  O   UNL     1     -11.231  -2.247  15.553  1.00  0.00    -0.237 OA
ATOM     88  O   UNL     1     -12.746  -0.660  14.417  1.00  0.00    -0.237 OA
ATOM     89  O   UNL     1     -13.179  -3.083  14.291  1.00  0.00    -0.744 OA
ENDBRANCH  85  86
ENDBRANCH  59  80
ENDBRANCH  33  34
ENDBRANCH  25  28
ENDBRANCH  23  24
ENDBRANCH   1  23
TORSDOF 15
