REMARK SMILES C[C@@H](NC(=O)[C@@H]1CC[C@@H]2CCCC[C@@H]2[NH2+]1)C(=O)NCCCNC(=O)c1ccc(-c2c3nc(c(-c4ccc(S(=O)(=O)[O-])cc4)c4ccc([nH]4)c(-c4ccc(S(=O)(=O)[O-])cc4)c4nc(c(-c5ccc(S(=O)(=O)[O-])cc5)c5ccc2[nH]5)C=C4)C=C3)cc1
REMARK SMILES IDX 20 1 19 2 18 3 16 4 17 5 2 7 1 8 3 9 4 10 5 12 6 13 7 14
REMARK SMILES IDX 15 15 8 16 14 17 9 20 13 21 10 22 12 23 11 24 21 25 22 26
REMARK SMILES IDX 23 27 24 29 25 30 26 31 84 32 27 33 83 34 28 35 29 36 30 37
REMARK SMILES IDX 77 38 31 39 82 40 76 41 78 42 32 43 81 44 75 45 74 46 33 48
REMARK SMILES IDX 63 49 44 50 62 51 45 52 48 53 61 54 79 55 46 56 47 57 60 59
REMARK SMILES IDX 80 60 49 61 34 62 35 63 43 64 36 65 42 66 37 67 38 68 39 69
REMARK SMILES IDX 40 70 41 71 64 72 65 73 73 74 66 75 72 76 67 77 68 78 69 79
REMARK SMILES IDX 70 80 71 81 50 82 51 83 59 84 52 85 58 86 53 87 54 88 55 89
REMARK SMILES IDX 56 90 57 91
REMARK H PARENT 18 6 3 11 15 18 15 19 22 28 78 47 48 58
REMARK Flexibility Score: inf
ROOT
ATOM      1  C   UNL     1      -1.206   2.221  -2.236  1.00  0.00     0.042 C 
ENDROOT
BRANCH   1   2
ATOM      2  C   UNL     1      -0.707   1.763  -0.878  1.00  0.00     0.117 C 
BRANCH   2   3
ATOM      3  N   UNL     1      -1.392   0.575  -0.394  1.00  0.00    -0.354 N 
ATOM      4  C   UNL     1      -1.096  -0.220   0.672  1.00  0.00     0.242 C 
ATOM      5  O   UNL     1      -1.825  -1.194   0.883  1.00  0.00    -0.273 OA
ATOM      6  H   UNL     1      -2.184   0.305  -0.912  1.00  0.00     0.163 HD
BRANCH   4   7
ATOM      7  C   UNL     1       0.200  -0.030   1.476  1.00  0.00     0.168 C 
ATOM      8  C   UNL     1       1.323  -0.746   0.721  1.00  0.00     0.041 C 
BRANCH   7   9
ATOM      9  N   UNL     1       0.580   1.354   1.728  1.00  0.00    -0.339 N 
ATOM     10  C   UNL     1      -0.014   2.294   2.513  1.00  0.00     0.278 C 
ATOM     11  H   UNL     1       1.391   1.656   1.258  1.00  0.00     0.164 HD
ATOM     12  O   UNL     1       0.649   3.316   2.702  1.00  0.00    -0.268 OA
BRANCH  10  13
ATOM     13  C   UNL     1      -1.455   2.098   3.063  1.00  0.00     0.272 C 
ATOM     14  C   UNL     1      -2.501   2.833   2.224  1.00  0.00     0.076 C 
ATOM     15  N   UNL     1      -1.571   2.506   4.475  1.00  0.00    -0.333 N 
ATOM     16  C   UNL     1      -2.298   4.340   2.279  1.00  0.00     0.016 C 
ATOM     17  C   UNL     1      -1.592   3.956   4.737  1.00  0.00     0.186 C 
ATOM     18  H   UNL     1      -0.776   2.111   4.979  1.00  0.00     0.347 HD
ATOM     19  H   UNL     1      -2.479   2.161   4.784  1.00  0.00     0.347 HD
ATOM     20  C   UNL     1      -2.368   4.832   3.729  1.00  0.00     0.048 C 
ATOM     21  C   UNL     1      -0.237   4.488   5.250  1.00  0.00     0.065 C 
ATOM     22  C   UNL     1      -1.979   6.307   3.853  1.00  0.00     0.010 C 
ATOM     23  C   UNL     1       0.382   5.720   4.591  1.00  0.00     0.006 C 
ATOM     24  C   UNL     1      -0.491   6.526   3.643  1.00  0.00     0.001 C 
ENDBRANCH  10  13
ENDBRANCH   7   9
ENDBRANCH   4   7
ENDBRANCH   2   3
ENDBRANCH   1   2
BRANCH   1  25
ATOM     25  C   UNL     1      -2.692   2.551  -2.294  1.00  0.00     0.118 C 
BRANCH  25  26
ATOM     26  N   UNL     1      -3.080   3.768  -1.593  1.00  0.00    -0.352 N 
ATOM     27  C   UNL     1      -3.915   4.771  -2.039  1.00  0.00     0.251 C 
ATOM     28  H   UNL     1      -2.701   3.889  -0.693  1.00  0.00     0.163 HD
ATOM     29  O   UNL     1      -4.142   5.759  -1.348  1.00  0.00    -0.269 OA
BRANCH  27  30
ATOM     30  C   UNL     1      -4.477   4.663  -3.403  1.00  0.00     0.039 A 
ATOM     31  C   UNL     1      -4.183   5.664  -4.330  1.00  0.00     0.014 A 
ATOM     32  C   UNL     1      -5.144   3.500  -3.796  1.00  0.00     0.014 A 
ATOM     33  C   UNL     1      -4.452   5.444  -5.682  1.00  0.00     0.010 A 
ATOM     34  C   UNL     1      -5.325   3.248  -5.151  1.00  0.00     0.010 A 
ATOM     35  C   UNL     1      -4.962   4.208  -6.110  1.00  0.00    -0.014 A 
BRANCH  35  36
ATOM     36  C   UNL     1      -5.097   3.877  -7.553  1.00  0.00     0.031 A 
ATOM     37  C   UNL     1      -6.451   3.549  -8.120  1.00  0.00     0.074 A 
ATOM     38  C   UNL     1      -3.997   3.775  -8.327  1.00  0.00     0.049 A 
ATOM     39  N   UNL     1      -6.762   3.115  -9.313  1.00  0.00    -0.248 NA
ATOM     40  C   UNL     1      -7.602   3.695  -7.213  1.00  0.00     0.031 C 
ATOM     41  C   UNL     1      -2.619   4.016  -7.887  1.00  0.00     0.029 A 
ATOM     42  N   UNL     1      -3.861   3.427  -9.649  1.00  0.00    -0.354 N 
ATOM     43  C   UNL     1      -8.135   2.904  -9.290  1.00  0.00     0.074 A 
ATOM     44  C   UNL     1      -8.590   3.215  -7.953  1.00  0.00     0.031 C 
ATOM     45  C   UNL     1      -1.785   3.836  -8.925  1.00  0.00     0.029 A 
ATOM     46  C   UNL     1      -2.559   3.425 -10.092  1.00  0.00     0.049 A 
ATOM     47  H   UNL     1      -4.626   3.200 -10.226  1.00  0.00     0.167 HD
ATOM     48  C   UNL     1      -8.949   2.506 -10.296  1.00  0.00     0.031 A 
ATOM     49  C   UNL     1      -2.042   3.119 -11.299  1.00  0.00     0.031 A 
ATOM     50  C   UNL     1      -8.501   2.230 -11.632  1.00  0.00     0.049 A 
ATOM     51  C   UNL     1      -2.968   2.703 -12.409  1.00  0.00     0.074 A 
ATOM     52  C   UNL     1      -9.255   1.881 -12.738  1.00  0.00     0.029 A 
ATOM     53  N   UNL     1      -7.178   2.280 -12.047  1.00  0.00    -0.354 N 
ATOM     54  N   UNL     1      -4.272   2.562 -12.380  1.00  0.00    -0.248 NA
ATOM     55  C   UNL     1      -2.357   2.412 -13.713  1.00  0.00     0.031 C 
ATOM     56  C   UNL     1      -8.385   1.688 -13.816  1.00  0.00     0.029 A 
ATOM     57  C   UNL     1      -7.094   1.958 -13.390  1.00  0.00     0.049 A 
ATOM     58  H   UNL     1      -6.414   2.510 -11.472  1.00  0.00     0.167 HD
ATOM     59  C   UNL     1      -4.639   2.191 -13.668  1.00  0.00     0.074 A 
ATOM     60  C   UNL     1      -3.423   2.136 -14.453  1.00  0.00     0.031 C 
ATOM     61  C   UNL     1      -5.874   1.920 -14.156  1.00  0.00     0.031 A 
BRANCH  48  62
ATOM     62  C   UNL     1     -10.411   2.349  -9.978  1.00  0.00    -0.014 A 
ATOM     63  C   UNL     1     -11.224   3.471  -9.739  1.00  0.00     0.010 A 
ATOM     64  C   UNL     1     -10.984   1.065  -9.933  1.00  0.00     0.010 A 
ATOM     65  C   UNL     1     -12.572   3.311  -9.411  1.00  0.00     0.020 A 
ATOM     66  C   UNL     1     -12.339   0.902  -9.632  1.00  0.00     0.020 A 
ATOM     67  C   UNL     1     -13.119   2.026  -9.352  1.00  0.00     0.054 A 
BRANCH  67  68
ATOM     68  S   UNL     1     -14.874   1.845  -8.932  1.00  0.00     0.124 S 
ATOM     69  O   UNL     1     -14.861   2.070  -7.489  1.00  0.00    -0.237 OA
ATOM     70  O   UNL     1     -15.506   2.895  -9.726  1.00  0.00    -0.237 OA
ATOM     71  O   UNL     1     -15.190   0.480  -9.347  1.00  0.00    -0.744 OA
ENDBRANCH  67  68
ENDBRANCH  48  62
BRANCH  49  72
ATOM     72  C   UNL     1      -0.574   3.213 -11.526  1.00  0.00    -0.014 A 
ATOM     73  C   UNL     1      -0.040   4.262 -12.296  1.00  0.00     0.010 A 
ATOM     74  C   UNL     1       0.300   2.266 -10.961  1.00  0.00     0.010 A 
ATOM     75  C   UNL     1       1.339   4.356 -12.507  1.00  0.00     0.020 A 
ATOM     76  C   UNL     1       1.681   2.370 -11.152  1.00  0.00     0.020 A 
ATOM     77  C   UNL     1       2.191   3.409 -11.933  1.00  0.00     0.054 A 
BRANCH  77  78
ATOM     78  S   UNL     1       3.983   3.583 -12.168  1.00  0.00     0.124 S 
ATOM     79  O   UNL     1       4.157   3.104 -13.536  1.00  0.00    -0.237 OA
ATOM     80  O   UNL     1       4.192   5.015 -11.967  1.00  0.00    -0.237 OA
ATOM     81  O   UNL     1       4.547   2.728 -11.126  1.00  0.00    -0.744 OA
ENDBRANCH  77  78
ENDBRANCH  49  72
BRANCH  61  82
ATOM     82  C   UNL     1      -5.986   1.576 -15.615  1.00  0.00    -0.014 A 
ATOM     83  C   UNL     1      -5.622   0.305 -16.090  1.00  0.00     0.010 A 
ATOM     84  C   UNL     1      -6.547   2.511 -16.505  1.00  0.00     0.010 A 
ATOM     85  C   UNL     1      -5.807  -0.023 -17.435  1.00  0.00     0.020 A 
ATOM     86  C   UNL     1      -6.753   2.179 -17.845  1.00  0.00     0.020 A 
ATOM     87  C   UNL     1      -6.374   0.915 -18.304  1.00  0.00     0.054 A 
BRANCH  87  88
ATOM     88  S   UNL     1      -6.674   0.441 -20.029  1.00  0.00     0.124 S 
ATOM     89  O   UNL     1      -5.332   0.510 -20.600  1.00  0.00    -0.237 OA
ATOM     90  O   UNL     1      -7.234  -0.902 -19.901  1.00  0.00    -0.237 OA
ATOM     91  O   UNL     1      -7.609   1.455 -20.509  1.00  0.00    -0.744 OA
ENDBRANCH  87  88
ENDBRANCH  61  82
ENDBRANCH  35  36
ENDBRANCH  27  30
ENDBRANCH  25  26
ENDBRANCH   1  25
TORSDOF 15
