REMARK SMILES CCc1nn(-c2cc(F)c(F)c(F)c2)c(Cl)c1C(=O)NCCCNC(=O)c1ccc(-c2c3nc(c(-c4ccc(S(=O)(=O)[O-])cc4)c4ccc([nH]4)c(-c4ccc(S(=O)(=O)[O-])cc4)c4nc(c(-c5ccc(S(=O)(=O)[O-])cc5)c5ccc2[nH]5)C=C4)C=C3)cc1
REMARK SMILES IDX 23 1 22 2 21 3 20 4 18 5 19 6 17 8 3 9 4 10 5 11 15 12 16 13
REMARK SMILES IDX 2 14 1 15 6 16 7 17 14 18 8 19 12 20 9 21 10 22 13 23 11 24
REMARK SMILES IDX 24 25 25 26 26 28 27 29 28 30 86 31 29 32 85 33 30 34 31 35
REMARK SMILES IDX 32 36 79 37 33 38 84 39 78 40 80 41 34 42 83 43 77 44 76 45
REMARK SMILES IDX 35 47 65 48 46 49 64 50 47 51 50 52 63 53 81 54 48 55 49 56
REMARK SMILES IDX 62 58 82 59 51 60 36 61 37 62 45 63 38 64 44 65 39 66 40 67
REMARK SMILES IDX 41 68 42 69 43 70 66 71 67 72 75 73 68 74 74 75 69 76 70 77
REMARK SMILES IDX 71 78 72 79 73 80 52 81 53 82 61 83 54 84 60 85 55 86 56 87
REMARK SMILES IDX 57 88 58 89 59 90
REMARK H PARENT 20 7 24 27 80 46 50 57
REMARK Flexibility Score: inf
ROOT
ATOM      1  C   UNL     1      -2.420   0.701   1.070  1.00  0.00     0.118 C 
ENDROOT
BRANCH   1   2
ATOM      2  C   UNL     1      -1.429   0.337  -0.029  1.00  0.00     0.042 C 
BRANCH   2   3
ATOM      3  C   UNL     1      -0.413  -0.704   0.441  1.00  0.00     0.118 C 
BRANCH   3   4
ATOM      4  N   UNL     1      -0.712  -2.035  -0.014  1.00  0.00    -0.352 N 
ATOM      5  C   UNL     1      -0.232  -2.879  -0.971  1.00  0.00     0.256 C 
ATOM      6  O   UNL     1      -0.667  -4.025  -0.826  1.00  0.00    -0.269 OA
ATOM      7  H   UNL     1      -1.451  -2.439   0.496  1.00  0.00     0.163 HD
BRANCH   5   8
ATOM      8  C   UNL     1       0.686  -2.558  -2.072  1.00  0.00     0.100 A 
ATOM      9  C   UNL     1       1.474  -1.441  -2.530  1.00  0.00     0.077 A 
ATOM     10  N   UNL     1       2.260  -1.759  -3.575  1.00  0.00    -0.171 NA
ATOM     11  N   UNL     1       1.859  -2.988  -3.953  1.00  0.00    -0.221 N 
ATOM     12  C   UNL     1       0.981  -3.513  -3.043  1.00  0.00     0.145 A 
ATOM     13  Cl  UNL     1       0.545  -5.175  -3.158  1.00  0.00    -0.061 Cl
BRANCH   9  14
ATOM     14  C   UNL     1       1.582  -0.017  -2.087  1.00  0.00     0.056 C 
ATOM     15  C   UNL     1       2.610   0.216  -0.986  1.00  0.00     0.011 C 
ENDBRANCH   9  14
BRANCH  11  16
ATOM     16  C   UNL     1       2.381  -3.558  -5.144  1.00  0.00     0.072 A 
ATOM     17  C   UNL     1       1.561  -4.294  -6.011  1.00  0.00     0.071 A 
ATOM     18  C   UNL     1       3.744  -3.402  -5.428  1.00  0.00     0.071 A 
ATOM     19  C   UNL     1       2.126  -4.920  -7.119  1.00  0.00     0.164 A 
ATOM     20  C   UNL     1       4.290  -4.067  -6.524  1.00  0.00     0.164 A 
ATOM     21  F   UNL     1       1.338  -5.619  -7.947  1.00  0.00    -0.204 F 
ATOM     22  C   UNL     1       3.489  -4.830  -7.366  1.00  0.00     0.194 A 
ATOM     23  F   UNL     1       5.609  -3.986  -6.747  1.00  0.00    -0.204 F 
ATOM     24  F   UNL     1       4.030  -5.476  -8.409  1.00  0.00    -0.200 F 
ENDBRANCH  11  16
ENDBRANCH   5   8
ENDBRANCH   3   4
ENDBRANCH   2   3
ENDBRANCH   1   2
BRANCH   1  25
ATOM     25  N   UNL     1      -1.750   1.349   2.201  1.00  0.00    -0.352 N 
ATOM     26  C   UNL     1      -2.155   1.433   3.516  1.00  0.00     0.251 C 
ATOM     27  H   UNL     1      -0.893   1.786   1.993  1.00  0.00     0.163 HD
ATOM     28  O   UNL     1      -1.624   2.227   4.284  1.00  0.00    -0.269 OA
BRANCH  26  29
ATOM     29  C   UNL     1      -3.263   0.576   3.961  1.00  0.00     0.039 A 
ATOM     30  C   UNL     1      -4.394   1.152   4.535  1.00  0.00     0.014 A 
ATOM     31  C   UNL     1      -3.217  -0.784   3.659  1.00  0.00     0.014 A 
ATOM     32  C   UNL     1      -5.539   0.375   4.678  1.00  0.00     0.010 A 
ATOM     33  C   UNL     1      -4.385  -1.521   3.703  1.00  0.00     0.010 A 
ATOM     34  C   UNL     1      -5.556  -0.950   4.205  1.00  0.00    -0.014 A 
BRANCH  34  35
ATOM     35  C   UNL     1      -6.842  -1.647   4.083  1.00  0.00     0.031 A 
ATOM     36  C   UNL     1      -7.946  -0.855   3.459  1.00  0.00     0.074 A 
ATOM     37  C   UNL     1      -7.046  -2.964   4.296  1.00  0.00     0.049 A 
ATOM     38  N   UNL     1      -9.004  -0.387   4.036  1.00  0.00    -0.248 NA
ATOM     39  C   UNL     1      -7.805  -0.444   2.053  1.00  0.00     0.031 C 
ATOM     40  C   UNL     1      -6.061  -4.005   4.601  1.00  0.00     0.029 A 
ATOM     41  N   UNL     1      -8.204  -3.674   4.168  1.00  0.00    -0.354 N 
ATOM     42  C   UNL     1      -9.774   0.191   3.029  1.00  0.00     0.074 A 
ATOM     43  C   UNL     1      -8.915   0.277   1.873  1.00  0.00     0.031 C 
ATOM     44  C   UNL     1      -6.610  -5.221   4.392  1.00  0.00     0.029 A 
ATOM     45  C   UNL     1      -8.026  -5.050   4.126  1.00  0.00     0.049 A 
ATOM     46  H   UNL     1      -9.089  -3.247   4.110  1.00  0.00     0.167 HD
ATOM     47  C   UNL     1     -11.124   0.344   3.151  1.00  0.00     0.031 A 
ATOM     48  C   UNL     1      -8.969  -5.991   3.881  1.00  0.00     0.031 A 
ATOM     49  C   UNL     1     -11.569   0.146   4.507  1.00  0.00     0.049 A 
ATOM     50  C   UNL     1     -10.285  -5.384   4.187  1.00  0.00     0.074 A 
ATOM     51  C   UNL     1     -11.257   0.707   5.731  1.00  0.00     0.029 A 
ATOM     52  N   UNL     1     -12.212  -1.036   4.790  1.00  0.00    -0.354 N 
ATOM     53  N   UNL     1     -10.659  -5.050   5.391  1.00  0.00    -0.248 NA
ATOM     54  C   UNL     1     -11.048  -4.780   3.108  1.00  0.00     0.031 C 
ATOM     55  C   UNL     1     -11.277  -0.385   6.649  1.00  0.00     0.029 A 
ATOM     56  C   UNL     1     -11.664  -1.528   5.946  1.00  0.00     0.049 A 
ATOM     57  H   UNL     1     -12.932  -1.451   4.262  1.00  0.00     0.167 HD
ATOM     58  C   UNL     1     -11.395  -3.887   5.223  1.00  0.00     0.074 A 
ATOM     59  C   UNL     1     -11.702  -3.840   3.796  1.00  0.00     0.031 C 
ATOM     60  C   UNL     1     -11.449  -2.937   6.204  1.00  0.00     0.031 A 
BRANCH  47  61
ATOM     61  C   UNL     1     -12.091   0.268   1.988  1.00  0.00    -0.014 A 
ATOM     62  C   UNL     1     -13.468   0.473   2.229  1.00  0.00     0.010 A 
ATOM     63  C   UNL     1     -11.741  -0.281   0.738  1.00  0.00     0.010 A 
ATOM     64  C   UNL     1     -14.440   0.062   1.306  1.00  0.00     0.020 A 
ATOM     65  C   UNL     1     -12.699  -0.648  -0.209  1.00  0.00     0.020 A 
ATOM     66  C   UNL     1     -14.046  -0.514   0.100  1.00  0.00     0.054 A 
BRANCH  66  67
ATOM     67  S   UNL     1     -15.302  -1.157  -1.033  1.00  0.00     0.124 S 
ATOM     68  O   UNL     1     -15.812  -2.304  -0.290  1.00  0.00    -0.237 OA
ATOM     69  O   UNL     1     -16.215  -0.025  -1.160  1.00  0.00    -0.237 OA
ATOM     70  O   UNL     1     -14.541  -1.475  -2.239  1.00  0.00    -0.744 OA
ENDBRANCH  66  67
ENDBRANCH  47  61
BRANCH  48  71
ATOM     71  C   UNL     1      -8.821  -7.298   3.200  1.00  0.00    -0.014 A 
ATOM     72  C   UNL     1      -9.859  -8.247   3.238  1.00  0.00     0.010 A 
ATOM     73  C   UNL     1      -7.778  -7.501   2.274  1.00  0.00     0.010 A 
ATOM     74  C   UNL     1      -9.897  -9.312   2.325  1.00  0.00     0.020 A 
ATOM     75  C   UNL     1      -7.802  -8.568   1.368  1.00  0.00     0.020 A 
ATOM     76  C   UNL     1      -8.880  -9.450   1.377  1.00  0.00     0.054 A 
BRANCH  76  77
ATOM     77  S   UNL     1      -9.049 -10.696   0.065  1.00  0.00     0.124 S 
ATOM     78  O   UNL     1      -8.833 -11.943   0.791  1.00  0.00    -0.237 OA
ATOM     79  O   UNL     1     -10.410 -10.469  -0.414  1.00  0.00    -0.237 OA
ATOM     80  O   UNL     1      -7.996 -10.340  -0.885  1.00  0.00    -0.744 OA
ENDBRANCH  76  77
ENDBRANCH  48  71
BRANCH  60  81
ATOM     81  C   UNL     1     -11.009  -3.303   7.603  1.00  0.00    -0.014 A 
ATOM     82  C   UNL     1      -9.726  -3.786   7.926  1.00  0.00     0.010 A 
ATOM     83  C   UNL     1     -11.894  -3.004   8.656  1.00  0.00     0.010 A 
ATOM     84  C   UNL     1      -9.354  -3.994   9.263  1.00  0.00     0.020 A 
ATOM     85  C   UNL     1     -11.523  -3.188   9.989  1.00  0.00     0.020 A 
ATOM     86  C   UNL     1     -10.257  -3.691  10.287  1.00  0.00     0.054 A 
BRANCH  86  87
ATOM     87  S   UNL     1      -9.753  -3.912  12.017  1.00  0.00     0.124 S 
ATOM     88  O   UNL     1      -9.679  -5.365  12.143  1.00  0.00    -0.237 OA
ATOM     89  O   UNL     1      -8.473  -3.209  12.075  1.00  0.00    -0.237 OA
ATOM     90  O   UNL     1     -10.831  -3.280  12.777  1.00  0.00    -0.744 OA
ENDBRANCH  86  87
ENDBRANCH  60  81
ENDBRANCH  34  35
ENDBRANCH  26  29
ENDBRANCH   1  25
TORSDOF 15
