REMARK SMILES CN1C(=O)/C(=C(\SC2=[NH+][C@@H]3N=c4ccccc4=C3N=N2)C(=O)NCCCNC(=O)c2ccc(-c3c4nc(c(-c5ccc(S(=O)(=O)[O-])cc5)c5ccc([nH]5)c(-c5ccc(S(=O)(=O)[O-])cc5)c5nc(c(-c6ccc(S(=O)(=O)[O-])cc6)c6ccc3[nH]6)C=C5)C=C4)cc2)c2ccccc21
REMARK SMILES IDX 25 1 24 2 23 3 21 4 22 5 6 7 1 8 2 9 3 10 95 11 4 12 5 13
REMARK SMILES IDX 90 14 94 15 91 16 93 17 92 18 7 19 8 20 9 21 20 22 10 23
REMARK SMILES IDX 19 25 11 26 18 27 12 28 17 29 13 30 16 31 14 32 15 33 26 34
REMARK SMILES IDX 27 35 28 36 29 38 30 39 31 40 89 41 32 42 88 43 33 44 34 45
REMARK SMILES IDX 35 46 82 47 36 48 87 49 81 50 83 51 37 52 86 53 80 54 79 55
REMARK SMILES IDX 38 57 68 58 49 59 67 60 50 61 53 62 66 63 84 64 51 65 52 66
REMARK SMILES IDX 65 68 85 69 54 70 39 71 40 72 48 73 41 74 47 75 42 76 43 77
REMARK SMILES IDX 44 78 45 79 46 80 69 81 70 82 78 83 71 84 77 85 72 86 73 87
REMARK SMILES IDX 74 88 75 89 76 90 55 91 56 92 64 93 57 94 63 95 58 96 59 97
REMARK SMILES IDX 60 98 61 99 62 100
REMARK H PARENT 23 6 9 24 27 37 83 56 53 67
REMARK Flexibility Score: inf
ROOT
ATOM      1  C   UNL     1       3.041   5.968  -1.126  1.00  0.00     0.042 C 
ENDROOT
BRANCH   1   2
ATOM      2  C   UNL     1       2.502   5.220   0.097  1.00  0.00     0.118 C 
BRANCH   2   3
ATOM      3  N   UNL     1       1.295   4.480  -0.263  1.00  0.00    -0.351 N 
ATOM      4  C   UNL     1       0.932   3.174  -0.378  1.00  0.00     0.259 C 
ATOM      5  O   UNL     1       0.001   3.000  -1.170  1.00  0.00    -0.269 OA
ATOM      6  H   UNL     1       0.549   5.085  -0.479  1.00  0.00     0.163 HD
BRANCH   4   7
ATOM      7  C   UNL     1       1.500   2.015   0.420  1.00  0.00     0.098 C 
ATOM      8  C   UNL     1       0.769  -2.659   0.903  1.00  0.00     0.153 C 
ATOM      9  N   UNL     1       0.417  -1.269   0.841  1.00  0.00    -0.311 N 
ATOM     10  C   UNL     1       1.104  -0.239   1.464  1.00  0.00     0.260 C 
ATOM     11  C   UNL     1      -0.739  -0.754   0.236  1.00  0.00     0.052 A 
ATOM     12  O   UNL     1       1.839  -0.298   2.445  1.00  0.00    -0.269 OA
ATOM     13  C   UNL     1       0.657   1.000   0.749  1.00  0.00     0.069 C 
ATOM     14  C   UNL     1      -0.712   0.648   0.296  1.00  0.00     0.012 A 
ATOM     15  C   UNL     1      -1.841  -1.465  -0.210  1.00  0.00     0.027 A 
ATOM     16  C   UNL     1      -1.877   1.356   0.050  1.00  0.00     0.011 A 
ATOM     17  C   UNL     1      -2.995  -0.742  -0.509  1.00  0.00     0.002 A 
ATOM     18  C   UNL     1      -3.020   0.653  -0.355  1.00  0.00     0.001 A 
BRANCH   7  19
ATOM     19  S   UNL     1       3.177   2.135   0.867  1.00  0.00     0.011 SA
BRANCH  19  20
ATOM     20  C   UNL     1       4.108   0.738   0.297  1.00  0.00     0.386 C 
ATOM     21  N   UNL     1       5.164   0.988  -0.414  1.00  0.00    -0.235 N 
ATOM     22  N   UNL     1       3.765  -0.481   0.837  1.00  0.00     0.088 NA
ATOM     23  C   UNL     1       6.146  -0.089  -0.365  1.00  0.00     0.348 C 
ATOM     24  H   UNL     1       5.288   1.816  -0.931  1.00  0.00     0.308 HD
ATOM     25  N   UNL     1       4.450  -1.509   0.677  1.00  0.00    -0.033 NA
ATOM     26  N   UNL     1       6.954  -0.274  -1.592  1.00  0.00    -0.232 NA
ATOM     27  C   UNL     1       5.533  -1.410  -0.115  1.00  0.00     0.165 C 
ATOM     28  C   UNL     1       6.955  -1.570  -1.734  1.00  0.00     0.072 A 
ATOM     29  C   UNL     1       6.102  -2.363  -0.833  1.00  0.00     0.032 A 
ATOM     30  C   UNL     1       7.681  -2.359  -2.758  1.00  0.00     0.029 A 
ATOM     31  C   UNL     1       5.927  -3.773  -0.951  1.00  0.00     0.012 A 
ATOM     32  C   UNL     1       7.510  -3.694  -2.803  1.00  0.00     0.002 A 
ATOM     33  C   UNL     1       6.626  -4.416  -1.899  1.00  0.00     0.001 A 
ENDBRANCH  19  20
ENDBRANCH   7  19
ENDBRANCH   4   7
ENDBRANCH   2   3
ENDBRANCH   1   2
BRANCH   1  34
ATOM     34  C   UNL     1       2.199   7.179  -1.519  1.00  0.00     0.118 C 
BRANCH  34  35
ATOM     35  N   UNL     1       2.413   8.319  -0.636  1.00  0.00    -0.352 N 
ATOM     36  C   UNL     1       2.940   9.559  -0.919  1.00  0.00     0.251 C 
ATOM     37  H   UNL     1       2.141   8.182   0.300  1.00  0.00     0.163 HD
ATOM     38  O   UNL     1       3.208  10.334  -0.006  1.00  0.00    -0.269 OA
BRANCH  36  39
ATOM     39  C   UNL     1       3.211   9.942  -2.322  1.00  0.00     0.039 A 
ATOM     40  C   UNL     1       2.253   9.726  -3.315  1.00  0.00     0.014 A 
ATOM     41  C   UNL     1       4.448  10.504  -2.651  1.00  0.00     0.014 A 
ATOM     42  C   UNL     1       2.595   9.907  -4.652  1.00  0.00     0.010 A 
ATOM     43  C   UNL     1       4.761  10.759  -3.990  1.00  0.00     0.010 A 
ATOM     44  C   UNL     1       3.858  10.410  -5.006  1.00  0.00    -0.014 A 
BRANCH  44  45
ATOM     45  C   UNL     1       4.217  10.535  -6.444  1.00  0.00     0.031 A 
ATOM     46  C   UNL     1       5.301   9.675  -7.040  1.00  0.00     0.074 A 
ATOM     47  C   UNL     1       3.512  11.370  -7.233  1.00  0.00     0.049 A 
ATOM     48  N   UNL     1       5.710   9.615  -8.283  1.00  0.00    -0.248 NA
ATOM     49  C   UNL     1       6.018   8.763  -6.132  1.00  0.00     0.031 C 
ATOM     50  C   UNL     1       2.420  12.233  -6.778  1.00  0.00     0.029 A 
ATOM     51  N   UNL     1       3.578  11.601  -8.585  1.00  0.00    -0.354 N 
ATOM     52  C   UNL     1       6.734   8.674  -8.303  1.00  0.00     0.074 A 
ATOM     53  C   UNL     1       6.907   8.208  -6.945  1.00  0.00     0.031 C 
ATOM     54  C   UNL     1       1.875  12.845  -7.839  1.00  0.00     0.029 A 
ATOM     55  C   UNL     1       2.615  12.469  -9.041  1.00  0.00     0.049 A 
ATOM     56  H   UNL     1       4.251  11.185  -9.171  1.00  0.00     0.167 HD
ATOM     57  C   UNL     1       7.454   8.229  -9.360  1.00  0.00     0.031 A 
ATOM     58  C   UNL     1       2.349  12.918 -10.284  1.00  0.00     0.031 A 
ATOM     59  C   UNL     1       7.268   8.681 -10.713  1.00  0.00     0.049 A 
ATOM     60  C   UNL     1       3.190  12.443 -11.433  1.00  0.00     0.074 A 
ATOM     61  C   UNL     1       7.950   8.280 -11.850  1.00  0.00     0.029 A 
ATOM     62  N   UNL     1       6.334   9.621 -11.118  1.00  0.00    -0.354 N 
ATOM     63  N   UNL     1       4.165  11.568 -11.426  1.00  0.00    -0.248 NA
ATOM     64  C   UNL     1       2.904  13.020 -12.754  1.00  0.00     0.031 C 
ATOM     65  C   UNL     1       7.461   9.013 -12.934  1.00  0.00     0.029 A 
ATOM     66  C   UNL     1       6.436   9.829 -12.483  1.00  0.00     0.049 A 
ATOM     67  H   UNL     1       5.693  10.073 -10.523  1.00  0.00     0.167 HD
ATOM     68  C   UNL     1       4.611  11.487 -12.740  1.00  0.00     0.074 A 
ATOM     69  C   UNL     1       3.785  12.387 -13.519  1.00  0.00     0.031 C 
ATOM     70  C   UNL     1       5.617  10.736 -13.248  1.00  0.00     0.031 A 
BRANCH  57  71
ATOM     71  C   UNL     1       8.521   7.195  -9.110  1.00  0.00    -0.014 A 
ATOM     72  C   UNL     1       9.877   7.549  -9.233  1.00  0.00     0.010 A 
ATOM     73  C   UNL     1       8.183   5.853  -8.862  1.00  0.00     0.010 A 
ATOM     74  C   UNL     1      10.876   6.577  -9.136  1.00  0.00     0.020 A 
ATOM     75  C   UNL     1       9.181   4.881  -8.742  1.00  0.00     0.020 A 
ATOM     76  C   UNL     1      10.521   5.246  -8.901  1.00  0.00     0.054 A 
BRANCH  76  77
ATOM     77  S   UNL     1      11.829   3.992  -8.793  1.00  0.00     0.124 S 
ATOM     78  O   UNL     1      12.153   3.763 -10.197  1.00  0.00    -0.237 OA
ATOM     79  O   UNL     1      12.859   4.669  -8.008  1.00  0.00    -0.237 OA
ATOM     80  O   UNL     1      11.175   2.876  -8.111  1.00  0.00    -0.744 OA
ENDBRANCH  76  77
ENDBRANCH  57  71
BRANCH  58  81
ATOM     81  C   UNL     1       1.214  13.858 -10.483  1.00  0.00    -0.014 A 
ATOM     82  C   UNL     1       1.284  15.172  -9.984  1.00  0.00     0.010 A 
ATOM     83  C   UNL     1       0.021  13.415 -11.080  1.00  0.00     0.010 A 
ATOM     84  C   UNL     1       0.165  16.006 -10.022  1.00  0.00     0.020 A 
ATOM     85  C   UNL     1      -1.094  14.257 -11.143  1.00  0.00     0.020 A 
ATOM     86  C   UNL     1      -1.024  15.536 -10.584  1.00  0.00     0.054 A 
BRANCH  86  87
ATOM     87  S   UNL     1      -2.486  16.609 -10.568  1.00  0.00     0.124 S 
ATOM     88  O   UNL     1      -2.975  16.426  -9.203  1.00  0.00    -0.237 OA
ATOM     89  O   UNL     1      -1.925  17.925 -10.863  1.00  0.00    -0.237 OA
ATOM     90  O   UNL     1      -3.332  16.046 -11.617  1.00  0.00    -0.744 OA
ENDBRANCH  86  87
ENDBRANCH  58  81
BRANCH  70  91
ATOM     91  C   UNL     1       5.913  10.849 -14.719  1.00  0.00    -0.014 A 
ATOM     92  C   UNL     1       5.613   9.775 -15.576  1.00  0.00     0.010 A 
ATOM     93  C   UNL     1       6.609  11.960 -15.225  1.00  0.00     0.010 A 
ATOM     94  C   UNL     1       6.034   9.794 -16.908  1.00  0.00     0.020 A 
ATOM     95  C   UNL     1       7.012  11.993 -16.562  1.00  0.00     0.020 A 
ATOM     96  C   UNL     1       6.744  10.898 -17.389  1.00  0.00     0.054 A 
BRANCH  96  97
ATOM     97  S   UNL     1       7.315  10.893 -19.110  1.00  0.00     0.124 S 
ATOM     98  O   UNL     1       8.509  10.056 -19.035  1.00  0.00    -0.237 OA
ATOM     99  O   UNL     1       6.183  10.311 -19.826  1.00  0.00    -0.237 OA
ATOM    100  O   UNL     1       7.559  12.306 -19.392  1.00  0.00    -0.744 OA
ENDBRANCH  96  97
ENDBRANCH  70  91
ENDBRANCH  44  45
ENDBRANCH  36  39
ENDBRANCH  34  35
ENDBRANCH   1  34
TORSDOF 15
