REMARK SMILES Cc1c(Cl)cc2c(c1C)O[C@H](C(F)(F)F)C(C(=O)NCCCNC(=O)c1ccc(-c3c4nc(c(-c5ccc(S(=O)(=O)[O-])cc5)c5ccc([nH]5)c(-c5ccc(S(=O)(=O)[O-])cc5)c5nc(c(-c6ccc(S(=O)(=O)[O-])cc6)c6ccc3[nH]6)C=C5)C=C4)cc1)=C2
REMARK SMILES IDX 22 1 21 2 20 3 19 4 17 5 18 6 16 8 1 9 2 10 3 11 8 12 4 13
REMARK SMILES IDX 5 14 7 15 9 16 6 17 10 18 86 19 11 20 12 21 13 22 14 23
REMARK SMILES IDX 15 24 23 25 24 26 25 28 26 29 27 30 85 31 28 32 84 33 29 34
REMARK SMILES IDX 30 35 31 36 78 37 32 38 83 39 77 40 79 41 33 42 82 43 76 44
REMARK SMILES IDX 75 45 34 47 64 48 45 49 63 50 46 51 49 52 62 53 80 54 47 55
REMARK SMILES IDX 48 56 61 58 81 59 50 60 35 61 36 62 44 63 37 64 43 65 38 66
REMARK SMILES IDX 39 67 40 68 41 69 42 70 65 71 66 72 74 73 67 74 73 75 68 76
REMARK SMILES IDX 69 77 70 78 71 79 72 80 51 81 52 82 60 83 53 84 59 85 54 86
REMARK SMILES IDX 55 87 56 88 57 89 58 90
REMARK H PARENT 19 7 23 27 79 46 49 57
REMARK Flexibility Score: inf
ROOT
ATOM      1  C   UNL     1      -4.767   7.599   5.667  1.00  0.00     0.118 C 
ENDROOT
BRANCH   1   2
ATOM      2  C   UNL     1      -4.315   6.283   5.050  1.00  0.00     0.042 C 
BRANCH   2   3
ATOM      3  C   UNL     1      -4.351   6.323   3.530  1.00  0.00     0.118 C 
BRANCH   3   4
ATOM      4  N   UNL     1      -3.204   7.026   2.975  1.00  0.00    -0.352 N 
ATOM      5  C   UNL     1      -2.077   6.707   2.297  1.00  0.00     0.251 C 
ATOM      6  O   UNL     1      -1.355   7.661   1.990  1.00  0.00    -0.270 OA
ATOM      7  H   UNL     1      -3.264   7.996   3.135  1.00  0.00     0.163 HD
BRANCH   5   8
ATOM      8  C   UNL     1      -1.675   5.324   1.912  1.00  0.00     0.067 C 
ATOM      9  C   UNL     1       1.322  -0.126  -0.119  1.00  0.00     0.046 C 
ATOM     10  C   UNL     1       0.841   1.258   0.237  1.00  0.00    -0.026 A 
ATOM     11  C   UNL     1       1.528   2.404  -0.218  1.00  0.00     0.045 A 
ATOM     12  C   UNL     1      -0.339   1.437   0.995  1.00  0.00    -0.004 A 
ATOM     13  Cl  UNL     1       2.928   2.293  -1.232  1.00  0.00    -0.084 Cl
ATOM     14  C   UNL     1       1.101   3.693   0.123  1.00  0.00     0.032 A 
ATOM     15  C   UNL     1      -0.740   2.743   1.336  1.00  0.00     0.131 A 
ATOM     16  C   UNL     1      -1.200   0.293   1.474  1.00  0.00     0.049 C 
ATOM     17  C   UNL     1      -0.030   3.867   0.914  1.00  0.00     0.019 A 
ATOM     18  O   UNL     1      -1.834   2.855   2.150  1.00  0.00    -0.475 OA
ATOM     19  C   UNL     1      -0.469   5.195   1.328  1.00  0.00     0.025 C 
ATOM     20  C   UNL     1      -2.542   4.117   2.115  1.00  0.00     0.314 C 
BRANCH  20  21
ATOM     21  C   UNL     1      -3.688   4.029   1.089  1.00  0.00     0.429 C 
ATOM     22  F   UNL     1      -4.646   3.171   1.517  1.00  0.00    -0.167 F 
ATOM     23  F   UNL     1      -4.301   5.220   0.886  1.00  0.00    -0.167 F 
ATOM     24  F   UNL     1      -3.271   3.598  -0.123  1.00  0.00    -0.167 F 
ENDBRANCH  20  21
ENDBRANCH   5   8
ENDBRANCH   3   4
ENDBRANCH   2   3
ENDBRANCH   1   2
BRANCH   1  25
ATOM     25  N   UNL     1      -6.160   7.897   5.342  1.00  0.00    -0.352 N 
ATOM     26  C   UNL     1      -7.284   7.825   6.124  1.00  0.00     0.251 C 
ATOM     27  H   UNL     1      -6.316   8.196   4.417  1.00  0.00     0.163 HD
ATOM     28  O   UNL     1      -8.395   7.827   5.594  1.00  0.00    -0.269 OA
BRANCH  26  29
ATOM     29  C   UNL     1      -7.158   7.747   7.591  1.00  0.00     0.039 A 
ATOM     30  C   UNL     1      -8.021   6.921   8.314  1.00  0.00     0.014 A 
ATOM     31  C   UNL     1      -6.197   8.514   8.253  1.00  0.00     0.014 A 
ATOM     32  C   UNL     1      -7.875   6.820   9.698  1.00  0.00     0.010 A 
ATOM     33  C   UNL     1      -5.986   8.334   9.612  1.00  0.00     0.010 A 
ATOM     34  C   UNL     1      -6.835   7.501  10.352  1.00  0.00    -0.014 A 
BRANCH  34  35
ATOM     35  C   UNL     1      -6.635   7.389  11.815  1.00  0.00     0.031 A 
ATOM     36  C   UNL     1      -6.769   8.614  12.680  1.00  0.00     0.074 A 
ATOM     37  C   UNL     1      -6.278   6.206  12.352  1.00  0.00     0.049 A 
ATOM     38  N   UNL     1      -6.574   8.737  13.967  1.00  0.00    -0.248 NA
ATOM     39  C   UNL     1      -7.146   9.871  12.008  1.00  0.00     0.031 C 
ATOM     40  C   UNL     1      -6.082   4.961  11.605  1.00  0.00     0.029 A 
ATOM     41  N   UNL     1      -6.018   5.857  13.652  1.00  0.00    -0.354 N 
ATOM     42  C   UNL     1      -6.792  10.080  14.253  1.00  0.00     0.074 A 
ATOM     43  C   UNL     1      -7.069  10.744  13.001  1.00  0.00     0.031 C 
ATOM     44  C   UNL     1      -5.776   3.976  12.465  1.00  0.00     0.029 A 
ATOM     45  C   UNL     1      -5.707   4.527  13.814  1.00  0.00     0.049 A 
ATOM     46  H   UNL     1      -6.051   6.497  14.399  1.00  0.00     0.167 HD
ATOM     47  C   UNL     1      -6.792  10.699  15.456  1.00  0.00     0.031 A 
ATOM     48  C   UNL     1      -5.402   3.831  14.926  1.00  0.00     0.031 A 
ATOM     49  C   UNL     1      -6.535  10.026  16.700  1.00  0.00     0.049 A 
ATOM     50  C   UNL     1      -5.386   4.546  16.249  1.00  0.00     0.074 A 
ATOM     51  C   UNL     1      -6.556  10.550  17.980  1.00  0.00     0.029 A 
ATOM     52  N   UNL     1      -6.214   8.682  16.820  1.00  0.00    -0.354 N 
ATOM     53  N   UNL     1      -5.645   5.806  16.506  1.00  0.00    -0.248 NA
ATOM     54  C   UNL     1      -5.042   3.746  17.432  1.00  0.00     0.031 C 
ATOM     55  C   UNL     1      -6.196   9.535  18.870  1.00  0.00     0.029 A 
ATOM     56  C   UNL     1      -6.010   8.364  18.151  1.00  0.00     0.049 A 
ATOM     57  H   UNL     1      -6.142   8.049  16.070  1.00  0.00     0.167 HD
ATOM     58  C   UNL     1      -5.516   5.946  17.884  1.00  0.00     0.074 A 
ATOM     59  C   UNL     1      -5.174   4.638  18.405  1.00  0.00     0.031 C 
ATOM     60  C   UNL     1      -5.666   7.056  18.647  1.00  0.00     0.031 A 
BRANCH  47  61
ATOM     61  C   UNL     1      -7.092  12.174  15.484  1.00  0.00    -0.014 A 
ATOM     62  C   UNL     1      -8.384  12.653  15.197  1.00  0.00     0.010 A 
ATOM     63  C   UNL     1      -6.089  13.088  15.851  1.00  0.00     0.010 A 
ATOM     64  C   UNL     1      -8.658  14.022  15.245  1.00  0.00     0.020 A 
ATOM     65  C   UNL     1      -6.367  14.457  15.928  1.00  0.00     0.020 A 
ATOM     66  C   UNL     1      -7.647  14.915  15.613  1.00  0.00     0.054 A 
BRANCH  66  67
ATOM     67  S   UNL     1      -8.047  16.681  15.703  1.00  0.00     0.124 S 
ATOM     68  O   UNL     1      -8.240  17.020  14.295  1.00  0.00    -0.237 OA
ATOM     69  O   UNL     1      -9.256  16.692  16.523  1.00  0.00    -0.237 OA
ATOM     70  O   UNL     1      -6.867  17.274  16.328  1.00  0.00    -0.744 OA
ENDBRANCH  66  67
ENDBRANCH  47  61
BRANCH  48  71
ATOM     71  C   UNL     1      -5.118   2.372  14.833  1.00  0.00    -0.014 A 
ATOM     72  C   UNL     1      -6.034   1.436  15.344  1.00  0.00     0.010 A 
ATOM     73  C   UNL     1      -3.946   1.910  14.206  1.00  0.00     0.010 A 
ATOM     74  C   UNL     1      -5.781   0.065  15.237  1.00  0.00     0.020 A 
ATOM     75  C   UNL     1      -3.703   0.539  14.073  1.00  0.00     0.020 A 
ATOM     76  C   UNL     1      -4.619  -0.374  14.597  1.00  0.00     0.054 A 
BRANCH  76  77
ATOM     77  S   UNL     1      -4.344  -2.159  14.418  1.00  0.00     0.124 S 
ATOM     78  O   UNL     1      -4.074  -2.565  15.793  1.00  0.00    -0.237 OA
ATOM     79  O   UNL     1      -5.614  -2.616  13.860  1.00  0.00    -0.237 OA
ATOM     80  O   UNL     1      -3.206  -2.241  13.505  1.00  0.00    -0.744 OA
ENDBRANCH  76  77
ENDBRANCH  48  71
BRANCH  60  81
ATOM     81  C   UNL     1      -5.475   6.910  20.133  1.00  0.00    -0.014 A 
ATOM     82  C   UNL     1      -4.194   6.736  20.683  1.00  0.00     0.010 A 
ATOM     83  C   UNL     1      -6.582   7.039  20.992  1.00  0.00     0.010 A 
ATOM     84  C   UNL     1      -4.025   6.675  22.068  1.00  0.00     0.020 A 
ATOM     85  C   UNL     1      -6.413   7.007  22.378  1.00  0.00     0.020 A 
ATOM     86  C   UNL     1      -5.135   6.817  22.907  1.00  0.00     0.054 A 
BRANCH  86  87
ATOM     87  S   UNL     1      -4.876   6.796  24.701  1.00  0.00     0.124 S 
ATOM     88  O   UNL     1      -4.529   5.398  24.942  1.00  0.00    -0.237 OA
ATOM     89  O   UNL     1      -3.786   7.753  24.876  1.00  0.00    -0.237 OA
ATOM     90  O   UNL     1      -6.164   7.220  25.244  1.00  0.00    -0.744 OA
ENDBRANCH  86  87
ENDBRANCH  60  81
ENDBRANCH  34  35
ENDBRANCH  26  29
ENDBRANCH   1  25
TORSDOF 14
