REMARK SMILES CCc1cc(/C=C/C(=O)NCCCNC(=O)c2ccc(-c3c4nc(c(-c5ccc(S(=O)(=O)[O-])cc5)c5ccc([nH]5)c(-c5ccc(S(=O)(=O)[O-])cc5)c5nc(c(-c6ccc(S(=O)(=O)[O-])cc6)c6ccc3[nH]6)C=C5)C=C4)cc2)cc(C(=O)c2ccccc2)c1
REMARK SMILES IDX 12 1 11 2 10 3 8 4 9 5 7 7 6 8 5 9 3 10 4 11 87 12 78 13
REMARK SMILES IDX 77 14 2 15 1 16 79 17 80 18 81 19 82 20 86 21 83 22 85 23
REMARK SMILES IDX 84 24 13 25 14 26 15 27 16 29 17 30 18 31 76 32 19 33 75 34
REMARK SMILES IDX 20 35 21 36 22 37 69 38 23 39 74 40 68 41 70 42 24 43 73 44
REMARK SMILES IDX 67 45 66 46 25 48 55 49 36 50 54 51 37 52 40 53 53 54 71 55
REMARK SMILES IDX 38 56 39 57 52 59 72 60 41 61 26 62 27 63 35 64 28 65 34 66
REMARK SMILES IDX 29 67 30 68 31 69 32 70 33 71 56 72 57 73 65 74 58 75 64 76
REMARK SMILES IDX 59 77 60 78 61 79 62 80 63 81 42 82 43 83 51 84 44 85 50 86
REMARK SMILES IDX 45 87 46 88 47 89 48 90 49 91
REMARK H PARENT 10 6 14 28 70 47 40 58
REMARK Flexibility Score: inf
ROOT
ATOM      1  C   UNL     1       0.788  -8.524  -0.610  1.00  0.00     0.042 C 
ENDROOT
BRANCH   1   2
ATOM      2  C   UNL     1      -0.442  -8.033  -1.371  1.00  0.00     0.118 C 
BRANCH   2   3
ATOM      3  N   UNL     1      -1.450  -7.488  -0.478  1.00  0.00    -0.352 N 
ATOM      4  C   UNL     1      -1.855  -6.206  -0.282  1.00  0.00     0.244 C 
ATOM      5  O   UNL     1      -2.836  -5.979   0.424  1.00  0.00    -0.270 OA
ATOM      6  H   UNL     1      -1.915  -8.156   0.075  1.00  0.00     0.163 HD
BRANCH   4   7
ATOM      7  C   UNL     1      -1.186  -5.076  -0.963  1.00  0.00     0.072 C 
ATOM      8  C   UNL     1       0.142  -4.915  -1.043  1.00  0.00     0.014 C 
BRANCH   8   9
ATOM      9  C   UNL     1       0.792  -3.741  -1.637  1.00  0.00    -0.024 A 
ATOM     10  C   UNL     1       0.997  -1.324  -1.883  1.00  0.00    -0.047 A 
ATOM     11  C   UNL     1       0.319  -2.447  -1.391  1.00  0.00     0.011 A 
ATOM     12  C   UNL     1       2.161  -1.505  -2.639  1.00  0.00     0.016 A 
ATOM     13  C   UNL     1       2.662  -2.792  -2.869  1.00  0.00     0.023 A 
ATOM     14  C   UNL     1       1.970  -3.906  -2.375  1.00  0.00     0.020 A 
BRANCH  10  15
ATOM     15  C   UNL     1       0.524   0.061  -1.523  1.00  0.00     0.032 C 
ATOM     16  C   UNL     1       0.963   0.430  -0.112  1.00  0.00     0.009 C 
ENDBRANCH  10  15
BRANCH  13  17
ATOM     17  C   UNL     1       3.909  -3.017  -3.651  1.00  0.00     0.193 C 
ATOM     18  O   UNL     1       4.063  -4.074  -4.256  1.00  0.00    -0.289 OA
BRANCH  17  19
ATOM     19  C   UNL     1       4.953  -1.967  -3.752  1.00  0.00     0.022 A 
ATOM     20  C   UNL     1       5.527  -1.718  -5.002  1.00  0.00     0.012 A 
ATOM     21  C   UNL     1       5.367  -1.236  -2.632  1.00  0.00     0.012 A 
ATOM     22  C   UNL     1       6.475  -0.704  -5.143  1.00  0.00     0.001 A 
ATOM     23  C   UNL     1       6.315  -0.221  -2.778  1.00  0.00     0.001 A 
ATOM     24  C   UNL     1       6.861   0.050  -4.033  1.00  0.00     0.000 A 
ENDBRANCH  17  19
ENDBRANCH  13  17
ENDBRANCH   8   9
ENDBRANCH   4   7
ENDBRANCH   2   3
ENDBRANCH   1   2
BRANCH   1  25
ATOM     25  C   UNL     1       0.548  -9.801   0.192  1.00  0.00     0.118 C 
BRANCH  25  26
ATOM     26  N   UNL     1       0.277 -10.943  -0.667  1.00  0.00    -0.352 N 
ATOM     27  C   UNL     1       0.930 -12.145  -0.777  1.00  0.00     0.251 C 
ATOM     28  H   UNL     1      -0.498 -10.838  -1.265  1.00  0.00     0.163 HD
ATOM     29  O   UNL     1       0.674 -12.877  -1.729  1.00  0.00    -0.269 OA
BRANCH  27  30
ATOM     30  C   UNL     1       1.932 -12.565   0.229  1.00  0.00     0.039 A 
ATOM     31  C   UNL     1       3.072 -13.248  -0.206  1.00  0.00     0.014 A 
ATOM     32  C   UNL     1       1.726 -12.354   1.596  1.00  0.00     0.014 A 
ATOM     33  C   UNL     1       4.021 -13.683   0.722  1.00  0.00     0.010 A 
ATOM     34  C   UNL     1       2.705 -12.730   2.515  1.00  0.00     0.010 A 
ATOM     35  C   UNL     1       3.856 -13.409   2.089  1.00  0.00    -0.014 A 
BRANCH  35  36
ATOM     36  C   UNL     1       4.877 -13.831   3.081  1.00  0.00     0.031 A 
ATOM     37  C   UNL     1       4.542 -14.854   4.134  1.00  0.00     0.074 A 
ATOM     38  C   UNL     1       6.091 -13.246   3.070  1.00  0.00     0.049 A 
ATOM     39  N   UNL     1       5.292 -15.317   5.101  1.00  0.00    -0.248 NA
ATOM     40  C   UNL     1       3.179 -15.409   4.113  1.00  0.00     0.031 C 
ATOM     41  C   UNL     1       6.519 -12.203   2.135  1.00  0.00     0.029 A 
ATOM     42  N   UNL     1       7.185 -13.439   3.876  1.00  0.00    -0.354 N 
ATOM     43  C   UNL     1       4.487 -16.196   5.817  1.00  0.00     0.074 A 
ATOM     44  C   UNL     1       3.180 -16.171   5.197  1.00  0.00     0.031 C 
ATOM     45  C   UNL     1       7.788 -11.863   2.408  1.00  0.00     0.029 A 
ATOM     46  C   UNL     1       8.254 -12.638   3.554  1.00  0.00     0.049 A 
ATOM     47  H   UNL     1       7.202 -14.090   4.614  1.00  0.00     0.167 HD
ATOM     48  C   UNL     1       4.810 -16.964   6.886  1.00  0.00     0.031 A 
ATOM     49  C   UNL     1       9.472 -12.533   4.118  1.00  0.00     0.031 A 
ATOM     50  C   UNL     1       6.116 -16.998   7.489  1.00  0.00     0.049 A 
ATOM     51  C   UNL     1       9.820 -13.419   5.281  1.00  0.00     0.074 A 
ATOM     52  C   UNL     1       6.566 -17.797   8.527  1.00  0.00     0.029 A 
ATOM     53  N   UNL     1       7.183 -16.196   7.112  1.00  0.00    -0.354 N 
ATOM     54  N   UNL     1       9.069 -14.303   5.895  1.00  0.00    -0.248 NA
ATOM     55  C   UNL     1      11.182 -13.305   5.817  1.00  0.00     0.031 C 
ATOM     56  C   UNL     1       7.891 -17.444   8.807  1.00  0.00     0.029 A 
ATOM     57  C   UNL     1       8.282 -16.463   7.911  1.00  0.00     0.049 A 
ATOM     58  H   UNL     1       7.161 -15.533   6.384  1.00  0.00     0.167 HD
ATOM     59  C   UNL     1       9.874 -14.864   6.878  1.00  0.00     0.074 A 
ATOM     60  C   UNL     1      11.175 -14.233   6.764  1.00  0.00     0.031 C 
ATOM     61  C   UNL     1       9.566 -15.817   7.793  1.00  0.00     0.031 A 
BRANCH  48  62
ATOM     62  C   UNL     1       3.722 -17.823   7.478  1.00  0.00    -0.014 A 
ATOM     63  C   UNL     1       3.222 -18.944   6.791  1.00  0.00     0.010 A 
ATOM     64  C   UNL     1       3.209 -17.519   8.752  1.00  0.00     0.010 A 
ATOM     65  C   UNL     1       2.194 -19.713   7.343  1.00  0.00     0.020 A 
ATOM     66  C   UNL     1       2.200 -18.303   9.321  1.00  0.00     0.020 A 
ATOM     67  C   UNL     1       1.684 -19.383   8.602  1.00  0.00     0.054 A 
BRANCH  67  68
ATOM     68  S   UNL     1       0.353 -20.400   9.299  1.00  0.00     0.124 S 
ATOM     69  O   UNL     1      -0.801 -19.961   8.518  1.00  0.00    -0.237 OA
ATOM     70  O   UNL     1       0.812 -21.760   9.029  1.00  0.00    -0.237 OA
ATOM     71  O   UNL     1       0.331 -20.023  10.710  1.00  0.00    -0.744 OA
ENDBRANCH  67  68
ENDBRANCH  48  62
BRANCH  49  72
ATOM     72  C   UNL     1      10.455 -11.561   3.568  1.00  0.00    -0.014 A 
ATOM     73  C   UNL     1      11.557 -12.007   2.818  1.00  0.00     0.010 A 
ATOM     74  C   UNL     1      10.268 -10.180   3.756  1.00  0.00     0.010 A 
ATOM     75  C   UNL     1      12.459 -11.089   2.272  1.00  0.00     0.020 A 
ATOM     76  C   UNL     1      11.154  -9.258   3.192  1.00  0.00     0.020 A 
ATOM     77  C   UNL     1      12.250  -9.720   2.459  1.00  0.00     0.054 A 
BRANCH  77  78
ATOM     78  S   UNL     1      13.392  -8.544   1.681  1.00  0.00     0.124 S 
ATOM     79  O   UNL     1      14.565  -8.643   2.543  1.00  0.00    -0.237 OA
ATOM     80  O   UNL     1      13.546  -9.094   0.336  1.00  0.00    -0.237 OA
ATOM     81  O   UNL     1      12.671  -7.274   1.746  1.00  0.00    -0.744 OA
ENDBRANCH  77  78
ENDBRANCH  49  72
BRANCH  61  82
ATOM     82  C   UNL     1      10.660 -16.248   8.732  1.00  0.00    -0.014 A 
ATOM     83  C   UNL     1      11.092 -15.411   9.777  1.00  0.00     0.010 A 
ATOM     84  C   UNL     1      11.236 -17.523   8.590  1.00  0.00     0.010 A 
ATOM     85  C   UNL     1      12.108 -15.829  10.640  1.00  0.00     0.020 A 
ATOM     86  C   UNL     1      12.234 -17.954   9.468  1.00  0.00     0.020 A 
ATOM     87  C   UNL     1      12.675 -17.097  10.478  1.00  0.00     0.054 A 
BRANCH  87  88
ATOM     88  S   UNL     1      13.972 -17.629  11.629  1.00  0.00     0.124 S 
ATOM     89  O   UNL     1      15.130 -16.881  11.147  1.00  0.00    -0.237 OA
ATOM     90  O   UNL     1      13.447 -17.207  12.925  1.00  0.00    -0.237 OA
ATOM     91  O   UNL     1      14.037 -19.076  11.431  1.00  0.00    -0.744 OA
ENDBRANCH  87  88
ENDBRANCH  61  82
ENDBRANCH  35  36
ENDBRANCH  27  30
ENDBRANCH  25  26
ENDBRANCH   1  25
TORSDOF 17
