REMARK SMILES Cc1ccc2cc(C[N@H+]3CC[NH2+][C@H](C(=O)NCCCNC(=O)c4ccc(-c5c6nc(c(-c7ccc(S(=O)(=O)[O-])cc7)c7ccc([nH]7)c(-c7ccc(S(=O)(=O)[O-])cc7)c7nc(c(-c8ccc(S(=O)(=O)[O-])cc8)c8ccc5[nH]8)C=C7)C=C6)cc4)C3)c(N3CCOCC3)nc2c1
REMARK SMILES IDX 18 1 17 2 16 3 14 4 15 5 13 7 9 8 10 9 83 10 11 12 12 13
REMARK SMILES IDX 8 16 7 17 1 18 2 19 3 20 93 21 4 22 92 23 5 24 91 25 6 26
REMARK SMILES IDX 84 27 85 28 86 29 90 30 87 31 89 32 88 33 19 34 20 35 21 36
REMARK SMILES IDX 22 38 23 39 24 40 82 41 25 42 81 43 26 44 27 45 28 46 75 47
REMARK SMILES IDX 29 48 80 49 74 50 76 51 30 52 79 53 73 54 72 55 31 57 61 58
REMARK SMILES IDX 42 59 60 60 43 61 46 62 59 63 77 64 44 65 45 66 58 68 78 69
REMARK SMILES IDX 47 70 32 71 33 72 41 73 34 74 40 75 35 76 36 77 37 78 38 79
REMARK SMILES IDX 39 80 62 81 63 82 71 83 64 84 70 85 65 86 66 87 67 88 68 89
REMARK SMILES IDX 69 90 48 91 49 92 57 93 50 94 56 95 51 96 52 97 53 98 54 99
REMARK SMILES IDX 55 100
REMARK H PARENT 16 6 9 11 12 14 12 15 20 37 76 56 46 67
REMARK Flexibility Score: inf
ROOT
ATOM      1  C   UNL     1       0.329  -6.587  -7.263  1.00  0.00     0.042 C 
ENDROOT
BRANCH   1   2
ATOM      2  C   UNL     1      -0.390  -5.990  -6.062  1.00  0.00     0.118 C 
BRANCH   2   3
ATOM      3  N   UNL     1       0.568  -5.407  -5.139  1.00  0.00    -0.351 N 
ATOM      4  C   UNL     1       1.337  -4.282  -5.187  1.00  0.00     0.284 C 
ATOM      5  O   UNL     1       2.354  -4.335  -4.483  1.00  0.00    -0.268 OA
ATOM      6  H   UNL     1       0.686  -5.929  -4.313  1.00  0.00     0.163 HD
BRANCH   4   7
ATOM      7  C   UNL     1       0.895  -2.966  -5.872  1.00  0.00     0.328 C 
ATOM      8  N   UNL     1      -0.502  -1.775  -7.659  1.00  0.00    -0.321 N 
ATOM      9  C   UNL     1       0.566  -0.768  -7.719  1.00  0.00     0.324 C 
ATOM     10  C   UNL     1      -0.026  -3.046  -7.101  1.00  0.00     0.339 C 
ATOM     11  H   UNL     1      -0.732  -1.946  -8.638  1.00  0.00     0.348 HD
ATOM     12  C   UNL     1       1.560  -0.751  -6.530  1.00  0.00     0.323 C 
ATOM     13  N   UNL     1       2.062  -2.084  -6.153  1.00  0.00    -0.327 N 
ATOM     14  H   UNL     1       2.645  -2.010  -5.320  1.00  0.00     0.347 HD
ATOM     15  H   UNL     1       2.620  -2.475  -6.912  1.00  0.00     0.347 HD
BRANCH   8  16
ATOM     16  C   UNL     1      -1.819  -1.331  -7.154  1.00  0.00     0.303 C 
BRANCH  16  17
ATOM     17  C   UNL     1      -1.861  -0.737  -5.761  1.00  0.00     0.049 A 
ATOM     18  C   UNL     1       0.868   0.428  -0.060  1.00  0.00     0.044 C 
ATOM     19  C   UNL     1       0.039  -0.086  -1.201  1.00  0.00    -0.049 A 
ATOM     20  C   UNL     1      -0.214  -1.453  -1.312  1.00  0.00     0.004 A 
ATOM     21  C   UNL     1      -0.398   0.778  -2.225  1.00  0.00     0.032 A 
ATOM     22  C   UNL     1      -0.900  -1.941  -2.419  1.00  0.00     0.010 A 
ATOM     23  C   UNL     1      -1.043   0.313  -3.369  1.00  0.00     0.073 A 
ATOM     24  C   UNL     1      -1.287  -1.070  -3.450  1.00  0.00     0.001 A 
ATOM     25  N   UNL     1      -1.355   1.157  -4.380  1.00  0.00    -0.230 NA
ATOM     26  C   UNL     1      -1.789  -1.574  -4.647  1.00  0.00     0.023 A 
ATOM     27  C   UNL     1      -1.775   0.644  -5.560  1.00  0.00     0.138 A 
BRANCH  27  28
ATOM     28  N   UNL     1      -2.070   1.490  -6.605  1.00  0.00    -0.352 N 
ATOM     29  C   UNL     1      -3.453   1.573  -7.089  1.00  0.00     0.146 C 
ATOM     30  C   UNL     1      -1.255   2.667  -6.875  1.00  0.00     0.146 C 
ATOM     31  C   UNL     1      -3.432   1.899  -8.592  1.00  0.00     0.181 C 
ATOM     32  C   UNL     1      -1.309   2.926  -8.395  1.00  0.00     0.181 C 
ATOM     33  O   UNL     1      -2.665   3.087  -8.860  1.00  0.00    -0.378 OA
ENDBRANCH  27  28
ENDBRANCH  16  17
ENDBRANCH   8  16
ENDBRANCH   4   7
ENDBRANCH   2   3
ENDBRANCH   1   2
BRANCH   1  34
ATOM     34  C   UNL     1       1.015  -7.891  -6.882  1.00  0.00     0.118 C 
BRANCH  34  35
ATOM     35  N   UNL     1       0.041  -8.953  -6.640  1.00  0.00    -0.352 N 
ATOM     36  C   UNL     1      -0.141 -10.127  -7.326  1.00  0.00     0.251 C 
ATOM     37  H   UNL     1      -0.568  -8.805  -5.880  1.00  0.00     0.163 HD
ATOM     38  O   UNL     1      -1.164 -10.786  -7.167  1.00  0.00    -0.269 OA
BRANCH  36  39
ATOM     39  C   UNL     1       0.903 -10.562  -8.270  1.00  0.00     0.039 A 
ATOM     40  C   UNL     1       2.246 -10.465  -7.899  1.00  0.00     0.014 A 
ATOM     41  C   UNL     1       0.546 -11.002  -9.544  1.00  0.00     0.014 A 
ATOM     42  C   UNL     1       3.230 -10.615  -8.861  1.00  0.00     0.010 A 
ATOM     43  C   UNL     1       1.547 -11.267 -10.479  1.00  0.00     0.010 A 
ATOM     44  C   UNL     1       2.894 -11.027 -10.160  1.00  0.00    -0.014 A 
BRANCH  44  45
ATOM     45  C   UNL     1       3.967 -11.201 -11.169  1.00  0.00     0.031 A 
ATOM     46  C   UNL     1       3.984 -10.362 -12.417  1.00  0.00     0.074 A 
ATOM     47  C   UNL     1       4.952 -12.088 -10.926  1.00  0.00     0.049 A 
ATOM     48  N   UNL     1       4.807 -10.422 -13.431  1.00  0.00    -0.248 NA
ATOM     49  C   UNL     1       2.948  -9.323 -12.549  1.00  0.00     0.031 C 
ATOM     50  C   UNL     1       5.061 -12.915  -9.720  1.00  0.00     0.029 A 
ATOM     51  N   UNL     1       6.063 -12.424 -11.657  1.00  0.00    -0.354 N 
ATOM     52  C   UNL     1       4.374  -9.455 -14.331  1.00  0.00     0.074 A 
ATOM     53  C   UNL     1       3.202  -8.834 -13.756  1.00  0.00     0.031 C 
ATOM     54  C   UNL     1       6.205 -13.610  -9.765  1.00  0.00     0.029 A 
ATOM     55  C   UNL     1       6.861 -13.360 -11.043  1.00  0.00     0.049 A 
ATOM     56  H   UNL     1       6.269 -12.032 -12.536  1.00  0.00     0.167 HD
ATOM     57  C   UNL     1       4.917  -9.114 -15.522  1.00  0.00     0.031 A 
ATOM     58  C   UNL     1       7.981 -13.977 -11.467  1.00  0.00     0.031 A 
ATOM     59  C   UNL     1       6.102  -9.728 -16.064  1.00  0.00     0.049 A 
ATOM     60  C   UNL     1       8.522 -13.634 -12.823  1.00  0.00     0.074 A 
ATOM     61  C   UNL     1       6.734  -9.451 -17.263  1.00  0.00     0.029 A 
ATOM     62  N   UNL     1       6.838 -10.726 -15.442  1.00  0.00    -0.354 N 
ATOM     63  N   UNL     1       8.081 -12.739 -13.675  1.00  0.00    -0.248 NA
ATOM     64  C   UNL     1       9.696 -14.384 -13.286  1.00  0.00     0.031 C 
ATOM     65  C   UNL     1       7.813 -10.326 -17.396  1.00  0.00     0.029 A 
ATOM     66  C   UNL     1       7.901 -11.096 -16.246  1.00  0.00     0.049 A 
ATOM     67  H   UNL     1       6.633 -11.113 -14.560  1.00  0.00     0.167 HD
ATOM     68  C   UNL     1       8.929 -12.811 -14.772  1.00  0.00     0.074 A 
ATOM     69  C   UNL     1       9.920 -13.824 -14.469  1.00  0.00     0.031 C 
ATOM     70  C   UNL     1       8.883 -12.103 -15.926  1.00  0.00     0.031 A 
BRANCH  57  71
ATOM     71  C   UNL     1       4.250  -8.039 -16.341  1.00  0.00    -0.014 A 
ATOM     72  C   UNL     1       3.651  -8.373 -17.571  1.00  0.00     0.010 A 
ATOM     73  C   UNL     1       4.324  -6.686 -15.963  1.00  0.00     0.010 A 
ATOM     74  C   UNL     1       3.172  -7.375 -18.424  1.00  0.00     0.020 A 
ATOM     75  C   UNL     1       3.820  -5.686 -16.802  1.00  0.00     0.020 A 
ATOM     76  C   UNL     1       3.269  -6.036 -18.038  1.00  0.00     0.054 A 
BRANCH  76  77
ATOM     77  S   UNL     1       2.670  -4.752 -19.171  1.00  0.00     0.124 S 
ATOM     78  O   UNL     1       3.720  -4.719 -20.184  1.00  0.00    -0.237 OA
ATOM     79  O   UNL     1       1.384  -5.288 -19.609  1.00  0.00    -0.237 OA
ATOM     80  O   UNL     1       2.581  -3.564 -18.323  1.00  0.00    -0.744 OA
ENDBRANCH  76  77
ENDBRANCH  57  71
BRANCH  58  81
ATOM     81  C   UNL     1       8.635 -14.978 -10.579  1.00  0.00    -0.014 A 
ATOM     82  C   UNL     1       7.971 -16.176 -10.248  1.00  0.00     0.010 A 
ATOM     83  C   UNL     1       9.868 -14.691  -9.969  1.00  0.00     0.010 A 
ATOM     84  C   UNL     1       8.488 -17.029  -9.272  1.00  0.00     0.020 A 
ATOM     85  C   UNL     1      10.407 -15.562  -9.016  1.00  0.00     0.020 A 
ATOM     86  C   UNL     1       9.696 -16.708  -8.649  1.00  0.00     0.054 A 
BRANCH  86  87
ATOM     87  S   UNL     1      10.314 -17.796  -7.337  1.00  0.00     0.124 S 
ATOM     88  O   UNL     1       9.447 -17.436  -6.218  1.00  0.00    -0.237 OA
ATOM     89  O   UNL     1      10.099 -19.127  -7.897  1.00  0.00    -0.237 OA
ATOM     90  O   UNL     1      11.713 -17.401  -7.196  1.00  0.00    -0.744 OA
ENDBRANCH  86  87
ENDBRANCH  58  81
BRANCH  70  91
ATOM     91  C   UNL     1       9.929 -12.378 -16.972  1.00  0.00    -0.014 A 
ATOM     92  C   UNL     1      10.882 -11.388 -17.276  1.00  0.00     0.010 A 
ATOM     93  C   UNL     1       9.856 -13.533 -17.769  1.00  0.00     0.010 A 
ATOM     94  C   UNL     1      11.704 -11.519 -18.396  1.00  0.00     0.020 A 
ATOM     95  C   UNL     1      10.697 -13.680 -18.875  1.00  0.00     0.020 A 
ATOM     96  C   UNL     1      11.592 -12.657 -19.200  1.00  0.00     0.054 A 
BRANCH  96  97
ATOM     97  S   UNL     1      12.607 -12.769 -20.698  1.00  0.00     0.124 S 
ATOM     98  O   UNL     1      11.938 -11.831 -21.593  1.00  0.00    -0.237 OA
ATOM     99  O   UNL     1      13.926 -12.356 -20.223  1.00  0.00    -0.237 OA
ATOM    100  O   UNL     1      12.503 -14.177 -21.078  1.00  0.00    -0.744 OA
ENDBRANCH  96  97
ENDBRANCH  70  91
ENDBRANCH  44  45
ENDBRANCH  36  39
ENDBRANCH  34  35
ENDBRANCH   1  34
TORSDOF 16
