REMARK SMILES Cc1nn(C)cc1CNC(=O)[C@H]1[C@@H]2CC[C@@H](C2)[C@@H]1C(=O)NCCCNC(=O)c1ccc(-c2c3nc(c(-c4ccc(S(=O)(=O)[O-])cc4)c4ccc([nH]4)c(-c4ccc(S(=O)(=O)[O-])cc4)c4nc(c(-c5ccc(S(=O)(=O)[O-])cc5)c5ccc2[nH]5)C=C4)C=C3)cc1
REMARK SMILES IDX 23 1 22 2 21 3 19 4 20 5 18 7 12 8 13 9 14 10 17 11 16 12
REMARK SMILES IDX 15 13 10 14 9 15 11 17 8 18 7 19 1 20 2 21 3 22 4 23 6 24
REMARK SMILES IDX 5 25 24 26 25 27 26 28 27 30 28 31 29 32 87 33 30 34 86 35
REMARK SMILES IDX 31 36 32 37 33 38 80 39 34 40 85 41 79 42 81 43 35 44 84 45
REMARK SMILES IDX 78 46 77 47 36 49 66 50 47 51 65 52 48 53 51 54 64 55 82 56
REMARK SMILES IDX 49 57 50 58 63 60 83 61 52 62 37 63 38 64 46 65 39 66 45 67
REMARK SMILES IDX 40 68 41 69 42 70 43 71 44 72 67 73 68 74 76 75 69 76 75 77
REMARK SMILES IDX 70 78 71 79 72 80 73 81 74 82 53 83 54 84 62 85 55 86 61 87
REMARK SMILES IDX 56 88 57 89 58 90 59 91 60 92
REMARK H PARENT 21 6 9 16 25 29 81 48 51 59
REMARK Flexibility Score: inf
ROOT
ATOM      1  C   UNL     1      -2.560  -5.383   3.934  1.00  0.00     0.042 C 
ENDROOT
BRANCH   1   2
ATOM      2  C   UNL     1      -2.096  -4.688   2.672  1.00  0.00     0.117 C 
BRANCH   2   3
ATOM      3  N   UNL     1      -0.811  -4.032   2.816  1.00  0.00    -0.356 N 
ATOM      4  C   UNL     1       0.332  -4.059   2.095  1.00  0.00     0.224 C 
ATOM      5  O   UNL     1       1.246  -3.334   2.509  1.00  0.00    -0.275 OA
ATOM      6  H   UNL     1      -0.760  -3.443   3.603  1.00  0.00     0.163 HD
BRANCH   4   7
ATOM      7  C   UNL     1       0.594  -4.938   0.880  1.00  0.00     0.094 C 
ATOM      8  C   UNL     1      -0.514  -5.388  -0.091  1.00  0.00     0.094 C 
ATOM      9  C   UNL     1      -0.234  -6.917  -0.207  1.00  0.00     0.002 C 
ATOM     10  C   UNL     1      -0.647  -7.637   1.096  1.00  0.00     0.005 C 
ATOM     11  C   UNL     1       1.291  -6.993  -0.085  1.00  0.00     0.009 C 
ATOM     12  C   UNL     1       1.311  -6.260   1.256  1.00  0.00     0.002 C 
ATOM     13  C   UNL     1       0.413  -7.170   2.104  1.00  0.00     0.005 C 
BRANCH   8  14
ATOM     14  C   UNL     1      -0.408  -4.658  -1.427  1.00  0.00     0.224 C 
ATOM     15  N   UNL     1      -0.854  -3.371  -1.515  1.00  0.00    -0.352 N 
ATOM     16  H   UNL     1      -0.738  -2.955  -2.400  1.00  0.00     0.163 HD
ATOM     17  O   UNL     1       0.050  -5.187  -2.439  1.00  0.00    -0.275 OA
BRANCH  15  18
ATOM     18  C   UNL     1      -1.470  -2.514  -0.520  1.00  0.00     0.155 C 
BRANCH  18  19
ATOM     19  C   UNL     1      -0.636  -1.297  -0.333  1.00  0.00     0.012 A 
ATOM     20  C   UNL     1      -2.439   0.606  -0.095  1.00  0.00     0.069 C 
ATOM     21  C   UNL     1      -1.062   0.053  -0.154  1.00  0.00     0.064 A 
ATOM     22  N   UNL     1      -0.025   0.893  -0.031  1.00  0.00    -0.178 NA
ATOM     23  N   UNL     1       1.052   0.093  -0.078  1.00  0.00    -0.275 N 
ATOM     24  C   UNL     1       0.741  -1.219  -0.251  1.00  0.00     0.114 A 
ATOM     25  C   UNL     1       2.372   0.663   0.026  1.00  0.00     0.173 C 
ENDBRANCH  18  19
ENDBRANCH  15  18
ENDBRANCH   8  14
ENDBRANCH   4   7
ENDBRANCH   2   3
ENDBRANCH   1   2
BRANCH   1  26
ATOM     26  C   UNL     1      -2.915  -4.412   5.039  1.00  0.00     0.118 C 
BRANCH  26  27
ATOM     27  N   UNL     1      -4.100  -3.626   4.718  1.00  0.00    -0.352 N 
ATOM     28  C   UNL     1      -5.404  -3.779   5.130  1.00  0.00     0.251 C 
ATOM     29  H   UNL     1      -3.943  -2.867   4.110  1.00  0.00     0.163 HD
ATOM     30  O   UNL     1      -6.299  -3.178   4.548  1.00  0.00    -0.269 OA
BRANCH  28  31
ATOM     31  C   UNL     1      -5.717  -4.687   6.255  1.00  0.00     0.039 A 
ATOM     32  C   UNL     1      -6.863  -5.484   6.204  1.00  0.00     0.014 A 
ATOM     33  C   UNL     1      -4.867  -4.761   7.358  1.00  0.00     0.014 A 
ATOM     34  C   UNL     1      -7.103  -6.410   7.222  1.00  0.00     0.010 A 
ATOM     35  C   UNL     1      -5.028  -5.777   8.288  1.00  0.00     0.010 A 
ATOM     36  C   UNL     1      -6.160  -6.599   8.247  1.00  0.00    -0.014 A 
BRANCH  36  37
ATOM     37  C   UNL     1      -6.343  -7.622   9.308  1.00  0.00     0.031 A 
ATOM     38  C   UNL     1      -6.368  -7.202  10.756  1.00  0.00     0.074 A 
ATOM     39  C   UNL     1      -6.399  -8.929   8.978  1.00  0.00     0.049 A 
ATOM     40  N   UNL     1      -6.423  -7.947  11.829  1.00  0.00    -0.248 NA
ATOM     41  C   UNL     1      -6.280  -5.757  11.039  1.00  0.00     0.031 C 
ATOM     42  C   UNL     1      -6.322  -9.467   7.617  1.00  0.00     0.029 A 
ATOM     43  N   UNL     1      -6.523 -10.046   9.766  1.00  0.00    -0.354 N 
ATOM     44  C   UNL     1      -6.343  -7.068  12.904  1.00  0.00     0.074 A 
ATOM     45  C   UNL     1      -6.177  -5.741  12.359  1.00  0.00     0.031 C 
ATOM     46  C   UNL     1      -6.434 -10.804   7.664  1.00  0.00     0.029 A 
ATOM     47  C   UNL     1      -6.539 -11.225   9.057  1.00  0.00     0.049 A 
ATOM     48  H   UNL     1      -6.595 -10.007  10.747  1.00  0.00     0.167 HD
ATOM     49  C   UNL     1      -6.426  -7.337  14.228  1.00  0.00     0.031 A 
ATOM     50  C   UNL     1      -6.615 -12.502   9.480  1.00  0.00     0.031 A 
ATOM     51  C   UNL     1      -6.628  -8.656  14.763  1.00  0.00     0.049 A 
ATOM     52  C   UNL     1      -6.724 -12.773  10.956  1.00  0.00     0.074 A 
ATOM     53  C   UNL     1      -6.812  -9.026  16.083  1.00  0.00     0.029 A 
ATOM     54  N   UNL     1      -6.674  -9.818  14.008  1.00  0.00    -0.354 N 
ATOM     55  N   UNL     1      -6.736 -11.919  11.952  1.00  0.00    -0.248 NA
ATOM     56  C   UNL     1      -6.843 -14.179  11.366  1.00  0.00     0.031 C 
ATOM     57  C   UNL     1      -6.904 -10.419  16.134  1.00  0.00     0.029 A 
ATOM     58  C   UNL     1      -6.850 -10.910  14.838  1.00  0.00     0.049 A 
ATOM     59  H   UNL     1      -6.592  -9.859  13.028  1.00  0.00     0.167 HD
ATOM     60  C   UNL     1      -6.892 -12.683  13.103  1.00  0.00     0.074 A 
ATOM     61  C   UNL     1      -6.989 -14.064  12.679  1.00  0.00     0.031 C 
ATOM     62  C   UNL     1      -6.949 -12.278  14.396  1.00  0.00     0.031 A 
BRANCH  49  63
ATOM     63  C   UNL     1      -6.300  -6.186  15.192  1.00  0.00    -0.014 A 
ATOM     64  C   UNL     1      -7.300  -5.202  15.292  1.00  0.00     0.010 A 
ATOM     65  C   UNL     1      -5.190  -6.123  16.055  1.00  0.00     0.010 A 
ATOM     66  C   UNL     1      -7.178  -4.160  16.214  1.00  0.00     0.020 A 
ATOM     67  C   UNL     1      -5.080  -5.100  17.000  1.00  0.00     0.020 A 
ATOM     68  C   UNL     1      -6.070  -4.117  17.065  1.00  0.00     0.054 A 
BRANCH  68  69
ATOM     69  S   UNL     1      -5.965  -2.781  18.287  1.00  0.00     0.124 S 
ATOM     70  O   UNL     1      -5.688  -1.622  17.441  1.00  0.00    -0.237 OA
ATOM     71  O   UNL     1      -7.289  -2.807  18.902  1.00  0.00    -0.237 OA
ATOM     72  O   UNL     1      -4.867  -3.191  19.158  1.00  0.00    -0.744 OA
ENDBRANCH  68  69
ENDBRANCH  49  63
BRANCH  50  73
ATOM     73  C   UNL     1      -6.592 -13.619   8.495  1.00  0.00    -0.014 A 
ATOM     74  C   UNL     1      -7.734 -14.411   8.278  1.00  0.00     0.010 A 
ATOM     75  C   UNL     1      -5.422 -13.896   7.764  1.00  0.00     0.010 A 
ATOM     76  C   UNL     1      -7.697 -15.477   7.373  1.00  0.00     0.020 A 
ATOM     77  C   UNL     1      -5.391 -14.939   6.834  1.00  0.00     0.020 A 
ATOM     78  C   UNL     1      -6.525 -15.733   6.655  1.00  0.00     0.054 A 
BRANCH  78  79
ATOM     79  S   UNL     1      -6.510 -17.098   5.460  1.00  0.00     0.124 S 
ATOM     80  O   UNL     1      -6.506 -18.266   6.334  1.00  0.00    -0.237 OA
ATOM     81  O   UNL     1      -7.743 -16.871   4.709  1.00  0.00    -0.237 OA
ATOM     82  O   UNL     1      -5.279 -16.876   4.704  1.00  0.00    -0.744 OA
ENDBRANCH  78  79
ENDBRANCH  50  73
BRANCH  62  83
ATOM     83  C   UNL     1      -7.164 -13.334  15.447  1.00  0.00    -0.014 A 
ATOM     84  C   UNL     1      -6.152 -14.251  15.780  1.00  0.00     0.010 A 
ATOM     85  C   UNL     1      -8.377 -13.362  16.159  1.00  0.00     0.010 A 
ATOM     86  C   UNL     1      -6.362 -15.198  16.785  1.00  0.00     0.020 A 
ATOM     87  C   UNL     1      -8.579 -14.286  17.186  1.00  0.00     0.020 A 
ATOM     88  C   UNL     1      -7.574 -15.208  17.483  1.00  0.00     0.054 A 
BRANCH  88  89
ATOM     89  S   UNL     1      -7.802 -16.415  18.816  1.00  0.00     0.124 S 
ATOM     90  O   UNL     1      -7.948 -17.664  18.073  1.00  0.00    -0.237 OA
ATOM     91  O   UNL     1      -6.567 -16.281  19.584  1.00  0.00    -0.237 OA
ATOM     92  O   UNL     1      -9.008 -15.954  19.501  1.00  0.00    -0.744 OA
ENDBRANCH  88  89
ENDBRANCH  62  83
ENDBRANCH  36  37
ENDBRANCH  28  31
ENDBRANCH  26  27
ENDBRANCH   1  26
TORSDOF 16
