REMARK SMILES O=C(COc1ccc(F)cc1)Nc1sccc1C(=O)NCCCNC(=O)c1ccc(-c2c3nc(c(-c4ccc(S(=O)(=O)[O-])cc4)c4ccc([nH]4)c(-c4ccc(S(=O)(=O)[O-])cc4)c4nc(c(-c5ccc(S(=O)(=O)[O-])cc5)c5ccc2[nH]5)C=C4)C=C3)cc1
REMARK SMILES IDX 21 1 20 2 18 3 19 4 17 6 13 7 14 8 15 9 16 10 12 11 1 12
REMARK SMILES IDX 2 13 3 15 4 16 5 17 6 18 11 19 7 20 10 21 8 22 9 23 22 24
REMARK SMILES IDX 23 25 24 26 25 27 26 29 27 30 28 31 86 32 29 33 85 34 30 35
REMARK SMILES IDX 31 36 32 37 79 38 33 39 84 40 78 41 80 42 34 43 83 44 77 45
REMARK SMILES IDX 76 46 35 48 65 49 46 50 64 51 47 52 50 53 63 54 81 55 48 56
REMARK SMILES IDX 49 57 62 59 82 60 51 61 36 62 37 63 45 64 38 65 44 66 39 67
REMARK SMILES IDX 40 68 41 69 42 70 43 71 66 72 67 73 75 74 68 75 74 76 69 77
REMARK SMILES IDX 70 78 71 79 72 80 73 81 52 82 53 83 61 84 54 85 60 86 55 87
REMARK SMILES IDX 56 88 57 89 58 90 59 91
REMARK H PARENT 20 5 12 14 24 28 80 47 50 58
REMARK Flexibility Score: inf
ROOT
ATOM      1  C   UNL     1       3.099   0.791  -2.182  1.00  0.00     0.118 C 
ENDROOT
BRANCH   1   2
ATOM      2  N   UNL     1       1.718   0.845  -2.620  1.00  0.00    -0.352 N 
ATOM      3  C   UNL     1       0.768  -0.149  -2.645  1.00  0.00     0.254 C 
ATOM      4  O   UNL     1      -0.345   0.132  -3.095  1.00  0.00    -0.269 OA
ATOM      5  H   UNL     1       1.416   1.723  -2.947  1.00  0.00     0.163 HD
BRANCH   3   6
ATOM      6  C   UNL     1       1.120  -1.528  -2.311  1.00  0.00     0.074 A 
ATOM      7  C   UNL     1       1.880  -2.013  -1.264  1.00  0.00     0.108 A 
ATOM      8  S   UNL     1       2.256  -3.671  -1.420  1.00  0.00    -0.126 S 
ATOM      9  C   UNL     1       1.198  -3.845  -2.745  1.00  0.00     0.068 A 
ATOM     10  C   UNL     1       0.660  -2.636  -3.119  1.00  0.00     0.028 A 
BRANCH   7  11
ATOM     11  N   UNL     1       2.431  -1.484  -0.122  1.00  0.00    -0.314 N 
ATOM     12  O   UNL     1       0.879   0.197   0.298  1.00  0.00    -0.271 OA
ATOM     13  C   UNL     1       1.921  -0.394   0.560  1.00  0.00     0.262 C 
ATOM     14  H   UNL     1       3.244  -1.909   0.235  1.00  0.00     0.170 HD
BRANCH  13  15
ATOM     15  C   UNL     1       2.853   0.077   1.681  1.00  0.00     0.329 C 
BRANCH  15  16
ATOM     16  O   UNL     1       3.724  -0.956   2.149  1.00  0.00    -0.484 OA
BRANCH  16  17
ATOM     17  C   UNL     1       3.196  -1.592   3.237  1.00  0.00     0.120 A 
ATOM     18  C   UNL     1       2.155  -2.513   3.099  1.00  0.00     0.049 A 
ATOM     19  C   UNL     1       3.777  -1.351   4.481  1.00  0.00     0.049 A 
ATOM     20  C   UNL     1       1.668  -3.173   4.223  1.00  0.00     0.043 A 
ATOM     21  C   UNL     1       3.284  -2.012   5.606  1.00  0.00     0.043 A 
ATOM     22  C   UNL     1       2.234  -2.914   5.466  1.00  0.00     0.123 A 
ATOM     23  F   UNL     1       1.764  -3.553   6.546  1.00  0.00    -0.207 F 
ENDBRANCH  16  17
ENDBRANCH  15  16
ENDBRANCH  13  15
ENDBRANCH   7  11
ENDBRANCH   3   6
ENDBRANCH   1   2
BRANCH   1  24
ATOM     24  C   UNL     1       3.976   1.912  -2.703  1.00  0.00     0.042 C 
BRANCH  24  25
ATOM     25  C   UNL     1       3.519   3.307  -2.286  1.00  0.00     0.118 C 
BRANCH  25  26
ATOM     26  N   UNL     1       3.501   3.534  -0.841  1.00  0.00    -0.352 N 
ATOM     27  C   UNL     1       4.356   4.210   0.002  1.00  0.00     0.251 C 
ATOM     28  H   UNL     1       2.730   3.127  -0.384  1.00  0.00     0.163 HD
ATOM     29  O   UNL     1       4.176   4.139   1.216  1.00  0.00    -0.269 OA
BRANCH  27  30
ATOM     30  C   UNL     1       5.514   4.969  -0.528  1.00  0.00     0.039 A 
ATOM     31  C   UNL     1       6.728   4.954   0.168  1.00  0.00     0.014 A 
ATOM     32  C   UNL     1       5.423   5.684  -1.718  1.00  0.00     0.014 A 
ATOM     33  C   UNL     1       7.869   5.534  -0.403  1.00  0.00     0.010 A 
ATOM     34  C   UNL     1       6.578   6.129  -2.348  1.00  0.00     0.010 A 
ATOM     35  C   UNL     1       7.821   6.056  -1.705  1.00  0.00    -0.014 A 
BRANCH  35  36
ATOM     36  C   UNL     1       9.032   6.525  -2.437  1.00  0.00     0.031 A 
ATOM     37  C   UNL     1       9.052   7.907  -3.045  1.00  0.00     0.074 A 
ATOM     38  C   UNL     1      10.051   5.674  -2.679  1.00  0.00     0.049 A 
ATOM     39  N   UNL     1       9.891   8.419  -3.909  1.00  0.00    -0.248 NA
ATOM     40  C   UNL     1       7.950   8.811  -2.675  1.00  0.00     0.031 C 
ATOM     41  C   UNL     1      10.144   4.291  -2.202  1.00  0.00     0.029 A 
ATOM     42  N   UNL     1      11.202   5.844  -3.411  1.00  0.00    -0.354 N 
ATOM     43  C   UNL     1       9.384   9.673  -4.229  1.00  0.00     0.074 A 
ATOM     44  C   UNL     1       8.142   9.825  -3.503  1.00  0.00     0.031 C 
ATOM     45  C   UNL     1      11.300   3.753  -2.624  1.00  0.00     0.029 A 
ATOM     46  C   UNL     1      12.005   4.727  -3.448  1.00  0.00     0.049 A 
ATOM     47  H   UNL     1      11.431   6.686  -3.866  1.00  0.00     0.167 HD
ATOM     48  C   UNL     1       9.911  10.625  -5.037  1.00  0.00     0.031 A 
ATOM     49  C   UNL     1      13.171   4.503  -4.085  1.00  0.00     0.031 A 
ATOM     50  C   UNL     1      11.179  10.501  -5.702  1.00  0.00     0.049 A 
ATOM     51  C   UNL     1      13.769   5.594  -4.928  1.00  0.00     0.074 A 
ATOM     52  C   UNL     1      11.840  11.439  -6.476  1.00  0.00     0.029 A 
ATOM     53  N   UNL     1      11.989   9.377  -5.654  1.00  0.00    -0.354 N 
ATOM     54  N   UNL     1      13.290   6.787  -5.189  1.00  0.00    -0.248 NA
ATOM     55  C   UNL     1      15.067   5.313  -5.558  1.00  0.00     0.031 C 
ATOM     56  C   UNL     1      13.041  10.872  -6.916  1.00  0.00     0.029 A 
ATOM     57  C   UNL     1      13.143   9.597  -6.383  1.00  0.00     0.049 A 
ATOM     58  H   UNL     1      11.774   8.546  -5.172  1.00  0.00     0.167 HD
ATOM     59  C   UNL     1      14.242   7.409  -5.989  1.00  0.00     0.074 A 
ATOM     60  C   UNL     1      15.327   6.464  -6.162  1.00  0.00     0.031 C 
ATOM     61  C   UNL     1      14.219   8.650  -6.531  1.00  0.00     0.031 A 
BRANCH  48  62
ATOM     62  C   UNL     1       9.117  11.890  -5.230  1.00  0.00    -0.014 A 
ATOM     63  C   UNL     1       8.954  12.813  -4.181  1.00  0.00     0.010 A 
ATOM     64  C   UNL     1       8.540  12.171  -6.482  1.00  0.00     0.010 A 
ATOM     65  C   UNL     1       8.182  13.963  -4.362  1.00  0.00     0.020 A 
ATOM     66  C   UNL     1       7.792  13.336  -6.677  1.00  0.00     0.020 A 
ATOM     67  C   UNL     1       7.599  14.213  -5.607  1.00  0.00     0.054 A 
BRANCH  67  68
ATOM     68  S   UNL     1       6.607  15.717  -5.818  1.00  0.00     0.124 S 
ATOM     69  O   UNL     1       5.366  15.353  -5.139  1.00  0.00    -0.237 OA
ATOM     70  O   UNL     1       7.414  16.733  -5.146  1.00  0.00    -0.237 OA
ATOM     71  O   UNL     1       6.506  15.865  -7.267  1.00  0.00    -0.744 OA
ENDBRANCH  67  68
ENDBRANCH  48  62
BRANCH  49  72
ATOM     72  C   UNL     1      13.867   3.197  -3.926  1.00  0.00    -0.014 A 
ATOM     73  C   UNL     1      15.029   3.109  -3.139  1.00  0.00     0.010 A 
ATOM     74  C   UNL     1      13.368   2.035  -4.541  1.00  0.00     0.010 A 
ATOM     75  C   UNL     1      15.690   1.887  -2.983  1.00  0.00     0.020 A 
ATOM     76  C   UNL     1      14.013   0.806  -4.368  1.00  0.00     0.020 A 
ATOM     77  C   UNL     1      15.177   0.742  -3.598  1.00  0.00     0.054 A 
BRANCH  77  78
ATOM     78  S   UNL     1      16.019  -0.844  -3.337  1.00  0.00     0.124 S 
ATOM     79  O   UNL     1      17.180  -0.718  -4.212  1.00  0.00    -0.237 OA
ATOM     80  O   UNL     1      16.299  -0.822  -1.904  1.00  0.00    -0.237 OA
ATOM     81  O   UNL     1      15.023  -1.830  -3.753  1.00  0.00    -0.744 OA
ENDBRANCH  77  78
ENDBRANCH  49  72
BRANCH  61  82
ATOM     82  C   UNL     1      15.420   9.083  -7.325  1.00  0.00    -0.014 A 
ATOM     83  C   UNL     1      15.643   8.602  -8.626  1.00  0.00     0.010 A 
ATOM     84  C   UNL     1      16.295  10.043  -6.785  1.00  0.00     0.010 A 
ATOM     85  C   UNL     1      16.735   9.060  -9.368  1.00  0.00     0.020 A 
ATOM     86  C   UNL     1      17.373  10.520  -7.532  1.00  0.00     0.020 A 
ATOM     87  C   UNL     1      17.592  10.018  -8.816  1.00  0.00     0.054 A 
BRANCH  87  88
ATOM     88  S   UNL     1      18.965  10.645  -9.822  1.00  0.00     0.124 S 
ATOM     89  O   UNL     1      19.917   9.540  -9.759  1.00  0.00    -0.237 OA
ATOM     90  O   UNL     1      18.338  10.862 -11.124  1.00  0.00    -0.237 OA
ATOM     91  O   UNL     1      19.376  11.863  -9.126  1.00  0.00    -0.744 OA
ENDBRANCH  87  88
ENDBRANCH  61  82
ENDBRANCH  35  36
ENDBRANCH  27  30
ENDBRANCH  25  26
ENDBRANCH  24  25
ENDBRANCH   1  24
TORSDOF 17
