REMARK SMILES CC(C)C[C@H](C(=O)NCCCNC(=O)c1ccc(-c2c3nc(c(-c4ccc(S(=O)(=O)[O-])cc4)c4ccc([nH]4)c(-c4ccc(S(=O)(=O)[O-])cc4)c4nc(c(-c5ccc(S(=O)(=O)[O-])cc5)c5ccc2[nH]5)C=C4)C=C3)cc1)[C@@H]1CCO[C@]2(CCOC2)C1
REMARK SMILES IDX 10 1 9 2 8 3 6 4 7 5 5 7 4 8 2 9 1 10 3 11 75 12 76 13 84 14
REMARK SMILES IDX 77 15 79 16 78 17 80 18 83 19 81 20 82 21 11 22 12 23 13 24
REMARK SMILES IDX 14 26 15 27 16 28 74 29 17 30 73 31 18 32 19 33 20 34 67 35
REMARK SMILES IDX 21 36 72 37 66 38 68 39 22 40 71 41 65 42 64 43 23 45 53 46
REMARK SMILES IDX 34 47 52 48 35 49 38 50 51 51 69 52 36 53 37 54 50 56 70 57
REMARK SMILES IDX 39 58 24 59 25 60 33 61 26 62 32 63 27 64 28 65 29 66 30 67
REMARK SMILES IDX 31 68 54 69 55 70 63 71 56 72 62 73 57 74 58 75 59 76 60 77
REMARK SMILES IDX 61 78 40 79 41 80 49 81 42 82 48 83 43 84 44 85 45 86 46 87
REMARK SMILES IDX 47 88
REMARK H PARENT 8 6 12 25 68 44 38 55
REMARK Flexibility Score: inf
ROOT
ATOM      1  C   UNL     1      -4.871   1.342   2.012  1.00  0.00     0.042 C 
ENDROOT
BRANCH   1   2
ATOM      2  C   UNL     1      -3.856   0.708   0.980  1.00  0.00     0.117 C 
BRANCH   2   3
ATOM      3  N   UNL     1      -1.918   0.328   0.991  1.00  0.00    -0.356 N 
ATOM      4  C   UNL     1      -0.925  -0.604   0.598  1.00  0.00     0.223 C 
ATOM      5  O   UNL     1       0.275  -0.342   0.641  1.00  0.00    -0.275 OA
ATOM      6  H   UNL     1      -1.467   1.075   1.446  1.00  0.00     0.163 HD
BRANCH   4   7
ATOM      7  C   UNL     1      -1.503  -1.884   0.152  1.00  0.00     0.082 C 
BRANCH   7   8
ATOM      8  C   UNL     1      -1.016  -3.051   1.011  1.00  0.00     0.016 C 
BRANCH   8   9
ATOM      9  C   UNL     1      -2.009  -4.211   1.182  1.00  0.00    -0.017 C 
ATOM     10  C   UNL     1      -2.361  -4.862  -0.154  1.00  0.00     0.007 C 
ATOM     11  C   UNL     1      -1.420  -5.256   2.135  1.00  0.00     0.007 C 
ENDBRANCH   8   9
ENDBRANCH   7   8
BRANCH   7  12
ATOM     12  C   UNL     1      -2.884  -1.325   0.335  1.00  0.00     0.007 C 
ATOM     13  C   UNL     1      -2.761   0.205  -0.888  1.00  0.00     0.033 C 
ATOM     14  C   UNL     1      -2.961  -0.960   2.250  1.00  0.00     0.042 C 
ATOM     15  C   UNL     1      -2.276   1.943  -0.130  1.00  0.00     0.161 C 
ATOM     16  C   UNL     1      -2.345   0.738   2.914  1.00  0.00     0.094 C 
ATOM     17  O   UNL     1      -2.329   2.131   1.716  1.00  0.00    -0.372 OA
ATOM     18  C   UNL     1      -0.838   0.603   3.389  1.00  0.00     0.066 C 
ATOM     19  C   UNL     1      -2.962   1.104   4.288  1.00  0.00     0.195 C 
ATOM     20  C   UNL     1      -0.832   0.689   4.899  1.00  0.00     0.163 C 
ATOM     21  O   UNL     1      -2.174   0.443   5.286  1.00  0.00    -0.378 OA
ENDBRANCH   7  12
ENDBRANCH   4   7
ENDBRANCH   2   3
ENDBRANCH   1   2
BRANCH   1  22
ATOM     22  C   UNL     1      -4.847   2.790   2.488  1.00  0.00     0.118 C 
BRANCH  22  23
ATOM     23  N   UNL     1      -4.936   3.853   1.511  1.00  0.00    -0.352 N 
ATOM     24  C   UNL     1      -5.423   5.125   1.749  1.00  0.00     0.251 C 
ATOM     25  H   UNL     1      -4.623   3.653   0.599  1.00  0.00     0.163 HD
ATOM     26  O   UNL     1      -5.334   6.002   0.896  1.00  0.00    -0.269 OA
BRANCH  24  27
ATOM     27  C   UNL     1      -6.128   5.387   3.029  1.00  0.00     0.039 A 
ATOM     28  C   UNL     1      -7.454   5.818   2.974  1.00  0.00     0.014 A 
ATOM     29  C   UNL     1      -5.538   5.085   4.261  1.00  0.00     0.014 A 
ATOM     30  C   UNL     1      -8.210   5.867   4.147  1.00  0.00     0.010 A 
ATOM     31  C   UNL     1      -6.325   5.034   5.411  1.00  0.00     0.010 A 
ATOM     32  C   UNL     1      -7.668   5.434   5.370  1.00  0.00    -0.014 A 
BRANCH  32  33
ATOM     33  C   UNL     1      -8.500   5.429   6.604  1.00  0.00     0.031 A 
ATOM     34  C   UNL     1      -8.125   6.304   7.772  1.00  0.00     0.074 A 
ATOM     35  C   UNL     1      -9.591   4.638   6.682  1.00  0.00     0.049 A 
ATOM     36  N   UNL     1      -8.763   6.490   8.900  1.00  0.00    -0.248 NA
ATOM     37  C   UNL     1      -6.859   7.050   7.673  1.00  0.00     0.031 C 
ATOM     38  C   UNL     1     -10.031   3.694   5.651  1.00  0.00     0.029 A 
ATOM     39  N   UNL     1     -10.539   4.511   7.668  1.00  0.00    -0.354 N 
ATOM     40  C   UNL     1      -7.975   7.365   9.640  1.00  0.00     0.074 A 
ATOM     41  C   UNL     1      -6.781   7.616   8.867  1.00  0.00     0.031 C 
ATOM     42  C   UNL     1     -11.186   3.126   6.036  1.00  0.00     0.029 A 
ATOM     43  C   UNL     1     -11.556   3.640   7.351  1.00  0.00     0.049 A 
ATOM     44  H   UNL     1     -10.494   4.998   8.523  1.00  0.00     0.167 HD
ATOM     45  C   UNL     1      -8.233   7.937  10.840  1.00  0.00     0.031 A 
ATOM     46  C   UNL     1     -12.670   3.305   8.033  1.00  0.00     0.031 A 
ATOM     47  C   UNL     1      -9.427   7.699  11.605  1.00  0.00     0.049 A 
ATOM     48  C   UNL     1     -12.945   3.964   9.358  1.00  0.00     0.074 A 
ATOM     49  C   UNL     1      -9.809   8.272  12.805  1.00  0.00     0.029 A 
ATOM     50  N   UNL     1     -10.434   6.817  11.244  1.00  0.00    -0.354 N 
ATOM     51  N   UNL     1     -12.227   4.855  10.001  1.00  0.00    -0.248 NA
ATOM     52  C   UNL     1     -14.192   3.590  10.040  1.00  0.00     0.031 C 
ATOM     53  C   UNL     1     -11.023   7.699  13.195  1.00  0.00     0.029 A 
ATOM     54  C   UNL     1     -11.428   6.815  12.207  1.00  0.00     0.049 A 
ATOM     55  H   UNL     1     -10.441   6.272  10.423  1.00  0.00     0.167 HD
ATOM     56  C   UNL     1     -12.949   5.168  11.148  1.00  0.00     0.074 A 
ATOM     57  C   UNL     1     -14.167   4.385  11.101  1.00  0.00     0.031 C 
ATOM     58  C   UNL     1     -12.634   6.029  12.147  1.00  0.00     0.031 A 
BRANCH  45  59
ATOM     59  C   UNL     1      -7.198   8.882  11.393  1.00  0.00    -0.014 A 
ATOM     60  C   UNL     1      -6.960  10.131  10.789  1.00  0.00     0.010 A 
ATOM     61  C   UNL     1      -6.471   8.530  12.543  1.00  0.00     0.010 A 
ATOM     62  C   UNL     1      -5.981  10.989  11.296  1.00  0.00     0.020 A 
ATOM     63  C   UNL     1      -5.512   9.399  13.073  1.00  0.00     0.020 A 
ATOM     64  C   UNL     1      -5.261  10.615  12.434  1.00  0.00     0.054 A 
BRANCH  64  65
ATOM     65  S   UNL     1      -4.009  11.757  13.081  1.00  0.00     0.124 S 
ATOM     66  O   UNL     1      -2.943  11.627  12.091  1.00  0.00    -0.237 OA
ATOM     67  O   UNL     1      -4.712  13.037  13.081  1.00  0.00    -0.237 OA
ATOM     68  O   UNL     1      -3.700  11.219  14.404  1.00  0.00    -0.744 OA
ENDBRANCH  64  65
ENDBRANCH  45  59
BRANCH  46  69
ATOM     69  C   UNL     1     -13.631   2.321   7.458  1.00  0.00    -0.014 A 
ATOM     70  C   UNL     1     -14.897   2.733   7.003  1.00  0.00     0.010 A 
ATOM     71  C   UNL     1     -13.282   0.962   7.359  1.00  0.00     0.010 A 
ATOM     72  C   UNL     1     -15.802   1.803   6.481  1.00  0.00     0.020 A 
ATOM     73  C   UNL     1     -14.172   0.033   6.812  1.00  0.00     0.020 A 
ATOM     74  C   UNL     1     -15.432   0.458   6.386  1.00  0.00     0.054 A 
BRANCH  74  75
ATOM     75  S   UNL     1     -16.601  -0.724   5.658  1.00  0.00     0.124 S 
ATOM     76  O   UNL     1     -17.594  -0.863   6.718  1.00  0.00    -0.237 OA
ATOM     77  O   UNL     1     -17.051  -0.023   4.457  1.00  0.00    -0.237 OA
ATOM     78  O   UNL     1     -15.780  -1.906   5.408  1.00  0.00    -0.744 OA
ENDBRANCH  74  75
ENDBRANCH  46  69
BRANCH  58  79
ATOM     79  C   UNL     1     -13.637   6.200  13.258  1.00  0.00    -0.014 A 
ATOM     80  C   UNL     1     -13.863   5.185  14.204  1.00  0.00     0.010 A 
ATOM     81  C   UNL     1     -14.328   7.420  13.383  1.00  0.00     0.010 A 
ATOM     82  C   UNL     1     -14.792   5.371  15.231  1.00  0.00     0.020 A 
ATOM     83  C   UNL     1     -15.235   7.621  14.425  1.00  0.00     0.020 A 
ATOM     84  C   UNL     1     -15.474   6.588  15.333  1.00  0.00     0.054 A 
BRANCH  84  85
ATOM     85  S   UNL     1     -16.653   6.816  16.692  1.00  0.00     0.124 S 
ATOM     86  O   UNL     1     -17.782   6.000  16.255  1.00  0.00    -0.237 OA
ATOM     87  O   UNL     1     -15.917   6.306  17.846  1.00  0.00    -0.237 OA
ATOM     88  O   UNL     1     -16.894   8.258  16.703  1.00  0.00    -0.744 OA
ENDBRANCH  84  85
ENDBRANCH  58  79
ENDBRANCH  32  33
ENDBRANCH  24  27
ENDBRANCH  22  23
ENDBRANCH   1  22
TORSDOF 16
