REMARK SMILES Cn1ccnc1NCCOCC(=O)NCCCNC(=O)c1ccc(-c2c3nc(c(-c4ccc(S(=O)(=O)[O-])cc4)c4ccc([nH]4)c(-c4ccc(S(=O)(=O)[O-])cc4)c4nc(c(-c5ccc(S(=O)(=O)[O-])cc5)c5ccc2[nH]5)C=C4)C=C3)cc1
REMARK SMILES IDX 15 1 14 2 12 3 13 4 11 6 10 7 9 8 8 9 7 10 6 12 1 13 2 14
REMARK SMILES IDX 3 15 4 16 5 17 16 18 17 19 18 20 19 21 20 23 21 24 22 25
REMARK SMILES IDX 80 26 23 27 79 28 24 29 25 30 26 31 73 32 27 33 78 34 72 35
REMARK SMILES IDX 74 36 28 37 77 38 71 39 70 40 29 42 59 43 40 44 58 45 41 46
REMARK SMILES IDX 44 47 57 48 75 49 42 50 43 51 56 53 76 54 45 55 30 56 31 57
REMARK SMILES IDX 39 58 32 59 38 60 33 61 34 62 35 63 36 64 37 65 60 66 61 67
REMARK SMILES IDX 69 68 62 69 68 70 63 71 64 72 65 73 66 74 67 75 46 76 47 77
REMARK SMILES IDX 55 78 48 79 54 80 49 81 50 82 51 83 52 84 53 85
REMARK H PARENT 14 5 7 11 18 22 74 41 44 52
REMARK Flexibility Score: inf
ROOT
ATOM      1  C   UNL     1       2.249   5.197   4.067  1.00  0.00     0.117 C 
ENDROOT
BRANCH   1   2
ATOM      2  N   UNL     1       2.133   3.778   3.786  1.00  0.00    -0.354 N 
ATOM      3  C   UNL     1       2.085   3.167   2.566  1.00  0.00     0.245 C 
ATOM      4  O   UNL     1       2.128   1.937   2.506  1.00  0.00    -0.272 OA
ATOM      5  H   UNL     1       2.082   3.184   4.570  1.00  0.00     0.163 HD
BRANCH   3   6
ATOM      6  C   UNL     1       2.013   4.037   1.305  1.00  0.00     0.260 C 
BRANCH   6   7
ATOM      7  O   UNL     1       0.850   4.823   1.113  1.00  0.00    -0.370 OA
BRANCH   7   8
ATOM      8  C   UNL     1      -0.385   4.089   1.091  1.00  0.00     0.182 C 
BRANCH   8   9
ATOM      9  C   UNL     1      -0.699   3.433  -0.265  1.00  0.00     0.144 C 
BRANCH   9  10
ATOM     10  N   UNL     1       0.140   2.270  -0.513  1.00  0.00    -0.353 N 
ATOM     11  H   UNL     1       1.036   2.395  -0.902  1.00  0.00     0.163 HD
BRANCH  10  12
ATOM     12  C   UNL     1      -0.287   1.028  -0.221  1.00  0.00     0.202 A 
ATOM     13  C   UNL     1       2.019  -0.017  -0.109  1.00  0.00     0.153 C 
ATOM     14  N   UNL     1       0.578  -0.036  -0.113  1.00  0.00    -0.321 N 
ATOM     15  C   UNL     1      -0.170  -1.169   0.077  1.00  0.00     0.109 A 
ATOM     16  C   UNL     1      -1.468  -0.726   0.138  1.00  0.00     0.133 A 
ATOM     17  N   UNL     1      -1.525   0.634  -0.023  1.00  0.00    -0.222 NA
ENDBRANCH  10  12
ENDBRANCH   9  10
ENDBRANCH   8   9
ENDBRANCH   7   8
ENDBRANCH   6   7
ENDBRANCH   3   6
ENDBRANCH   1   2
BRANCH   1  18
ATOM     18  C   UNL     1       1.019   5.772   4.755  1.00  0.00     0.042 C 
BRANCH  18  19
ATOM     19  C   UNL     1       0.696   5.140   6.105  1.00  0.00     0.118 C 
BRANCH  19  20
ATOM     20  N   UNL     1       1.796   5.232   7.056  1.00  0.00    -0.352 N 
ATOM     21  C   UNL     1       1.874   5.850   8.280  1.00  0.00     0.251 C 
ATOM     22  H   UNL     1       2.621   4.774   6.775  1.00  0.00     0.163 HD
ATOM     23  O   UNL     1       2.966   5.947   8.833  1.00  0.00    -0.269 OA
BRANCH  21  24
ATOM     24  C   UNL     1       0.667   6.413   8.924  1.00  0.00     0.039 A 
ATOM     25  C   UNL     1       0.768   7.642   9.584  1.00  0.00     0.014 A 
ATOM     26  C   UNL     1      -0.552   5.731   8.907  1.00  0.00     0.014 A 
ATOM     27  C   UNL     1      -0.367   8.216  10.161  1.00  0.00     0.010 A 
ATOM     28  C   UNL     1      -1.698   6.343   9.408  1.00  0.00     0.010 A 
ATOM     29  C   UNL     1      -1.619   7.591  10.043  1.00  0.00    -0.014 A 
BRANCH  29  30
ATOM     30  C   UNL     1      -2.853   8.236  10.563  1.00  0.00     0.031 A 
ATOM     31  C   UNL     1      -3.658   7.580  11.652  1.00  0.00     0.074 A 
ATOM     32  C   UNL     1      -3.285   9.384  10.006  1.00  0.00     0.049 A 
ATOM     33  N   UNL     1      -4.781   7.972  12.196  1.00  0.00    -0.248 NA
ATOM     34  C   UNL     1      -3.148   6.304  12.179  1.00  0.00     0.031 C 
ATOM     35  C   UNL     1      -2.626  10.092   8.905  1.00  0.00     0.029 A 
ATOM     36  N   UNL     1      -4.388  10.153  10.281  1.00  0.00    -0.354 N 
ATOM     37  C   UNL     1      -5.117   6.990  13.121  1.00  0.00     0.074 A 
ATOM     38  C   UNL     1      -4.111   5.955  13.019  1.00  0.00     0.031 C 
ATOM     39  C   UNL     1      -3.325  11.200   8.614  1.00  0.00     0.029 A 
ATOM     40  C   UNL     1      -4.501  11.262   9.476  1.00  0.00     0.049 A 
ATOM     41  H   UNL     1      -5.037   9.932  10.988  1.00  0.00     0.167 HD
ATOM     42  C   UNL     1      -6.155   6.960  13.992  1.00  0.00     0.031 A 
ATOM     43  C   UNL     1      -5.448  12.219   9.425  1.00  0.00     0.031 A 
ATOM     44  C   UNL     1      -7.160   7.986  14.084  1.00  0.00     0.049 A 
ATOM     45  C   UNL     1      -6.596  12.165  10.393  1.00  0.00     0.074 A 
ATOM     46  C   UNL     1      -8.227   8.072  14.961  1.00  0.00     0.029 A 
ATOM     47  N   UNL     1      -7.229   9.103  13.262  1.00  0.00    -0.354 N 
ATOM     48  N   UNL     1      -6.858  11.264  11.310  1.00  0.00    -0.248 NA
ATOM     49  C   UNL     1      -7.567  13.266  10.331  1.00  0.00     0.031 C 
ATOM     50  C   UNL     1      -8.972   9.211  14.635  1.00  0.00     0.029 A 
ATOM     51  C   UNL     1      -8.334   9.870  13.596  1.00  0.00     0.049 A 
ATOM     52  H   UNL     1      -6.588   9.318  12.547  1.00  0.00     0.167 HD
ATOM     53  C   UNL     1      -8.016  11.697  11.947  1.00  0.00     0.074 A 
ATOM     54  C   UNL     1      -8.389  12.952  11.324  1.00  0.00     0.031 C 
ATOM     55  C   UNL     1      -8.705  11.109  12.956  1.00  0.00     0.031 A 
BRANCH  42  56
ATOM     56  C   UNL     1      -6.251   5.765  14.907  1.00  0.00    -0.014 A 
ATOM     57  C   UNL     1      -5.293   5.543  15.915  1.00  0.00     0.010 A 
ATOM     58  C   UNL     1      -7.311   4.851  14.763  1.00  0.00     0.010 A 
ATOM     59  C   UNL     1      -5.357   4.400  16.716  1.00  0.00     0.020 A 
ATOM     60  C   UNL     1      -7.397   3.723  15.585  1.00  0.00     0.020 A 
ATOM     61  C   UNL     1      -6.404   3.492  16.540  1.00  0.00     0.054 A 
BRANCH  61  62
ATOM     62  S   UNL     1      -6.454   2.010  17.584  1.00  0.00     0.124 S 
ATOM     63  O   UNL     1      -5.369   1.210  17.021  1.00  0.00    -0.237 OA
ATOM     64  O   UNL     1      -6.208   2.549  18.919  1.00  0.00    -0.237 OA
ATOM     65  O   UNL     1      -7.797   1.478  17.368  1.00  0.00    -0.744 OA
ENDBRANCH  61  62
ENDBRANCH  42  56
BRANCH  43  66
ATOM     66  C   UNL     1      -5.331  13.310   8.420  1.00  0.00    -0.014 A 
ATOM     67  C   UNL     1      -4.985  14.615   8.814  1.00  0.00     0.010 A 
ATOM     68  C   UNL     1      -5.510  13.034   7.052  1.00  0.00     0.010 A 
ATOM     69  C   UNL     1      -4.822  15.623   7.858  1.00  0.00     0.020 A 
ATOM     70  C   UNL     1      -5.321  14.031   6.092  1.00  0.00     0.020 A 
ATOM     71  C   UNL     1      -4.983  15.322   6.502  1.00  0.00     0.054 A 
BRANCH  71  72
ATOM     72  S   UNL     1      -4.679  16.624   5.275  1.00  0.00     0.124 S 
ATOM     73  O   UNL     1      -5.851  17.478   5.441  1.00  0.00    -0.237 OA
ATOM     74  O   UNL     1      -3.412  17.193   5.727  1.00  0.00    -0.237 OA
ATOM     75  O   UNL     1      -4.609  15.894   4.011  1.00  0.00    -0.744 OA
ENDBRANCH  71  72
ENDBRANCH  43  66
BRANCH  55  76
ATOM     76  C   UNL     1      -9.928  11.826  13.466  1.00  0.00    -0.014 A 
ATOM     77  C   UNL     1     -11.104  11.900  12.698  1.00  0.00     0.010 A 
ATOM     78  C   UNL     1      -9.915  12.395  14.753  1.00  0.00     0.010 A 
ATOM     79  C   UNL     1     -12.231  12.562  13.193  1.00  0.00     0.020 A 
ATOM     80  C   UNL     1     -11.049  13.031  15.263  1.00  0.00     0.020 A 
ATOM     81  C   UNL     1     -12.196  13.124  14.473  1.00  0.00     0.054 A 
BRANCH  81  82
ATOM     82  S   UNL     1     -13.683  13.947  15.106  1.00  0.00     0.124 S 
ATOM     83  O   UNL     1     -13.700  15.183  14.329  1.00  0.00    -0.237 OA
ATOM     84  O   UNL     1     -14.740  12.989  14.787  1.00  0.00    -0.237 OA
ATOM     85  O   UNL     1     -13.409  14.110  16.532  1.00  0.00    -0.744 OA
ENDBRANCH  81  82
ENDBRANCH  55  76
ENDBRANCH  29  30
ENDBRANCH  21  24
ENDBRANCH  19  20
ENDBRANCH  18  19
ENDBRANCH   1  18
TORSDOF 18
