REMARK SMILES Cc1ccccc1/C=C1\SC(=S)N(CCC(=O)N[C@@H](C)C(=O)NCCCNC(=O)c2ccc(-c3c4nc(c(-c5ccc(S(=O)(=O)[O-])cc5)c5ccc([nH]5)c(-c5ccc(S(=O)(=O)[O-])cc5)c5nc(c(-c6ccc(S(=O)(=O)[O-])cc6)c6ccc3[nH]6)C=C5)C=C4)cc2)C1=O
REMARK SMILES IDX 24 1 23 2 21 3 22 4 19 6 20 7 18 8 16 9 17 10 15 12 14 13
REMARK SMILES IDX 13 14 8 15 9 16 10 17 90 18 11 19 91 20 12 21 7 22 1 23 2 24
REMARK SMILES IDX 3 25 4 26 6 27 5 28 25 29 26 30 27 31 28 32 29 34 30 35
REMARK SMILES IDX 31 36 89 37 32 38 88 39 33 40 34 41 35 42 82 43 36 44 87 45
REMARK SMILES IDX 81 46 83 47 37 48 86 49 80 50 79 51 38 53 68 54 49 55 67 56
REMARK SMILES IDX 50 57 53 58 66 59 84 60 51 61 52 62 65 64 85 65 54 66 39 67
REMARK SMILES IDX 40 68 48 69 41 70 47 71 42 72 43 73 44 74 45 75 46 76 69 77
REMARK SMILES IDX 70 78 78 79 71 80 77 81 72 82 73 83 74 84 75 85 76 86 55 87
REMARK SMILES IDX 56 88 64 89 57 90 63 91 58 92 59 93 60 94 61 95 62 96
REMARK H PARENT 23 5 18 11 27 33 83 52 53 63
REMARK Flexibility Score: inf
ROOT
ATOM      1  C   UNL     1      -1.226   4.253   0.637  1.00  0.00     0.117 C 
ENDROOT
BRANCH   1   2
ATOM      2  N   UNL     1      -1.311   4.748  -0.734  1.00  0.00    -0.354 N 
ATOM      3  C   UNL     1      -0.392   5.252  -1.598  1.00  0.00     0.242 C 
ATOM      4  O   UNL     1      -0.824   5.682  -2.676  1.00  0.00    -0.273 OA
ATOM      5  H   UNL     1      -2.220   4.709  -1.109  1.00  0.00     0.163 HD
BRANCH   3   6
ATOM      6  C   UNL     1       1.138   5.305  -1.338  1.00  0.00     0.168 C 
ATOM      7  C   UNL     1       1.702   4.805  -0.024  1.00  0.00     0.041 C 
BRANCH   6   8
ATOM      8  N   UNL     1       1.663   6.662  -1.518  1.00  0.00    -0.345 N 
ATOM      9  C   UNL     1       2.910   7.005  -1.954  1.00  0.00     0.222 C 
ATOM     10  O   UNL     1       3.422   8.051  -1.556  1.00  0.00    -0.275 OA
ATOM     11  H   UNL     1       1.052   7.403  -1.302  1.00  0.00     0.164 HD
BRANCH   9  12
ATOM     12  C   UNL     1       3.609   6.133  -2.981  1.00  0.00     0.122 C 
BRANCH  12  13
ATOM     13  C   UNL     1       4.577   5.075  -2.433  1.00  0.00     0.137 C 
BRANCH  13  14
ATOM     14  N   UNL     1       4.030   3.704  -2.429  1.00  0.00    -0.292 N 
ATOM     15  C   UNL     1       2.492   1.278  -0.320  1.00  0.00     0.029 C 
ATOM     16  C   UNL     1       3.071   1.830  -1.393  1.00  0.00     0.081 C 
ATOM     17  S   UNL     1       2.775   1.535  -3.052  1.00  0.00    -0.054 SA
ATOM     18  C   UNL     1       3.989   2.989  -1.244  1.00  0.00     0.266 C 
ATOM     19  C   UNL     1       3.632   2.996  -3.546  1.00  0.00     0.148 C 
ATOM     20  O   UNL     1       4.584   3.259  -0.211  1.00  0.00    -0.268 OA
ATOM     21  S   UNL     1       3.884   3.375  -5.151  1.00  0.00    -0.052 S 
BRANCH  15  22
ATOM     22  C   UNL     1       1.399   0.297  -0.311  1.00  0.00    -0.021 A 
ATOM     23  C   UNL     1       3.008  -1.596   0.214  1.00  0.00     0.045 C 
ATOM     24  C   UNL     1       1.623  -1.054   0.001  1.00  0.00    -0.044 A 
ATOM     25  C   UNL     1       0.524  -1.925   0.078  1.00  0.00     0.004 A 
ATOM     26  C   UNL     1      -0.778  -1.458  -0.112  1.00  0.00     0.000 A 
ATOM     27  C   UNL     1       0.087   0.751  -0.524  1.00  0.00     0.008 A 
ATOM     28  C   UNL     1      -0.997  -0.119  -0.413  1.00  0.00     0.001 A 
ENDBRANCH  15  22
ENDBRANCH  13  14
ENDBRANCH  12  13
ENDBRANCH   9  12
ENDBRANCH   6   8
ENDBRANCH   3   6
ENDBRANCH   1   2
BRANCH   1  29
ATOM     29  C   UNL     1      -1.024   5.386   1.639  1.00  0.00     0.042 C 
BRANCH  29  30
ATOM     30  C   UNL     1      -2.344   5.973   2.084  1.00  0.00     0.118 C 
BRANCH  30  31
ATOM     31  N   UNL     1      -2.674   5.699   3.470  1.00  0.00    -0.352 N 
ATOM     32  C   UNL     1      -3.756   6.239   4.157  1.00  0.00     0.251 C 
ATOM     33  H   UNL     1      -2.086   5.082   3.963  1.00  0.00     0.163 HD
ATOM     34  O   UNL     1      -3.804   6.360   5.356  1.00  0.00    -0.269 OA
BRANCH  32  35
ATOM     35  C   UNL     1      -4.949   6.485   3.312  1.00  0.00     0.039 A 
ATOM     36  C   UNL     1      -5.947   5.505   3.357  1.00  0.00     0.014 A 
ATOM     37  C   UNL     1      -4.866   7.395   2.263  1.00  0.00     0.014 A 
ATOM     38  C   UNL     1      -6.776   5.329   2.254  1.00  0.00     0.010 A 
ATOM     39  C   UNL     1      -5.603   7.134   1.125  1.00  0.00     0.010 A 
ATOM     40  C   UNL     1      -6.533   6.083   1.109  1.00  0.00    -0.014 A 
BRANCH  40  41
ATOM     41  C   UNL     1      -7.211   5.866  -0.164  1.00  0.00     0.031 A 
ATOM     42  C   UNL     1      -8.253   6.838  -0.572  1.00  0.00     0.074 A 
ATOM     43  C   UNL     1      -6.856   4.851  -0.984  1.00  0.00     0.049 A 
ATOM     44  N   UNL     1      -9.169   6.620  -1.453  1.00  0.00    -0.248 NA
ATOM     45  C   UNL     1      -8.378   8.145   0.069  1.00  0.00     0.031 C 
ATOM     46  C   UNL     1      -7.231   4.693  -2.388  1.00  0.00     0.029 A 
ATOM     47  N   UNL     1      -6.262   3.630  -0.656  1.00  0.00    -0.354 N 
ATOM     48  C   UNL     1      -9.796   7.822  -1.704  1.00  0.00     0.074 A 
ATOM     49  C   UNL     1      -9.330   8.713  -0.671  1.00  0.00     0.031 C 
ATOM     50  C   UNL     1      -7.152   3.392  -2.708  1.00  0.00     0.029 A 
ATOM     51  C   UNL     1      -6.869   2.666  -1.482  1.00  0.00     0.049 A 
ATOM     52  H   UNL     1      -5.560   3.475   0.016  1.00  0.00     0.167 HD
ATOM     53  C   UNL     1     -10.534   7.973  -2.840  1.00  0.00     0.031 A 
ATOM     54  C   UNL     1      -7.596   1.608  -1.013  1.00  0.00     0.031 A 
ATOM     55  C   UNL     1     -10.709   6.696  -3.528  1.00  0.00     0.049 A 
ATOM     56  C   UNL     1      -9.028   1.610  -1.515  1.00  0.00     0.074 A 
ATOM     57  C   UNL     1     -10.075   6.106  -4.609  1.00  0.00     0.029 A 
ATOM     58  N   UNL     1     -11.438   5.691  -2.902  1.00  0.00    -0.354 N 
ATOM     59  N   UNL     1      -9.597   2.635  -2.089  1.00  0.00    -0.248 NA
ATOM     60  C   UNL     1      -9.944   0.481  -1.365  1.00  0.00     0.031 C 
ATOM     61  C   UNL     1     -10.330   4.709  -4.552  1.00  0.00     0.029 A 
ATOM     62  C   UNL     1     -11.153   4.462  -3.466  1.00  0.00     0.049 A 
ATOM     63  H   UNL     1     -12.070   5.835  -2.161  1.00  0.00     0.167 HD
ATOM     64  C   UNL     1     -10.907   2.345  -2.360  1.00  0.00     0.074 A 
ATOM     65  C   UNL     1     -11.073   0.976  -1.903  1.00  0.00     0.031 C 
ATOM     66  C   UNL     1     -11.756   3.253  -2.921  1.00  0.00     0.031 A 
BRANCH  53  67
ATOM     67  C   UNL     1     -10.840   9.322  -3.464  1.00  0.00    -0.014 A 
ATOM     68  C   UNL     1     -11.084   9.406  -4.851  1.00  0.00     0.010 A 
ATOM     69  C   UNL     1     -10.813  10.549  -2.774  1.00  0.00     0.010 A 
ATOM     70  C   UNL     1     -11.193  10.639  -5.518  1.00  0.00     0.020 A 
ATOM     71  C   UNL     1     -10.887  11.788  -3.427  1.00  0.00     0.020 A 
ATOM     72  C   UNL     1     -11.063  11.827  -4.802  1.00  0.00     0.054 A 
BRANCH  72  73
ATOM     73  S   UNL     1     -11.115  13.411  -5.678  1.00  0.00     0.124 S 
ATOM     74  O   UNL     1     -10.031  13.271  -6.648  1.00  0.00    -0.237 OA
ATOM     75  O   UNL     1     -12.464  13.417  -6.235  1.00  0.00    -0.237 OA
ATOM     76  O   UNL     1     -10.875  14.398  -4.626  1.00  0.00    -0.744 OA
ENDBRANCH  72  73
ENDBRANCH  53  67
BRANCH  54  77
ATOM     77  C   UNL     1      -7.157   1.109   0.321  1.00  0.00    -0.014 A 
ATOM     78  C   UNL     1      -5.905   0.458   0.385  1.00  0.00     0.010 A 
ATOM     79  C   UNL     1      -7.694   1.666   1.494  1.00  0.00     0.010 A 
ATOM     80  C   UNL     1      -5.117   0.548   1.534  1.00  0.00     0.020 A 
ATOM     81  C   UNL     1      -6.905   1.752   2.651  1.00  0.00     0.020 A 
ATOM     82  C   UNL     1      -5.593   1.268   2.630  1.00  0.00     0.054 A 
BRANCH  82  83
ATOM     83  S   UNL     1      -4.407   1.734   3.929  1.00  0.00     0.124 S 
ATOM     84  O   UNL     1      -3.844   0.446   4.318  1.00  0.00    -0.237 OA
ATOM     85  O   UNL     1      -3.496   2.627   3.208  1.00  0.00    -0.237 OA
ATOM     86  O   UNL     1      -5.245   2.385   4.929  1.00  0.00    -0.744 OA
ENDBRANCH  82  83
ENDBRANCH  54  77
BRANCH  66  87
ATOM     87  C   UNL     1     -13.245   3.071  -3.063  1.00  0.00    -0.014 A 
ATOM     88  C   UNL     1     -14.026   2.320  -2.171  1.00  0.00     0.010 A 
ATOM     89  C   UNL     1     -13.927   3.809  -4.060  1.00  0.00     0.010 A 
ATOM     90  C   UNL     1     -15.421   2.257  -2.305  1.00  0.00     0.020 A 
ATOM     91  C   UNL     1     -15.319   3.786  -4.176  1.00  0.00     0.020 A 
ATOM     92  C   UNL     1     -16.058   2.988  -3.310  1.00  0.00     0.054 A 
BRANCH  92  93
ATOM     93  S   UNL     1     -17.864   2.952  -3.440  1.00  0.00     0.124 S 
ATOM     94  O   UNL     1     -18.078   1.811  -4.326  1.00  0.00    -0.237 OA
ATOM     95  O   UNL     1     -18.291   2.758  -2.056  1.00  0.00    -0.237 OA
ATOM     96  O   UNL     1     -18.190   4.258  -4.008  1.00  0.00    -0.744 OA
ENDBRANCH  92  93
ENDBRANCH  66  87
ENDBRANCH  40  41
ENDBRANCH  32  35
ENDBRANCH  30  31
ENDBRANCH  29  30
ENDBRANCH   1  29
TORSDOF 18
