REMARK SMILES C[C@@H]1CC[C@H](C)[N@H+]1Cc1cc2c(cc1Cl)C=C(C(=O)NCCCNC(=O)c1ccc(-c3c4nc(c(-c5ccc(S(=O)(=O)[O-])cc5)c5ccc([nH]5)c(-c5ccc(S(=O)(=O)[O-])cc5)c5nc(c(-c6ccc(S(=O)(=O)[O-])cc6)c6ccc3[nH]6)C=C5)C=C4)cc1)[C@@H](C(F)(F)F)O2
REMARK SMILES IDX 22 1 21 2 20 3 18 4 19 5 17 7 9 8 10 9 14 10 11 11 13 12
REMARK SMILES IDX 15 13 12 14 92 15 16 16 87 17 8 18 7 19 6 20 5 21 4 22 3 23
REMARK SMILES IDX 2 24 1 26 88 27 89 28 90 29 91 30 23 31 24 32 25 33 26 35
REMARK SMILES IDX 27 36 28 37 86 38 29 39 85 40 30 41 31 42 32 43 79 44 33 45
REMARK SMILES IDX 84 46 78 47 80 48 34 49 83 50 77 51 76 52 35 54 65 55 46 56
REMARK SMILES IDX 64 57 47 58 50 59 63 60 81 61 48 62 49 63 62 65 82 66 51 67
REMARK SMILES IDX 36 68 37 69 45 70 38 71 44 72 39 73 40 74 41 75 42 76 43 77
REMARK SMILES IDX 66 78 67 79 75 80 68 81 74 82 69 83 70 84 71 85 72 86 73 87
REMARK SMILES IDX 52 88 53 89 61 90 54 91 60 92 55 93 56 94 57 95 58 96 59 97
REMARK H PARENT 20 6 7 25 24 34 80 53 50 64
REMARK Flexibility Score: inf
ROOT
ATOM      1  C   UNL     1      -9.104   0.561   2.760  1.00  0.00     0.042 C 
ENDROOT
BRANCH   1   2
ATOM      2  C   UNL     1      -8.463   0.922   4.090  1.00  0.00     0.118 C 
BRANCH   2   3
ATOM      3  N   UNL     1      -8.026  -0.264   4.811  1.00  0.00    -0.352 N 
ATOM      4  C   UNL     1      -6.854  -0.869   5.103  1.00  0.00     0.251 C 
ATOM      5  O   UNL     1      -6.952  -1.915   5.752  1.00  0.00    -0.270 OA
ATOM      6  H   UNL     1      -8.790  -0.758   5.187  1.00  0.00     0.163 HD
BRANCH   4   7
ATOM      7  C   UNL     1      -5.511  -0.363   4.717  1.00  0.00     0.067 C 
ATOM      8  C   UNL     1      -0.540   0.228   4.098  1.00  0.00     0.029 A 
ATOM      9  C   UNL     1      -1.681   0.635   3.379  1.00  0.00     0.058 A 
ATOM     10  C   UNL     1      -0.740  -0.487   5.292  1.00  0.00     0.050 A 
ATOM     11  C   UNL     1      -2.954   0.263   3.795  1.00  0.00     0.128 A 
ATOM     12  C   UNL     1      -2.018  -0.931   5.658  1.00  0.00     0.033 A 
ATOM     13  Cl  UNL     1       0.527  -0.792   6.429  1.00  0.00    -0.084 Cl
ATOM     14  C   UNL     1      -3.125  -0.573   4.896  1.00  0.00     0.019 A 
ATOM     15  O   UNL     1      -4.019   0.737   3.078  1.00  0.00    -0.475 OA
ATOM     16  C   UNL     1      -4.464  -1.043   5.222  1.00  0.00     0.025 C 
ATOM     17  C   UNL     1      -5.253   0.839   3.851  1.00  0.00     0.314 C 
BRANCH   8  18
ATOM     18  C   UNL     1       0.824   0.566   3.525  1.00  0.00     0.301 C 
BRANCH  18  19
ATOM     19  N   UNL     1       1.424  -0.424   2.615  1.00  0.00    -0.327 N 
ATOM     20  C   UNL     1       1.043   0.103   0.224  1.00  0.00     0.075 C 
ATOM     21  C   UNL     1       0.651  -0.768   1.409  1.00  0.00     0.181 C 
ATOM     22  C   UNL     1       0.948  -2.244   1.150  1.00  0.00     0.071 C 
ATOM     23  C   UNL     1       1.169  -2.789   2.545  1.00  0.00     0.071 C 
ATOM     24  C   UNL     1       1.905  -1.657   3.248  1.00  0.00     0.181 C 
ATOM     25  H   UNL     1       2.234   0.113   2.305  1.00  0.00     0.348 HD
ATOM     26  C   UNL     1       3.420  -1.746   3.062  1.00  0.00     0.075 C 
ENDBRANCH  18  19
ENDBRANCH   8  18
BRANCH  17  27
ATOM     27  C   UNL     1      -5.270   2.152   4.668  1.00  0.00     0.429 C 
ATOM     28  F   UNL     1      -5.421   3.223   3.853  1.00  0.00    -0.167 F 
ATOM     29  F   UNL     1      -6.297   2.193   5.553  1.00  0.00    -0.167 F 
ATOM     30  F   UNL     1      -4.141   2.346   5.387  1.00  0.00    -0.167 F 
ENDBRANCH  17  27
ENDBRANCH   4   7
ENDBRANCH   2   3
ENDBRANCH   1   2
BRANCH   1  31
ATOM     31  C   UNL     1     -10.491  -0.041   2.939  1.00  0.00     0.118 C 
BRANCH  31  32
ATOM     32  N   UNL     1     -11.457   0.943   3.422  1.00  0.00    -0.352 N 
ATOM     33  C   UNL     1     -12.481   1.579   2.754  1.00  0.00     0.251 C 
ATOM     34  H   UNL     1     -11.361   1.190   4.371  1.00  0.00     0.163 HD
ATOM     35  O   UNL     1     -13.034   2.546   3.254  1.00  0.00    -0.269 OA
BRANCH  33  36
ATOM     36  C   UNL     1     -12.880   1.089   1.419  1.00  0.00     0.039 A 
ATOM     37  C   UNL     1     -13.009  -0.281   1.194  1.00  0.00     0.014 A 
ATOM     38  C   UNL     1     -13.086   1.998   0.379  1.00  0.00     0.014 A 
ATOM     39  C   UNL     1     -13.124  -0.751  -0.105  1.00  0.00     0.010 A 
ATOM     40  C   UNL     1     -13.319   1.521  -0.915  1.00  0.00     0.010 A 
ATOM     41  C   UNL     1     -13.280   0.142  -1.177  1.00  0.00    -0.014 A 
BRANCH  41  42
ATOM     42  C   UNL     1     -13.389  -0.397  -2.557  1.00  0.00     0.031 A 
ATOM     43  C   UNL     1     -12.351  -0.064  -3.596  1.00  0.00     0.074 A 
ATOM     44  C   UNL     1     -14.388  -1.254  -2.846  1.00  0.00     0.049 A 
ATOM     45  N   UNL     1     -12.289  -0.453  -4.844  1.00  0.00    -0.248 NA
ATOM     46  C   UNL     1     -11.240   0.815  -3.191  1.00  0.00     0.031 C 
ATOM     47  C   UNL     1     -15.429  -1.679  -1.905  1.00  0.00     0.029 A 
ATOM     48  N   UNL     1     -14.673  -1.954  -3.991  1.00  0.00    -0.354 N 
ATOM     49  C   UNL     1     -11.156   0.151  -5.377  1.00  0.00     0.074 A 
ATOM     50  C   UNL     1     -10.568   0.951  -4.327  1.00  0.00     0.031 C 
ATOM     51  C   UNL     1     -16.188  -2.619  -2.483  1.00  0.00     0.029 A 
ATOM     52  C   UNL     1     -15.751  -2.799  -3.864  1.00  0.00     0.049 A 
ATOM     53  H   UNL     1     -14.156  -1.861  -4.823  1.00  0.00     0.167 HD
ATOM     54  C   UNL     1     -10.651   0.037  -6.627  1.00  0.00     0.031 A 
ATOM     55  C   UNL     1     -16.343  -3.615  -4.758  1.00  0.00     0.031 A 
ATOM     56  C   UNL     1     -11.229  -0.787  -7.655  1.00  0.00     0.049 A 
ATOM     57  C   UNL     1     -15.796  -3.681  -6.152  1.00  0.00     0.074 A 
ATOM     58  C   UNL     1     -10.778  -0.980  -8.950  1.00  0.00     0.029 A 
ATOM     59  N   UNL     1     -12.371  -1.560  -7.509  1.00  0.00    -0.354 N 
ATOM     60  N   UNL     1     -14.735  -3.085  -6.641  1.00  0.00    -0.248 NA
ATOM     61  C   UNL     1     -16.526  -4.510  -7.119  1.00  0.00     0.031 C 
ATOM     62  C   UNL     1     -11.681  -1.820  -9.604  1.00  0.00     0.029 A 
ATOM     63  C   UNL     1     -12.658  -2.206  -8.699  1.00  0.00     0.049 A 
ATOM     64  H   UNL     1     -12.900  -1.637  -6.682  1.00  0.00     0.167 HD
ATOM     65  C   UNL     1     -14.672  -3.462  -7.976  1.00  0.00     0.074 A 
ATOM     66  C   UNL     1     -15.786  -4.360  -8.211  1.00  0.00     0.031 C 
ATOM     67  C   UNL     1     -13.777  -3.088  -8.921  1.00  0.00     0.031 A 
BRANCH  54  68
ATOM     68  C   UNL     1      -9.412   0.820  -6.978  1.00  0.00    -0.014 A 
ATOM     69  C   UNL     1      -9.498   1.879  -7.902  1.00  0.00     0.010 A 
ATOM     70  C   UNL     1      -8.148   0.433  -6.498  1.00  0.00     0.010 A 
ATOM     71  C   UNL     1      -8.343   2.514  -8.366  1.00  0.00     0.020 A 
ATOM     72  C   UNL     1      -6.992   1.084  -6.940  1.00  0.00     0.020 A 
ATOM     73  C   UNL     1      -7.095   2.105  -7.889  1.00  0.00     0.054 A 
BRANCH  73  74
ATOM     74  S   UNL     1      -5.603   2.922  -8.521  1.00  0.00     0.124 S 
ATOM     75  O   UNL     1      -5.458   2.320  -9.843  1.00  0.00    -0.237 OA
ATOM     76  O   UNL     1      -5.980   4.333  -8.506  1.00  0.00    -0.237 OA
ATOM     77  O   UNL     1      -4.576   2.553  -7.549  1.00  0.00    -0.744 OA
ENDBRANCH  73  74
ENDBRANCH  54  68
BRANCH  55  78
ATOM     78  C   UNL     1     -17.526  -4.413  -4.332  1.00  0.00    -0.014 A 
ATOM     79  C   UNL     1     -18.728  -3.766  -3.984  1.00  0.00     0.010 A 
ATOM     80  C   UNL     1     -17.425  -5.804  -4.161  1.00  0.00     0.010 A 
ATOM     81  C   UNL     1     -19.778  -4.481  -3.405  1.00  0.00     0.020 A 
ATOM     82  C   UNL     1     -18.488  -6.529  -3.611  1.00  0.00     0.020 A 
ATOM     83  C   UNL     1     -19.643  -5.856  -3.204  1.00  0.00     0.054 A 
BRANCH  83  84
ATOM     84  S   UNL     1     -20.990  -6.753  -2.385  1.00  0.00     0.124 S 
ATOM     85  O   UNL     1     -20.770  -6.406  -0.984  1.00  0.00    -0.237 OA
ATOM     86  O   UNL     1     -22.182  -6.173  -2.997  1.00  0.00    -0.237 OA
ATOM     87  O   UNL     1     -20.730  -8.148  -2.733  1.00  0.00    -0.744 OA
ENDBRANCH  83  84
ENDBRANCH  55  78
BRANCH  67  88
ATOM     88  C   UNL     1     -13.954  -3.622 -10.316  1.00  0.00    -0.014 A 
ATOM     89  C   UNL     1     -13.024  -4.540 -10.837  1.00  0.00     0.010 A 
ATOM     90  C   UNL     1     -14.951  -3.098 -11.157  1.00  0.00     0.010 A 
ATOM     91  C   UNL     1     -13.057  -4.889 -12.188  1.00  0.00     0.020 A 
ATOM     92  C   UNL     1     -15.003  -3.466 -12.504  1.00  0.00     0.020 A 
ATOM     93  C   UNL     1     -14.037  -4.336 -13.017  1.00  0.00     0.054 A 
BRANCH  93  94
ATOM     94  S   UNL     1     -14.029  -4.755 -14.781  1.00  0.00     0.124 S 
ATOM     95  O   UNL     1     -12.927  -3.942 -15.284  1.00  0.00    -0.237 OA
ATOM     96  O   UNL     1     -13.794  -6.197 -14.767  1.00  0.00    -0.237 OA
ATOM     97  O   UNL     1     -15.360  -4.354 -15.234  1.00  0.00    -0.744 OA
ENDBRANCH  93  94
ENDBRANCH  67  88
ENDBRANCH  41  42
ENDBRANCH  33  36
ENDBRANCH  31  32
ENDBRANCH   1  31
TORSDOF 16
