REMARK SMILES CS(=O)(=O)c1ccc(N2N=C(C(=O)NCCCNC(=O)c3ccc(-c4c5nc(c(-c6ccc(S(=O)(=O)[O-])cc6)c6ccc([nH]6)c(-c6ccc(S(=O)(=O)[O-])cc6)c6nc(c(-c7ccc(S(=O)(=O)[O-])cc7)c7ccc4[nH]7)C=C6)C=C5)cc3)C[C@H]2c2cccs2)cc1
REMARK SMILES IDX 16 1 15 2 14 3 12 4 13 5 11 7 9 8 10 9 82 10 81 11 8 12 5 13
REMARK SMILES IDX 6 14 89 15 7 16 88 17 2 18 1 19 3 20 4 21 83 22 84 23 87 24
REMARK SMILES IDX 85 25 86 26 17 27 18 28 19 29 20 31 21 32 22 33 80 34 23 35
REMARK SMILES IDX 79 36 24 37 25 38 26 39 73 40 27 41 78 42 72 43 74 44 28 45
REMARK SMILES IDX 77 46 71 47 70 48 29 50 59 51 40 52 58 53 41 54 44 55 57 56
REMARK SMILES IDX 75 57 42 58 43 59 56 61 76 62 45 63 30 64 31 65 39 66 32 67
REMARK SMILES IDX 38 68 33 69 34 70 35 71 36 72 37 73 60 74 61 75 69 76 62 77
REMARK SMILES IDX 68 78 63 79 64 80 65 81 66 82 67 83 46 84 47 85 55 86 48 87
REMARK SMILES IDX 54 88 49 89 50 90 51 91 52 92 53 93
REMARK H PARENT 14 6 18 30 74 49 44 60
REMARK Flexibility Score: inf
ROOT
ATOM      1  C   UNL     1       4.442  10.205  -6.505  1.00  0.00     0.042 C 
ENDROOT
BRANCH   1   2
ATOM      2  C   UNL     1       2.997   9.752  -6.360  1.00  0.00     0.118 C 
BRANCH   2   3
ATOM      3  N   UNL     1       2.709   8.612  -7.209  1.00  0.00    -0.351 N 
ATOM      4  C   UNL     1       2.499   7.275  -6.996  1.00  0.00     0.267 C 
ATOM      5  O   UNL     1       2.342   6.567  -7.989  1.00  0.00    -0.268 OA
ATOM      6  H   UNL     1       2.650   8.856  -8.161  1.00  0.00     0.163 HD
BRANCH   4   7
ATOM      7  C   UNL     1       2.400   6.625  -5.624  1.00  0.00     0.128 C 
ATOM      8  N   UNL     1       1.874   5.166  -4.168  1.00  0.00    -0.256 N 
ATOM      9  N   UNL     1       1.919   5.423  -5.497  1.00  0.00    -0.171 NA
ATOM     10  C   UNL     1       2.379   6.244  -3.322  1.00  0.00     0.154 C 
ATOM     11  C   UNL     1       2.875   7.258  -4.357  1.00  0.00     0.097 C 
BRANCH   8  12
ATOM     12  C   UNL     1       1.542   3.909  -3.691  1.00  0.00     0.060 A 
ATOM     13  C   UNL     1       0.914   1.420  -2.566  1.00  0.00     0.067 A 
ATOM     14  C   UNL     1       2.049   1.548  -3.370  1.00  0.00     0.022 A 
ATOM     15  C   UNL     1       0.061   2.502  -2.363  1.00  0.00     0.022 A 
ATOM     16  C   UNL     1       2.354   2.793  -3.933  1.00  0.00     0.029 A 
ATOM     17  C   UNL     1       0.379   3.734  -2.929  1.00  0.00     0.029 A 
BRANCH  13  18
ATOM     18  S   UNL     1       0.511  -0.133  -1.809  1.00  0.00     0.175 S 
ATOM     19  C   UNL     1       1.154   0.045  -0.165  1.00  0.00     0.163 C 
ATOM     20  O   UNL     1       1.273  -1.173  -2.477  1.00  0.00    -0.224 OA
ATOM     21  O   UNL     1      -0.934  -0.214  -1.716  1.00  0.00    -0.224 OA
ENDBRANCH  13  18
ENDBRANCH   8  12
BRANCH  10  22
ATOM     22  C   UNL     1       1.397   6.808  -2.299  1.00  0.00     0.030 A 
ATOM     23  C   UNL     1       1.188   6.337  -1.012  1.00  0.00     0.017 A 
ATOM     24  S   UNL     1       0.321   8.107  -2.640  1.00  0.00    -0.147 S 
ATOM     25  C   UNL     1       0.177   7.055  -0.312  1.00  0.00     0.012 A 
ATOM     26  C   UNL     1      -0.337   8.082  -1.067  1.00  0.00     0.065 A 
ENDBRANCH  10  22
ENDBRANCH   4   7
ENDBRANCH   2   3
ENDBRANCH   1   2
BRANCH   1  27
ATOM     27  C   UNL     1       4.674  10.999  -7.784  1.00  0.00     0.118 C 
BRANCH  27  28
ATOM     28  N   UNL     1       3.922  12.250  -7.790  1.00  0.00    -0.352 N 
ATOM     29  C   UNL     1       4.359  13.550  -7.732  1.00  0.00     0.251 C 
ATOM     30  H   UNL     1       2.945  12.145  -7.844  1.00  0.00     0.163 HD
ATOM     31  O   UNL     1       3.555  14.444  -7.482  1.00  0.00    -0.269 OA
BRANCH  29  32
ATOM     32  C   UNL     1       5.783  13.868  -7.960  1.00  0.00     0.039 A 
ATOM     33  C   UNL     1       6.388  14.868  -7.195  1.00  0.00     0.014 A 
ATOM     34  C   UNL     1       6.515  13.197  -8.941  1.00  0.00     0.014 A 
ATOM     35  C   UNL     1       7.746  15.143  -7.370  1.00  0.00     0.010 A 
ATOM     36  C   UNL     1       7.886  13.399  -9.042  1.00  0.00     0.010 A 
ATOM     37  C   UNL     1       8.515  14.382  -8.266  1.00  0.00    -0.014 A 
BRANCH  37  38
ATOM     38  C   UNL     1       9.975  14.600  -8.415  1.00  0.00     0.031 A 
ATOM     39  C   UNL     1      10.542  15.016  -9.747  1.00  0.00     0.074 A 
ATOM     40  C   UNL     1      10.795  14.358  -7.372  1.00  0.00     0.049 A 
ATOM     41  N   UNL     1      11.792  15.177 -10.095  1.00  0.00    -0.248 NA
ATOM     42  C   UNL     1       9.582  15.257 -10.839  1.00  0.00     0.031 C 
ATOM     43  C   UNL     1      10.369  13.910  -6.043  1.00  0.00     0.029 A 
ATOM     44  N   UNL     1      12.160  14.449  -7.267  1.00  0.00    -0.354 N 
ATOM     45  C   UNL     1      11.769  15.523 -11.441  1.00  0.00     0.074 A 
ATOM     46  C   UNL     1      10.387  15.492 -11.864  1.00  0.00     0.031 C 
ATOM     47  C   UNL     1      11.447  13.793  -5.251  1.00  0.00     0.029 A 
ATOM     48  C   UNL     1      12.643  14.109  -6.024  1.00  0.00     0.049 A 
ATOM     49  H   UNL     1      12.740  14.731  -8.011  1.00  0.00     0.167 HD
ATOM     50  C   UNL     1      12.802  15.863 -12.247  1.00  0.00     0.031 A 
ATOM     51  C   UNL     1      13.907  14.045  -5.563  1.00  0.00     0.031 A 
ATOM     52  C   UNL     1      14.174  15.907 -11.818  1.00  0.00     0.049 A 
ATOM     53  C   UNL     1      15.039  14.406  -6.487  1.00  0.00     0.074 A 
ATOM     54  C   UNL     1      15.290  16.283 -12.546  1.00  0.00     0.029 A 
ATOM     55  N   UNL     1      14.619  15.566 -10.550  1.00  0.00    -0.354 N 
ATOM     56  N   UNL     1      14.989  14.791  -7.740  1.00  0.00    -0.248 NA
ATOM     57  C   UNL     1      16.397  14.337  -5.931  1.00  0.00     0.031 C 
ATOM     58  C   UNL     1      16.416  16.116 -11.734  1.00  0.00     0.029 A 
ATOM     59  C   UNL     1      15.995  15.702 -10.480  1.00  0.00     0.049 A 
ATOM     60  H   UNL     1      14.042  15.271  -9.809  1.00  0.00     0.167 HD
ATOM     61  C   UNL     1      16.305  15.041  -8.111  1.00  0.00     0.074 A 
ATOM     62  C   UNL     1      17.125  14.782  -6.945  1.00  0.00     0.031 C 
ATOM     63  C   UNL     1      16.794  15.448  -9.309  1.00  0.00     0.031 A 
BRANCH  50  64
ATOM     64  C   UNL     1      12.490  16.225 -13.676  1.00  0.00    -0.014 A 
ATOM     65  C   UNL     1      11.811  17.416 -13.989  1.00  0.00     0.010 A 
ATOM     66  C   UNL     1      12.940  15.400 -14.723  1.00  0.00     0.010 A 
ATOM     67  C   UNL     1      11.564  17.763 -15.320  1.00  0.00     0.020 A 
ATOM     68  C   UNL     1      12.721  15.758 -16.057  1.00  0.00     0.020 A 
ATOM     69  C   UNL     1      12.025  16.933 -16.346  1.00  0.00     0.054 A 
BRANCH  69  70
ATOM     70  S   UNL     1      11.735  17.437 -18.063  1.00  0.00     0.124 S 
ATOM     71  O   UNL     1      10.292  17.251 -18.192  1.00  0.00    -0.237 OA
ATOM     72  O   UNL     1      12.192  18.825 -18.069  1.00  0.00    -0.237 OA
ATOM     73  O   UNL     1      12.554  16.511 -18.841  1.00  0.00    -0.744 OA
ENDBRANCH  69  70
ENDBRANCH  50  64
BRANCH  51  74
ATOM     74  C   UNL     1      14.174  13.620  -4.160  1.00  0.00    -0.014 A 
ATOM     75  C   UNL     1      14.696  14.528  -3.222  1.00  0.00     0.010 A 
ATOM     76  C   UNL     1      13.921  12.295  -3.759  1.00  0.00     0.010 A 
ATOM     77  C   UNL     1      14.996  14.111  -1.921  1.00  0.00     0.020 A 
ATOM     78  C   UNL     1      14.187  11.883  -2.451  1.00  0.00     0.020 A 
ATOM     79  C   UNL     1      14.740  12.789  -1.545  1.00  0.00     0.054 A 
BRANCH  79  80
ATOM     80  S   UNL     1      15.117  12.274   0.153  1.00  0.00     0.124 S 
ATOM     81  O   UNL     1      16.575  12.227   0.140  1.00  0.00    -0.237 OA
ATOM     82  O   UNL     1      14.523  13.347   0.947  1.00  0.00    -0.237 OA
ATOM     83  O   UNL     1      14.449  10.979   0.273  1.00  0.00    -0.744 OA
ENDBRANCH  79  80
ENDBRANCH  51  74
BRANCH  63  84
ATOM     84  C   UNL     1      18.277  15.686  -9.410  1.00  0.00    -0.014 A 
ATOM     85  C   UNL     1      19.193  14.619  -9.393  1.00  0.00     0.010 A 
ATOM     86  C   UNL     1      18.756  16.998  -9.582  1.00  0.00     0.010 A 
ATOM     87  C   UNL     1      20.563  14.865  -9.512  1.00  0.00     0.020 A 
ATOM     88  C   UNL     1      20.122  17.244  -9.734  1.00  0.00     0.020 A 
ATOM     89  C   UNL     1      21.019  16.176  -9.683  1.00  0.00     0.054 A 
BRANCH  89  90
ATOM     90  S   UNL     1      22.798  16.462  -9.879  1.00  0.00     0.124 S 
ATOM     91  O   UNL     1      23.297  16.212  -8.530  1.00  0.00    -0.237 OA
ATOM     92  O   UNL     1      23.173  15.467 -10.881  1.00  0.00    -0.237 OA
ATOM     93  O   UNL     1      22.880  17.850 -10.327  1.00  0.00    -0.744 OA
ENDBRANCH  89  90
ENDBRANCH  63  84
ENDBRANCH  37  38
ENDBRANCH  29  32
ENDBRANCH  27  28
ENDBRANCH   1  27
TORSDOF 16
