REMARK SMILES NC(=O)c1c(-c2ccc(Cl)cc2)csc1NC(=O)[C@H]1[C@@H](C(=O)NCCCNC(=O)c2ccc(-c3c4nc(c(-c5ccc(S(=O)(=O)[O-])cc5)c5ccc([nH]5)c(-c5ccc(S(=O)(=O)[O-])cc5)c5nc(c(-c6ccc(S(=O)(=O)[O-])cc6)c6ccc3[nH]6)C=C5)C=C4)cc2)[C@@H]2CC[C@H]1O2
REMARK SMILES IDX 25 1 24 2 23 3 21 4 22 5 20 7 19 8 93 9 90 10 92 11 94 12
REMARK SMILES IDX 91 13 17 14 16 15 18 17 15 18 4 19 5 20 13 21 14 22 2 23
REMARK SMILES IDX 1 24 3 27 6 28 7 29 12 30 8 31 11 32 9 33 10 34 26 35 27 36
REMARK SMILES IDX 28 37 29 39 30 40 31 41 89 42 32 43 88 44 33 45 34 46 35 47
REMARK SMILES IDX 82 48 36 49 87 50 81 51 83 52 37 53 86 54 80 55 79 56 38 58
REMARK SMILES IDX 68 59 49 60 67 61 50 62 53 63 66 64 84 65 51 66 52 67 65 69
REMARK SMILES IDX 85 70 54 71 39 72 40 73 48 74 41 75 47 76 42 77 43 78 44 79
REMARK SMILES IDX 45 80 46 81 69 82 70 83 78 84 71 85 77 86 72 87 73 88 74 89
REMARK SMILES IDX 75 90 76 91 55 92 56 93 64 94 57 95 63 96 58 97 59 98 60 99
REMARK SMILES IDX 61 100 62 101
REMARK H PARENT 23 6 16 16 1 25 1 26 27 38 83 57 53 68
REMARK Flexibility Score: inf
ROOT
ATOM      1  C   UNL     1      -0.639  -7.996  -5.609  1.00  0.00     0.042 C 
ENDROOT
BRANCH   1   2
ATOM      2  C   UNL     1      -0.386  -7.074  -4.407  1.00  0.00     0.117 C 
BRANCH   2   3
ATOM      3  N   UNL     1       1.010  -6.711  -4.266  1.00  0.00    -0.356 N 
ATOM      4  C   UNL     1       1.746  -5.586  -4.359  1.00  0.00     0.226 C 
ATOM      5  O   UNL     1       2.955  -5.788  -4.168  1.00  0.00    -0.275 OA
ATOM      6  H   UNL     1       1.567  -7.492  -4.045  1.00  0.00     0.163 HD
BRANCH   4   7
ATOM      7  C   UNL     1       1.207  -4.154  -4.402  1.00  0.00     0.122 C 
ATOM      8  C   UNL     1       0.184  -3.583  -5.401  1.00  0.00     0.123 C 
ATOM      9  C   UNL     1       1.034  -2.611  -6.249  1.00  0.00     0.132 C 
ATOM     10  C   UNL     1       2.402  -3.207  -4.681  1.00  0.00     0.132 C 
ATOM     11  C   UNL     1       1.249  -1.292  -5.523  1.00  0.00     0.035 C 
ATOM     12  O   UNL     1       2.366  -3.155  -6.125  1.00  0.00    -0.373 OA
ATOM     13  C   UNL     1       2.088  -1.744  -4.330  1.00  0.00     0.035 C 
BRANCH   8  14
ATOM     14  C   UNL     1      -0.554  -4.460  -6.376  1.00  0.00     0.231 C 
ATOM     15  N   UNL     1      -1.895  -4.311  -6.633  1.00  0.00    -0.317 N 
ATOM     16  H   UNL     1      -2.289  -5.098  -7.074  1.00  0.00     0.170 HD
ATOM     17  O   UNL     1       0.054  -5.339  -6.989  1.00  0.00    -0.274 OA
BRANCH  15  18
ATOM     18  C   UNL     1      -2.823  -3.295  -6.409  1.00  0.00     0.108 A 
ATOM     19  C   UNL     1      -4.189  -3.338  -6.706  1.00  0.00     0.082 A 
ATOM     20  C   UNL     1      -4.837  -2.075  -6.387  1.00  0.00     0.007 A 
ATOM     21  C   UNL     1      -3.938  -1.160  -5.880  1.00  0.00     0.076 A 
ATOM     22  S   UNL     1      -2.357  -1.754  -5.880  1.00  0.00    -0.125 S 
BRANCH  19  23
ATOM     23  C   UNL     1      -4.806  -4.538  -7.268  1.00  0.00     0.252 C 
ATOM     24  N   UNL     1      -5.848  -4.348  -8.124  1.00  0.00    -0.365 N 
ATOM     25  H   UNL     1      -6.299  -5.123  -8.530  1.00  0.00     0.159 HD
ATOM     26  H   UNL     1      -6.150  -3.436  -8.337  1.00  0.00     0.159 HD
ATOM     27  O   UNL     1      -4.379  -5.667  -7.037  1.00  0.00    -0.269 OA
ENDBRANCH  19  23
BRANCH  20  28
ATOM     28  C   UNL     1      -6.234  -1.676  -6.518  1.00  0.00    -0.017 A 
ATOM     29  C   UNL     1      -6.563  -0.567  -7.313  1.00  0.00     0.010 A 
ATOM     30  C   UNL     1      -7.249  -2.368  -5.848  1.00  0.00     0.010 A 
ATOM     31  C   UNL     1      -7.891  -0.153  -7.436  1.00  0.00     0.021 A 
ATOM     32  C   UNL     1      -8.579  -1.955  -5.976  1.00  0.00     0.021 A 
ATOM     33  C   UNL     1      -8.894  -0.850  -6.766  1.00  0.00     0.041 A 
ATOM     34  Cl  UNL     1     -10.529  -0.336  -6.914  1.00  0.00    -0.084 Cl
ENDBRANCH  20  28
ENDBRANCH  15  18
ENDBRANCH   8  14
ENDBRANCH   4   7
ENDBRANCH   2   3
ENDBRANCH   1   2
BRANCH   1  35
ATOM     35  C   UNL     1       0.324  -9.171  -5.778  1.00  0.00     0.118 C 
BRANCH  35  36
ATOM     36  N   UNL     1       0.079 -10.250  -4.836  1.00  0.00    -0.352 N 
ATOM     37  C   UNL     1      -0.174 -11.580  -5.084  1.00  0.00     0.251 C 
ATOM     38  H   UNL     1       0.097  -9.994  -3.886  1.00  0.00     0.163 HD
ATOM     39  O   UNL     1      -0.525 -12.308  -4.159  1.00  0.00    -0.269 OA
BRANCH  37  40
ATOM     40  C   UNL     1      -0.061 -12.134  -6.457  1.00  0.00     0.039 A 
ATOM     41  C   UNL     1      -1.051 -13.012  -6.909  1.00  0.00     0.014 A 
ATOM     42  C   UNL     1       1.013 -11.818  -7.294  1.00  0.00     0.014 A 
ATOM     43  C   UNL     1      -1.000 -13.517  -8.213  1.00  0.00     0.010 A 
ATOM     44  C   UNL     1       1.024 -12.263  -8.618  1.00  0.00     0.010 A 
ATOM     45  C   UNL     1       0.018 -13.117  -9.095  1.00  0.00    -0.014 A 
BRANCH  45  46
ATOM     46  C   UNL     1       0.028 -13.569 -10.515  1.00  0.00     0.031 A 
ATOM     47  C   UNL     1       1.159 -14.412 -11.046  1.00  0.00     0.074 A 
ATOM     48  C   UNL     1      -0.960 -13.180 -11.348  1.00  0.00     0.049 A 
ATOM     49  N   UNL     1       1.353 -14.864 -12.260  1.00  0.00    -0.248 NA
ATOM     50  C   UNL     1       2.220 -14.780 -10.095  1.00  0.00     0.031 C 
ATOM     51  C   UNL     1      -2.098 -12.338 -10.975  1.00  0.00     0.029 A 
ATOM     52  N   UNL     1      -1.164 -13.437 -12.683  1.00  0.00    -0.354 N 
ATOM     53  C   UNL     1       2.559 -15.556 -12.223  1.00  0.00     0.074 A 
ATOM     54  C   UNL     1       3.076 -15.423 -10.878  1.00  0.00     0.031 C 
ATOM     55  C   UNL     1      -2.893 -12.171 -12.044  1.00  0.00     0.029 A 
ATOM     56  C   UNL     1      -2.300 -12.851 -13.192  1.00  0.00     0.049 A 
ATOM     57  H   UNL     1      -0.555 -13.989 -13.224  1.00  0.00     0.167 HD
ATOM     58  C   UNL     1       3.174 -16.251 -13.210  1.00  0.00     0.031 A 
ATOM     59  C   UNL     1      -2.807 -12.846 -14.441  1.00  0.00     0.031 A 
ATOM     60  C   UNL     1       2.661 -16.380 -14.550  1.00  0.00     0.049 A 
ATOM     61  C   UNL     1      -2.088 -13.596 -15.530  1.00  0.00     0.074 A 
ATOM     62  C   UNL     1       3.187 -17.105 -15.606  1.00  0.00     0.029 A 
ATOM     63  N   UNL     1       1.512 -15.764 -15.025  1.00  0.00    -0.354 N 
ATOM     64  N   UNL     1      -0.985 -14.301 -15.455  1.00  0.00    -0.248 NA
ATOM     65  C   UNL     1      -2.690 -13.560 -16.870  1.00  0.00     0.031 C 
ATOM     66  C   UNL     1       2.394 -16.874 -16.735  1.00  0.00     0.029 A 
ATOM     67  C   UNL     1       1.331 -16.066 -16.365  1.00  0.00     0.049 A 
ATOM     68  H   UNL     1       0.914 -15.195 -14.489  1.00  0.00     0.167 HD
ATOM     69  C   UNL     1      -0.776 -14.816 -16.731  1.00  0.00     0.074 A 
ATOM     70  C   UNL     1      -1.876 -14.355 -17.552  1.00  0.00     0.031 C 
ATOM     71  C   UNL     1       0.235 -15.601 -17.179  1.00  0.00     0.031 A 
BRANCH  58  72
ATOM     72  C   UNL     1       4.486 -16.920 -12.883  1.00  0.00    -0.014 A 
ATOM     73  C   UNL     1       4.548 -18.016 -12.003  1.00  0.00     0.010 A 
ATOM     74  C   UNL     1       5.670 -16.476 -13.501  1.00  0.00     0.010 A 
ATOM     75  C   UNL     1       5.772 -18.625 -11.713  1.00  0.00     0.020 A 
ATOM     76  C   UNL     1       6.892 -17.104 -13.239  1.00  0.00     0.020 A 
ATOM     77  C   UNL     1       6.937 -18.164 -12.332  1.00  0.00     0.054 A 
BRANCH  77  78
ATOM     78  S   UNL     1       8.507 -18.989 -11.951  1.00  0.00     0.124 S 
ATOM     79  O   UNL     1       8.747 -18.561 -10.575  1.00  0.00    -0.237 OA
ATOM     80  O   UNL     1       8.175 -20.401 -12.119  1.00  0.00    -0.237 OA
ATOM     81  O   UNL     1       9.434 -18.448 -12.941  1.00  0.00    -0.744 OA
ENDBRANCH  77  78
ENDBRANCH  58  72
BRANCH  59  82
ATOM     82  C   UNL     1      -4.066 -12.103 -14.730  1.00  0.00    -0.014 A 
ATOM     83  C   UNL     1      -5.249 -12.793 -15.053  1.00  0.00     0.010 A 
ATOM     84  C   UNL     1      -4.092 -10.697 -14.673  1.00  0.00     0.010 A 
ATOM     85  C   UNL     1      -6.427 -12.092 -15.328  1.00  0.00     0.020 A 
ATOM     86  C   UNL     1      -5.276  -9.994 -14.915  1.00  0.00     0.020 A 
ATOM     87  C   UNL     1      -6.434 -10.696 -15.252  1.00  0.00     0.054 A 
BRANCH  87  88
ATOM     88  S   UNL     1      -7.989  -9.810 -15.554  1.00  0.00     0.124 S 
ATOM     89  O   UNL     1      -8.159  -9.973 -16.994  1.00  0.00    -0.237 OA
ATOM     90  O   UNL     1      -8.937 -10.542 -14.717  1.00  0.00    -0.237 OA
ATOM     91  O   UNL     1      -7.700  -8.448 -15.107  1.00  0.00    -0.744 OA
ENDBRANCH  87  88
ENDBRANCH  59  82
BRANCH  71  92
ATOM     92  C   UNL     1       0.186 -16.049 -18.617  1.00  0.00    -0.014 A 
ATOM     93  C   UNL     1       0.401 -15.149 -19.676  1.00  0.00     0.010 A 
ATOM     94  C   UNL     1      -0.025 -17.410 -18.911  1.00  0.00     0.010 A 
ATOM     95  C   UNL     1       0.374 -15.594 -21.001  1.00  0.00     0.020 A 
ATOM     96  C   UNL     1      -0.021 -17.865 -20.232  1.00  0.00     0.020 A 
ATOM     97  C   UNL     1       0.165 -16.951 -21.270  1.00  0.00     0.054 A 
BRANCH  97  98
ATOM     98  S   UNL     1       0.178 -17.509 -22.996  1.00  0.00     0.124 S 
ATOM     99  O   UNL     1      -1.075 -16.960 -23.505  1.00  0.00    -0.237 OA
ATOM    100  O   UNL     1       1.394 -16.893 -23.522  1.00  0.00    -0.237 OA
ATOM    101  O   UNL     1       0.221 -18.966 -22.890  1.00  0.00    -0.744 OA
ENDBRANCH  97  98
ENDBRANCH  71  92
ENDBRANCH  45  46
ENDBRANCH  37  40
ENDBRANCH  35  36
ENDBRANCH   1  35
TORSDOF 17
