REMARK SMILES Cc1c(NC(=O)[C@@H]2CC=CC[C@@H]2C(=O)NCCCNC(=O)c2ccc(-c3c4nc(c(-c5ccc(S(=O)(=O)[O-])cc5)c5ccc([nH]5)c(-c5ccc(S(=O)(=O)[O-])cc5)c5nc(c(-c6ccc(S(=O)(=O)[O-])cc6)c6ccc3[nH]6)C=C5)C=C4)cc2)cccc1C(=O)N1CCOCC1
REMARK SMILES IDX 17 1 16 2 15 3 13 4 14 5 12 7 7 8 8 9 9 10 11 11 10 12 5 13
REMARK SMILES IDX 4 14 6 16 3 17 1 18 2 19 85 20 82 21 84 22 83 23 86 24 87 25
REMARK SMILES IDX 88 26 89 27 93 28 90 29 92 30 91 31 18 32 19 33 20 34 21 36
REMARK SMILES IDX 22 37 23 38 81 39 24 40 80 41 25 42 26 43 27 44 74 45 28 46
REMARK SMILES IDX 79 47 73 48 75 49 29 50 78 51 72 52 71 53 30 55 60 56 41 57
REMARK SMILES IDX 59 58 42 59 45 60 58 61 76 62 43 63 44 64 57 66 77 67 46 68
REMARK SMILES IDX 31 69 32 70 40 71 33 72 39 73 34 74 35 75 36 76 37 77 38 78
REMARK SMILES IDX 61 79 62 80 70 81 63 82 69 83 64 84 65 85 66 86 67 87 68 88
REMARK SMILES IDX 47 89 48 90 56 91 49 92 55 93 50 94 51 95 52 96 53 97 54 98
REMARK H PARENT 15 6 4 15 19 35 75 54 45 65
REMARK Flexibility Score: inf
ROOT
ATOM      1  C   UNL     1      -3.625  -5.375   1.425  1.00  0.00     0.042 C 
ENDROOT
BRANCH   1   2
ATOM      2  C   UNL     1      -3.837  -5.034  -0.049  1.00  0.00     0.117 C 
BRANCH   2   3
ATOM      3  N   UNL     1      -4.109  -3.624  -0.280  1.00  0.00    -0.356 N 
ATOM      4  C   UNL     1      -3.438  -2.543  -0.741  1.00  0.00     0.224 C 
ATOM      5  O   UNL     1      -4.167  -1.547  -0.881  1.00  0.00    -0.275 OA
ATOM      6  H   UNL     1      -5.033  -3.393  -0.033  1.00  0.00     0.163 HD
BRANCH   4   7
ATOM      7  C   UNL     1      -1.954  -2.455  -1.200  1.00  0.00     0.095 C 
ATOM      8  C   UNL     1      -0.831  -3.222  -0.444  1.00  0.00     0.095 C 
ATOM      9  C   UNL     1      -0.913  -2.870   1.043  1.00  0.00     0.041 C 
ATOM     10  C   UNL     1      -0.918  -1.376   1.248  1.00  0.00    -0.030 C 
ATOM     11  C   UNL     1      -1.533  -0.952  -1.143  1.00  0.00     0.041 C 
ATOM     12  C   UNL     1      -1.166  -0.509   0.253  1.00  0.00    -0.030 C 
BRANCH   8  13
ATOM     13  C   UNL     1      -0.748  -4.661  -0.929  1.00  0.00     0.228 C 
ATOM     14  N   UNL     1      -0.192  -5.685  -0.242  1.00  0.00    -0.326 N 
ATOM     15  H   UNL     1      -0.603  -6.551  -0.465  1.00  0.00     0.169 HD
ATOM     16  O   UNL     1      -1.195  -4.965  -2.044  1.00  0.00    -0.274 OA
BRANCH  14  17
ATOM     17  C   UNL     1       0.830  -5.810   0.712  1.00  0.00     0.044 A 
ATOM     18  C   UNL     1      -0.205  -8.034   1.329  1.00  0.00     0.047 C 
ATOM     19  C   UNL     1       0.930  -7.042   1.412  1.00  0.00    -0.015 A 
ATOM     20  C   UNL     1       2.066  -7.283   2.215  1.00  0.00     0.045 A 
ATOM     21  C   UNL     1       1.801  -4.823   0.890  1.00  0.00     0.026 A 
ATOM     22  C   UNL     1       3.007  -6.259   2.408  1.00  0.00     0.014 A 
ATOM     23  C   UNL     1       2.868  -5.033   1.762  1.00  0.00     0.003 A 
BRANCH  20  24
ATOM     24  C   UNL     1       2.272  -8.520   3.021  1.00  0.00     0.254 C 
ATOM     25  O   UNL     1       2.582  -8.369   4.203  1.00  0.00    -0.269 OA
ATOM     26  N   UNL     1       2.103  -9.781   2.460  1.00  0.00    -0.334 N 
ATOM     27  C   UNL     1       2.244 -10.144   1.043  1.00  0.00     0.148 C 
ATOM     28  C   UNL     1       2.004 -10.931   3.362  1.00  0.00     0.148 C 
ATOM     29  C   UNL     1       1.224 -11.220   0.629  1.00  0.00     0.181 C 
ATOM     30  C   UNL     1       0.941 -11.913   2.864  1.00  0.00     0.181 C 
ATOM     31  O   UNL     1       1.249 -12.341   1.526  1.00  0.00    -0.378 OA
ENDBRANCH  20  24
ENDBRANCH  14  17
ENDBRANCH   8  13
ENDBRANCH   4   7
ENDBRANCH   2   3
ENDBRANCH   1   2
BRANCH   1  32
ATOM     32  C   UNL     1      -4.912  -5.725   2.161  1.00  0.00     0.118 C 
BRANCH  32  33
ATOM     33  N   UNL     1      -4.768  -6.914   2.998  1.00  0.00    -0.352 N 
ATOM     34  C   UNL     1      -5.652  -7.383   3.969  1.00  0.00     0.251 C 
ATOM     35  H   UNL     1      -3.952  -7.447   2.860  1.00  0.00     0.163 HD
ATOM     36  O   UNL     1      -5.427  -8.347   4.645  1.00  0.00    -0.269 OA
BRANCH  34  37
ATOM     37  C   UNL     1      -6.931  -6.646   4.065  1.00  0.00     0.039 A 
ATOM     38  C   UNL     1      -8.054  -7.228   3.470  1.00  0.00     0.014 A 
ATOM     39  C   UNL     1      -6.900  -5.297   4.403  1.00  0.00     0.014 A 
ATOM     40  C   UNL     1      -9.097  -6.408   3.047  1.00  0.00     0.010 A 
ATOM     41  C   UNL     1      -7.886  -4.479   3.884  1.00  0.00     0.010 A 
ATOM     42  C   UNL     1      -8.965  -5.024   3.168  1.00  0.00    -0.014 A 
BRANCH  42  43
ATOM     43  C   UNL     1      -9.866  -4.063   2.531  1.00  0.00     0.031 A 
ATOM     44  C   UNL     1     -10.754  -3.223   3.376  1.00  0.00     0.074 A 
ATOM     45  C   UNL     1      -9.890  -3.883   1.190  1.00  0.00     0.049 A 
ATOM     46  N   UNL     1     -11.812  -2.616   2.947  1.00  0.00    -0.248 NA
ATOM     47  C   UNL     1     -10.546  -3.056   4.811  1.00  0.00     0.031 C 
ATOM     48  C   UNL     1     -10.495  -2.757   0.479  1.00  0.00     0.029 A 
ATOM     49  N   UNL     1      -9.579  -4.786   0.173  1.00  0.00    -0.354 N 
ATOM     50  C   UNL     1     -12.251  -1.780   3.946  1.00  0.00     0.074 A 
ATOM     51  C   UNL     1     -11.465  -2.133   5.105  1.00  0.00     0.031 C 
ATOM     52  C   UNL     1     -10.806  -3.151  -0.763  1.00  0.00     0.029 A 
ATOM     53  C   UNL     1     -10.523  -4.572  -0.850  1.00  0.00     0.049 A 
ATOM     54  H   UNL     1      -8.846  -5.443   0.170  1.00  0.00     0.167 HD
ATOM     55  C   UNL     1     -13.162  -0.805   3.671  1.00  0.00     0.031 A 
ATOM     56  C   UNL     1     -11.371  -5.526  -1.334  1.00  0.00     0.031 A 
ATOM     57  C   UNL     1     -13.667  -0.877   2.303  1.00  0.00     0.049 A 
ATOM     58  C   UNL     1     -12.840  -5.156  -1.226  1.00  0.00     0.074 A 
ATOM     59  C   UNL     1     -13.470  -0.147   1.142  1.00  0.00     0.029 A 
ATOM     60  N   UNL     1     -14.368  -2.009   1.925  1.00  0.00    -0.354 N 
ATOM     61  N   UNL     1     -13.284  -4.021  -0.762  1.00  0.00    -0.248 NA
ATOM     62  C   UNL     1     -13.927  -6.094  -1.524  1.00  0.00     0.031 C 
ATOM     63  C   UNL     1     -14.079  -0.855   0.064  1.00  0.00     0.029 A 
ATOM     64  C   UNL     1     -14.646  -2.007   0.575  1.00  0.00     0.049 A 
ATOM     65  H   UNL     1     -14.635  -2.726   2.544  1.00  0.00     0.167 HD
ATOM     66  C   UNL     1     -14.642  -4.099  -0.601  1.00  0.00     0.074 A 
ATOM     67  C   UNL     1     -15.007  -5.402  -1.123  1.00  0.00     0.031 C 
ATOM     68  C   UNL     1     -15.372  -3.131   0.019  1.00  0.00     0.031 A 
BRANCH  55  69
ATOM     69  C   UNL     1     -13.460   0.342   4.608  1.00  0.00    -0.014 A 
ATOM     70  C   UNL     1     -13.886   1.579   4.083  1.00  0.00     0.010 A 
ATOM     71  C   UNL     1     -13.304   0.282   6.005  1.00  0.00     0.010 A 
ATOM     72  C   UNL     1     -14.040   2.716   4.891  1.00  0.00     0.020 A 
ATOM     73  C   UNL     1     -13.409   1.419   6.820  1.00  0.00     0.020 A 
ATOM     74  C   UNL     1     -13.766   2.636   6.254  1.00  0.00     0.054 A 
BRANCH  74  75
ATOM     75  S   UNL     1     -13.870   4.131   7.270  1.00  0.00     0.124 S 
ATOM     76  O   UNL     1     -12.994   5.059   6.559  1.00  0.00    -0.237 OA
ATOM     77  O   UNL     1     -15.295   4.445   7.221  1.00  0.00    -0.237 OA
ATOM     78  O   UNL     1     -13.374   3.698   8.575  1.00  0.00    -0.744 OA
ENDBRANCH  74  75
ENDBRANCH  55  69
BRANCH  56  79
ATOM     79  C   UNL     1     -10.831  -6.909  -1.247  1.00  0.00    -0.014 A 
ATOM     80  C   UNL     1      -9.733  -7.220  -2.077  1.00  0.00     0.010 A 
ATOM     81  C   UNL     1     -11.074  -7.695  -0.108  1.00  0.00     0.010 A 
ATOM     82  C   UNL     1      -8.783  -8.156  -1.668  1.00  0.00     0.020 A 
ATOM     83  C   UNL     1     -10.127  -8.644   0.297  1.00  0.00     0.020 A 
ATOM     84  C   UNL     1      -8.953  -8.806  -0.445  1.00  0.00     0.054 A 
BRANCH  84  85
ATOM     85  S   UNL     1      -7.522  -9.679   0.258  1.00  0.00     0.124 S 
ATOM     86  O   UNL     1      -7.176 -10.625  -0.797  1.00  0.00    -0.237 OA
ATOM     87  O   UNL     1      -6.573  -8.583   0.456  1.00  0.00    -0.237 OA
ATOM     88  O   UNL     1      -8.056 -10.266   1.482  1.00  0.00    -0.744 OA
ENDBRANCH  84  85
ENDBRANCH  56  79
BRANCH  68  89
ATOM     89  C   UNL     1     -16.858  -3.216   0.201  1.00  0.00    -0.014 A 
ATOM     90  C   UNL     1     -17.718  -3.511  -0.870  1.00  0.00     0.010 A 
ATOM     91  C   UNL     1     -17.443  -2.872   1.438  1.00  0.00     0.010 A 
ATOM     92  C   UNL     1     -19.108  -3.502  -0.699  1.00  0.00     0.020 A 
ATOM     93  C   UNL     1     -18.829  -2.845   1.614  1.00  0.00     0.020 A 
ATOM     94  C   UNL     1     -19.655  -3.176   0.545  1.00  0.00     0.054 A 
BRANCH  94  95
ATOM     95  S   UNL     1     -21.456  -3.126   0.740  1.00  0.00     0.124 S 
ATOM     96  O   UNL     1     -21.899  -2.503  -0.506  1.00  0.00    -0.237 OA
ATOM     97  O   UNL     1     -21.781  -4.543   0.881  1.00  0.00    -0.237 OA
ATOM     98  O   UNL     1     -21.654  -2.316   1.939  1.00  0.00    -0.744 OA
ENDBRANCH  94  95
ENDBRANCH  68  89
ENDBRANCH  42  43
ENDBRANCH  34  37
ENDBRANCH  32  33
ENDBRANCH   1  32
TORSDOF 16
