REMARK SMILES CSCC[C@@H](NC1=[NH+]S(=O)(=O)c2ccccc21)C(=O)NCCCNC(=O)c1ccc(-c2c3nc(c(-c4ccc(S(=O)(=O)[O-])cc4)c4ccc([nH]4)c(-c4ccc(S(=O)(=O)[O-])cc4)c4nc(c(-c5ccc(S(=O)(=O)[O-])cc5)c5ccc2[nH]5)C=C4)C=C3)cc1
REMARK SMILES IDX 22 1 21 2 20 3 18 4 19 5 5 7 4 8 3 9 2 10 1 11 6 12 7 13
REMARK SMILES IDX 8 15 17 16 9 17 12 19 16 20 10 21 11 22 13 23 15 24 14 25
REMARK SMILES IDX 23 26 24 27 25 28 26 30 27 31 28 32 86 33 29 34 85 35 30 36
REMARK SMILES IDX 31 37 32 38 79 39 33 40 84 41 78 42 80 43 34 44 83 45 77 46
REMARK SMILES IDX 76 47 35 49 65 50 46 51 64 52 47 53 50 54 63 55 81 56 48 57
REMARK SMILES IDX 49 58 62 60 82 61 51 62 36 63 37 64 45 65 38 66 44 67 39 68
REMARK SMILES IDX 40 69 41 70 42 71 43 72 66 73 67 74 75 75 68 76 74 77 69 78
REMARK SMILES IDX 70 79 71 80 72 81 73 82 52 83 53 84 61 85 54 86 60 87 55 88
REMARK SMILES IDX 56 89 57 90 58 91 59 92
REMARK H PARENT 20 6 6 14 8 18 24 29 80 48 50 59
REMARK Flexibility Score: inf
ROOT
ATOM      1  C   UNL     1       0.932  -6.513   1.686  1.00  0.00     0.042 C 
ENDROOT
BRANCH   1   2
ATOM      2  C   UNL     1       1.617  -5.571   0.716  1.00  0.00     0.118 C 
BRANCH   2   3
ATOM      3  N   UNL     1       0.725  -5.044  -0.299  1.00  0.00    -0.352 N 
ATOM      4  C   UNL     1       0.571  -3.766  -0.764  1.00  0.00     0.264 C 
ATOM      5  O   UNL     1      -0.228  -3.588  -1.689  1.00  0.00    -0.270 OA
ATOM      6  H   UNL     1       0.137  -5.712  -0.721  1.00  0.00     0.163 HD
BRANCH   4   7
ATOM      7  C   UNL     1       1.271  -2.561  -0.087  1.00  0.00     0.262 C 
BRANCH   7   8
ATOM      8  C   UNL     1       0.541  -2.302   1.245  1.00  0.00     0.071 C 
BRANCH   8   9
ATOM      9  C   UNL     1       0.949  -1.054   2.022  1.00  0.00     0.074 C 
BRANCH   9  10
ATOM     10  S   UNL     1       0.126   0.482   1.499  1.00  0.00    -0.165 SA
ATOM     11  C   UNL     1       1.104   0.907   0.040  1.00  0.00     0.085 C 
ENDBRANCH   9  10
ENDBRANCH   8   9
ENDBRANCH   7   8
BRANCH   7  12
ATOM     12  N   UNL     1       2.720  -2.749   0.117  1.00  0.00    -0.261 N 
ATOM     13  C   UNL     1       3.517  -3.526  -0.689  1.00  0.00     0.292 C 
ATOM     14  H   UNL     1       3.143  -2.289   0.878  1.00  0.00     0.306 HD
ATOM     15  N   UNL     1       3.257  -3.808  -1.931  1.00  0.00    -0.162 N 
ATOM     16  C   UNL     1       4.686  -4.231  -0.108  1.00  0.00     0.087 A 
ATOM     17  S   UNL     1       4.281  -4.957  -2.503  1.00  0.00     0.329 S 
ATOM     18  H   UNL     1       2.541  -3.389  -2.459  1.00  0.00     0.327 HD
ATOM     19  C   UNL     1       5.176  -5.142  -1.023  1.00  0.00     0.124 A 
ATOM     20  C   UNL     1       5.166  -4.211   1.191  1.00  0.00     0.018 A 
ATOM     21  O   UNL     1       5.183  -4.401  -3.480  1.00  0.00    -0.179 OA
ATOM     22  O   UNL     1       3.561  -6.202  -2.707  1.00  0.00    -0.179 OA
ATOM     23  C   UNL     1       6.114  -6.103  -0.703  1.00  0.00     0.025 A 
ATOM     24  C   UNL     1       6.138  -5.154   1.542  1.00  0.00     0.001 A 
ATOM     25  C   UNL     1       6.600  -6.100   0.606  1.00  0.00     0.002 A 
ENDBRANCH   7  12
ENDBRANCH   4   7
ENDBRANCH   2   3
ENDBRANCH   1   2
BRANCH   1  26
ATOM     26  C   UNL     1       0.464  -7.812   1.051  1.00  0.00     0.118 C 
BRANCH  26  27
ATOM     27  N   UNL     1       1.563  -8.625   0.548  1.00  0.00    -0.352 N 
ATOM     28  C   UNL     1       1.946  -9.898   0.897  1.00  0.00     0.251 C 
ATOM     29  H   UNL     1       2.115  -8.198  -0.147  1.00  0.00     0.163 HD
ATOM     30  O   UNL     1       3.022 -10.339   0.504  1.00  0.00    -0.269 OA
BRANCH  28  31
ATOM     31  C   UNL     1       1.076 -10.727   1.761  1.00  0.00     0.039 A 
ATOM     32  C   UNL     1       1.659 -11.523   2.751  1.00  0.00     0.014 A 
ATOM     33  C   UNL     1      -0.311 -10.735   1.588  1.00  0.00     0.014 A 
ATOM     34  C   UNL     1       0.848 -12.272   3.607  1.00  0.00     0.010 A 
ATOM     35  C   UNL     1      -1.121 -11.408   2.496  1.00  0.00     0.010 A 
ATOM     36  C   UNL     1      -0.550 -12.196   3.506  1.00  0.00    -0.014 A 
BRANCH  36  37
ATOM     37  C   UNL     1      -1.441 -12.957   4.417  1.00  0.00     0.031 A 
ATOM     38  C   UNL     1      -2.366 -14.004   3.851  1.00  0.00     0.074 A 
ATOM     39  C   UNL     1      -1.485 -12.652   5.729  1.00  0.00     0.049 A 
ATOM     40  N   UNL     1      -3.303 -14.689   4.455  1.00  0.00    -0.248 NA
ATOM     41  C   UNL     1      -2.250 -14.289   2.410  1.00  0.00     0.031 C 
ATOM     42  C   UNL     1      -0.688 -11.614   6.390  1.00  0.00     0.029 A 
ATOM     43  N   UNL     1      -2.247 -13.178   6.742  1.00  0.00    -0.354 N 
ATOM     44  C   UNL     1      -3.917 -15.444   3.462  1.00  0.00     0.074 A 
ATOM     45  C   UNL     1      -3.266 -15.115   2.213  1.00  0.00     0.031 C 
ATOM     46  C   UNL     1      -0.992 -11.593   7.699  1.00  0.00     0.029 A 
ATOM     47  C   UNL     1      -2.020 -12.594   7.965  1.00  0.00     0.049 A 
ATOM     48  H   UNL     1      -2.895 -13.906   6.604  1.00  0.00     0.167 HD
ATOM     49  C   UNL     1      -4.922 -16.343   3.580  1.00  0.00     0.031 A 
ATOM     50  C   UNL     1      -2.578 -12.838   9.166  1.00  0.00     0.031 A 
ATOM     51  C   UNL     1      -5.523 -16.720   4.830  1.00  0.00     0.049 A 
ATOM     52  C   UNL     1      -3.615 -13.919   9.288  1.00  0.00     0.074 A 
ATOM     53  C   UNL     1      -6.497 -17.675   5.064  1.00  0.00     0.029 A 
ATOM     54  N   UNL     1      -5.189 -16.176   6.059  1.00  0.00    -0.354 N 
ATOM     55  N   UNL     1      -4.145 -14.659   8.343  1.00  0.00    -0.248 NA
ATOM     56  C   UNL     1      -4.113 -14.213  10.639  1.00  0.00     0.031 C 
ATOM     57  C   UNL     1      -6.759 -17.702   6.438  1.00  0.00     0.029 A 
ATOM     58  C   UNL     1      -5.928 -16.783   7.058  1.00  0.00     0.049 A 
ATOM     59  H   UNL     1      -4.524 -15.464   6.201  1.00  0.00     0.167 HD
ATOM     60  C   UNL     1      -5.017 -15.527   8.991  1.00  0.00     0.074 A 
ATOM     61  C   UNL     1      -4.937 -15.226  10.405  1.00  0.00     0.031 C 
ATOM     62  C   UNL     1      -5.814 -16.485   8.461  1.00  0.00     0.031 A 
BRANCH  49  63
ATOM     63  C   UNL     1      -5.427 -16.993   2.322  1.00  0.00    -0.014 A 
ATOM     64  C   UNL     1      -4.676 -17.985   1.668  1.00  0.00     0.010 A 
ATOM     65  C   UNL     1      -6.691 -16.641   1.814  1.00  0.00     0.010 A 
ATOM     66  C   UNL     1      -5.164 -18.592   0.509  1.00  0.00     0.020 A 
ATOM     67  C   UNL     1      -7.193 -17.262   0.666  1.00  0.00     0.020 A 
ATOM     68  C   UNL     1      -6.419 -18.223   0.013  1.00  0.00     0.054 A 
BRANCH  68  69
ATOM     69  S   UNL     1      -7.052 -19.054  -1.470  1.00  0.00     0.124 S 
ATOM     70  O   UNL     1      -6.327 -18.362  -2.533  1.00  0.00    -0.237 OA
ATOM     71  O   UNL     1      -6.667 -20.446  -1.252  1.00  0.00    -0.237 OA
ATOM     72  O   UNL     1      -8.489 -18.795  -1.423  1.00  0.00    -0.744 OA
ENDBRANCH  68  69
ENDBRANCH  49  63
BRANCH  50  73
ATOM     73  C   UNL     1      -2.147 -12.067  10.362  1.00  0.00    -0.014 A 
ATOM     74  C   UNL     1      -1.315 -12.661  11.327  1.00  0.00     0.010 A 
ATOM     75  C   UNL     1      -2.572 -10.740  10.545  1.00  0.00     0.010 A 
ATOM     76  C   UNL     1      -0.940 -11.953  12.471  1.00  0.00     0.020 A 
ATOM     77  C   UNL     1      -2.182 -10.021  11.678  1.00  0.00     0.020 A 
ATOM     78  C   UNL     1      -1.381 -10.638  12.642  1.00  0.00     0.054 A 
BRANCH  78  79
ATOM     79  S   UNL     1      -0.858  -9.714  14.114  1.00  0.00     0.124 S 
ATOM     80  O   UNL     1      -1.815 -10.173  15.115  1.00  0.00    -0.237 OA
ATOM     81  O   UNL     1       0.520 -10.162  14.303  1.00  0.00    -0.237 OA
ATOM     82  O   UNL     1      -0.997  -8.319  13.702  1.00  0.00    -0.744 OA
ENDBRANCH  78  79
ENDBRANCH  50  73
BRANCH  62  83
ATOM     83  C   UNL     1      -6.620 -17.314   9.418  1.00  0.00    -0.014 A 
ATOM     84  C   UNL     1      -7.787 -16.807  10.013  1.00  0.00     0.010 A 
ATOM     85  C   UNL     1      -6.225 -18.637   9.688  1.00  0.00     0.010 A 
ATOM     86  C   UNL     1      -8.531 -17.600  10.890  1.00  0.00     0.020 A 
ATOM     87  C   UNL     1      -6.976 -19.439  10.549  1.00  0.00     0.020 A 
ATOM     88  C   UNL     1      -8.117 -18.909  11.157  1.00  0.00     0.054 A 
BRANCH  88  89
ATOM     89  S   UNL     1      -9.114 -19.939  12.268  1.00  0.00     0.124 S 
ATOM     90  O   UNL     1      -8.666 -19.487  13.582  1.00  0.00    -0.237 OA
ATOM     91  O   UNL     1     -10.483 -19.575  11.911  1.00  0.00    -0.237 OA
ATOM     92  O   UNL     1      -8.727 -21.302  11.911  1.00  0.00    -0.744 OA
ENDBRANCH  88  89
ENDBRANCH  62  83
ENDBRANCH  36  37
ENDBRANCH  28  31
ENDBRANCH  26  27
ENDBRANCH   1  26
TORSDOF 17
