REMARK SMILES O=C(CSc1ccccc1C(=O)NCCCNC(=O)c1ccc(-c2c3nc(c(-c4ccc(S(=O)(=O)[O-])cc4)c4ccc([nH]4)c(-c4ccc(S(=O)(=O)[O-])cc4)c4nc(c(-c5ccc(S(=O)(=O)[O-])cc5)c5ccc2[nH]5)C=C4)C=C3)cc1)c1ccc(Cl)cc1
REMARK SMILES IDX 14 1 13 2 11 3 12 4 10 6 5 7 6 8 7 9 9 10 8 11 4 12 3 13
REMARK SMILES IDX 2 14 1 15 80 16 81 17 86 18 82 19 85 20 83 21 84 22 15 23
REMARK SMILES IDX 16 24 17 25 18 26 19 28 20 29 21 30 79 31 22 32 78 33 23 34
REMARK SMILES IDX 24 35 25 36 72 37 26 38 77 39 71 40 73 41 27 42 76 43 70 44
REMARK SMILES IDX 69 45 28 47 58 48 39 49 57 50 40 51 43 52 56 53 74 54 41 55
REMARK SMILES IDX 42 56 55 58 75 59 44 60 29 61 30 62 38 63 31 64 37 65 32 66
REMARK SMILES IDX 33 67 34 68 35 69 36 70 59 71 60 72 68 73 61 74 67 75 62 76
REMARK SMILES IDX 63 77 64 78 65 79 66 80 45 81 46 82 54 83 47 84 53 85 48 86
REMARK SMILES IDX 49 87 50 88 51 89 52 90
REMARK H PARENT 13 5 17 27 73 46 43 57
REMARK Flexibility Score: inf
ROOT
ATOM      1  C   UNL     1       3.800  -0.771  -3.377  1.00  0.00     0.118 C 
ENDROOT
BRANCH   1   2
ATOM      2  N   UNL     1       2.362  -0.629  -3.203  1.00  0.00    -0.352 N 
ATOM      3  C   UNL     1       1.517   0.450  -3.196  1.00  0.00     0.252 C 
ATOM      4  O   UNL     1       0.309   0.214  -3.273  1.00  0.00    -0.269 OA
ATOM      5  H   UNL     1       1.900  -1.487  -3.060  1.00  0.00     0.163 HD
BRANCH   3   6
ATOM      6  C   UNL     1       1.943   1.871  -3.134  1.00  0.00     0.053 A 
ATOM      7  C   UNL     1       2.807   2.431  -2.181  1.00  0.00     0.020 A 
ATOM      8  C   UNL     1       3.053   3.818  -2.211  1.00  0.00     0.016 A 
ATOM      9  C   UNL     1       2.391   4.655  -3.108  1.00  0.00     0.001 A 
ATOM     10  C   UNL     1       1.264   2.733  -4.021  1.00  0.00     0.015 A 
ATOM     11  C   UNL     1       1.479   4.113  -4.003  1.00  0.00     0.001 A 
BRANCH   7  12
ATOM     12  S   UNL     1       3.633   1.581  -0.857  1.00  0.00    -0.117 SA
BRANCH  12  13
ATOM     13  C   UNL     1       2.243   0.789   0.017  1.00  0.00     0.156 C 
BRANCH  13  14
ATOM     14  C   UNL     1       1.950   1.503   1.317  1.00  0.00     0.173 C 
ATOM     15  O   UNL     1       0.931   2.158   1.511  1.00  0.00    -0.293 OA
BRANCH  14  16
ATOM     16  C   UNL     1       2.914   1.327   2.422  1.00  0.00     0.018 A 
ATOM     17  C   UNL     1       4.084   2.093   2.459  1.00  0.00     0.013 A 
ATOM     18  C   UNL     1       2.643   0.385   3.416  1.00  0.00     0.013 A 
ATOM     19  C   UNL     1       5.014   1.880   3.475  1.00  0.00     0.021 A 
ATOM     20  C   UNL     1       3.573   0.185   4.439  1.00  0.00     0.021 A 
ATOM     21  C   UNL     1       4.758   0.925   4.458  1.00  0.00     0.041 A 
ATOM     22  Cl  UNL     1       5.910   0.658   5.702  1.00  0.00    -0.084 Cl
ENDBRANCH  14  16
ENDBRANCH  13  14
ENDBRANCH  12  13
ENDBRANCH   7  12
ENDBRANCH   3   6
ENDBRANCH   1   2
BRANCH   1  23
ATOM     23  C   UNL     1       4.507  -1.500  -2.222  1.00  0.00     0.042 C 
BRANCH  23  24
ATOM     24  C   UNL     1       3.863  -2.801  -1.735  1.00  0.00     0.118 C 
BRANCH  24  25
ATOM     25  N   UNL     1       4.531  -3.966  -2.283  1.00  0.00    -0.352 N 
ATOM     26  C   UNL     1       5.295  -4.916  -1.653  1.00  0.00     0.251 C 
ATOM     27  H   UNL     1       4.419  -4.096  -3.253  1.00  0.00     0.163 HD
ATOM     28  O   UNL     1       6.009  -5.647  -2.343  1.00  0.00    -0.269 OA
BRANCH  26  29
ATOM     29  C   UNL     1       5.283  -5.096  -0.177  1.00  0.00     0.039 A 
ATOM     30  C   UNL     1       6.483  -5.433   0.461  1.00  0.00     0.014 A 
ATOM     31  C   UNL     1       4.098  -5.075   0.566  1.00  0.00     0.014 A 
ATOM     32  C   UNL     1       6.500  -5.743   1.827  1.00  0.00     0.010 A 
ATOM     33  C   UNL     1       4.121  -5.345   1.942  1.00  0.00     0.010 A 
ATOM     34  C   UNL     1       5.317  -5.708   2.582  1.00  0.00    -0.014 A 
BRANCH  34  35
ATOM     35  C   UNL     1       5.322  -6.103   4.019  1.00  0.00     0.031 A 
ATOM     36  C   UNL     1       4.662  -7.386   4.461  1.00  0.00     0.074 A 
ATOM     37  C   UNL     1       5.907  -5.310   4.939  1.00  0.00     0.049 A 
ATOM     38  N   UNL     1       4.562  -7.892   5.665  1.00  0.00    -0.248 NA
ATOM     39  C   UNL     1       4.017  -8.197   3.416  1.00  0.00     0.031 C 
ATOM     40  C   UNL     1       6.564  -4.032   4.661  1.00  0.00     0.029 A 
ATOM     41  N   UNL     1       6.039  -5.463   6.298  1.00  0.00    -0.354 N 
ATOM     42  C   UNL     1       3.830  -9.067   5.527  1.00  0.00     0.074 A 
ATOM     43  C   UNL     1       3.485  -9.183   4.126  1.00  0.00     0.031 C 
ATOM     44  C   UNL     1       7.041  -3.525   5.810  1.00  0.00     0.029 A 
ATOM     45  C   UNL     1       6.706  -4.427   6.910  1.00  0.00     0.049 A 
ATOM     46  H   UNL     1       5.689  -6.242   6.789  1.00  0.00     0.167 HD
ATOM     47  C   UNL     1       3.485  -9.975   6.473  1.00  0.00     0.031 A 
ATOM     48  C   UNL     1       7.013  -4.221   8.206  1.00  0.00     0.031 A 
ATOM     49  C   UNL     1       3.840  -9.879   7.864  1.00  0.00     0.049 A 
ATOM     50  C   UNL     1       6.629  -5.248   9.237  1.00  0.00     0.074 A 
ATOM     51  C   UNL     1       3.582 -10.783   8.882  1.00  0.00     0.029 A 
ATOM     52  N   UNL     1       4.528  -8.821   8.437  1.00  0.00    -0.354 N 
ATOM     53  N   UNL     1       5.991  -6.382   9.072  1.00  0.00    -0.248 NA
ATOM     54  C   UNL     1       7.018  -4.972  10.628  1.00  0.00     0.031 C 
ATOM     55  C   UNL     1       4.078 -10.251  10.078  1.00  0.00     0.029 A 
ATOM     56  C   UNL     1       4.684  -9.038   9.796  1.00  0.00     0.049 A 
ATOM     57  H   UNL     1       4.856  -8.031   7.949  1.00  0.00     0.167 HD
ATOM     58  C   UNL     1       5.922  -6.964  10.335  1.00  0.00     0.074 A 
ATOM     59  C   UNL     1       6.593  -6.064  11.250  1.00  0.00     0.031 C 
ATOM     60  C   UNL     1       5.354  -8.139  10.700  1.00  0.00     0.031 A 
BRANCH  47  61
ATOM     61  C   UNL     1       2.662 -11.158   6.035  1.00  0.00    -0.014 A 
ATOM     62  C   UNL     1       3.234 -12.204   5.288  1.00  0.00     0.010 A 
ATOM     63  C   UNL     1       1.312 -11.249   6.418  1.00  0.00     0.010 A 
ATOM     64  C   UNL     1       2.459 -13.300   4.898  1.00  0.00     0.020 A 
ATOM     65  C   UNL     1       0.539 -12.354   6.049  1.00  0.00     0.020 A 
ATOM     66  C   UNL     1       1.114 -13.364   5.275  1.00  0.00     0.054 A 
BRANCH  66  67
ATOM     67  S   UNL     1       0.133 -14.805   4.770  1.00  0.00     0.124 S 
ATOM     68  O   UNL     1      -0.120 -14.515   3.361  1.00  0.00    -0.237 OA
ATOM     69  O   UNL     1       1.040 -15.920   5.028  1.00  0.00    -0.237 OA
ATOM     70  O   UNL     1      -1.040 -14.746   5.638  1.00  0.00    -0.744 OA
ENDBRANCH  66  67
ENDBRANCH  47  61
BRANCH  48  71
ATOM     71  C   UNL     1       7.743  -2.987   8.604  1.00  0.00    -0.014 A 
ATOM     72  C   UNL     1       9.095  -3.048   8.985  1.00  0.00     0.010 A 
ATOM     73  C   UNL     1       7.090  -1.742   8.594  1.00  0.00     0.010 A 
ATOM     74  C   UNL     1       9.777  -1.887   9.360  1.00  0.00     0.020 A 
ATOM     75  C   UNL     1       7.775  -0.576   8.945  1.00  0.00     0.020 A 
ATOM     76  C   UNL     1       9.113  -0.657   9.337  1.00  0.00     0.054 A 
BRANCH  76  77
ATOM     77  S   UNL     1      10.030   0.848   9.769  1.00  0.00     0.124 S 
ATOM     78  O   UNL     1      10.083   0.760  11.227  1.00  0.00    -0.237 OA
ATOM     79  O   UNL     1      11.307   0.650   9.081  1.00  0.00    -0.237 OA
ATOM     80  O   UNL     1       9.205   1.921   9.234  1.00  0.00    -0.744 OA
ENDBRANCH  76  77
ENDBRANCH  48  71
BRANCH  60  81
ATOM     81  C   UNL     1       5.452  -8.540  12.148  1.00  0.00    -0.014 A 
ATOM     82  C   UNL     1       4.659  -7.919  13.129  1.00  0.00     0.010 A 
ATOM     83  C   UNL     1       6.310  -9.590  12.523  1.00  0.00     0.010 A 
ATOM     84  C   UNL     1       4.742  -8.323  14.464  1.00  0.00     0.020 A 
ATOM     85  C   UNL     1       6.381 -10.011  13.853  1.00  0.00     0.020 A 
ATOM     86  C   UNL     1       5.605  -9.365  14.819  1.00  0.00     0.054 A 
BRANCH  86  87
ATOM     87  S   UNL     1       5.665  -9.905  16.551  1.00  0.00     0.124 S 
ATOM     88  O   UNL     1       6.481  -8.861  17.166  1.00  0.00    -0.237 OA
ATOM     89  O   UNL     1       4.256  -9.910  16.937  1.00  0.00    -0.237 OA
ATOM     90  O   UNL     1       6.290 -11.224  16.480  1.00  0.00    -0.744 OA
ENDBRANCH  86  87
ENDBRANCH  60  81
ENDBRANCH  34  35
ENDBRANCH  26  29
ENDBRANCH  24  25
ENDBRANCH  23  24
ENDBRANCH   1  23
TORSDOF 17
