REMARK SMILES [NH3+]CC(=O)N1C[C@H](O)C[C@H]1C(=O)NCCCNC(=O)c1ccc(-c2c3nc(c(-c4ccc(S(=O)(=O)[O-])cc4)c4ccc([nH]4)c(-c4ccc(S(=O)(=O)[O-])cc4)c4nc(c(-c5ccc(S(=O)(=O)[O-])cc5)c5ccc2[nH]5)C=C4)C=C3)cc1
REMARK SMILES IDX 15 1 14 2 13 3 11 4 12 5 10 7 5 8 6 9 7 10 9 11 3 12 4 13
REMARK SMILES IDX 2 14 1 15 8 19 16 21 17 22 18 23 19 25 20 26 21 27 79 28
REMARK SMILES IDX 22 29 78 30 23 31 24 32 25 33 72 34 26 35 77 36 71 37 73 38
REMARK SMILES IDX 27 39 76 40 70 41 69 42 28 44 58 45 39 46 57 47 40 48 43 49
REMARK SMILES IDX 56 50 74 51 41 52 42 53 55 55 75 56 44 57 29 58 30 59 38 60
REMARK SMILES IDX 31 61 37 62 32 63 33 64 34 65 35 66 36 67 59 68 60 69 68 70
REMARK SMILES IDX 61 71 67 72 62 73 63 74 64 75 65 76 66 77 45 78 46 79 54 80
REMARK SMILES IDX 47 81 53 82 48 83 49 84 50 85 51 86 52 87
REMARK H PARENT 13 6 1 16 1 17 1 18 8 20 17 24 73 43 43 54
REMARK Flexibility Score: inf
ROOT
ATOM      1  C   UNL     1       1.767  -3.417  -3.427  1.00  0.00     0.042 C 
ENDROOT
BRANCH   1   2
ATOM      2  C   UNL     1       2.964  -2.694  -4.018  1.00  0.00     0.117 C 
BRANCH   2   3
ATOM      3  N   UNL     1       2.595  -1.747  -5.047  1.00  0.00    -0.354 N 
ATOM      4  C   UNL     1       2.670  -0.388  -5.062  1.00  0.00     0.242 C 
ATOM      5  O   UNL     1       2.510   0.168  -6.155  1.00  0.00    -0.273 OA
ATOM      6  H   UNL     1       2.230  -2.150  -5.868  1.00  0.00     0.163 HD
BRANCH   4   7
ATOM      7  C   UNL     1       3.156   0.421  -3.845  1.00  0.00     0.177 C 
ATOM      8  N   UNL     1       2.557   0.172  -2.529  1.00  0.00    -0.323 N 
ATOM      9  C   UNL     1       3.568  -0.002  -1.498  1.00  0.00     0.152 C 
ATOM     10  C   UNL     1       4.886   0.406  -2.155  1.00  0.00     0.136 C 
ATOM     11  C   UNL     1       4.665   0.221  -3.650  1.00  0.00     0.069 C 
BRANCH   8  12
ATOM     12  C   UNL     1       1.207   0.410  -2.351  1.00  0.00     0.278 C 
ATOM     13  O   UNL     1       0.446   0.451  -3.322  1.00  0.00    -0.268 OA
BRANCH  12  14
ATOM     14  C   UNL     1       0.674   0.743  -0.950  1.00  0.00     0.360 C 
BRANCH  14  15
ATOM     15  N   UNL     1       0.801  -0.343   0.021  1.00  0.00    -0.350 N 
ATOM     16  H   UNL     1       0.426  -0.040   0.920  1.00  0.00     0.344 HD
ATOM     17  H   UNL     1       1.785  -0.589   0.129  1.00  0.00     0.344 HD
ATOM     18  H   UNL     1       0.281  -1.156  -0.308  1.00  0.00     0.344 HD
ENDBRANCH  14  15
ENDBRANCH  12  14
ENDBRANCH   8  12
BRANCH  10  19
ATOM     19  O   UNL     1       5.182   1.773  -1.880  1.00  0.00    -0.391 OA
ATOM     20  H   UNL     1       4.457   2.332  -2.201  1.00  0.00     0.211 HD
ENDBRANCH  10  19
ENDBRANCH   4   7
ENDBRANCH   2   3
ENDBRANCH   1   2
BRANCH   1  21
ATOM     21  C   UNL     1       1.013  -4.273  -4.436  1.00  0.00     0.118 C 
BRANCH  21  22
ATOM     22  N   UNL     1       1.846  -5.317  -5.021  1.00  0.00    -0.352 N 
ATOM     23  C   UNL     1       1.734  -6.683  -4.953  1.00  0.00     0.251 C 
ATOM     24  H   UNL     1       2.610  -4.990  -5.549  1.00  0.00     0.163 HD
ATOM     25  O   UNL     1       2.666  -7.386  -5.346  1.00  0.00    -0.269 OA
BRANCH  23  26
ATOM     26  C   UNL     1       0.516  -7.308  -4.397  1.00  0.00     0.039 A 
ATOM     27  C   UNL     1       0.642  -8.433  -3.579  1.00  0.00     0.014 A 
ATOM     28  C   UNL     1      -0.750  -6.797  -4.693  1.00  0.00     0.014 A 
ATOM     29  C   UNL     1      -0.498  -9.000  -3.004  1.00  0.00     0.010 A 
ATOM     30  C   UNL     1      -1.870  -7.301  -4.042  1.00  0.00     0.010 A 
ATOM     31  C   UNL     1      -1.760  -8.415  -3.200  1.00  0.00    -0.014 A 
BRANCH  31  32
ATOM     32  C   UNL     1      -2.977  -8.960  -2.545  1.00  0.00     0.031 A 
ATOM     33  C   UNL     1      -4.116  -9.477  -3.383  1.00  0.00     0.074 A 
ATOM     34  C   UNL     1      -3.082  -8.929  -1.201  1.00  0.00     0.049 A 
ATOM     35  N   UNL     1      -5.281  -9.932  -2.998  1.00  0.00    -0.248 NA
ATOM     36  C   UNL     1      -3.936  -9.458  -4.845  1.00  0.00     0.031 C 
ATOM     37  C   UNL     1      -2.065  -8.412  -0.281  1.00  0.00     0.029 A 
ATOM     38  N   UNL     1      -4.098  -9.337  -0.373  1.00  0.00    -0.354 N 
ATOM     39  C   UNL     1      -5.975 -10.233  -4.165  1.00  0.00     0.074 A 
ATOM     40  C   UNL     1      -5.124  -9.860  -5.272  1.00  0.00     0.031 C 
ATOM     41  C   UNL     1      -2.496  -8.562   0.982  1.00  0.00     0.029 A 
ATOM     42  C   UNL     1      -3.836  -9.140   0.963  1.00  0.00     0.049 A 
ATOM     43  H   UNL     1      -4.936  -9.733  -0.704  1.00  0.00     0.167 HD
ATOM     44  C   UNL     1      -7.201 -10.790  -4.303  1.00  0.00     0.031 A 
ATOM     45  C   UNL     1      -4.591  -9.387   2.051  1.00  0.00     0.031 A 
ATOM     46  C   UNL     1      -8.038 -11.174  -3.198  1.00  0.00     0.049 A 
ATOM     47  C   UNL     1      -5.955  -9.997   1.869  1.00  0.00     0.074 A 
ATOM     48  C   UNL     1      -9.272 -11.799  -3.232  1.00  0.00     0.029 A 
ATOM     49  N   UNL     1      -7.730 -10.969  -1.862  1.00  0.00    -0.354 N 
ATOM     50  N   UNL     1      -6.564 -10.338   0.758  1.00  0.00    -0.248 NA
ATOM     51  C   UNL     1      -6.728 -10.269   3.088  1.00  0.00     0.031 C 
ATOM     52  C   UNL     1      -9.738 -11.918  -1.920  1.00  0.00     0.029 A 
ATOM     53  C   UNL     1      -8.762 -11.433  -1.063  1.00  0.00     0.049 A 
ATOM     54  H   UNL     1      -6.901 -10.556  -1.530  1.00  0.00     0.167 HD
ATOM     55  C   UNL     1      -7.777 -10.896   1.148  1.00  0.00     0.074 A 
ATOM     56  C   UNL     1      -7.807 -10.861   2.596  1.00  0.00     0.031 C 
ATOM     57  C   UNL     1      -8.775 -11.396   0.377  1.00  0.00     0.031 A 
BRANCH  44  58
ATOM     58  C   UNL     1      -7.716 -11.019  -5.701  1.00  0.00    -0.014 A 
ATOM     59  C   UNL     1      -7.139 -11.989  -6.540  1.00  0.00     0.010 A 
ATOM     60  C   UNL     1      -8.831 -10.294  -6.162  1.00  0.00     0.010 A 
ATOM     61  C   UNL     1      -7.646 -12.209  -7.824  1.00  0.00     0.020 A 
ATOM     62  C   UNL     1      -9.361 -10.532  -7.433  1.00  0.00     0.020 A 
ATOM     63  C   UNL     1      -8.756 -11.480  -8.261  1.00  0.00     0.054 A 
BRANCH  63  64
ATOM     64  S   UNL     1      -9.419 -11.819  -9.915  1.00  0.00     0.124 S 
ATOM     65  O   UNL     1      -8.380 -11.259 -10.776  1.00  0.00    -0.237 OA
ATOM     66  O   UNL     1      -9.524 -13.276  -9.923  1.00  0.00    -0.237 OA
ATOM     67  O   UNL     1     -10.693 -11.105  -9.932  1.00  0.00    -0.744 OA
ENDBRANCH  63  64
ENDBRANCH  44  58
BRANCH  45  68
ATOM     68  C   UNL     1      -4.074  -9.066   3.410  1.00  0.00    -0.014 A 
ATOM     69  C   UNL     1      -3.765 -10.093   4.321  1.00  0.00     0.010 A 
ATOM     70  C   UNL     1      -3.891  -7.728   3.805  1.00  0.00     0.010 A 
ATOM     71  C   UNL     1      -3.312  -9.787   5.608  1.00  0.00     0.020 A 
ATOM     72  C   UNL     1      -3.408  -7.419   5.080  1.00  0.00     0.020 A 
ATOM     73  C   UNL     1      -3.136  -8.451   5.979  1.00  0.00     0.054 A 
BRANCH  73  74
ATOM     74  S   UNL     1      -2.514  -8.080   7.642  1.00  0.00     0.124 S 
ATOM     75  O   UNL     1      -3.667  -8.402   8.476  1.00  0.00    -0.237 OA
ATOM     76  O   UNL     1      -1.373  -8.984   7.761  1.00  0.00    -0.237 OA
ATOM     77  O   UNL     1      -2.170  -6.662   7.569  1.00  0.00    -0.744 OA
ENDBRANCH  73  74
ENDBRANCH  45  68
BRANCH  57  78
ATOM     78  C   UNL     1      -9.966 -11.992   1.081  1.00  0.00    -0.014 A 
ATOM     79  C   UNL     1     -10.890 -11.190   1.772  1.00  0.00     0.010 A 
ATOM     80  C   UNL     1     -10.188 -13.380   1.002  1.00  0.00     0.010 A 
ATOM     81  C   UNL     1     -11.995 -11.768   2.401  1.00  0.00     0.020 A 
ATOM     82  C   UNL     1     -11.310 -13.958   1.601  1.00  0.00     0.020 A 
ATOM     83  C   UNL     1     -12.198 -13.149   2.311  1.00  0.00     0.054 A 
BRANCH  83  84
ATOM     84  S   UNL     1     -13.662 -13.870   3.103  1.00  0.00     0.124 S 
ATOM     85  O   UNL     1     -13.317 -13.777   4.519  1.00  0.00    -0.237 OA
ATOM     86  O   UNL     1     -14.735 -12.984   2.658  1.00  0.00    -0.237 OA
ATOM     87  O   UNL     1     -13.717 -15.226   2.563  1.00  0.00    -0.744 OA
ENDBRANCH  83  84
ENDBRANCH  57  78
ENDBRANCH  31  32
ENDBRANCH  23  26
ENDBRANCH  21  22
ENDBRANCH   1  21
TORSDOF 17
