REMARK SMILES O=C(NCCCNC(=O)[C@H]1CCCN(C(=O)C2CCN(S(=O)(=O)c3ccccc3)CC2)C1)c1ccc(-c2c3nc(c(-c4ccc(S(=O)(=O)[O-])cc4)c4ccc([nH]4)c(-c4ccc(S(=O)(=O)[O-])cc4)c4nc(c(-c5ccc(S(=O)(=O)[O-])cc5)c5ccc2[nH]5)C=C4)C=C3)cc1
REMARK SMILES IDX 5 1 4 2 3 3 1 4 2 5 33 7 34 8 92 9 35 10 91 11 36 12 37 13
REMARK SMILES IDX 38 14 85 15 39 16 90 17 84 18 86 19 40 20 89 21 83 22 82 23
REMARK SMILES IDX 41 25 71 26 52 27 70 28 53 29 56 30 69 31 87 32 54 33 55 34
REMARK SMILES IDX 68 36 88 37 57 38 42 39 43 40 51 41 44 42 50 43 45 44 46 45
REMARK SMILES IDX 47 46 48 47 49 48 72 49 73 50 81 51 74 52 80 53 75 54 76 55
REMARK SMILES IDX 77 56 78 57 79 58 58 59 59 60 67 61 60 62 66 63 61 64 62 65
REMARK SMILES IDX 63 66 64 67 65 68 6 69 7 70 8 71 9 73 10 74 11 75 32 76
REMARK SMILES IDX 12 77 14 78 13 79 15 80 16 81 17 82 18 83 31 84 19 85 30 86
REMARK SMILES IDX 20 87 21 88 22 89 23 90 24 91 25 92 29 93 26 94 28 95 27 96
REMARK H PARENT 3 6 86 24 56 35 7 72
REMARK Flexibility Score: inf
ROOT
ATOM      1  C   UNL     1       5.590   2.132  -0.814  1.00  0.00     0.042 C 
ENDROOT
BRANCH   1   2
ATOM      2  C   UNL     1       4.761   0.891  -1.109  1.00  0.00     0.118 C 
BRANCH   2   3
ATOM      3  N   UNL     1       5.586  -0.274  -1.399  1.00  0.00    -0.352 N 
ATOM      4  O   UNL     1       6.373  -2.365  -1.116  1.00  0.00    -0.269 OA
ATOM      5  C   UNL     1       5.488  -1.546  -0.890  1.00  0.00     0.251 C 
ATOM      6  H   UNL     1       6.313  -0.131  -2.047  1.00  0.00     0.163 HD
BRANCH   5   7
ATOM      7  C   UNL     1       4.324  -1.905  -0.057  1.00  0.00     0.039 A 
ATOM      8  C   UNL     1       3.034  -1.529  -0.443  1.00  0.00     0.014 A 
ATOM      9  C   UNL     1       4.527  -2.628   1.122  1.00  0.00     0.014 A 
ATOM     10  C   UNL     1       1.965  -1.766   0.410  1.00  0.00     0.010 A 
ATOM     11  C   UNL     1       3.437  -2.936   1.939  1.00  0.00     0.010 A 
ATOM     12  C   UNL     1       2.152  -2.488   1.599  1.00  0.00    -0.014 A 
BRANCH  12  13
ATOM     13  C   UNL     1       0.971  -2.832   2.423  1.00  0.00     0.031 A 
ATOM     14  C   UNL     1       0.782  -2.252   3.795  1.00  0.00     0.074 A 
ATOM     15  C   UNL     1       0.046  -3.657   1.895  1.00  0.00     0.049 A 
ATOM     16  N   UNL     1      -0.212  -2.429   4.628  1.00  0.00    -0.248 NA
ATOM     17  C   UNL     1       1.841  -1.366   4.303  1.00  0.00     0.031 C 
ATOM     18  C   UNL     1       0.134  -4.284   0.572  1.00  0.00     0.029 A 
ATOM     19  N   UNL     1      -1.157  -4.089   2.387  1.00  0.00    -0.354 N 
ATOM     20  C   UNL     1       0.110  -1.698   5.765  1.00  0.00     0.074 A 
ATOM     21  C   UNL     1       1.399  -1.085   5.522  1.00  0.00     0.031 C 
ATOM     22  C   UNL     1      -0.991  -4.975   0.337  1.00  0.00     0.029 A 
ATOM     23  C   UNL     1      -1.851  -4.888   1.511  1.00  0.00     0.049 A 
ATOM     24  H   UNL     1      -1.491  -3.851   3.282  1.00  0.00     0.167 HD
ATOM     25  C   UNL     1      -0.607  -1.553   6.906  1.00  0.00     0.031 A 
ATOM     26  C   UNL     1      -3.046  -5.493   1.637  1.00  0.00     0.031 A 
ATOM     27  C   UNL     1      -1.891  -2.162   7.136  1.00  0.00     0.049 A 
ATOM     28  C   UNL     1      -3.816  -5.317   2.911  1.00  0.00     0.074 A 
ATOM     29  C   UNL     1      -2.706  -2.059   8.251  1.00  0.00     0.029 A 
ATOM     30  N   UNL     1      -2.548  -2.988   6.236  1.00  0.00    -0.354 N 
ATOM     31  N   UNL     1      -3.499  -4.609   3.969  1.00  0.00    -0.248 NA
ATOM     32  C   UNL     1      -5.099  -6.022   3.010  1.00  0.00     0.031 C 
ATOM     33  C   UNL     1      -3.840  -2.852   8.038  1.00  0.00     0.029 A 
ATOM     34  C   UNL     1      -3.750  -3.416   6.776  1.00  0.00     0.049 A 
ATOM     35  H   UNL     1      -2.210  -3.234   5.345  1.00  0.00     0.167 HD
ATOM     36  C   UNL     1      -4.547  -4.783   4.863  1.00  0.00     0.074 A 
ATOM     37  C   UNL     1      -5.516  -5.642   4.210  1.00  0.00     0.031 C 
ATOM     38  C   UNL     1      -4.691  -4.283   6.114  1.00  0.00     0.031 A 
BRANCH  25  39
ATOM     39  C   UNL     1      -0.003  -0.722   8.005  1.00  0.00    -0.014 A 
ATOM     40  C   UNL     1       0.026   0.682   7.923  1.00  0.00     0.010 A 
ATOM     41  C   UNL     1       0.506  -1.352   9.155  1.00  0.00     0.010 A 
ATOM     42  C   UNL     1       0.586   1.439   8.957  1.00  0.00     0.020 A 
ATOM     43  C   UNL     1       1.049  -0.598  10.199  1.00  0.00     0.020 A 
ATOM     44  C   UNL     1       1.101   0.793  10.085  1.00  0.00     0.054 A 
BRANCH  44  45
ATOM     45  S   UNL     1       1.812   1.797  11.420  1.00  0.00     0.124 S 
ATOM     46  O   UNL     1       3.113   2.159  10.863  1.00  0.00    -0.237 OA
ATOM     47  O   UNL     1       0.856   2.894  11.545  1.00  0.00    -0.237 OA
ATOM     48  O   UNL     1       1.854   0.880  12.557  1.00  0.00    -0.744 OA
ENDBRANCH  44  45
ENDBRANCH  25  39
BRANCH  26  49
ATOM     49  C   UNL     1      -3.565  -6.326   0.523  1.00  0.00    -0.014 A 
ATOM     50  C   UNL     1      -4.623  -5.867  -0.279  1.00  0.00     0.010 A 
ATOM     51  C   UNL     1      -2.963  -7.563   0.227  1.00  0.00     0.010 A 
ATOM     52  C   UNL     1      -5.074  -6.633  -1.357  1.00  0.00     0.020 A 
ATOM     53  C   UNL     1      -3.396  -8.319  -0.864  1.00  0.00     0.020 A 
ATOM     54  C   UNL     1      -4.456  -7.854  -1.645  1.00  0.00     0.054 A 
BRANCH  54  55
ATOM     55  S   UNL     1      -5.001  -8.800  -3.093  1.00  0.00     0.124 S 
ATOM     56  O   UNL     1      -6.192  -9.472  -2.584  1.00  0.00    -0.237 OA
ATOM     57  O   UNL     1      -5.238  -7.757  -4.088  1.00  0.00    -0.237 OA
ATOM     58  O   UNL     1      -3.861  -9.670  -3.377  1.00  0.00    -0.744 OA
ENDBRANCH  54  55
ENDBRANCH  26  49
BRANCH  38  59
ATOM     59  C   UNL     1      -5.946  -4.653   6.850  1.00  0.00    -0.014 A 
ATOM     60  C   UNL     1      -6.099  -5.932   7.412  1.00  0.00     0.010 A 
ATOM     61  C   UNL     1      -6.971  -3.703   7.004  1.00  0.00     0.010 A 
ATOM     62  C   UNL     1      -7.273  -6.267   8.090  1.00  0.00     0.020 A 
ATOM     63  C   UNL     1      -8.138  -4.029   7.698  1.00  0.00     0.020 A 
ATOM     64  C   UNL     1      -8.288  -5.314   8.224  1.00  0.00     0.054 A 
BRANCH  64  65
ATOM     65  S   UNL     1      -9.793  -5.758   9.134  1.00  0.00     0.124 S 
ATOM     66  O   UNL     1     -10.531  -6.531   8.140  1.00  0.00    -0.237 OA
ATOM     67  O   UNL     1      -9.274  -6.521  10.267  1.00  0.00    -0.237 OA
ATOM     68  O   UNL     1     -10.378  -4.464   9.481  1.00  0.00    -0.744 OA
ENDBRANCH  64  65
ENDBRANCH  38  59
ENDBRANCH  12  13
ENDBRANCH   5   7
ENDBRANCH   2   3
ENDBRANCH   1   2
BRANCH   1  69
ATOM     69  C   UNL     1       6.423   2.587  -2.003  1.00  0.00     0.117 C 
BRANCH  69  70
ATOM     70  N   UNL     1       5.581   2.972  -3.125  1.00  0.00    -0.356 N 
ATOM     71  C   UNL     1       5.136   4.218  -3.472  1.00  0.00     0.224 C 
ATOM     72  H   UNL     1       5.293   2.237  -3.714  1.00  0.00     0.163 HD
ATOM     73  O   UNL     1       4.308   4.330  -4.372  1.00  0.00    -0.275 OA
BRANCH  71  74
ATOM     74  C   UNL     1       5.781   5.408  -2.796  1.00  0.00     0.098 C 
ATOM     75  C   UNL     1       7.173   5.580  -3.426  1.00  0.00     0.017 C 
ATOM     76  C   UNL     1       4.950   6.693  -2.949  1.00  0.00     0.133 C 
ATOM     77  C   UNL     1       7.856   6.805  -2.857  1.00  0.00     0.022 C 
ATOM     78  N   UNL     1       5.694   7.856  -2.415  1.00  0.00    -0.342 N 
ATOM     79  C   UNL     1       6.979   8.037  -3.060  1.00  0.00     0.119 C 
BRANCH  78  80
ATOM     80  C   UNL     1       5.125   8.647  -1.435  1.00  0.00     0.225 C 
ATOM     81  O   UNL     1       3.977   8.392  -1.044  1.00  0.00    -0.275 OA
BRANCH  80  82
ATOM     82  C   UNL     1       5.848   9.825  -0.721  1.00  0.00     0.081 C 
ATOM     83  C   UNL     1       6.317  11.031  -1.517  1.00  0.00     0.030 C 
ATOM     84  C   UNL     1       6.857   9.448   0.347  1.00  0.00     0.030 C 
ATOM     85  C   UNL     1       7.809  11.185  -1.802  1.00  0.00     0.103 C 
ATOM     86  C   UNL     1       8.260   9.267  -0.182  1.00  0.00     0.103 C 
ATOM     87  N   UNL     1       8.790  10.397  -0.972  1.00  0.00    -0.198 NA
BRANCH  87  88
ATOM     88  S   UNL     1      10.215  10.081  -1.933  1.00  0.00     0.243 S 
ATOM     89  O   UNL     1       9.807   9.248  -3.052  1.00  0.00    -0.207 OA
ATOM     90  O   UNL     1      10.817  11.369  -2.190  1.00  0.00    -0.207 OA
BRANCH  88  91
ATOM     91  C   UNL     1      11.381   9.094  -1.017  1.00  0.00     0.082 A 
ATOM     92  C   UNL     1      12.703   9.542  -0.917  1.00  0.00     0.022 A 
ATOM     93  C   UNL     1      11.073   7.777  -0.650  1.00  0.00     0.022 A 
ATOM     94  C   UNL     1      13.694   8.686  -0.428  1.00  0.00     0.001 A 
ATOM     95  C   UNL     1      12.057   6.941  -0.121  1.00  0.00     0.001 A 
ATOM     96  C   UNL     1      13.369   7.393  -0.019  1.00  0.00     0.000 A 
ENDBRANCH  88  91
ENDBRANCH  87  88
ENDBRANCH  80  82
ENDBRANCH  78  80
ENDBRANCH  71  74
ENDBRANCH  69  70
ENDBRANCH   1  69
TORSDOF 17
