REMARK SMILES Cc1cccc(C(=O)Nc2cc(C(=O)NCCCNC(=O)c3ccc(-c4c5nc(c(-c6ccc(S(=O)(=O)[O-])cc6)c6ccc([nH]6)c(-c6ccc(S(=O)(=O)[O-])cc6)c6nc(c(-c7ccc(S(=O)(=O)[O-])cc7)c7ccc4[nH]7)C=C6)C=C5)cc3)ccc2N2CC[NH+](CC(=O)NC(C)(C)C)CC2)c1
REMARK SMILES IDX 16 1 15 2 13 3 14 4 12 6 10 7 11 8 84 9 83 10 82 11 9 12
REMARK SMILES IDX 7 13 8 14 6 16 1 17 2 18 3 19 99 20 4 21 5 22 85 23 86 24
REMARK SMILES IDX 98 25 87 26 97 27 88 28 89 30 90 31 91 32 92 33 93 35 94 36
REMARK SMILES IDX 95 37 96 38 17 39 18 40 19 41 20 42 21 44 22 45 23 46 81 47
REMARK SMILES IDX 24 48 80 49 25 50 26 51 27 52 74 53 28 54 79 55 73 56 75 57
REMARK SMILES IDX 29 58 78 59 72 60 71 61 30 63 60 64 41 65 59 66 42 67 45 68
REMARK SMILES IDX 58 69 76 70 43 71 44 72 57 74 77 75 46 76 31 77 32 78 40 79
REMARK SMILES IDX 33 80 39 81 34 82 35 83 36 84 37 85 38 86 61 87 62 88 70 89
REMARK SMILES IDX 63 90 69 91 64 92 65 93 66 94 67 95 68 96 47 97 48 98 56 99
REMARK SMILES IDX 49 100 55 101 50 102 51 103 52 104 53 105 54 106
REMARK H PARENT 15 5 9 15 88 29 92 34 19 43 75 62 45 73
REMARK Flexibility Score: inf
ROOT
ATOM      1  C   UNL     1       0.940   0.612  -2.228  1.00  0.00     0.118 C 
ENDROOT
BRANCH   1   2
ATOM      2  N   UNL     1       2.276   1.204  -2.573  1.00  0.00    -0.352 N 
ATOM      3  C   UNL     1       3.089   2.228  -2.116  1.00  0.00     0.251 C 
ATOM      4  O   UNL     1       4.299   2.266  -2.329  1.00  0.00    -0.269 OA
ATOM      5  H   UNL     1       2.688   0.735  -3.334  1.00  0.00     0.163 HD
BRANCH   3   6
ATOM      6  C   UNL     1       2.490   3.338  -1.356  1.00  0.00     0.042 A 
ATOM      7  C   UNL     1       0.449   4.246  -0.586  1.00  0.00     0.065 A 
ATOM      8  C   UNL     1       1.133   3.507  -1.504  1.00  0.00     0.042 A 
ATOM      9  C   UNL     1       1.113   5.226   0.190  1.00  0.00     0.061 A 
ATOM     10  C   UNL     1       2.514   5.190   0.210  1.00  0.00     0.029 A 
ATOM     11  C   UNL     1       3.204   4.197  -0.508  1.00  0.00     0.016 A 
BRANCH   7  12
ATOM     12  N   UNL     1      -0.928   4.008  -0.464  1.00  0.00    -0.320 N 
ATOM     13  C   UNL     1      -1.593   2.889   0.038  1.00  0.00     0.255 C 
ATOM     14  O   UNL     1      -2.805   3.015   0.252  1.00  0.00    -0.269 OA
ATOM     15  H   UNL     1      -1.511   4.737  -0.777  1.00  0.00     0.170 HD
BRANCH  13  16
ATOM     16  C   UNL     1      -0.982   1.560   0.409  1.00  0.00     0.040 A 
ATOM     17  C   UNL     1       2.326  -0.225   1.109  1.00  0.00     0.044 C 
ATOM     18  C   UNL     1       0.845   0.021   0.963  1.00  0.00    -0.050 A 
ATOM     19  C   UNL     1       0.026  -1.076   0.656  1.00  0.00     0.003 A 
ATOM     20  C   UNL     1       0.312   1.337   0.916  1.00  0.00     0.017 A 
ATOM     21  C   UNL     1      -1.295  -0.872   0.274  1.00  0.00     0.001 A 
ATOM     22  C   UNL     1      -1.789   0.431   0.150  1.00  0.00     0.014 A 
ENDBRANCH  13  16
ENDBRANCH   7  12
BRANCH   9  23
ATOM     23  N   UNL     1       0.372   6.092   0.969  1.00  0.00    -0.359 N 
ATOM     24  C   UNL     1       0.721   7.471   1.325  1.00  0.00     0.178 C 
ATOM     25  C   UNL     1      -0.459   5.441   1.958  1.00  0.00     0.178 C 
ATOM     26  C   UNL     1      -0.572   8.256   1.758  1.00  0.00     0.284 C 
ATOM     27  C   UNL     1      -1.790   6.196   2.038  1.00  0.00     0.284 C 
ATOM     28  N   UNL     1      -1.622   7.558   2.548  1.00  0.00    -0.324 N 
ATOM     29  H   UNL     1      -2.473   8.099   2.396  1.00  0.00     0.348 HD
BRANCH  28  30
ATOM     30  C   UNL     1      -1.523   7.620   4.019  1.00  0.00     0.363 C 
BRANCH  30  31
ATOM     31  C   UNL     1      -0.416   6.799   4.674  1.00  0.00     0.275 C 
ATOM     32  O   UNL     1       0.720   7.284   4.775  1.00  0.00    -0.268 OA
ATOM     33  N   UNL     1      -0.565   5.536   5.173  1.00  0.00    -0.347 N 
ATOM     34  H   UNL     1       0.262   5.263   5.633  1.00  0.00     0.164 HD
BRANCH  33  35
ATOM     35  C   UNL     1      -1.572   4.433   5.252  1.00  0.00     0.032 C 
ATOM     36  C   UNL     1      -1.420   3.398   4.116  1.00  0.00     0.034 C 
ATOM     37  C   UNL     1      -1.246   3.656   6.546  1.00  0.00     0.034 C 
ATOM     38  C   UNL     1      -3.027   4.895   5.341  1.00  0.00     0.034 C 
ENDBRANCH  33  35
ENDBRANCH  30  31
ENDBRANCH  28  30
ENDBRANCH   9  23
ENDBRANCH   3   6
ENDBRANCH   1   2
BRANCH   1  39
ATOM     39  C   UNL     1      -0.394   0.601  -3.169  1.00  0.00     0.042 C 
BRANCH  39  40
ATOM     40  C   UNL     1      -0.810  -0.852  -3.736  1.00  0.00     0.118 C 
BRANCH  40  41
ATOM     41  N   UNL     1      -1.862  -1.245  -4.848  1.00  0.00    -0.352 N 
ATOM     42  C   UNL     1      -1.940  -2.006  -6.098  1.00  0.00     0.251 C 
ATOM     43  H   UNL     1      -2.741  -0.856  -4.634  1.00  0.00     0.163 HD
ATOM     44  O   UNL     1      -2.846  -2.861  -6.090  1.00  0.00    -0.269 OA
BRANCH  42  45
ATOM     45  C   UNL     1      -1.131  -1.987  -7.459  1.00  0.00     0.039 A 
ATOM     46  C   UNL     1      -0.650  -3.176  -8.084  1.00  0.00     0.014 A 
ATOM     47  C   UNL     1      -0.779  -0.860  -8.168  1.00  0.00     0.014 A 
ATOM     48  C   UNL     1       0.620  -3.171  -8.764  1.00  0.00     0.010 A 
ATOM     49  C   UNL     1       0.445  -0.847  -8.890  1.00  0.00     0.010 A 
ATOM     50  C   UNL     1       1.292  -1.966  -8.950  1.00  0.00    -0.014 A 
BRANCH  50  51
ATOM     51  C   UNL     1       2.801  -1.809  -9.083  1.00  0.00     0.031 A 
ATOM     52  C   UNL     1       3.387  -1.467 -10.372  1.00  0.00     0.074 A 
ATOM     53  C   UNL     1       3.756  -1.774  -8.098  1.00  0.00     0.049 A 
ATOM     54  N   UNL     1       4.441  -2.022 -10.873  1.00  0.00    -0.248 NA
ATOM     55  C   UNL     1       2.830  -0.398 -11.177  1.00  0.00     0.031 C 
ATOM     56  C   UNL     1       5.202  -1.462  -8.080  1.00  0.00     0.029 A 
ATOM     57  N   UNL     1       3.581  -1.983  -6.749  1.00  0.00    -0.354 N 
ATOM     58  C   UNL     1       4.885  -1.157 -11.847  1.00  0.00     0.074 A 
ATOM     59  C   UNL     1       3.757  -0.295 -12.128  1.00  0.00     0.031 C 
ATOM     60  C   UNL     1       5.753  -1.919  -6.927  1.00  0.00     0.029 A 
ATOM     61  C   UNL     1       4.700  -2.564  -6.171  1.00  0.00     0.049 A 
ATOM     62  H   UNL     1       2.763  -1.748  -6.255  1.00  0.00     0.167 HD
ATOM     63  C   UNL     1       6.213  -1.068 -12.157  1.00  0.00     0.031 A 
ATOM     64  C   UNL     1       4.585  -3.849  -5.716  1.00  0.00     0.031 A 
ATOM     65  C   UNL     1       7.048  -1.871 -11.248  1.00  0.00     0.049 A 
ATOM     66  C   UNL     1       5.343  -4.763  -6.625  1.00  0.00     0.074 A 
ATOM     67  C   UNL     1       7.934  -1.529 -10.236  1.00  0.00     0.029 A 
ATOM     68  N   UNL     1       6.787  -3.229 -11.081  1.00  0.00    -0.354 N 
ATOM     69  N   UNL     1       5.851  -4.353  -7.748  1.00  0.00    -0.248 NA
ATOM     70  C   UNL     1       5.623  -6.170  -6.376  1.00  0.00     0.031 C 
ATOM     71  C   UNL     1       8.109  -2.667  -9.396  1.00  0.00     0.029 A 
ATOM     72  C   UNL     1       7.369  -3.713  -9.921  1.00  0.00     0.049 A 
ATOM     73  H   UNL     1       6.257  -3.775 -11.706  1.00  0.00     0.167 HD
ATOM     74  C   UNL     1       6.540  -5.345  -8.354  1.00  0.00     0.074 A 
ATOM     75  C   UNL     1       6.369  -6.477  -7.457  1.00  0.00     0.031 C 
ATOM     76  C   UNL     1       7.188  -5.114  -9.530  1.00  0.00     0.031 A 
BRANCH  63  77
ATOM     77  C   UNL     1       6.758  -0.003 -13.092  1.00  0.00    -0.014 A 
ATOM     78  C   UNL     1       8.118   0.361 -13.063  1.00  0.00     0.010 A 
ATOM     79  C   UNL     1       5.970   0.663 -14.053  1.00  0.00     0.010 A 
ATOM     80  C   UNL     1       8.635   1.377 -13.889  1.00  0.00     0.020 A 
ATOM     81  C   UNL     1       6.450   1.720 -14.836  1.00  0.00     0.020 A 
ATOM     82  C   UNL     1       7.790   2.064 -14.759  1.00  0.00     0.054 A 
BRANCH  82  83
ATOM     83  S   UNL     1       8.463   3.353 -15.838  1.00  0.00     0.124 S 
ATOM     84  O   UNL     1       9.062   4.287 -14.889  1.00  0.00    -0.237 OA
ATOM     85  O   UNL     1       9.405   2.604 -16.666  1.00  0.00    -0.237 OA
ATOM     86  O   UNL     1       7.291   3.863 -16.548  1.00  0.00    -0.744 OA
ENDBRANCH  82  83
ENDBRANCH  63  77
BRANCH  64  87
ATOM     87  C   UNL     1       3.272  -4.149  -4.993  1.00  0.00    -0.014 A 
ATOM     88  C   UNL     1       3.088  -3.341  -3.857  1.00  0.00     0.010 A 
ATOM     89  C   UNL     1       2.134  -4.264  -5.779  1.00  0.00     0.010 A 
ATOM     90  C   UNL     1       2.350  -2.158  -4.005  1.00  0.00     0.020 A 
ATOM     91  C   UNL     1       1.260  -3.160  -5.790  1.00  0.00     0.020 A 
ATOM     92  C   UNL     1       1.585  -1.977  -5.148  1.00  0.00     0.054 A 
BRANCH  92  93
ATOM     93  S   UNL     1       1.390  -0.079  -5.828  1.00  0.00     0.124 S 
ATOM     94  O   UNL     1       2.093   0.605  -4.763  1.00  0.00    -0.237 OA
ATOM     95  O   UNL     1       2.165   0.082  -7.048  1.00  0.00    -0.237 OA
ATOM     96  O   UNL     1      -0.001   0.254  -5.938  1.00  0.00    -0.744 OA
ENDBRANCH  92  93
ENDBRANCH  64  87
BRANCH  76  97
ATOM     97  C   UNL     1       7.795  -6.174 -10.398  1.00  0.00    -0.014 A 
ATOM     98  C   UNL     1       7.462  -7.532 -10.326  1.00  0.00     0.010 A 
ATOM     99  C   UNL     1       8.671  -5.771 -11.433  1.00  0.00     0.010 A 
ATOM    100  C   UNL     1       8.037  -8.459 -11.200  1.00  0.00     0.020 A 
ATOM    101  C   UNL     1       9.199  -6.676 -12.348  1.00  0.00     0.020 A 
ATOM    102  C   UNL     1       8.904  -8.024 -12.203  1.00  0.00     0.054 A 
BRANCH 102 103
ATOM    103  S   UNL     1       9.605  -9.231 -13.344  1.00  0.00     0.124 S 
ATOM    104  O   UNL     1      10.688  -9.800 -12.546  1.00  0.00    -0.237 OA
ATOM    105  O   UNL     1       8.479 -10.126 -13.600  1.00  0.00    -0.237 OA
ATOM    106  O   UNL     1      10.025  -8.426 -14.488  1.00  0.00    -0.744 OA
ENDBRANCH 102 103
ENDBRANCH  76  97
ENDBRANCH  50  51
ENDBRANCH  42  45
ENDBRANCH  40  41
ENDBRANCH  39  40
ENDBRANCH   1  39
TORSDOF 19
