REMARK SMILES Cc1ccc(-c2c(C)sc(NC(=O)[C@H]3CC=CC[C@H]3C(=O)NCCCNC(=O)c3ccc(-c4c5nc(c(-c6ccc(S(=O)(=O)[O-])cc6)c6ccc([nH]6)c(-c6ccc(S(=O)(=O)[O-])cc6)c6nc(c(-c7ccc(S(=O)(=O)[O-])cc7)c7ccc4[nH]7)C=C6)C=C5)cc3)c2C(N)=O)cc1
REMARK SMILES IDX 24 1 23 2 22 3 20 4 21 5 19 7 14 8 15 9 16 10 18 11 17 12
REMARK SMILES IDX 12 13 11 14 13 16 10 17 6 18 7 19 89 20 8 21 9 22 5 23 1 24
REMARK SMILES IDX 2 25 3 26 94 27 4 28 93 29 90 30 91 31 92 32 25 35 26 36
REMARK SMILES IDX 27 37 28 39 29 40 30 41 88 42 31 43 87 44 32 45 33 46 34 47
REMARK SMILES IDX 81 48 35 49 86 50 80 51 82 52 36 53 85 54 79 55 78 56 37 58
REMARK SMILES IDX 67 59 48 60 66 61 49 62 52 63 65 64 83 65 50 66 51 67 64 69
REMARK SMILES IDX 84 70 53 71 38 72 39 73 47 74 40 75 46 76 41 77 42 78 43 79
REMARK SMILES IDX 44 80 45 81 68 82 69 83 77 84 70 85 76 86 71 87 72 88 73 89
REMARK SMILES IDX 74 90 75 91 54 92 55 93 63 94 56 95 62 96 57 97 58 98 59 99
REMARK SMILES IDX 60 100 61 101
REMARK H PARENT 22 6 11 15 91 33 91 34 26 38 82 57 52 68
REMARK Flexibility Score: inf
ROOT
ATOM      1  C   UNL     1      -7.694  -2.755   2.349  1.00  0.00     0.042 C 
ENDROOT
BRANCH   1   2
ATOM      2  C   UNL     1      -7.236  -3.234   0.980  1.00  0.00     0.117 C 
BRANCH   2   3
ATOM      3  N   UNL     1      -8.362  -3.253   0.076  1.00  0.00    -0.356 N 
ATOM      4  C   UNL     1      -8.914  -2.259  -0.656  1.00  0.00     0.224 C 
ATOM      5  O   UNL     1     -10.075  -2.438  -1.043  1.00  0.00    -0.275 OA
ATOM      6  H   UNL     1      -8.798  -4.130  -0.023  1.00  0.00     0.163 HD
BRANCH   4   7
ATOM      7  C   UNL     1      -8.178  -0.991  -1.074  1.00  0.00     0.095 C 
ATOM      8  C   UNL     1      -8.219   0.264  -0.183  1.00  0.00     0.095 C 
ATOM      9  C   UNL     1      -8.005   1.514  -1.065  1.00  0.00     0.041 C 
ATOM     10  C   UNL     1      -7.109   1.293  -2.269  1.00  0.00    -0.030 C 
ATOM     11  C   UNL     1      -6.869  -1.165  -1.833  1.00  0.00     0.041 C 
ATOM     12  C   UNL     1      -6.562   0.105  -2.588  1.00  0.00    -0.030 C 
BRANCH   8  13
ATOM     13  C   UNL     1      -7.550   0.289   1.217  1.00  0.00     0.229 C 
ATOM     14  N   UNL     1      -6.253   0.048   1.568  1.00  0.00    -0.317 N 
ATOM     15  H   UNL     1      -6.164  -0.402   2.438  1.00  0.00     0.170 HD
ATOM     16  O   UNL     1      -8.306   0.469   2.190  1.00  0.00    -0.274 OA
BRANCH  14  17
ATOM     17  C   UNL     1      -5.040   0.302   0.960  1.00  0.00     0.109 A 
ATOM     18  C   UNL     1      -2.793   0.405   0.319  1.00  0.00     0.010 A 
ATOM     19  C   UNL     1      -3.403   1.227  -0.612  1.00  0.00     0.012 A 
ATOM     20  C   UNL     1      -3.751  -0.134   1.279  1.00  0.00     0.082 A 
ATOM     21  C   UNL     1      -2.906   1.828  -1.883  1.00  0.00     0.057 C 
ATOM     22  S   UNL     1      -4.955   1.634  -0.076  1.00  0.00    -0.122 S 
BRANCH  18  23
ATOM     23  C   UNL     1      -1.354   0.174   0.256  1.00  0.00    -0.016 A 
ATOM     24  C   UNL     1       2.906  -0.353  -0.090  1.00  0.00     0.044 C 
ATOM     25  C   UNL     1       1.423  -0.166   0.025  1.00  0.00    -0.051 A 
ATOM     26  C   UNL     1       0.558  -1.262  -0.098  1.00  0.00     0.004 A 
ATOM     27  C   UNL     1       0.890   1.097   0.297  1.00  0.00     0.004 A 
ATOM     28  C   UNL     1      -0.827  -1.095   0.012  1.00  0.00     0.009 A 
ATOM     29  C   UNL     1      -0.488   1.263   0.419  1.00  0.00     0.009 A 
ENDBRANCH  18  23
BRANCH  20  30
ATOM     30  C   UNL     1      -3.366  -0.986   2.405  1.00  0.00     0.252 C 
ATOM     31  N   UNL     1      -4.237  -1.962   2.766  1.00  0.00    -0.365 N 
ATOM     32  O   UNL     1      -2.299  -0.864   3.006  1.00  0.00    -0.269 OA
ATOM     33  H   UNL     1      -5.092  -2.061   2.287  1.00  0.00     0.159 HD
ATOM     34  H   UNL     1      -4.015  -2.571   3.507  1.00  0.00     0.159 HD
ENDBRANCH  20  30
ENDBRANCH  14  17
ENDBRANCH   8  13
ENDBRANCH   4   7
ENDBRANCH   2   3
ENDBRANCH   1   2
BRANCH   1  35
ATOM     35  C   UNL     1      -8.280  -3.846   3.217  1.00  0.00     0.118 C 
BRANCH  35  36
ATOM     36  N   UNL     1      -7.338  -4.349   4.211  1.00  0.00    -0.352 N 
ATOM     37  C   UNL     1      -7.710  -4.584   5.537  1.00  0.00     0.251 C 
ATOM     38  H   UNL     1      -6.409  -4.527   3.938  1.00  0.00     0.163 HD
ATOM     39  O   UNL     1      -7.071  -4.235   6.500  1.00  0.00    -0.269 OA
BRANCH  37  40
ATOM     40  C   UNL     1      -8.953  -5.384   5.665  1.00  0.00     0.039 A 
ATOM     41  C   UNL     1      -8.841  -6.776   5.646  1.00  0.00     0.014 A 
ATOM     42  C   UNL     1     -10.155  -4.751   5.371  1.00  0.00     0.014 A 
ATOM     43  C   UNL     1      -9.902  -7.535   5.155  1.00  0.00     0.010 A 
ATOM     44  C   UNL     1     -11.135  -5.493   4.743  1.00  0.00     0.010 A 
ATOM     45  C   UNL     1     -11.006  -6.884   4.608  1.00  0.00    -0.014 A 
BRANCH  45  46
ATOM     46  C   UNL     1     -12.046  -7.544   3.818  1.00  0.00     0.031 A 
ATOM     47  C   UNL     1     -13.448  -7.568   4.319  1.00  0.00     0.074 A 
ATOM     48  C   UNL     1     -11.790  -8.060   2.592  1.00  0.00     0.049 A 
ATOM     49  N   UNL     1     -14.351  -8.400   3.914  1.00  0.00    -0.248 NA
ATOM     50  C   UNL     1     -13.935  -6.675   5.369  1.00  0.00     0.031 C 
ATOM     51  C   UNL     1     -12.785  -8.397   1.574  1.00  0.00     0.029 A 
ATOM     52  N   UNL     1     -10.604  -8.587   2.076  1.00  0.00    -0.354 N 
ATOM     53  C   UNL     1     -15.563  -7.970   4.405  1.00  0.00     0.074 A 
ATOM     54  C   UNL     1     -15.245  -6.930   5.352  1.00  0.00     0.031 C 
ATOM     55  C   UNL     1     -12.266  -9.317   0.750  1.00  0.00     0.029 A 
ATOM     56  C   UNL     1     -10.969  -9.691   1.284  1.00  0.00     0.049 A 
ATOM     57  H   UNL     1      -9.692  -8.251   2.234  1.00  0.00     0.167 HD
ATOM     58  C   UNL     1     -16.724  -8.442   3.873  1.00  0.00     0.031 A 
ATOM     59  C   UNL     1     -10.522 -10.969   1.457  1.00  0.00     0.031 A 
ATOM     60  C   UNL     1     -16.493  -9.451   2.849  1.00  0.00     0.049 A 
ATOM     61  C   UNL     1     -11.637 -11.983   1.609  1.00  0.00     0.074 A 
ATOM     62  C   UNL     1     -16.486  -9.419   1.465  1.00  0.00     0.029 A 
ATOM     63  N   UNL     1     -15.953 -10.673   3.220  1.00  0.00    -0.354 N 
ATOM     64  N   UNL     1     -12.887 -11.661   1.783  1.00  0.00    -0.248 NA
ATOM     65  C   UNL     1     -11.436 -13.430   1.642  1.00  0.00     0.031 C 
ATOM     66  C   UNL     1     -15.895 -10.622   1.001  1.00  0.00     0.029 A 
ATOM     67  C   UNL     1     -15.561 -11.386   2.105  1.00  0.00     0.049 A 
ATOM     68  H   UNL     1     -15.862 -10.988   4.148  1.00  0.00     0.167 HD
ATOM     69  C   UNL     1     -13.640 -12.788   1.986  1.00  0.00     0.074 A 
ATOM     70  C   UNL     1     -12.688 -13.876   1.861  1.00  0.00     0.031 C 
ATOM     71  C   UNL     1     -14.976 -12.710   2.264  1.00  0.00     0.031 A 
BRANCH  58  72
ATOM     72  C   UNL     1     -18.064  -7.790   4.111  1.00  0.00    -0.014 A 
ATOM     73  C   UNL     1     -19.037  -7.808   3.090  1.00  0.00     0.010 A 
ATOM     74  C   UNL     1     -18.413  -7.115   5.296  1.00  0.00     0.010 A 
ATOM     75  C   UNL     1     -20.245  -7.108   3.204  1.00  0.00     0.020 A 
ATOM     76  C   UNL     1     -19.599  -6.375   5.408  1.00  0.00     0.020 A 
ATOM     77  C   UNL     1     -20.507  -6.369   4.354  1.00  0.00     0.054 A 
BRANCH  77  78
ATOM     78  S   UNL     1     -22.033  -5.398   4.448  1.00  0.00     0.124 S 
ATOM     79  O   UNL     1     -21.967  -4.586   3.235  1.00  0.00    -0.237 OA
ATOM     80  O   UNL     1     -23.062  -6.433   4.457  1.00  0.00    -0.237 OA
ATOM     81  O   UNL     1     -21.892  -4.650   5.696  1.00  0.00    -0.744 OA
ENDBRANCH  77  78
ENDBRANCH  58  72
BRANCH  59  82
ATOM     82  C   UNL     1      -9.170 -11.063   2.070  1.00  0.00    -0.014 A 
ATOM     83  C   UNL     1      -8.084 -10.660   1.264  1.00  0.00     0.010 A 
ATOM     84  C   UNL     1      -9.031 -11.034   3.469  1.00  0.00     0.010 A 
ATOM     85  C   UNL     1      -6.982 -10.019   1.835  1.00  0.00     0.020 A 
ATOM     86  C   UNL     1      -7.919 -10.399   4.042  1.00  0.00     0.020 A 
ATOM     87  C   UNL     1      -6.957  -9.812   3.213  1.00  0.00     0.054 A 
BRANCH  87  88
ATOM     88  S   UNL     1      -5.770  -8.602   3.880  1.00  0.00     0.124 S 
ATOM     89  O   UNL     1      -4.516  -9.003   3.251  1.00  0.00    -0.237 OA
ATOM     90  O   UNL     1      -6.326  -7.328   3.414  1.00  0.00    -0.237 OA
ATOM     91  O   UNL     1      -5.851  -8.816   5.321  1.00  0.00    -0.744 OA
ENDBRANCH  87  88
ENDBRANCH  59  82
BRANCH  71  92
ATOM     92  C   UNL     1     -15.898 -13.837   2.678  1.00  0.00    -0.014 A 
ATOM     93  C   UNL     1     -15.476 -15.064   3.210  1.00  0.00     0.010 A 
ATOM     94  C   UNL     1     -17.299 -13.607   2.650  1.00  0.00     0.010 A 
ATOM     95  C   UNL     1     -16.400 -16.025   3.652  1.00  0.00     0.020 A 
ATOM     96  C   UNL     1     -18.226 -14.537   3.127  1.00  0.00     0.020 A 
ATOM     97  C   UNL     1     -17.769 -15.756   3.609  1.00  0.00     0.054 A 
BRANCH  97  98
ATOM     98  S   UNL     1     -18.951 -16.965   4.258  1.00  0.00     0.124 S 
ATOM     99  O   UNL     1     -19.232 -17.776   3.077  1.00  0.00    -0.237 OA
ATOM    100  O   UNL     1     -18.191 -17.636   5.311  1.00  0.00    -0.237 OA
ATOM    101  O   UNL     1     -20.058 -16.138   4.732  1.00  0.00    -0.744 OA
ENDBRANCH  97  98
ENDBRANCH  71  92
ENDBRANCH  45  46
ENDBRANCH  37  40
ENDBRANCH  35  36
ENDBRANCH   1  35
TORSDOF 17
