REMARK SMILES COc1ccccc1[C@H](C)NC(=O)[C@@H]1CC=CC[C@@H]1C(=O)NCCCNC(=O)c1ccc(-c2c3nc(c(-c4ccc(S(=O)(=O)[O-])cc4)c4ccc([nH]4)c(-c4ccc(S(=O)(=O)[O-])cc4)c4nc(c(-c5ccc(S(=O)(=O)[O-])cc5)c5ccc2[nH]5)C=C4)C=C3)cc1
REMARK SMILES IDX 23 1 22 2 20 3 21 4 19 6 14 7 15 8 16 9 18 10 17 11 12 12
REMARK SMILES IDX 11 13 13 15 9 16 10 17 8 18 3 19 4 20 5 21 7 22 6 23 2 24
REMARK SMILES IDX 1 25 24 26 25 27 26 28 27 29 28 31 29 32 30 33 88 34 31 35
REMARK SMILES IDX 87 36 32 37 33 38 34 39 81 40 35 41 86 42 80 43 82 44 36 45
REMARK SMILES IDX 85 46 79 47 78 48 37 50 67 51 48 52 66 53 49 54 52 55 65 56
REMARK SMILES IDX 83 57 50 58 51 59 64 61 84 62 53 63 38 64 39 65 47 66 40 67
REMARK SMILES IDX 46 68 41 69 42 70 43 71 44 72 45 73 68 74 69 75 77 76 70 77
REMARK SMILES IDX 76 78 71 79 72 80 73 81 74 82 75 83 54 84 55 85 63 86 56 87
REMARK SMILES IDX 62 88 57 89 58 90 59 91 60 92 61 93
REMARK H PARENT 22 5 11 14 26 30 82 49 52 60
REMARK Flexibility Score: inf
ROOT
ATOM      1  C   UNL     1      -0.127   3.158   3.243  1.00  0.00     0.117 C 
ENDROOT
BRANCH   1   2
ATOM      2  N   UNL     1      -0.345   1.800   2.770  1.00  0.00    -0.356 N 
ATOM      3  C   UNL     1       0.546   0.801   2.497  1.00  0.00     0.224 C 
ATOM      4  O   UNL     1       0.079  -0.290   2.173  1.00  0.00    -0.275 OA
ATOM      5  H   UNL     1      -1.289   1.562   2.621  1.00  0.00     0.163 HD
BRANCH   3   6
ATOM      6  C   UNL     1       2.050   1.075   2.521  1.00  0.00     0.095 C 
ATOM      7  C   UNL     1       2.890  -0.138   2.062  1.00  0.00     0.095 C 
ATOM      8  C   UNL     1       2.822  -1.284   3.114  1.00  0.00     0.041 C 
ATOM      9  C   UNL     1       2.919  -0.835   4.538  1.00  0.00    -0.030 C 
ATOM     10  C   UNL     1       2.560   1.541   3.911  1.00  0.00     0.041 C 
ATOM     11  C   UNL     1       2.828   0.449   4.896  1.00  0.00    -0.030 C 
BRANCH   7  12
ATOM     12  C   UNL     1       2.722  -0.784   0.678  1.00  0.00     0.224 C 
ATOM     13  N   UNL     1       2.700  -0.111  -0.492  1.00  0.00    -0.349 N 
ATOM     14  H   UNL     1       3.166  -0.595  -1.212  1.00  0.00     0.164 HD
ATOM     15  O   UNL     1       2.838  -2.013   0.547  1.00  0.00    -0.275 OA
BRANCH  13  16
ATOM     16  C   UNL     1       2.153   1.159  -0.942  1.00  0.00     0.113 C 
ATOM     17  C   UNL     1       3.031   1.741  -2.054  1.00  0.00     0.036 C 
BRANCH  16  18
ATOM     18  C   UNL     1       0.727   0.978  -1.448  1.00  0.00     0.016 A 
ATOM     19  C   UNL     1       0.363  -0.039  -2.354  1.00  0.00     0.124 A 
ATOM     20  C   UNL     1      -0.946  -0.143  -2.834  1.00  0.00     0.047 A 
ATOM     21  C   UNL     1      -1.917   0.760  -2.404  1.00  0.00     0.004 A 
ATOM     22  C   UNL     1      -0.268   1.879  -1.032  1.00  0.00     0.010 A 
ATOM     23  C   UNL     1      -1.579   1.769  -1.505  1.00  0.00     0.001 A 
BRANCH  19  24
ATOM     24  O   UNL     1       1.336  -0.873  -2.849  1.00  0.00    -0.496 OA
ATOM     25  C   UNL     1       1.138  -2.229  -2.440  1.00  0.00     0.278 C 
ENDBRANCH  19  24
ENDBRANCH  16  18
ENDBRANCH  13  16
ENDBRANCH   7  12
ENDBRANCH   3   6
ENDBRANCH   1   2
BRANCH   1  26
ATOM     26  C   UNL     1      -1.066   4.186   2.631  1.00  0.00     0.042 C 
BRANCH  26  27
ATOM     27  C   UNL     1      -2.549   3.950   2.889  1.00  0.00     0.118 C 
BRANCH  27  28
ATOM     28  N   UNL     1      -2.936   4.099   4.286  1.00  0.00    -0.352 N 
ATOM     29  C   UNL     1      -3.716   5.051   4.905  1.00  0.00     0.251 C 
ATOM     30  H   UNL     1      -2.580   3.405   4.887  1.00  0.00     0.163 HD
ATOM     31  O   UNL     1      -3.817   5.043   6.130  1.00  0.00    -0.269 OA
BRANCH  29  32
ATOM     32  C   UNL     1      -4.391   6.108   4.118  1.00  0.00     0.039 A 
ATOM     33  C   UNL     1      -4.341   7.428   4.578  1.00  0.00     0.014 A 
ATOM     34  C   UNL     1      -5.055   5.816   2.926  1.00  0.00     0.014 A 
ATOM     35  C   UNL     1      -4.848   8.462   3.785  1.00  0.00     0.010 A 
ATOM     36  C   UNL     1      -5.475   6.852   2.095  1.00  0.00     0.010 A 
ATOM     37  C   UNL     1      -5.358   8.189   2.506  1.00  0.00    -0.014 A 
BRANCH  37  38
ATOM     38  C   UNL     1      -5.728   9.277   1.562  1.00  0.00     0.031 A 
ATOM     39  C   UNL     1      -7.133   9.387   1.034  1.00  0.00     0.074 A 
ATOM     40  C   UNL     1      -4.770  10.107   1.098  1.00  0.00     0.049 A 
ATOM     41  N   UNL     1      -7.607  10.187   0.114  1.00  0.00    -0.248 NA
ATOM     42  C   UNL     1      -8.128   8.458   1.594  1.00  0.00     0.031 C 
ATOM     43  C   UNL     1      -3.358  10.080   1.492  1.00  0.00     0.029 A 
ATOM     44  N   UNL     1      -4.833  11.125   0.178  1.00  0.00    -0.354 N 
ATOM     45  C   UNL     1      -8.947   9.847  -0.030  1.00  0.00     0.074 A 
ATOM     46  C   UNL     1      -9.199   8.738   0.864  1.00  0.00     0.031 C 
ATOM     47  C   UNL     1      -2.697  11.045   0.834  1.00  0.00     0.029 A 
ATOM     48  C   UNL     1      -3.620  11.727  -0.067  1.00  0.00     0.049 A 
ATOM     49  H   UNL     1      -5.669  11.399  -0.266  1.00  0.00     0.167 HD
ATOM     50  C   UNL     1      -9.888  10.417  -0.821  1.00  0.00     0.031 A 
ATOM     51  C   UNL     1      -3.278  12.702  -0.932  1.00  0.00     0.031 A 
ATOM     52  C   UNL     1      -9.639  11.528  -1.701  1.00  0.00     0.049 A 
ATOM     53  C   UNL     1      -4.334  13.303  -1.817  1.00  0.00     0.074 A 
ATOM     54  C   UNL     1     -10.543  12.216  -2.492  1.00  0.00     0.029 A 
ATOM     55  N   UNL     1      -8.399  12.112  -1.910  1.00  0.00    -0.354 N 
ATOM     56  N   UNL     1      -5.611  13.012  -1.887  1.00  0.00    -0.248 NA
ATOM     57  C   UNL     1      -3.904  14.363  -2.740  1.00  0.00     0.031 C 
ATOM     58  C   UNL     1      -9.839  13.181  -3.220  1.00  0.00     0.029 A 
ATOM     59  C   UNL     1      -8.507  13.130  -2.842  1.00  0.00     0.049 A 
ATOM     60  H   UNL     1      -7.565  11.842  -1.462  1.00  0.00     0.167 HD
ATOM     61  C   UNL     1      -6.139  13.861  -2.853  1.00  0.00     0.074 A 
ATOM     62  C   UNL     1      -5.049  14.690  -3.324  1.00  0.00     0.031 C 
ATOM     63  C   UNL     1      -7.412  13.942  -3.309  1.00  0.00     0.031 A 
BRANCH  50  64
ATOM     64  C   UNL     1     -11.279   9.843  -0.772  1.00  0.00    -0.014 A 
ATOM     65  C   UNL     1     -12.095  10.017   0.361  1.00  0.00     0.010 A 
ATOM     66  C   UNL     1     -11.795   9.156  -1.886  1.00  0.00     0.010 A 
ATOM     67  C   UNL     1     -13.383   9.478   0.396  1.00  0.00     0.020 A 
ATOM     68  C   UNL     1     -13.094   8.640  -1.866  1.00  0.00     0.020 A 
ATOM     69  C   UNL     1     -13.873   8.789  -0.717  1.00  0.00     0.054 A 
BRANCH  69  70
ATOM     70  S   UNL     1     -15.556   8.115  -0.650  1.00  0.00     0.124 S 
ATOM     71  O   UNL     1     -15.387   6.977   0.250  1.00  0.00    -0.237 OA
ATOM     72  O   UNL     1     -16.327   9.232  -0.111  1.00  0.00    -0.237 OA
ATOM     73  O   UNL     1     -15.848   7.772  -2.039  1.00  0.00    -0.744 OA
ENDBRANCH  69  70
ENDBRANCH  50  64
BRANCH  51  74
ATOM     74  C   UNL     1      -1.864  13.161  -1.010  1.00  0.00    -0.014 A 
ATOM     75  C   UNL     1      -1.495  14.425  -0.519  1.00  0.00     0.010 A 
ATOM     76  C   UNL     1      -0.874  12.323  -1.557  1.00  0.00     0.010 A 
ATOM     77  C   UNL     1      -0.164  14.849  -0.584  1.00  0.00     0.020 A 
ATOM     78  C   UNL     1       0.461  12.733  -1.600  1.00  0.00     0.020 A 
ATOM     79  C   UNL     1       0.806  13.998  -1.121  1.00  0.00     0.054 A 
BRANCH  79  80
ATOM     80  S   UNL     1       2.538  14.542  -1.137  1.00  0.00     0.124 S 
ATOM     81  O   UNL     1       2.540  15.513  -2.226  1.00  0.00    -0.237 OA
ATOM     82  O   UNL     1       2.708  15.093   0.205  1.00  0.00    -0.237 OA
ATOM     83  O   UNL     1       3.279  13.309  -1.393  1.00  0.00    -0.744 OA
ENDBRANCH  79  80
ENDBRANCH  51  74
BRANCH  63  84
ATOM     84  C   UNL     1      -7.706  14.966  -4.372  1.00  0.00    -0.014 A 
ATOM     85  C   UNL     1      -7.291  14.766  -5.700  1.00  0.00     0.010 A 
ATOM     86  C   UNL     1      -8.471  16.103  -4.054  1.00  0.00     0.010 A 
ATOM     87  C   UNL     1      -7.624  15.694  -6.690  1.00  0.00     0.020 A 
ATOM     88  C   UNL     1      -8.827  17.020  -5.046  1.00  0.00     0.020 A 
ATOM     89  C   UNL     1      -8.394  16.813  -6.358  1.00  0.00     0.054 A 
BRANCH  89  90
ATOM     90  S   UNL     1      -8.871  17.964  -7.676  1.00  0.00     0.124 S 
ATOM     91  O   UNL     1      -7.614  18.655  -7.946  1.00  0.00    -0.237 OA
ATOM     92  O   UNL     1      -9.336  17.068  -8.731  1.00  0.00    -0.237 OA
ATOM     93  O   UNL     1      -9.912  18.784  -7.059  1.00  0.00    -0.744 OA
ENDBRANCH  89  90
ENDBRANCH  63  84
ENDBRANCH  37  38
ENDBRANCH  29  32
ENDBRANCH  27  28
ENDBRANCH  26  27
ENDBRANCH   1  26
TORSDOF 17
