REMARK SMILES O=C(CCN1C(=O)[C@@H]2[C@@H](C1=O)[C@H]1c3ccccc3[C@]2(Br)c2ccccc21)NCCCNC(=O)c1ccc(-c2c3nc(c(-c4ccc(S(=O)(=O)[O-])cc4)c4ccc([nH]4)c(-c4ccc(S(=O)(=O)[O-])cc4)c4nc(c(-c5ccc(S(=O)(=O)[O-])cc5)c5ccc2[nH]5)C=C4)C=C3)cc1
REMARK SMILES IDX 29 1 28 2 27 3 1 4 2 5 3 7 4 8 5 9 6 10 10 11 7 12 8 13 9 14
REMARK SMILES IDX 11 15 19 16 12 17 21 18 20 19 18 20 26 21 13 22 22 23 17 24
REMARK SMILES IDX 25 25 14 26 23 27 16 28 24 29 15 30 30 31 31 32 32 33 33 35
REMARK SMILES IDX 34 36 35 37 93 38 36 39 92 40 37 41 38 42 39 43 86 44 40 45
REMARK SMILES IDX 91 46 85 47 87 48 41 49 90 50 84 51 83 52 42 54 72 55 53 56
REMARK SMILES IDX 71 57 54 58 57 59 70 60 88 61 55 62 56 63 69 65 89 66 58 67
REMARK SMILES IDX 43 68 44 69 52 70 45 71 51 72 46 73 47 74 48 75 49 76 50 77
REMARK SMILES IDX 73 78 74 79 82 80 75 81 81 82 76 83 77 84 78 85 79 86 80 87
REMARK SMILES IDX 59 88 60 89 68 90 61 91 67 92 62 93 63 94 64 95 65 96 66 97
REMARK H PARENT 27 6 31 34 87 53 57 64
REMARK Flexibility Score: inf
ROOT
ATOM      1  C   UNL     1       1.762   3.032  -1.374  1.00  0.00     0.042 C 
ENDROOT
BRANCH   1   2
ATOM      2  C   UNL     1       1.781   1.517  -1.516  1.00  0.00     0.117 C 
BRANCH   2   3
ATOM      3  N   UNL     1       2.552   0.875  -0.466  1.00  0.00    -0.356 N 
ATOM      4  O   UNL     1       0.929  -0.644   0.138  1.00  0.00    -0.275 OA
ATOM      5  C   UNL     1       2.078  -0.223   0.218  1.00  0.00     0.221 C 
ATOM      6  H   UNL     1       3.440   1.234  -0.237  1.00  0.00     0.163 HD
BRANCH   5   7
ATOM      7  C   UNL     1       3.121  -0.927   1.057  1.00  0.00     0.122 C 
BRANCH   7   8
ATOM      8  C   UNL     1       3.887  -1.946   0.210  1.00  0.00     0.138 C 
BRANCH   8   9
ATOM      9  N   UNL     1       4.920  -1.322  -0.607  1.00  0.00    -0.281 N 
ATOM     10  C   UNL     1       6.220  -1.085  -0.159  1.00  0.00     0.235 C 
ATOM     11  C   UNL     1       4.731  -0.892  -1.915  1.00  0.00     0.234 C 
ATOM     12  O   UNL     1       6.731  -1.498   0.867  1.00  0.00    -0.274 OA
ATOM     13  C   UNL     1       6.736  -0.038  -1.097  1.00  0.00     0.118 C 
ATOM     14  C   UNL     1       6.097  -0.532  -2.389  1.00  0.00     0.105 C 
ATOM     15  O   UNL     1       3.726  -0.939  -2.595  1.00  0.00    -0.274 OA
ATOM     16  C   UNL     1       8.140   0.489  -1.440  1.00  0.00     0.088 C 
ATOM     17  C   UNL     1       6.477   0.418  -3.528  1.00  0.00     0.063 C 
ATOM     18  C   UNL     1       7.751   1.914  -1.948  1.00  0.00    -0.022 A 
ATOM     19  Br  UNL     1       9.284   0.482   0.102  1.00  0.00    -0.074 Br
ATOM     20  C   UNL     1       8.771  -0.135  -2.732  1.00  0.00    -0.022 A 
ATOM     21  C   UNL     1       6.843   1.847  -3.068  1.00  0.00    -0.035 A 
ATOM     22  C   UNL     1       7.874  -0.132  -3.865  1.00  0.00    -0.035 A 
ATOM     23  C   UNL     1       8.313   3.127  -1.564  1.00  0.00     0.006 A 
ATOM     24  C   UNL     1      10.121  -0.361  -2.981  1.00  0.00     0.006 A 
ATOM     25  C   UNL     1       6.659   2.964  -3.866  1.00  0.00     0.005 A 
ATOM     26  C   UNL     1       8.298  -0.375  -5.165  1.00  0.00     0.005 A 
ATOM     27  C   UNL     1       8.084   4.247  -2.359  1.00  0.00     0.000 A 
ATOM     28  C   UNL     1      10.550  -0.590  -4.298  1.00  0.00     0.000 A 
ATOM     29  C   UNL     1       7.312   4.148  -3.523  1.00  0.00     0.000 A 
ATOM     30  C   UNL     1       9.652  -0.601  -5.375  1.00  0.00     0.000 A 
ENDBRANCH   8   9
ENDBRANCH   7   8
ENDBRANCH   5   7
ENDBRANCH   2   3
ENDBRANCH   1   2
BRANCH   1  31
ATOM     31  C   UNL     1       3.071   3.708  -1.758  1.00  0.00     0.118 C 
BRANCH  31  32
ATOM     32  N   UNL     1       3.298   3.765  -3.193  1.00  0.00    -0.352 N 
ATOM     33  C   UNL     1       3.935   4.709  -3.966  1.00  0.00     0.251 C 
ATOM     34  H   UNL     1       2.935   3.001  -3.696  1.00  0.00     0.163 HD
ATOM     35  O   UNL     1       3.927   4.550  -5.187  1.00  0.00    -0.269 OA
BRANCH  33  36
ATOM     36  C   UNL     1       4.628   5.900  -3.391  1.00  0.00     0.039 A 
ATOM     37  C   UNL     1       5.098   5.955  -2.076  1.00  0.00     0.014 A 
ATOM     38  C   UNL     1       4.887   6.988  -4.241  1.00  0.00     0.014 A 
ATOM     39  C   UNL     1       5.617   7.131  -1.556  1.00  0.00     0.010 A 
ATOM     40  C   UNL     1       5.477   8.154  -3.743  1.00  0.00     0.010 A 
ATOM     41  C   UNL     1       5.753   8.254  -2.374  1.00  0.00    -0.014 A 
BRANCH  41  42
ATOM     42  C   UNL     1       5.928   9.565  -1.714  1.00  0.00     0.031 A 
ATOM     43  C   UNL     1       4.710  10.439  -1.586  1.00  0.00     0.074 A 
ATOM     44  C   UNL     1       7.082   9.871  -1.093  1.00  0.00     0.049 A 
ATOM     45  N   UNL     1       4.574  11.578  -0.964  1.00  0.00    -0.248 NA
ATOM     46  C   UNL     1       3.468   9.954  -2.220  1.00  0.00     0.031 C 
ATOM     47  C   UNL     1       8.271   9.019  -1.068  1.00  0.00     0.029 A 
ATOM     48  N   UNL     1       7.427  10.951  -0.323  1.00  0.00    -0.354 N 
ATOM     49  C   UNL     1       3.242  11.939  -1.134  1.00  0.00     0.074 A 
ATOM     50  C   UNL     1       2.616  10.930  -1.950  1.00  0.00     0.031 C 
ATOM     51  C   UNL     1       9.201   9.591  -0.286  1.00  0.00     0.029 A 
ATOM     52  C   UNL     1       8.697  10.874   0.199  1.00  0.00     0.049 A 
ATOM     53  H   UNL     1       6.822  11.711  -0.159  1.00  0.00     0.167 HD
ATOM     54  C   UNL     1       2.594  13.012  -0.630  1.00  0.00     0.031 A 
ATOM     55  C   UNL     1       9.375  11.745   0.976  1.00  0.00     0.031 A 
ATOM     56  C   UNL     1       3.239  14.003   0.184  1.00  0.00     0.049 A 
ATOM     57  C   UNL     1       8.666  12.996   1.425  1.00  0.00     0.074 A 
ATOM     58  C   UNL     1       2.699  15.161   0.708  1.00  0.00     0.029 A 
ATOM     59  N   UNL     1       4.563  13.947   0.594  1.00  0.00    -0.354 N 
ATOM     60  N   UNL     1       7.415  13.344   1.228  1.00  0.00    -0.248 NA
ATOM     61  C   UNL     1       9.446  13.970   2.199  1.00  0.00     0.031 C 
ATOM     62  C   UNL     1       3.720  15.847   1.366  1.00  0.00     0.029 A 
ATOM     63  C   UNL     1       4.871  15.071   1.337  1.00  0.00     0.049 A 
ATOM     64  H   UNL     1       5.190  13.217   0.387  1.00  0.00     0.167 HD
ATOM     65  C   UNL     1       7.252  14.567   1.868  1.00  0.00     0.074 A 
ATOM     66  C   UNL     1       8.528  14.888   2.477  1.00  0.00     0.031 C 
ATOM     67  C   UNL     1       6.151  15.356   1.941  1.00  0.00     0.031 A 
BRANCH  54  68
ATOM     68  C   UNL     1       1.135  13.187  -0.964  1.00  0.00    -0.014 A 
ATOM     69  C   UNL     1       0.735  14.271  -1.766  1.00  0.00     0.010 A 
ATOM     70  C   UNL     1       0.153  12.340  -0.419  1.00  0.00     0.010 A 
ATOM     71  C   UNL     1      -0.620  14.534  -1.980  1.00  0.00     0.020 A 
ATOM     72  C   UNL     1      -1.204  12.580  -0.660  1.00  0.00     0.020 A 
ATOM     73  C   UNL     1      -1.581  13.693  -1.415  1.00  0.00     0.054 A 
BRANCH  73  74
ATOM     74  S   UNL     1      -3.335  14.086  -1.661  1.00  0.00     0.124 S 
ATOM     75  O   UNL     1      -3.506  15.266  -0.820  1.00  0.00    -0.237 OA
ATOM     76  O   UNL     1      -3.408  14.320  -3.102  1.00  0.00    -0.237 OA
ATOM     77  O   UNL     1      -4.024  12.883  -1.200  1.00  0.00    -0.744 OA
ENDBRANCH  73  74
ENDBRANCH  54  68
BRANCH  55  78
ATOM     78  C   UNL     1      10.784  11.441   1.366  1.00  0.00    -0.014 A 
ATOM     79  C   UNL     1      11.778  11.306   0.376  1.00  0.00     0.010 A 
ATOM     80  C   UNL     1      11.135  11.207   2.707  1.00  0.00     0.010 A 
ATOM     81  C   UNL     1      13.064  10.871   0.705  1.00  0.00     0.020 A 
ATOM     82  C   UNL     1      12.434  10.807   3.047  1.00  0.00     0.020 A 
ATOM     83  C   UNL     1      13.380  10.608   2.038  1.00  0.00     0.054 A 
BRANCH  83  84
ATOM     84  S   UNL     1      15.034   9.972   2.426  1.00  0.00     0.124 S 
ATOM     85  O   UNL     1      14.960   8.609   1.906  1.00  0.00    -0.237 OA
ATOM     86  O   UNL     1      15.905  10.881   1.686  1.00  0.00    -0.237 OA
ATOM     87  O   UNL     1      15.113  10.082   3.881  1.00  0.00    -0.744 OA
ENDBRANCH  83  84
ENDBRANCH  55  78
BRANCH  67  88
ATOM     88  C   UNL     1       6.249  16.652   2.704  1.00  0.00    -0.014 A 
ATOM     89  C   UNL     1       5.462  16.837   3.857  1.00  0.00     0.010 A 
ATOM     90  C   UNL     1       6.969  17.739   2.180  1.00  0.00     0.010 A 
ATOM     91  C   UNL     1       5.344  18.101   4.436  1.00  0.00     0.020 A 
ATOM     92  C   UNL     1       6.883  18.997   2.781  1.00  0.00     0.020 A 
ATOM     93  C   UNL     1       6.045  19.176   3.885  1.00  0.00     0.054 A 
BRANCH  93  94
ATOM     94  S   UNL     1       5.822  20.822   4.610  1.00  0.00     0.124 S 
ATOM     95  O   UNL     1       4.479  21.176   4.161  1.00  0.00    -0.237 OA
ATOM     96  O   UNL     1       5.960  20.562   6.041  1.00  0.00    -0.237 OA
ATOM     97  O   UNL     1       6.904  21.607   4.019  1.00  0.00    -0.744 OA
ENDBRANCH  93  94
ENDBRANCH  67  88
ENDBRANCH  41  42
ENDBRANCH  33  36
ENDBRANCH  31  32
ENDBRANCH   1  31
TORSDOF 15
