REMARK SMILES O=C(NCCCNC(=O)c1ccc(-c2ccc(Cl)cc2)cc1F)c1ccc(-c2c3nc(c(-c4ccc(S(=O)(=O)[O-])cc4)c4ccc([nH]4)c(-c4ccc(S(=O)(=O)[O-])cc4)c4nc(c(-c5ccc(S(=O)(=O)[O-])cc5)c5ccc2[nH]5)C=C4)C=C3)cc1
REMARK SMILES IDX 4 1 3 2 1 3 2 4 24 6 25 7 83 8 26 9 82 10 27 11 28 12 29 13
REMARK SMILES IDX 76 14 30 15 81 16 75 17 77 18 31 19 80 20 74 21 73 22 32 24
REMARK SMILES IDX 62 25 43 26 61 27 44 28 47 29 60 30 78 31 45 32 46 33 59 35
REMARK SMILES IDX 79 36 48 37 33 38 34 39 42 40 35 41 41 42 36 43 37 44 38 45
REMARK SMILES IDX 39 46 40 47 63 48 64 49 72 50 65 51 71 52 66 53 67 54 68 55
REMARK SMILES IDX 69 56 70 57 49 58 50 59 58 60 51 61 57 62 52 63 53 64 54 65
REMARK SMILES IDX 55 66 56 67 5 68 6 69 7 70 8 71 9 73 10 74 11 75 22 76 12 77
REMARK SMILES IDX 21 78 23 79 13 80 14 81 15 82 20 83 16 84 19 85 17 86 18 87
REMARK H PARENT 3 5 77 23 47 34 7 72
REMARK Flexibility Score: inf
ROOT
ATOM      1  C   UNL     1       4.498   0.593   1.197  1.00  0.00     0.118 C 
ENDROOT
BRANCH   1   2
ATOM      2  N   UNL     1       3.062   0.418   1.029  1.00  0.00    -0.352 N 
ATOM      3  O   UNL     1       1.121   0.131  -0.070  1.00  0.00    -0.269 OA
ATOM      4  C   UNL     1       2.345   0.019  -0.071  1.00  0.00     0.251 C 
ATOM      5  H   UNL     1       2.522   0.616   1.828  1.00  0.00     0.163 HD
BRANCH   4   6
ATOM      6  C   UNL     1       3.039  -0.529  -1.256  1.00  0.00     0.039 A 
ATOM      7  C   UNL     1       4.102  -1.423  -1.111  1.00  0.00     0.014 A 
ATOM      8  C   UNL     1       2.594  -0.176  -2.534  1.00  0.00     0.014 A 
ATOM      9  C   UNL     1       4.808  -1.850  -2.228  1.00  0.00     0.010 A 
ATOM     10  C   UNL     1       3.243  -0.687  -3.662  1.00  0.00     0.010 A 
ATOM     11  C   UNL     1       4.367  -1.514  -3.517  1.00  0.00    -0.014 A 
BRANCH  11  12
ATOM     12  C   UNL     1       5.023  -2.135  -4.693  1.00  0.00     0.031 A 
ATOM     13  C   UNL     1       5.752  -1.306  -5.712  1.00  0.00     0.074 A 
ATOM     14  C   UNL     1       4.945  -3.475  -4.831  1.00  0.00     0.049 A 
ATOM     15  N   UNL     1       6.357  -1.699  -6.804  1.00  0.00    -0.248 NA
ATOM     16  C   UNL     1       5.805   0.147  -5.487  1.00  0.00     0.031 C 
ATOM     17  C   UNL     1       4.251  -4.379  -3.907  1.00  0.00     0.029 A 
ATOM     18  N   UNL     1       5.452  -4.313  -5.790  1.00  0.00    -0.354 N 
ATOM     19  C   UNL     1       6.838  -0.545  -7.411  1.00  0.00     0.074 A 
ATOM     20  C   UNL     1       6.447   0.567  -6.571  1.00  0.00     0.031 C 
ATOM     21  C   UNL     1       4.402  -5.642  -4.327  1.00  0.00     0.029 A 
ATOM     22  C   UNL     1       5.136  -5.635  -5.585  1.00  0.00     0.049 A 
ATOM     23  H   UNL     1       5.990  -3.998  -6.552  1.00  0.00     0.167 HD
ATOM     24  C   UNL     1       7.538  -0.431  -8.565  1.00  0.00     0.031 A 
ATOM     25  C   UNL     1       5.374  -6.723  -6.341  1.00  0.00     0.031 A 
ATOM     26  C   UNL     1       7.928  -1.548  -9.386  1.00  0.00     0.049 A 
ATOM     27  C   UNL     1       6.119  -6.557  -7.633  1.00  0.00     0.074 A 
ATOM     28  C   UNL     1       8.696  -1.539 -10.538  1.00  0.00     0.029 A 
ATOM     29  N   UNL     1       7.567  -2.867  -9.158  1.00  0.00    -0.354 N 
ATOM     30  N   UNL     1       6.628  -5.465  -8.151  1.00  0.00    -0.248 NA
ATOM     31  C   UNL     1       6.316  -7.764  -8.445  1.00  0.00     0.031 C 
ATOM     32  C   UNL     1       8.744  -2.842 -11.041  1.00  0.00     0.029 A 
ATOM     33  C   UNL     1       8.057  -3.674 -10.171  1.00  0.00     0.049 A 
ATOM     34  H   UNL     1       7.040  -3.184  -8.389  1.00  0.00     0.167 HD
ATOM     35  C   UNL     1       7.214  -5.856  -9.348  1.00  0.00     0.074 A 
ATOM     36  C   UNL     1       7.020  -7.288  -9.463  1.00  0.00     0.031 C 
ATOM     37  C   UNL     1       7.850  -5.096 -10.272  1.00  0.00     0.031 A 
BRANCH  24  38
ATOM     38  C   UNL     1       7.908   0.951  -9.040  1.00  0.00    -0.014 A 
ATOM     39  C   UNL     1       8.922   1.695  -8.412  1.00  0.00     0.010 A 
ATOM     40  C   UNL     1       7.290   1.472 -10.192  1.00  0.00     0.010 A 
ATOM     41  C   UNL     1       9.295   2.946  -8.915  1.00  0.00     0.020 A 
ATOM     42  C   UNL     1       7.676   2.712 -10.711  1.00  0.00     0.020 A 
ATOM     43  C   UNL     1       8.670   3.445 -10.063  1.00  0.00     0.054 A 
BRANCH  43  44
ATOM     44  S   UNL     1       9.208   5.050 -10.718  1.00  0.00     0.124 S 
ATOM     45  O   UNL     1       8.668   5.976  -9.726  1.00  0.00    -0.237 OA
ATOM     46  O   UNL     1      10.663   4.920 -10.728  1.00  0.00    -0.237 OA
ATOM     47  O   UNL     1       8.582   5.115 -12.037  1.00  0.00    -0.744 OA
ENDBRANCH  43  44
ENDBRANCH  24  38
BRANCH  25  48
ATOM     48  C   UNL     1       4.851  -8.049  -5.915  1.00  0.00    -0.014 A 
ATOM     49  C   UNL     1       5.723  -9.076  -5.518  1.00  0.00     0.010 A 
ATOM     50  C   UNL     1       3.462  -8.282  -5.894  1.00  0.00     0.010 A 
ATOM     51  C   UNL     1       5.216 -10.320  -5.130  1.00  0.00     0.020 A 
ATOM     52  C   UNL     1       2.951  -9.512  -5.476  1.00  0.00     0.020 A 
ATOM     53  C   UNL     1       3.834 -10.530  -5.113  1.00  0.00     0.054 A 
BRANCH  53  54
ATOM     54  S   UNL     1       3.198 -12.141  -4.574  1.00  0.00     0.124 S 
ATOM     55  O   UNL     1       3.489 -12.982  -5.731  1.00  0.00    -0.237 OA
ATOM     56  O   UNL     1       3.992 -12.411  -3.378  1.00  0.00    -0.237 OA
ATOM     57  O   UNL     1       1.781 -11.883  -4.327  1.00  0.00    -0.744 OA
ENDBRANCH  53  54
ENDBRANCH  25  48
BRANCH  37  58
ATOM     58  C   UNL     1       8.395  -5.799 -11.485  1.00  0.00    -0.014 A 
ATOM     59  C   UNL     1       7.537  -6.260 -12.499  1.00  0.00     0.010 A 
ATOM     60  C   UNL     1       9.785  -5.941 -11.642  1.00  0.00     0.010 A 
ATOM     61  C   UNL     1       8.060  -6.867 -13.643  1.00  0.00     0.020 A 
ATOM     62  C   UNL     1      10.313  -6.522 -12.797  1.00  0.00     0.020 A 
ATOM     63  C   UNL     1       9.446  -6.990 -13.786  1.00  0.00     0.054 A 
BRANCH  63  64
ATOM     64  S   UNL     1      10.101  -7.720 -15.311  1.00  0.00     0.124 S 
ATOM     65  O   UNL     1       9.783  -9.134 -15.133  1.00  0.00    -0.237 OA
ATOM     66  O   UNL     1       9.340  -7.030 -16.350  1.00  0.00    -0.237 OA
ATOM     67  O   UNL     1      11.525  -7.392 -15.269  1.00  0.00    -0.744 OA
ENDBRANCH  63  64
ENDBRANCH  37  58
ENDBRANCH  11  12
ENDBRANCH   4   6
ENDBRANCH   1   2
BRANCH   1  68
ATOM     68  C   UNL     1       4.888   2.050   1.394  1.00  0.00     0.042 C 
BRANCH  68  69
ATOM     69  C   UNL     1       4.337   2.663   2.672  1.00  0.00     0.118 C 
BRANCH  69  70
ATOM     70  N   UNL     1       4.859   2.012   3.868  1.00  0.00    -0.352 N 
ATOM     71  C   UNL     1       5.676   2.516   4.847  1.00  0.00     0.254 C 
ATOM     72  H   UNL     1       4.585   1.075   3.990  1.00  0.00     0.163 HD
ATOM     73  O   UNL     1       6.132   1.781   5.718  1.00  0.00    -0.269 OA
BRANCH  71  74
ATOM     74  C   UNL     1       6.053   3.936   4.832  1.00  0.00     0.075 A 
ATOM     75  C   UNL     1       7.406   4.278   4.870  1.00  0.00     0.017 A 
ATOM     76  C   UNL     1       5.087   4.934   4.790  1.00  0.00     0.136 A 
ATOM     77  C   UNL     1       7.779   5.624   4.785  1.00  0.00     0.010 A 
ATOM     78  C   UNL     1       5.456   6.270   4.685  1.00  0.00     0.048 A 
ATOM     79  F   UNL     1       3.780   4.634   4.806  1.00  0.00    -0.206 F 
ATOM     80  C   UNL     1       6.811   6.639   4.667  1.00  0.00    -0.015 A 
BRANCH  80  81
ATOM     81  C   UNL     1       7.194   8.051   4.513  1.00  0.00    -0.018 A 
ATOM     82  C   UNL     1       6.605   9.048   5.310  1.00  0.00     0.010 A 
ATOM     83  C   UNL     1       8.130   8.447   3.542  1.00  0.00     0.010 A 
ATOM     84  C   UNL     1       6.935  10.395   5.140  1.00  0.00     0.021 A 
ATOM     85  C   UNL     1       8.463   9.794   3.370  1.00  0.00     0.021 A 
ATOM     86  C   UNL     1       7.863  10.762   4.170  1.00  0.00     0.041 A 
ATOM     87  Cl  UNL     1       8.265  12.421   3.958  1.00  0.00    -0.084 Cl
ENDBRANCH  80  81
ENDBRANCH  71  74
ENDBRANCH  69  70
ENDBRANCH  68  69
ENDBRANCH   1  68
TORSDOF 14
