REMARK SMILES CC(C)[C@H](CO)NS(=O)(=O)c1ccc(Cl)c(C(=O)NCCCNC(=O)c2ccc(-c3c4nc(c(-c5ccc(S(=O)(=O)[O-])cc5)c5ccc([nH]5)c(-c5ccc(S(=O)(=O)[O-])cc5)c5nc(c(-c6ccc(S(=O)(=O)[O-])cc6)c6ccc3[nH]6)C=C5)C=C4)cc2)c1
REMARK SMILES IDX 20 1 19 2 17 3 18 4 16 6 11 7 12 8 86 9 13 10 14 11 15 12
REMARK SMILES IDX 8 13 9 14 10 15 7 16 4 18 2 19 1 20 3 21 5 22 6 23 21 25
REMARK SMILES IDX 22 26 23 27 24 28 25 30 26 31 27 32 85 33 28 34 84 35 29 36
REMARK SMILES IDX 30 37 31 38 78 39 32 40 83 41 77 42 79 43 33 44 82 45 76 46
REMARK SMILES IDX 75 47 34 49 64 50 45 51 63 52 46 53 49 54 62 55 80 56 47 57
REMARK SMILES IDX 48 58 61 60 81 61 50 62 35 63 36 64 44 65 37 66 43 67 38 68
REMARK SMILES IDX 39 69 40 70 41 71 42 72 65 73 66 74 74 75 67 76 73 77 68 78
REMARK SMILES IDX 69 79 70 80 71 81 72 82 51 83 52 84 60 85 53 86 59 87 54 88
REMARK SMILES IDX 55 89 56 90 57 91 58 92
REMARK H PARENT 19 5 7 17 6 24 23 29 79 48 49 59
REMARK Flexibility Score: inf
ROOT
ATOM      1  C   UNL     1      -6.162   5.408   0.301  1.00  0.00     0.118 C 
ENDROOT
BRANCH   1   2
ATOM      2  N   UNL     1      -6.878   4.149   0.379  1.00  0.00    -0.352 N 
ATOM      3  C   UNL     1      -6.633   3.001   1.089  1.00  0.00     0.252 C 
ATOM      4  O   UNL     1      -7.479   2.107   1.028  1.00  0.00    -0.269 OA
ATOM      5  H   UNL     1      -7.688   4.111  -0.179  1.00  0.00     0.163 HD
BRANCH   3   6
ATOM      6  C   UNL     1      -5.370   2.727   1.827  1.00  0.00     0.059 A 
ATOM      7  C   UNL     1      -3.782   0.983   2.452  1.00  0.00     0.083 A 
ATOM      8  C   UNL     1      -2.989   1.910   3.121  1.00  0.00     0.023 A 
ATOM      9  C   UNL     1      -4.924   1.392   1.755  1.00  0.00     0.037 A 
ATOM     10  C   UNL     1      -3.436   3.226   3.219  1.00  0.00     0.023 A 
ATOM     11  C   UNL     1      -4.669   3.608   2.662  1.00  0.00     0.053 A 
ATOM     12  Cl  UNL     1      -5.328   5.084   3.278  1.00  0.00    -0.083 Cl
BRANCH   7  13
ATOM     13  S   UNL     1      -3.482  -0.754   2.663  1.00  0.00     0.240 S 
ATOM     14  O   UNL     1      -4.158  -1.452   1.599  1.00  0.00    -0.207 OA
ATOM     15  O   UNL     1      -3.745  -1.042   4.059  1.00  0.00    -0.207 OA
BRANCH  13  16
ATOM     16  N   UNL     1      -1.842  -0.933   2.457  1.00  0.00    -0.206 NA
ATOM     17  H   UNL     1      -1.405  -0.321   3.146  1.00  0.00     0.141 HD
BRANCH  16  18
ATOM     18  C   UNL     1      -1.154  -0.662   1.180  1.00  0.00     0.098 C 
BRANCH  18  19
ATOM     19  C   UNL     1      -1.384  -1.800   0.151  1.00  0.00     0.003 C 
ATOM     20  C   UNL     1      -0.334  -1.807  -0.966  1.00  0.00     0.009 C 
ATOM     21  C   UNL     1      -1.465  -3.207   0.759  1.00  0.00     0.009 C 
ENDBRANCH  18  19
BRANCH  18  22
ATOM     22  C   UNL     1       0.330  -0.403   1.530  1.00  0.00     0.176 C 
BRANCH  22  23
ATOM     23  O   UNL     1       0.415   0.653   2.497  1.00  0.00    -0.395 OA
ATOM     24  H   UNL     1       0.023   1.461   2.130  1.00  0.00     0.210 HD
ENDBRANCH  22  23
ENDBRANCH  18  22
ENDBRANCH  16  18
ENDBRANCH  13  16
ENDBRANCH   7  13
ENDBRANCH   3   6
ENDBRANCH   1   2
BRANCH   1  25
ATOM     25  C   UNL     1      -6.081   6.009  -1.092  1.00  0.00     0.042 C 
BRANCH  25  26
ATOM     26  C   UNL     1      -7.419   6.364  -1.722  1.00  0.00     0.118 C 
BRANCH  26  27
ATOM     27  N   UNL     1      -8.143   7.414  -1.012  1.00  0.00    -0.352 N 
ATOM     28  C   UNL     1      -8.268   8.762  -1.265  1.00  0.00     0.251 C 
ATOM     29  H   UNL     1      -8.627   7.104  -0.213  1.00  0.00     0.163 HD
ATOM     30  O   UNL     1      -8.812   9.484  -0.433  1.00  0.00    -0.269 OA
BRANCH  28  31
ATOM     31  C   UNL     1      -7.722   9.355  -2.506  1.00  0.00     0.039 A 
ATOM     32  C   UNL     1      -7.054  10.583  -2.444  1.00  0.00     0.014 A 
ATOM     33  C   UNL     1      -7.865   8.709  -3.732  1.00  0.00     0.014 A 
ATOM     34  C   UNL     1      -6.442  11.101  -3.591  1.00  0.00     0.010 A 
ATOM     35  C   UNL     1      -7.159   9.162  -4.840  1.00  0.00     0.010 A 
ATOM     36  C   UNL     1      -6.440  10.365  -4.786  1.00  0.00    -0.014 A 
BRANCH  36  37
ATOM     37  C   UNL     1      -5.712  10.818  -6.000  1.00  0.00     0.031 A 
ATOM     38  C   UNL     1      -6.466  11.027  -7.289  1.00  0.00     0.074 A 
ATOM     39  C   UNL     1      -4.368  10.936  -5.978  1.00  0.00     0.049 A 
ATOM     40  N   UNL     1      -6.002  11.262  -8.489  1.00  0.00    -0.248 NA
ATOM     41  C   UNL     1      -7.933  10.915  -7.226  1.00  0.00     0.031 C 
ATOM     42  C   UNL     1      -3.514  10.722  -4.806  1.00  0.00     0.029 A 
ATOM     43  N   UNL     1      -3.480  11.248  -6.978  1.00  0.00    -0.354 N 
ATOM     44  C   UNL     1      -7.114  11.291  -9.324  1.00  0.00     0.074 A 
ATOM     45  C   UNL     1      -8.267  10.995  -8.505  1.00  0.00     0.031 C 
ATOM     46  C   UNL     1      -2.233  10.934  -5.148  1.00  0.00     0.029 A 
ATOM     47  C   UNL     1      -2.165  11.245  -6.572  1.00  0.00     0.049 A 
ATOM     48  H   UNL     1      -3.758  11.455  -7.899  1.00  0.00     0.167 HD
ATOM     49  C   UNL     1      -7.174  11.562 -10.649  1.00  0.00     0.031 A 
ATOM     50  C   UNL     1      -1.030  11.453  -7.269  1.00  0.00     0.031 A 
ATOM     51  C   UNL     1      -6.027  11.886 -11.454  1.00  0.00     0.049 A 
ATOM     52  C   UNL     1      -1.121  11.751  -8.741  1.00  0.00     0.074 A 
ATOM     53  C   UNL     1      -5.987  12.240 -12.791  1.00  0.00     0.029 A 
ATOM     54  N   UNL     1      -4.718  11.900 -10.995  1.00  0.00    -0.354 N 
ATOM     55  N   UNL     1      -2.187  11.829  -9.501  1.00  0.00    -0.248 NA
ATOM     56  C   UNL     1       0.144  11.996  -9.449  1.00  0.00     0.031 C 
ATOM     57  C   UNL     1      -4.649  12.419 -13.154  1.00  0.00     0.029 A 
ATOM     58  C   UNL     1      -3.861  12.237 -12.028  1.00  0.00     0.049 A 
ATOM     59  H   UNL     1      -4.441  11.701 -10.072  1.00  0.00     0.167 HD
ATOM     60  C   UNL     1      -1.725  12.164 -10.769  1.00  0.00     0.074 A 
ATOM     61  C   UNL     1      -0.284  12.282 -10.671  1.00  0.00     0.031 C 
ATOM     62  C   UNL     1      -2.430  12.359 -11.910  1.00  0.00     0.031 A 
BRANCH  49  63
ATOM     63  C   UNL     1      -8.527  11.518 -11.310  1.00  0.00    -0.014 A 
ATOM     64  C   UNL     1      -9.512  12.479 -11.017  1.00  0.00     0.010 A 
ATOM     65  C   UNL     1      -8.808  10.521 -12.263  1.00  0.00     0.010 A 
ATOM     66  C   UNL     1     -10.767  12.416 -11.627  1.00  0.00     0.020 A 
ATOM     67  C   UNL     1     -10.052  10.475 -12.900  1.00  0.00     0.020 A 
ATOM     68  C   UNL     1     -11.030  11.412 -12.563  1.00  0.00     0.054 A 
BRANCH  68  69
ATOM     69  S   UNL     1     -12.661  11.370 -13.355  1.00  0.00     0.124 S 
ATOM     70  O   UNL     1     -13.511  10.897 -12.265  1.00  0.00    -0.237 OA
ATOM     71  O   UNL     1     -12.862  12.762 -13.749  1.00  0.00    -0.237 OA
ATOM     72  O   UNL     1     -12.486  10.431 -14.461  1.00  0.00    -0.744 OA
ENDBRANCH  68  69
ENDBRANCH  49  63
BRANCH  50  73
ATOM     73  C   UNL     1       0.289  11.396  -6.579  1.00  0.00    -0.014 A 
ATOM     74  C   UNL     1       1.038  12.569  -6.377  1.00  0.00     0.010 A 
ATOM     75  C   UNL     1       0.798  10.173  -6.107  1.00  0.00     0.010 A 
ATOM     76  C   UNL     1       2.278  12.518  -5.733  1.00  0.00     0.020 A 
ATOM     77  C   UNL     1       2.024  10.121  -5.437  1.00  0.00     0.020 A 
ATOM     78  C   UNL     1       2.761  11.293  -5.264  1.00  0.00     0.054 A 
BRANCH  78  79
ATOM     79  S   UNL     1       4.348  11.258  -4.383  1.00  0.00     0.124 S 
ATOM     80  O   UNL     1       5.302  11.461  -5.468  1.00  0.00    -0.237 OA
ATOM     81  O   UNL     1       4.211  12.367  -3.443  1.00  0.00    -0.237 OA
ATOM     82  O   UNL     1       4.368   9.931  -3.770  1.00  0.00    -0.744 OA
ENDBRANCH  78  79
ENDBRANCH  50  73
BRANCH  62  83
ATOM     83  C   UNL     1      -1.666  12.764 -13.142  1.00  0.00    -0.014 A 
ATOM     84  C   UNL     1      -0.864  11.845 -13.840  1.00  0.00     0.010 A 
ATOM     85  C   UNL     1      -1.823  14.066 -13.652  1.00  0.00     0.010 A 
ATOM     86  C   UNL     1      -0.216  12.227 -15.017  1.00  0.00     0.020 A 
ATOM     87  C   UNL     1      -1.199  14.443 -14.844  1.00  0.00     0.020 A 
ATOM     88  C   UNL     1      -0.392  13.523 -15.514  1.00  0.00     0.054 A 
BRANCH  88  89
ATOM     89  S   UNL     1       0.407  13.972 -17.079  1.00  0.00     0.124 S 
ATOM     90  O   UNL     1       1.809  14.079 -16.685  1.00  0.00    -0.237 OA
ATOM     91  O   UNL     1       0.081  12.838 -17.941  1.00  0.00    -0.237 OA
ATOM     92  O   UNL     1      -0.235  15.232 -17.447  1.00  0.00    -0.744 OA
ENDBRANCH  88  89
ENDBRANCH  62  83
ENDBRANCH  36  37
ENDBRANCH  28  31
ENDBRANCH  26  27
ENDBRANCH  25  26
ENDBRANCH   1  25
TORSDOF 19
