REMARK SMILES COc1cccc(C(=O)NCc2ccc(OC)c(C(=O)NCCCNC(=O)c3ccc(-c4c5nc(c(-c6ccc(S(=O)(=O)[O-])cc6)c6ccc([nH]6)c(-c6ccc(S(=O)(=O)[O-])cc6)c6nc(c(-c7ccc(S(=O)(=O)[O-])cc7)c7ccc4[nH]7)C=C6)C=C5)cc3)c2)c1
REMARK SMILES IDX 22 1 21 2 19 3 20 4 18 6 12 7 13 8 88 9 14 10 15 11 11 12
REMARK SMILES IDX 10 13 8 14 9 15 7 17 3 18 4 19 89 20 5 21 6 22 2 23 1 24
REMARK SMILES IDX 16 25 17 26 23 27 24 28 25 29 26 30 27 32 28 33 29 34 87 35
REMARK SMILES IDX 30 36 86 37 31 38 32 39 33 40 80 41 34 42 85 43 79 44 81 45
REMARK SMILES IDX 35 46 84 47 78 48 77 49 36 51 66 52 47 53 65 54 48 55 51 56
REMARK SMILES IDX 64 57 82 58 49 59 50 60 63 62 83 63 52 64 37 65 38 66 46 67
REMARK SMILES IDX 39 68 45 69 40 70 41 71 42 72 43 73 44 74 67 75 68 76 76 77
REMARK SMILES IDX 69 78 75 79 70 80 71 81 72 82 73 83 74 84 53 85 54 86 62 87
REMARK SMILES IDX 55 88 61 89 56 90 57 91 58 92 59 93 60 94
REMARK H PARENT 21 5 10 16 25 31 81 50 51 61
REMARK Flexibility Score: inf
ROOT
ATOM      1  C   UNL     1       7.604   3.571  -2.867  1.00  0.00     0.118 C 
ENDROOT
BRANCH   1   2
ATOM      2  N   UNL     1       7.944   2.533  -3.835  1.00  0.00    -0.352 N 
ATOM      3  C   UNL     1       7.567   1.230  -4.084  1.00  0.00     0.255 C 
ATOM      4  O   UNL     1       8.111   0.737  -5.069  1.00  0.00    -0.269 OA
ATOM      5  H   UNL     1       8.620   2.844  -4.479  1.00  0.00     0.163 HD
BRANCH   3   6
ATOM      6  C   UNL     1       6.596   0.452  -3.237  1.00  0.00     0.082 A 
ATOM      7  C   UNL     1       5.084   0.686  -1.308  1.00  0.00    -0.028 A 
ATOM      8  C   UNL     1       5.079  -0.693  -1.145  1.00  0.00     0.009 A 
ATOM      9  C   UNL     1       5.687   1.197  -2.465  1.00  0.00     0.023 A 
ATOM     10  C   UNL     1       5.775  -1.495  -2.048  1.00  0.00     0.047 A 
ATOM     11  C   UNL     1       6.590  -0.946  -3.062  1.00  0.00     0.131 A 
BRANCH   7  12
ATOM     12  C   UNL     1       4.730   1.578  -0.136  1.00  0.00     0.152 C 
BRANCH  12  13
ATOM     13  N   UNL     1       4.661   2.995  -0.432  1.00  0.00    -0.348 N 
ATOM     14  C   UNL     1       3.708   3.871  -0.868  1.00  0.00     0.251 C 
ATOM     15  O   UNL     1       4.094   5.026  -1.064  1.00  0.00    -0.269 OA
ATOM     16  H   UNL     1       5.525   3.442  -0.279  1.00  0.00     0.164 HD
BRANCH  14  17
ATOM     17  C   UNL     1       2.279   3.538  -1.133  1.00  0.00     0.043 A 
ATOM     18  C   UNL     1       0.323   2.086  -1.109  1.00  0.00     0.119 A 
ATOM     19  C   UNL     1      -0.442   3.097  -1.685  1.00  0.00     0.046 A 
ATOM     20  C   UNL     1       1.674   2.316  -0.839  1.00  0.00     0.060 A 
ATOM     21  C   UNL     1       0.134   4.331  -1.978  1.00  0.00     0.005 A 
ATOM     22  C   UNL     1       1.484   4.549  -1.701  1.00  0.00     0.014 A 
BRANCH  18  23
ATOM     23  O   UNL     1      -0.341   0.914  -0.860  1.00  0.00    -0.497 OA
ATOM     24  C   UNL     1       0.367  -0.085  -0.132  1.00  0.00     0.278 C 
ENDBRANCH  18  23
ENDBRANCH  14  17
ENDBRANCH  12  13
ENDBRANCH   7  12
BRANCH  11  25
ATOM     25  O   UNL     1       7.329  -1.943  -3.634  1.00  0.00    -0.496 OA
ATOM     26  C   UNL     1       7.773  -1.853  -4.975  1.00  0.00     0.278 C 
ENDBRANCH  11  25
ENDBRANCH   3   6
ENDBRANCH   1   2
BRANCH   1  27
ATOM     27  C   UNL     1       8.784   4.060  -2.050  1.00  0.00     0.042 C 
BRANCH  27  28
ATOM     28  C   UNL     1       9.901   4.668  -2.873  1.00  0.00     0.118 C 
BRANCH  28  29
ATOM     29  N   UNL     1       9.466   5.824  -3.646  1.00  0.00    -0.352 N 
ATOM     30  C   UNL     1       9.704   7.165  -3.459  1.00  0.00     0.251 C 
ATOM     31  H   UNL     1       8.911   5.609  -4.430  1.00  0.00     0.163 HD
ATOM     32  O   UNL     1       9.065   7.989  -4.105  1.00  0.00    -0.269 OA
BRANCH  30  33
ATOM     33  C   UNL     1      10.712   7.613  -2.474  1.00  0.00     0.039 A 
ATOM     34  C   UNL     1      10.451   8.741  -1.691  1.00  0.00     0.014 A 
ATOM     35  C   UNL     1      11.922   6.934  -2.334  1.00  0.00     0.014 A 
ATOM     36  C   UNL     1      11.377   9.140  -0.725  1.00  0.00     0.010 A 
ATOM     37  C   UNL     1      12.784   7.257  -1.294  1.00  0.00     0.010 A 
ATOM     38  C   UNL     1      12.534   8.377  -0.491  1.00  0.00    -0.014 A 
BRANCH  38  39
ATOM     39  C   UNL     1      13.514   8.745   0.561  1.00  0.00     0.031 A 
ATOM     40  C   UNL     1      14.941   9.053   0.182  1.00  0.00     0.074 A 
ATOM     41  C   UNL     1      13.142   8.735   1.856  1.00  0.00     0.049 A 
ATOM     42  N   UNL     1      15.960   9.323   0.957  1.00  0.00    -0.248 NA
ATOM     43  C   UNL     1      15.275   9.018  -1.253  1.00  0.00     0.031 C 
ATOM     44  C   UNL     1      11.803   8.405   2.352  1.00  0.00     0.029 A 
ATOM     45  N   UNL     1      13.858   9.004   2.995  1.00  0.00    -0.354 N 
ATOM     46  C   UNL     1      17.052   9.467   0.108  1.00  0.00     0.074 A 
ATOM     47  C   UNL     1      16.587   9.192  -1.232  1.00  0.00     0.031 C 
ATOM     48  C   UNL     1      11.786   8.528   3.689  1.00  0.00     0.029 A 
ATOM     49  C   UNL     1      13.120   8.898   4.150  1.00  0.00     0.049 A 
ATOM     50  H   UNL     1      14.811   9.251   2.986  1.00  0.00     0.167 HD
ATOM     51  C   UNL     1      18.323   9.823   0.412  1.00  0.00     0.031 A 
ATOM     52  C   UNL     1      13.477   9.073   5.437  1.00  0.00     0.031 A 
ATOM     53  C   UNL     1      18.773  10.115   1.746  1.00  0.00     0.049 A 
ATOM     54  C   UNL     1      14.895   9.468   5.751  1.00  0.00     0.074 A 
ATOM     55  C   UNL     1      20.023  10.542   2.158  1.00  0.00     0.029 A 
ATOM     56  N   UNL     1      17.990  10.012   2.886  1.00  0.00    -0.354 N 
ATOM     57  N   UNL     1      15.898   9.664   4.927  1.00  0.00    -0.248 NA
ATOM     58  C   UNL     1      15.226   9.679   7.166  1.00  0.00     0.031 C 
ATOM     59  C   UNL     1      20.012  10.642   3.552  1.00  0.00     0.029 A 
ATOM     60  C   UNL     1      18.736  10.344   4.004  1.00  0.00     0.049 A 
ATOM     61  H   UNL     1      17.043   9.742   2.899  1.00  0.00     0.167 HD
ATOM     62  C   UNL     1      16.970  10.053   5.723  1.00  0.00     0.074 A 
ATOM     63  C   UNL     1      16.487  10.080   7.089  1.00  0.00     0.031 C 
ATOM     64  C   UNL     1      18.238  10.364   5.356  1.00  0.00     0.031 A 
BRANCH  51  65
ATOM     65  C   UNL     1      19.313   9.914  -0.720  1.00  0.00    -0.014 A 
ATOM     66  C   UNL     1      19.206  10.915  -1.704  1.00  0.00     0.010 A 
ATOM     67  C   UNL     1      20.390   9.010  -0.782  1.00  0.00     0.010 A 
ATOM     68  C   UNL     1      20.130  10.983  -2.750  1.00  0.00     0.020 A 
ATOM     69  C   UNL     1      21.335   9.095  -1.808  1.00  0.00     0.020 A 
ATOM     70  C   UNL     1      21.189  10.072  -2.796  1.00  0.00     0.054 A 
BRANCH  70  71
ATOM     71  S   UNL     1      22.390  10.203  -4.149  1.00  0.00     0.124 S 
ATOM     72  O   UNL     1      21.608   9.737  -5.291  1.00  0.00    -0.237 OA
ATOM     73  O   UNL     1      22.715  11.627  -4.149  1.00  0.00    -0.237 OA
ATOM     74  O   UNL     1      23.477   9.318  -3.737  1.00  0.00    -0.744 OA
ENDBRANCH  70  71
ENDBRANCH  51  65
BRANCH  52  75
ATOM     75  C   UNL     1      12.472   8.896   6.521  1.00  0.00    -0.014 A 
ATOM     76  C   UNL     1      12.012  10.001   7.259  1.00  0.00     0.010 A 
ATOM     77  C   UNL     1      11.958   7.619   6.815  1.00  0.00     0.010 A 
ATOM     78  C   UNL     1      11.076   9.831   8.284  1.00  0.00     0.020 A 
ATOM     79  C   UNL     1      10.999   7.449   7.818  1.00  0.00     0.020 A 
ATOM     80  C   UNL     1      10.574   8.556   8.555  1.00  0.00     0.054 A 
BRANCH  80  81
ATOM     81  S   UNL     1       9.327   8.365   9.860  1.00  0.00     0.124 S 
ATOM     82  O   UNL     1      10.119   8.564  11.069  1.00  0.00    -0.237 OA
ATOM     83  O   UNL     1       8.375   9.427   9.543  1.00  0.00    -0.237 OA
ATOM     84  O   UNL     1       8.824   7.008   9.656  1.00  0.00    -0.744 OA
ENDBRANCH  80  81
ENDBRANCH  52  75
BRANCH  64  85
ATOM     85  C   UNL     1      19.185  10.802   6.442  1.00  0.00    -0.014 A 
ATOM     86  C   UNL     1      19.673   9.895   7.399  1.00  0.00     0.010 A 
ATOM     87  C   UNL     1      19.631  12.136   6.472  1.00  0.00     0.010 A 
ATOM     88  C   UNL     1      20.560  10.325   8.390  1.00  0.00     0.020 A 
ATOM     89  C   UNL     1      20.542  12.562   7.440  1.00  0.00     0.020 A 
ATOM     90  C   UNL     1      20.989  11.656   8.403  1.00  0.00     0.054 A 
BRANCH  90  91
ATOM     91  S   UNL     1      22.167  12.180   9.678  1.00  0.00     0.124 S 
ATOM     92  O   UNL     1      21.331  12.200  10.875  1.00  0.00    -0.237 OA
ATOM     93  O   UNL     1      23.177  11.125   9.633  1.00  0.00    -0.237 OA
ATOM     94  O   UNL     1      22.622  13.489   9.214  1.00  0.00    -0.744 OA
ENDBRANCH  90  91
ENDBRANCH  64  85
ENDBRANCH  38  39
ENDBRANCH  30  33
ENDBRANCH  28  29
ENDBRANCH  27  28
ENDBRANCH   1  27
TORSDOF 18
