REMARK SMILES CC(C)Oc1ccc([C@H](O)[C@H](F)C(=O)NCCCNC(=O)c2ccc(-c3c4nc(c(-c5ccc(S(=O)(=O)[O-])cc5)c5ccc([nH]5)c(-c5ccc(S(=O)(=O)[O-])cc5)c5nc(c(-c6ccc(S(=O)(=O)[O-])cc6)c6ccc3[nH]6)C=C5)C=C4)cc2)cc1
REMARK SMILES IDX 16 1 15 2 13 3 14 4 11 6 12 7 9 8 8 9 5 10 6 11 83 12 7 13
REMARK SMILES IDX 82 14 4 15 2 16 1 17 3 18 10 19 17 21 18 22 19 23 20 24
REMARK SMILES IDX 21 26 22 27 23 28 81 29 24 30 80 31 25 32 26 33 27 34 74 35
REMARK SMILES IDX 28 36 79 37 73 38 75 39 29 40 78 41 72 42 71 43 30 45 60 46
REMARK SMILES IDX 41 47 59 48 42 49 45 50 58 51 76 52 43 53 44 54 57 56 77 57
REMARK SMILES IDX 46 58 31 59 32 60 40 61 33 62 39 63 34 64 35 65 36 66 37 67
REMARK SMILES IDX 38 68 61 69 62 70 70 71 63 72 69 73 64 74 65 75 66 76 67 77
REMARK SMILES IDX 68 78 47 79 48 80 56 81 49 82 55 83 50 84 51 85 52 86 53 87
REMARK SMILES IDX 54 88
REMARK H PARENT 15 5 10 20 19 25 75 44 45 55
REMARK Flexibility Score: inf
ROOT
ATOM      1  C   UNL     1      -3.760   3.323   5.781  1.00  0.00     0.117 C 
ENDROOT
BRANCH   1   2
ATOM      2  N   UNL     1      -4.828   2.429   6.201  1.00  0.00    -0.353 N 
ATOM      3  C   UNL     1      -4.915   1.075   6.064  1.00  0.00     0.257 C 
ATOM      4  O   UNL     1      -5.762   0.489   6.747  1.00  0.00    -0.272 OA
ATOM      5  H   UNL     1      -5.594   2.861   6.645  1.00  0.00     0.163 HD
BRANCH   3   6
ATOM      6  C   UNL     1      -3.987   0.293   5.147  1.00  0.00     0.288 C 
ATOM      7  F   UNL     1      -3.558   0.984   4.047  1.00  0.00    -0.234 F 
BRANCH   6   8
ATOM      8  C   UNL     1      -2.781  -0.312   5.885  1.00  0.00     0.188 C 
BRANCH   8   9
ATOM      9  C   UNL     1      -1.758   0.698   6.371  1.00  0.00    -0.016 A 
ATOM     10  C   UNL     1      -0.023   2.770   7.235  1.00  0.00     0.119 A 
ATOM     11  C   UNL     1       0.140   2.167   5.985  1.00  0.00     0.047 A 
ATOM     12  C   UNL     1      -1.034   2.306   8.068  1.00  0.00     0.047 A 
ATOM     13  C   UNL     1      -0.715   1.149   5.553  1.00  0.00     0.010 A 
ATOM     14  C   UNL     1      -1.884   1.270   7.647  1.00  0.00     0.010 A 
BRANCH  10  15
ATOM     15  O   UNL     1       0.859   3.777   7.470  1.00  0.00    -0.491 OA
BRANCH  15  16
ATOM     16  C   UNL     1       0.886   4.571   8.659  1.00  0.00     0.167 C 
ATOM     17  C   UNL     1      -0.334   5.465   8.833  1.00  0.00     0.052 C 
ATOM     18  C   UNL     1       1.274   3.784   9.905  1.00  0.00     0.052 C 
ENDBRANCH  15  16
ENDBRANCH  10  15
ENDBRANCH   8   9
BRANCH   8  19
ATOM     19  O   UNL     1      -2.134  -1.273   5.031  1.00  0.00    -0.385 OA
ATOM     20  H   UNL     1      -1.787  -0.824   4.244  1.00  0.00     0.211 HD
ENDBRANCH   8  19
ENDBRANCH   6   8
ENDBRANCH   3   6
ENDBRANCH   1   2
BRANCH   1  21
ATOM     21  C   UNL     1      -4.233   4.708   5.380  1.00  0.00     0.042 C 
BRANCH  21  22
ATOM     22  C   UNL     1      -4.984   5.458   6.474  1.00  0.00     0.118 C 
BRANCH  22  23
ATOM     23  N   UNL     1      -4.227   5.651   7.708  1.00  0.00    -0.352 N 
ATOM     24  C   UNL     1      -3.721   6.800   8.273  1.00  0.00     0.251 C 
ATOM     25  H   UNL     1      -4.050   4.828   8.218  1.00  0.00     0.163 HD
ATOM     26  O   UNL     1      -3.099   6.754   9.330  1.00  0.00    -0.269 OA
BRANCH  24  27
ATOM     27  C   UNL     1      -3.895   8.088   7.580  1.00  0.00     0.039 A 
ATOM     28  C   UNL     1      -2.773   8.869   7.290  1.00  0.00     0.014 A 
ATOM     29  C   UNL     1      -5.165   8.493   7.175  1.00  0.00     0.014 A 
ATOM     30  C   UNL     1      -2.915  10.006   6.491  1.00  0.00     0.010 A 
ATOM     31  C   UNL     1      -5.291   9.565   6.305  1.00  0.00     0.010 A 
ATOM     32  C   UNL     1      -4.167  10.327   5.945  1.00  0.00    -0.014 A 
BRANCH  32  33
ATOM     33  C   UNL     1      -4.358  11.441   4.983  1.00  0.00     0.031 A 
ATOM     34  C   UNL     1      -5.307  12.555   5.327  1.00  0.00     0.074 A 
ATOM     35  C   UNL     1      -3.794  11.379   3.761  1.00  0.00     0.049 A 
ATOM     36  N   UNL     1      -5.790  13.496   4.560  1.00  0.00    -0.248 NA
ATOM     37  C   UNL     1      -5.808  12.587   6.712  1.00  0.00     0.031 C 
ATOM     38  C   UNL     1      -2.872  10.338   3.299  1.00  0.00     0.029 A 
ATOM     39  N   UNL     1      -3.936  12.201   2.671  1.00  0.00    -0.354 N 
ATOM     40  C   UNL     1      -6.680  14.207   5.356  1.00  0.00     0.074 A 
ATOM     41  C   UNL     1      -6.703  13.561   6.650  1.00  0.00     0.031 C 
ATOM     42  C   UNL     1      -2.519  10.594   2.029  1.00  0.00     0.029 A 
ATOM     43  C   UNL     1      -3.234  11.779   1.566  1.00  0.00     0.049 A 
ATOM     44  H   UNL     1      -4.489  13.015   2.679  1.00  0.00     0.167 HD
ATOM     45  C   UNL     1      -7.403  15.308   5.042  1.00  0.00     0.031 A 
ATOM     46  C   UNL     1      -3.191  12.273   0.314  1.00  0.00     0.031 A 
ATOM     47  C   UNL     1      -7.361  15.953   3.757  1.00  0.00     0.049 A 
ATOM     48  C   UNL     1      -4.029  13.474  -0.026  1.00  0.00     0.074 A 
ATOM     49  C   UNL     1      -8.004  17.108   3.352  1.00  0.00     0.029 A 
ATOM     50  N   UNL     1      -6.634  15.494   2.668  1.00  0.00    -0.354 N 
ATOM     51  N   UNL     1      -4.832  14.163   0.751  1.00  0.00    -0.248 NA
ATOM     52  C   UNL     1      -3.965  13.959  -1.411  1.00  0.00     0.031 C 
ATOM     53  C   UNL     1      -7.706  17.320   2.001  1.00  0.00     0.029 A 
ATOM     54  C   UNL     1      -6.837  16.325   1.580  1.00  0.00     0.049 A 
ATOM     55  H   UNL     1      -6.059  14.695   2.669  1.00  0.00     0.167 HD
ATOM     56  C   UNL     1      -5.358  15.171  -0.048  1.00  0.00     0.074 A 
ATOM     57  C   UNL     1      -4.770  15.012  -1.364  1.00  0.00     0.031 C 
ATOM     58  C   UNL     1      -6.249  16.140   0.276  1.00  0.00     0.031 A 
BRANCH  45  59
ATOM     59  C   UNL     1      -8.309  15.865   6.108  1.00  0.00    -0.014 A 
ATOM     60  C   UNL     1      -7.785  16.467   7.267  1.00  0.00     0.010 A 
ATOM     61  C   UNL     1      -9.705  15.782   5.954  1.00  0.00     0.010 A 
ATOM     62  C   UNL     1      -8.636  16.917   8.279  1.00  0.00     0.020 A 
ATOM     63  C   UNL     1     -10.561  16.260   6.950  1.00  0.00     0.020 A 
ATOM     64  C   UNL     1     -10.020  16.801   8.118  1.00  0.00     0.054 A 
BRANCH  64  65
ATOM     65  S   UNL     1     -11.101  17.381   9.453  1.00  0.00     0.124 S 
ATOM     66  O   UNL     1     -10.933  16.329  10.453  1.00  0.00    -0.237 OA
ATOM     67  O   UNL     1     -10.518  18.675   9.800  1.00  0.00    -0.237 OA
ATOM     68  O   UNL     1     -12.420  17.443   8.829  1.00  0.00    -0.744 OA
ENDBRANCH  64  65
ENDBRANCH  45  59
BRANCH  46  69
ATOM     69  C   UNL     1      -2.318  11.631  -0.707  1.00  0.00    -0.014 A 
ATOM     70  C   UNL     1      -1.140  12.271  -1.129  1.00  0.00     0.010 A 
ATOM     71  C   UNL     1      -2.634  10.364  -1.232  1.00  0.00     0.010 A 
ATOM     72  C   UNL     1      -0.293  11.658  -2.056  1.00  0.00     0.020 A 
ATOM     73  C   UNL     1      -1.777   9.737  -2.142  1.00  0.00     0.020 A 
ATOM     74  C   UNL     1      -0.614  10.391  -2.552  1.00  0.00     0.054 A 
BRANCH  74  75
ATOM     75  S   UNL     1       0.543   9.582  -3.693  1.00  0.00     0.124 S 
ATOM     76  O   UNL     1       0.339  10.342  -4.922  1.00  0.00    -0.237 OA
ATOM     77  O   UNL     1       1.830   9.782  -3.031  1.00  0.00    -0.237 OA
ATOM     78  O   UNL     1       0.077   8.197  -3.727  1.00  0.00    -0.744 OA
ENDBRANCH  74  75
ENDBRANCH  46  69
BRANCH  58  79
ATOM     79  C   UNL     1      -6.642  17.110  -0.804  1.00  0.00    -0.014 A 
ATOM     80  C   UNL     1      -7.521  16.726  -1.831  1.00  0.00     0.010 A 
ATOM     81  C   UNL     1      -6.193  18.442  -0.744  1.00  0.00     0.010 A 
ATOM     82  C   UNL     1      -7.936  17.655  -2.788  1.00  0.00     0.020 A 
ATOM     83  C   UNL     1      -6.625  19.380  -1.684  1.00  0.00     0.020 A 
ATOM     84  C   UNL     1      -7.490  18.978  -2.704  1.00  0.00     0.054 A 
BRANCH  84  85
ATOM     85  S   UNL     1      -8.105  20.182  -3.914  1.00  0.00     0.124 S 
ATOM     86  O   UNL     1      -7.383  19.795  -5.122  1.00  0.00    -0.237 OA
ATOM     87  O   UNL     1      -9.542  19.916  -3.928  1.00  0.00    -0.237 OA
ATOM     88  O   UNL     1      -7.722  21.472  -3.345  1.00  0.00    -0.744 OA
ENDBRANCH  84  85
ENDBRANCH  58  79
ENDBRANCH  32  33
ENDBRANCH  24  27
ENDBRANCH  22  23
ENDBRANCH  21  22
ENDBRANCH   1  21
TORSDOF 18
