REMARK SMILES O=C(NCCCNC(=O)c1ccccc1Nc1cccc(S(F)(F)(F)(F)F)c1)c1ccc(-c2c3nc(c(-c4ccc(S(=O)(=O)[O-])cc4)c4ccc([nH]4)c(-c4ccc(S(=O)(=O)[O-])cc4)c4nc(c(-c5ccc(S(=O)(=O)[O-])cc5)c5ccc2[nH]5)C=C4)C=C3)cc1
REMARK SMILES IDX 5 1 4 2 3 3 1 4 2 5 29 7 30 8 88 9 31 10 87 11 32 12 33 13
REMARK SMILES IDX 34 14 81 15 35 16 86 17 80 18 82 19 36 20 85 21 79 22 78 23
REMARK SMILES IDX 37 25 67 26 48 27 66 28 49 29 52 30 65 31 83 32 50 33 51 34
REMARK SMILES IDX 64 36 84 37 53 38 38 39 39 40 47 41 40 42 46 43 41 44 42 45
REMARK SMILES IDX 43 46 44 47 45 48 68 49 69 50 77 51 70 52 76 53 71 54 72 55
REMARK SMILES IDX 73 56 74 57 75 58 54 59 55 60 63 61 56 62 62 63 57 64 58 65
REMARK SMILES IDX 59 66 60 67 61 68 6 69 7 70 8 71 9 73 10 74 11 75 15 76
REMARK SMILES IDX 12 77 14 78 13 79 16 80 17 82 18 83 28 84 19 85 21 86 20 87
REMARK SMILES IDX 22 88 23 89 24 90 25 91 26 92 27 93
REMARK H PARENT 3 6 82 24 52 35 7 72 16 81
REMARK Flexibility Score: inf
ROOT
ATOM      1  C   UNL     1       4.993   2.394  -0.080  1.00  0.00     0.042 C 
ENDROOT
BRANCH   1   2
ATOM      2  C   UNL     1       4.486   1.127   0.590  1.00  0.00     0.118 C 
BRANCH   2   3
ATOM      3  N   UNL     1       3.016   1.127   0.590  1.00  0.00    -0.352 N 
ATOM      4  O   UNL     1       1.010   0.049  -0.086  1.00  0.00    -0.269 OA
ATOM      5  C   UNL     1       2.281   0.049  -0.086  1.00  0.00     0.251 C 
ATOM      6  H   UNL     1       2.524   1.850   1.043  1.00  0.00     0.163 HD
BRANCH   5   7
ATOM      7  C   UNL     1       3.041  -1.066  -0.786  1.00  0.00     0.039 A 
ATOM      8  C   UNL     1       4.054  -1.647  -0.042  1.00  0.00     0.014 A 
ATOM      9  C   UNL     1       2.728  -1.518  -1.995  1.00  0.00     0.014 A 
ATOM     10  C   UNL     1       4.879  -2.526  -0.783  1.00  0.00     0.010 A 
ATOM     11  C   UNL     1       3.502  -2.476  -2.605  1.00  0.00     0.010 A 
ATOM     12  C   UNL     1       4.554  -3.052  -1.950  1.00  0.00    -0.014 A 
BRANCH  12  13
ATOM     13  C   UNL     1       5.311  -4.234  -2.534  1.00  0.00     0.031 A 
ATOM     14  C   UNL     1       5.964  -4.141  -3.764  1.00  0.00     0.074 A 
ATOM     15  C   UNL     1       5.228  -5.397  -1.787  1.00  0.00     0.049 A 
ATOM     16  N   UNL     1       6.631  -5.102  -4.405  1.00  0.00    -0.248 NA
ATOM     17  C   UNL     1       6.024  -2.916  -4.574  1.00  0.00     0.031 C 
ATOM     18  C   UNL     1       4.578  -5.497  -0.541  1.00  0.00     0.029 A 
ATOM     19  N   UNL     1       5.740  -6.638  -2.095  1.00  0.00    -0.354 N 
ATOM     20  C   UNL     1       7.137  -4.629  -5.546  1.00  0.00     0.074 A 
ATOM     21  C   UNL     1       6.748  -3.218  -5.674  1.00  0.00     0.031 C 
ATOM     22  C   UNL     1       4.686  -6.781  -0.111  1.00  0.00     0.029 A 
ATOM     23  C   UNL     1       5.407  -7.505  -1.079  1.00  0.00     0.049 A 
ATOM     24  H   UNL     1       6.256  -6.865  -2.902  1.00  0.00     0.167 HD
ATOM     25  C   UNL     1       7.908  -5.319  -6.483  1.00  0.00     0.031 A 
ATOM     26  C   UNL     1       5.703  -8.856  -0.985  1.00  0.00     0.031 A 
ATOM     27  C   UNL     1       8.241  -6.659  -6.367  1.00  0.00     0.049 A 
ATOM     28  C   UNL     1       6.425  -9.561  -1.951  1.00  0.00     0.074 A 
ATOM     29  C   UNL     1       9.024  -7.367  -7.299  1.00  0.00     0.029 A 
ATOM     30  N   UNL     1       7.887  -7.533  -5.364  1.00  0.00    -0.354 N 
ATOM     31  N   UNL     1       6.964  -9.078  -3.072  1.00  0.00    -0.248 NA
ATOM     32  C   UNL     1       6.717 -10.998  -1.877  1.00  0.00     0.031 C 
ATOM     33  C   UNL     1       9.132  -8.653  -6.868  1.00  0.00     0.029 A 
ATOM     34  C   UNL     1       8.418  -8.768  -5.660  1.00  0.00     0.049 A 
ATOM     35  H   UNL     1       7.346  -7.312  -4.571  1.00  0.00     0.167 HD
ATOM     36  C   UNL     1       7.595 -10.050  -3.733  1.00  0.00     0.074 A 
ATOM     37  C   UNL     1       7.439 -11.301  -2.978  1.00  0.00     0.031 C 
ATOM     38  C   UNL     1       8.299  -9.943  -4.935  1.00  0.00     0.031 A 
BRANCH  25  39
ATOM     39  C   UNL     1       8.411  -4.557  -7.699  1.00  0.00    -0.014 A 
ATOM     40  C   UNL     1       9.344  -3.539  -7.601  1.00  0.00     0.010 A 
ATOM     41  C   UNL     1       8.014  -5.017  -8.880  1.00  0.00     0.010 A 
ATOM     42  C   UNL     1       9.590  -2.867  -8.821  1.00  0.00     0.020 A 
ATOM     43  C   UNL     1       8.403  -4.392 -10.040  1.00  0.00     0.020 A 
ATOM     44  C   UNL     1       9.278  -3.341 -10.013  1.00  0.00     0.054 A 
BRANCH  44  45
ATOM     45  S   UNL     1       9.971  -2.639 -11.531  1.00  0.00     0.124 S 
ATOM     46  O   UNL     1       9.579  -1.163 -11.634  1.00  0.00    -0.237 OA
ATOM     47  O   UNL     1      11.496  -2.761 -11.500  1.00  0.00    -0.237 OA
ATOM     48  O   UNL     1       9.358  -3.487 -12.883  1.00  0.00    -0.744 OA
ENDBRANCH  44  45
ENDBRANCH  25  39
BRANCH  26  49
ATOM     49  C   UNL     1       5.214  -9.614   0.239  1.00  0.00    -0.014 A 
ATOM     50  C   UNL     1       6.097 -10.368   0.995  1.00  0.00     0.010 A 
ATOM     51  C   UNL     1       3.906  -9.655   0.463  1.00  0.00     0.010 A 
ATOM     52  C   UNL     1       5.471 -11.364   1.782  1.00  0.00     0.020 A 
ATOM     53  C   UNL     1       3.376 -10.562   1.348  1.00  0.00     0.020 A 
ATOM     54  C   UNL     1       4.186 -11.381   2.086  1.00  0.00     0.054 A 
BRANCH  54  55
ATOM     55  S   UNL     1       3.532 -12.431   3.406  1.00  0.00     0.124 S 
ATOM     56  O   UNL     1       3.830 -13.898   3.087  1.00  0.00    -0.237 OA
ATOM     57  O   UNL     1       4.194 -12.053   4.734  1.00  0.00    -0.237 OA
ATOM     58  O   UNL     1       1.841 -12.206   3.529  1.00  0.00    -0.744 OA
ENDBRANCH  54  55
ENDBRANCH  26  49
BRANCH  38  59
ATOM     59  C   UNL     1       8.974 -11.191  -5.480  1.00  0.00    -0.014 A 
ATOM     60  C   UNL     1       8.129 -12.240  -5.802  1.00  0.00     0.010 A 
ATOM     61  C   UNL     1      10.283 -11.272  -5.686  1.00  0.00     0.010 A 
ATOM     62  C   UNL     1       8.802 -13.455  -6.073  1.00  0.00     0.020 A 
ATOM     63  C   UNL     1      10.856 -12.457  -6.082  1.00  0.00     0.020 A 
ATOM     64  C   UNL     1      10.087 -13.552  -6.361  1.00  0.00     0.054 A 
BRANCH  64  65
ATOM     65  S   UNL     1      10.791 -15.053  -7.085  1.00  0.00     0.124 S 
ATOM     66  O   UNL     1      10.561 -16.233  -6.138  1.00  0.00    -0.237 OA
ATOM     67  O   UNL     1      10.115 -15.338  -8.428  1.00  0.00    -0.237 OA
ATOM     68  O   UNL     1      12.470 -14.836  -7.327  1.00  0.00    -0.744 OA
ENDBRANCH  64  65
ENDBRANCH  38  59
ENDBRANCH  12  13
ENDBRANCH   5   7
ENDBRANCH   2   3
ENDBRANCH   1   2
BRANCH   1  69
ATOM     69  C   UNL     1       4.486   3.608   0.681  1.00  0.00     0.118 C 
BRANCH  69  70
ATOM     70  N   UNL     1       4.976   3.557   2.066  1.00  0.00    -0.352 N 
ATOM     71  C   UNL     1       5.821   4.641   2.587  1.00  0.00     0.253 C 
ATOM     72  H   UNL     1       4.738   2.797   2.645  1.00  0.00     0.163 HD
ATOM     73  O   UNL     1       6.245   4.597   3.785  1.00  0.00    -0.269 OA
BRANCH  71  74
ATOM     74  C   UNL     1       6.188   5.815   1.694  1.00  0.00     0.063 A 
ATOM     75  C   UNL     1       7.486   6.261   1.507  1.00  0.00     0.016 A 
ATOM     76  C   UNL     1       5.180   6.316   0.990  1.00  0.00     0.051 A 
ATOM     77  C   UNL     1       7.580   7.453   0.752  1.00  0.00     0.001 A 
ATOM     78  C   UNL     1       5.372   7.398   0.167  1.00  0.00     0.027 A 
ATOM     79  C   UNL     1       6.618   7.928  -0.019  1.00  0.00     0.002 A 
BRANCH  76  80
ATOM     80  N   UNL     1       3.846   5.706   1.093  1.00  0.00    -0.355 N 
ATOM     81  H   UNL     1       3.704   4.930   1.682  1.00  0.00     0.167 HD
BRANCH  80  82
ATOM     82  C   UNL     1       2.725   6.255   0.317  1.00  0.00     0.040 A 
ATOM     83  C   UNL     1       1.637   6.761   1.009  1.00  0.00     0.026 A 
ATOM     84  C   UNL     1       2.778   6.296  -1.009  1.00  0.00     0.050 A 
ATOM     85  C   UNL     1       0.514   7.031   0.192  1.00  0.00     0.004 A 
ATOM     86  C   UNL     1       1.687   6.700  -1.740  1.00  0.00     0.109 A 
ATOM     87  C   UNL     1       0.556   7.157  -1.122  1.00  0.00     0.024 A 
BRANCH  86  88
ATOM     88  S   UNL     1       1.748   6.628  -3.548  1.00  0.00     0.310 S 
ATOM     89  F   UNL     1       3.334   6.643  -3.576  1.00  0.00    -0.094 F 
ATOM     90  F   UNL     1       1.802   8.203  -3.581  1.00  0.00    -0.094 F 
ATOM     91  F   UNL     1       1.782   6.566  -5.101  1.00  0.00    -0.094 F 
ATOM     92  F   UNL     1       1.835   5.052  -3.491  1.00  0.00    -0.094 F 
ATOM     93  F   UNL     1       1.827   6.675  -1.970  1.00  0.00    -0.094 F 
ENDBRANCH  86  88
ENDBRANCH  80  82
ENDBRANCH  76  80
ENDBRANCH  71  74
ENDBRANCH  69  70
ENDBRANCH   1  69
TORSDOF 16
