REMARK SMILES O=C(Nc1cccc(F)c1)N[C@@H]1C=C[C@@H](C(=O)NCCCNC(=O)c2ccc(-c3c4nc(c(-c5ccc(S(=O)(=O)[O-])cc5)c5ccc([nH]5)c(-c5ccc(S(=O)(=O)[O-])cc5)c5nc(c(-c6ccc(S(=O)(=O)[O-])cc6)c6ccc3[nH]6)C=C5)C=C4)cc2)C1
REMARK SMILES IDX 20 1 19 2 18 3 16 4 17 5 15 7 12 8 13 9 85 10 14 11 11 12
REMARK SMILES IDX 1 13 2 14 3 15 4 18 5 19 10 20 6 21 8 22 7 23 9 24 21 25
REMARK SMILES IDX 22 26 23 27 24 29 25 30 26 31 84 32 27 33 83 34 28 35 29 36
REMARK SMILES IDX 30 37 77 38 31 39 82 40 76 41 78 42 32 43 81 44 75 45 74 46
REMARK SMILES IDX 33 48 63 49 44 50 62 51 45 52 48 53 61 54 79 55 46 56 47 57
REMARK SMILES IDX 60 59 80 60 49 61 34 62 35 63 43 64 36 65 42 66 37 67 38 68
REMARK SMILES IDX 39 69 40 70 41 71 64 72 65 73 73 74 66 75 72 76 67 77 68 78
REMARK SMILES IDX 69 79 70 80 71 81 50 82 51 83 59 84 52 85 58 86 53 87 54 88
REMARK SMILES IDX 55 89 56 90 57 91
REMARK H PARENT 18 6 3 16 11 17 22 28 78 47 48 58
REMARK Flexibility Score: inf
ROOT
ATOM      1  C   UNL     1       2.416   3.033   1.993  1.00  0.00     0.042 C 
ENDROOT
BRANCH   1   2
ATOM      2  C   UNL     1       1.093   3.084   1.243  1.00  0.00     0.117 C 
BRANCH   2   3
ATOM      3  N   UNL     1       0.854   4.375   0.621  1.00  0.00    -0.356 N 
ATOM      4  C   UNL     1       0.796   4.746  -0.687  1.00  0.00     0.227 C 
ATOM      5  O   UNL     1       0.507   5.924  -0.926  1.00  0.00    -0.274 OA
ATOM      6  H   UNL     1       0.710   5.112   1.258  1.00  0.00     0.163 HD
BRANCH   4   7
ATOM      7  C   UNL     1       1.051   3.773  -1.839  1.00  0.00     0.103 C 
ATOM      8  C   UNL     1       2.210   1.604  -1.943  1.00  0.00     0.107 C 
ATOM      9  C   UNL     1       0.721   1.452  -1.905  1.00  0.00    -0.006 C 
ATOM     10  C   UNL     1       2.439   3.119  -1.837  1.00  0.00     0.047 C 
ATOM     11  C   UNL     1       0.087   2.627  -1.859  1.00  0.00    -0.016 C 
BRANCH   8  12
ATOM     12  N   UNL     1       2.633   1.083  -3.213  1.00  0.00    -0.332 N 
ATOM     13  O   UNL     1       4.575   0.140  -2.485  1.00  0.00    -0.248 OA
ATOM     14  C   UNL     1       3.803   0.407  -3.394  1.00  0.00     0.319 C 
ATOM     15  N   UNL     1       4.012  -0.079  -4.658  1.00  0.00    -0.308 N 
ATOM     16  H   UNL     1       4.666  -0.812  -4.725  1.00  0.00     0.171 HD
ATOM     17  H   UNL     1       2.048   1.221  -3.993  1.00  0.00     0.165 HD
BRANCH  15  18
ATOM     18  C   UNL     1       3.428   0.320  -5.871  1.00  0.00     0.045 A 
ATOM     19  C   UNL     1       3.013   1.639  -6.104  1.00  0.00     0.026 A 
ATOM     20  C   UNL     1       3.280  -0.633  -6.878  1.00  0.00     0.065 A 
ATOM     21  C   UNL     1       2.389   1.987  -7.304  1.00  0.00     0.005 A 
ATOM     22  C   UNL     1       2.641  -0.280  -8.062  1.00  0.00     0.125 A 
ATOM     23  C   UNL     1       2.187   1.017  -8.281  1.00  0.00     0.039 A 
ATOM     24  F   UNL     1       2.441  -1.211  -9.004  1.00  0.00    -0.207 F 
ENDBRANCH  15  18
ENDBRANCH   8  12
ENDBRANCH   4   7
ENDBRANCH   2   3
ENDBRANCH   1   2
BRANCH   1  25
ATOM     25  C   UNL     1       2.458   3.935   3.218  1.00  0.00     0.118 C 
BRANCH  25  26
ATOM     26  N   UNL     1       1.503   3.530   4.241  1.00  0.00    -0.352 N 
ATOM     27  C   UNL     1       1.714   3.093   5.525  1.00  0.00     0.251 C 
ATOM     28  H   UNL     1       0.558   3.578   3.969  1.00  0.00     0.163 HD
ATOM     29  O   UNL     1       0.781   2.603   6.156  1.00  0.00    -0.269 OA
BRANCH  27  30
ATOM     30  C   UNL     1       3.056   3.193   6.139  1.00  0.00     0.039 A 
ATOM     31  C   UNL     1       3.523   2.136   6.926  1.00  0.00     0.014 A 
ATOM     32  C   UNL     1       3.847   4.330   5.958  1.00  0.00     0.014 A 
ATOM     33  C   UNL     1       4.808   2.194   7.472  1.00  0.00     0.010 A 
ATOM     34  C   UNL     1       5.157   4.346   6.424  1.00  0.00     0.010 A 
ATOM     35  C   UNL     1       5.650   3.283   7.194  1.00  0.00    -0.014 A 
BRANCH  35  36
ATOM     36  C   UNL     1       7.046   3.332   7.697  1.00  0.00     0.031 A 
ATOM     37  C   UNL     1       7.473   4.423   8.643  1.00  0.00     0.074 A 
ATOM     38  C   UNL     1       7.948   2.436   7.251  1.00  0.00     0.049 A 
ATOM     39  N   UNL     1       8.655   4.656   9.156  1.00  0.00    -0.248 NA
ATOM     40  C   UNL     1       6.443   5.395   9.044  1.00  0.00     0.031 C 
ATOM     41  C   UNL     1       7.668   1.349   6.309  1.00  0.00     0.029 A 
ATOM     42  N   UNL     1       9.283   2.294   7.532  1.00  0.00    -0.354 N 
ATOM     43  C   UNL     1       8.515   5.809   9.919  1.00  0.00     0.074 A 
ATOM     44  C   UNL     1       7.150   6.259   9.756  1.00  0.00     0.031 C 
ATOM     45  C   UNL     1       8.784   0.627   6.128  1.00  0.00     0.029 A 
ATOM     46  C   UNL     1       9.870   1.225   6.898  1.00  0.00     0.049 A 
ATOM     47  H   UNL     1       9.775   2.902   8.131  1.00  0.00     0.167 HD
ATOM     48  C   UNL     1       9.433   6.430  10.700  1.00  0.00     0.031 A 
ATOM     49  C   UNL     1      11.139   0.774   6.933  1.00  0.00     0.031 A 
ATOM     50  C   UNL     1      10.791   5.978  10.857  1.00  0.00     0.049 A 
ATOM     51  C   UNL     1      12.150   1.496   7.779  1.00  0.00     0.074 A 
ATOM     52  C   UNL     1      11.783   6.500  11.668  1.00  0.00     0.029 A 
ATOM     53  N   UNL     1      11.351   4.904  10.180  1.00  0.00    -0.354 N 
ATOM     54  N   UNL     1      11.983   2.545   8.550  1.00  0.00    -0.248 NA
ATOM     55  C   UNL     1      13.521   0.968   7.765  1.00  0.00     0.031 C 
ATOM     56  C   UNL     1      12.960   5.780  11.433  1.00  0.00     0.029 A 
ATOM     57  C   UNL     1      12.684   4.768  10.528  1.00  0.00     0.049 A 
ATOM     58  H   UNL     1      10.871   4.325   9.545  1.00  0.00     0.167 HD
ATOM     59  C   UNL     1      13.220   2.783   9.138  1.00  0.00     0.074 A 
ATOM     60  C   UNL     1      14.122   1.763   8.640  1.00  0.00     0.031 C 
ATOM     61  C   UNL     1      13.574   3.753  10.017  1.00  0.00     0.031 A 
BRANCH  48  62
ATOM     62  C   UNL     1       8.994   7.681  11.418  1.00  0.00    -0.014 A 
ATOM     63  C   UNL     1       8.028   7.639  12.441  1.00  0.00     0.010 A 
ATOM     64  C   UNL     1       9.550   8.923  11.058  1.00  0.00     0.010 A 
ATOM     65  C   UNL     1       7.574   8.819  13.037  1.00  0.00     0.020 A 
ATOM     66  C   UNL     1       9.124  10.102  11.677  1.00  0.00     0.020 A 
ATOM     67  C   UNL     1       8.117  10.044  12.643  1.00  0.00     0.054 A 
BRANCH  67  68
ATOM     68  S   UNL     1       7.490  11.562  13.412  1.00  0.00     0.124 S 
ATOM     69  O   UNL     1       6.175  11.693  12.787  1.00  0.00    -0.237 OA
ATOM     70  O   UNL     1       7.479  11.222  14.832  1.00  0.00    -0.237 OA
ATOM     71  O   UNL     1       8.466  12.578  13.024  1.00  0.00    -0.744 OA
ENDBRANCH  67  68
ENDBRANCH  48  62
BRANCH  49  72
ATOM     72  C   UNL     1      11.507  -0.455   6.178  1.00  0.00    -0.014 A 
ATOM     73  C   UNL     1      11.782  -1.649   6.868  1.00  0.00     0.010 A 
ATOM     74  C   UNL     1      11.549  -0.453   4.771  1.00  0.00     0.010 A 
ATOM     75  C   UNL     1      12.096  -2.817   6.168  1.00  0.00     0.020 A 
ATOM     76  C   UNL     1      11.837  -1.626   4.066  1.00  0.00     0.020 A 
ATOM     77  C   UNL     1      12.114  -2.799   4.770  1.00  0.00     0.054 A 
BRANCH  77  78
ATOM     78  S   UNL     1      12.454  -4.347   3.886  1.00  0.00     0.124 S 
ATOM     79  O   UNL     1      13.874  -4.546   4.156  1.00  0.00    -0.237 OA
ATOM     80  O   UNL     1      11.547  -5.287   4.539  1.00  0.00    -0.237 OA
ATOM     81  O   UNL     1      12.118  -4.030   2.499  1.00  0.00    -0.744 OA
ENDBRANCH  77  78
ENDBRANCH  49  72
BRANCH  61  82
ATOM     82  C   UNL     1      14.992   3.743  10.527  1.00  0.00    -0.014 A 
ATOM     83  C   UNL     1      16.072   4.099   9.699  1.00  0.00     0.010 A 
ATOM     84  C   UNL     1      15.240   3.421  11.874  1.00  0.00     0.010 A 
ATOM     85  C   UNL     1      17.376   4.102  10.201  1.00  0.00     0.020 A 
ATOM     86  C   UNL     1      16.539   3.453  12.388  1.00  0.00     0.020 A 
ATOM     87  C   UNL     1      17.601   3.781  11.543  1.00  0.00     0.054 A 
BRANCH  87  88
ATOM     88  S   UNL     1      19.298   3.838  12.182  1.00  0.00     0.124 S 
ATOM     89  O   UNL     1      19.894   2.655  11.569  1.00  0.00    -0.237 OA
ATOM     90  O   UNL     1      19.785   5.120  11.680  1.00  0.00    -0.237 OA
ATOM     91  O   UNL     1      19.125   3.769  13.632  1.00  0.00    -0.744 OA
ENDBRANCH  87  88
ENDBRANCH  61  82
ENDBRANCH  35  36
ENDBRANCH  27  30
ENDBRANCH  25  26
ENDBRANCH   1  25
TORSDOF 15
