REMARK SMILES CC(C)CCNC(=O)[C@@H](C)Oc1ccc(N)cc1C(=O)NCCCNC(=O)c1ccc(-c2c3nc(c(-c4ccc(S(=O)(=O)[O-])cc4)c4ccc([nH]4)c(-c4ccc(S(=O)(=O)[O-])cc4)c4nc(c(-c5ccc(S(=O)(=O)[O-])cc5)c5ccc2[nH]5)C=C4)C=C3)cc1
REMARK SMILES IDX 19 1 20 2 21 3 18 5 12 6 13 7 14 8 17 9 15 10 11 11 9 12
REMARK SMILES IDX 10 13 7 14 6 15 8 17 5 18 4 19 2 20 1 21 3 22 16 23 22 26
REMARK SMILES IDX 23 27 24 28 25 29 26 30 27 32 28 33 29 34 87 35 30 36 86 37
REMARK SMILES IDX 31 38 32 39 33 40 80 41 34 42 85 43 79 44 81 45 35 46 84 47
REMARK SMILES IDX 78 48 77 49 36 51 66 52 47 53 65 54 48 55 51 56 64 57 82 58
REMARK SMILES IDX 49 59 50 60 63 62 83 63 52 64 37 65 38 66 46 67 39 68 45 69
REMARK SMILES IDX 40 70 41 71 42 72 43 73 44 74 67 75 68 76 76 77 69 78 75 79
REMARK SMILES IDX 70 80 71 81 72 82 73 83 74 84 53 85 54 86 62 87 55 88 61 89
REMARK SMILES IDX 56 90 57 91 58 92 59 93 60 94
REMARK H PARENT 21 4 6 16 16 24 16 25 25 31 81 50 51 61
REMARK Flexibility Score: inf
ROOT
ATOM      1  C   UNL     1      -5.690  -0.840   1.452  1.00  0.00     0.255 C 
ATOM      2  O   UNL     1      -6.282  -0.808   0.369  1.00  0.00    -0.269 OA
ATOM      3  N   UNL     1      -6.458  -0.690   2.577  1.00  0.00    -0.352 N 
ATOM      4  H   UNL     1      -7.426  -0.669   2.395  1.00  0.00     0.163 HD
ENDROOT
BRANCH   1   5
ATOM      5  C   UNL     1      -4.233  -1.154   1.450  1.00  0.00     0.083 A 
ATOM      6  C   UNL     1      -3.252  -0.660   2.312  1.00  0.00     0.133 A 
ATOM      7  C   UNL     1      -1.988  -1.258   2.325  1.00  0.00     0.049 A 
ATOM      8  C   UNL     1      -1.619  -2.157   1.321  1.00  0.00     0.029 A 
ATOM      9  C   UNL     1      -3.827  -2.033   0.422  1.00  0.00     0.043 A 
ATOM     10  C   UNL     1      -2.507  -2.467   0.298  1.00  0.00     0.032 A 
BRANCH   6  11
ATOM     11  O   UNL     1      -3.487   0.329   3.210  1.00  0.00    -0.480 OA
BRANCH  11  12
ATOM     12  C   UNL     1      -2.995   1.641   2.904  1.00  0.00     0.258 C 
ATOM     13  C   UNL     1      -3.707   2.333   1.736  1.00  0.00     0.064 C 
BRANCH  12  14
ATOM     14  C   UNL     1      -1.480   1.952   3.031  1.00  0.00     0.260 C 
ATOM     15  N   UNL     1      -0.605   1.854   1.990  1.00  0.00    -0.353 N 
ATOM     16  H   UNL     1       0.239   2.349   2.104  1.00  0.00     0.163 HD
ATOM     17  O   UNL     1      -1.008   2.304   4.119  1.00  0.00    -0.271 OA
BRANCH  15  18
ATOM     18  C   UNL     1      -0.732   1.131   0.745  1.00  0.00     0.116 C 
BRANCH  18  19
ATOM     19  C   UNL     1      -0.134   1.857  -0.451  1.00  0.00     0.024 C 
BRANCH  19  20
ATOM     20  C   UNL     1       1.401   1.764  -0.559  1.00  0.00    -0.016 C 
ATOM     21  C   UNL     1       1.912   0.319  -0.565  1.00  0.00     0.007 C 
ATOM     22  C   UNL     1       1.852   2.466  -1.841  1.00  0.00     0.007 C 
ENDBRANCH  19  20
ENDBRANCH  18  19
ENDBRANCH  15  18
ENDBRANCH  12  14
ENDBRANCH  11  12
ENDBRANCH   6  11
BRANCH  10  23
ATOM     23  N   UNL     1      -2.133  -3.308  -0.739  1.00  0.00    -0.399 N 
ATOM     24  H   UNL     1      -1.198  -3.607  -0.816  1.00  0.00     0.156 HD
ATOM     25  H   UNL     1      -2.801  -3.604  -1.397  1.00  0.00     0.156 HD
ENDBRANCH  10  23
ENDBRANCH   1   5
BRANCH   3  26
ATOM     26  C   UNL     1      -6.129  -0.555   3.987  1.00  0.00     0.118 C 
BRANCH  26  27
ATOM     27  C   UNL     1      -6.107   0.923   4.378  1.00  0.00     0.042 C 
BRANCH  27  28
ATOM     28  C   UNL     1      -7.491   1.516   4.612  1.00  0.00     0.118 C 
BRANCH  28  29
ATOM     29  N   UNL     1      -7.908   1.350   5.992  1.00  0.00    -0.352 N 
ATOM     30  C   UNL     1      -8.133   2.303   6.955  1.00  0.00     0.251 C 
ATOM     31  H   UNL     1      -8.052   0.419   6.279  1.00  0.00     0.163 HD
ATOM     32  O   UNL     1      -8.200   1.951   8.134  1.00  0.00    -0.269 OA
BRANCH  30  33
ATOM     33  C   UNL     1      -8.293   3.736   6.605  1.00  0.00     0.039 A 
ATOM     34  C   UNL     1      -7.786   4.703   7.481  1.00  0.00     0.014 A 
ATOM     35  C   UNL     1      -9.003   4.142   5.471  1.00  0.00     0.014 A 
ATOM     36  C   UNL     1      -7.965   6.064   7.208  1.00  0.00     0.010 A 
ATOM     37  C   UNL     1      -9.122   5.499   5.164  1.00  0.00     0.010 A 
ATOM     38  C   UNL     1      -8.622   6.476   6.038  1.00  0.00    -0.014 A 
BRANCH  38  39
ATOM     39  C   UNL     1      -8.825   7.917   5.732  1.00  0.00     0.031 A 
ATOM     40  C   UNL     1     -10.217   8.493   5.678  1.00  0.00     0.074 A 
ATOM     41  C   UNL     1      -7.766   8.702   5.453  1.00  0.00     0.049 A 
ATOM     42  N   UNL     1     -10.600   9.704   5.359  1.00  0.00    -0.248 NA
ATOM     43  C   UNL     1     -11.327   7.582   6.004  1.00  0.00     0.031 C 
ATOM     44  C   UNL     1      -6.367   8.266   5.440  1.00  0.00     0.029 A 
ATOM     45  N   UNL     1      -7.701  10.032   5.118  1.00  0.00    -0.354 N 
ATOM     46  C   UNL     1     -11.989   9.693   5.420  1.00  0.00     0.074 A 
ATOM     47  C   UNL     1     -12.384   8.346   5.771  1.00  0.00     0.031 C 
ATOM     48  C   UNL     1      -5.583   9.313   5.135  1.00  0.00     0.029 A 
ATOM     49  C   UNL     1      -6.422  10.483   4.894  1.00  0.00     0.049 A 
ATOM     50  H   UNL     1      -8.496  10.608   5.045  1.00  0.00     0.167 HD
ATOM     51  C   UNL     1     -12.859  10.712   5.218  1.00  0.00     0.031 A 
ATOM     52  C   UNL     1      -5.971  11.699   4.527  1.00  0.00     0.031 A 
ATOM     53  C   UNL     1     -12.467  12.058   4.895  1.00  0.00     0.049 A 
ATOM     54  C   UNL     1      -6.954  12.817   4.313  1.00  0.00     0.074 A 
ATOM     55  C   UNL     1     -13.271  13.174   4.732  1.00  0.00     0.029 A 
ATOM     56  N   UNL     1     -11.161  12.474   4.688  1.00  0.00    -0.354 N 
ATOM     57  N   UNL     1      -8.260  12.796   4.423  1.00  0.00    -0.248 NA
ATOM     58  C   UNL     1      -6.399  14.123   3.930  1.00  0.00     0.031 C 
ATOM     59  C   UNL     1     -12.453  14.256   4.387  1.00  0.00     0.029 A 
ATOM     60  C   UNL     1     -11.137  13.823   4.378  1.00  0.00     0.049 A 
ATOM     61  H   UNL     1     -10.367  11.895   4.751  1.00  0.00     0.167 HD
ATOM     62  C   UNL     1      -8.684  14.089   4.138  1.00  0.00     0.074 A 
ATOM     63  C   UNL     1      -7.494  14.870   3.867  1.00  0.00     0.031 C 
ATOM     64  C   UNL     1      -9.945  14.584   4.102  1.00  0.00     0.031 A 
BRANCH  51  65
ATOM     65  C   UNL     1     -14.328  10.405   5.337  1.00  0.00    -0.014 A 
ATOM     66  C   UNL     1     -14.919  10.154   6.588  1.00  0.00     0.010 A 
ATOM     67  C   UNL     1     -15.136  10.398   4.185  1.00  0.00     0.010 A 
ATOM     68  C   UNL     1     -16.282   9.857   6.681  1.00  0.00     0.020 A 
ATOM     69  C   UNL     1     -16.505  10.126   4.277  1.00  0.00     0.020 A 
ATOM     70  C   UNL     1     -17.065   9.837   5.523  1.00  0.00     0.054 A 
BRANCH  70  71
ATOM     71  S   UNL     1     -18.833   9.460   5.671  1.00  0.00     0.124 S 
ATOM     72  O   UNL     1     -18.815   8.013   5.872  1.00  0.00    -0.237 OA
ATOM     73  O   UNL     1     -19.236  10.249   6.833  1.00  0.00    -0.237 OA
ATOM     74  O   UNL     1     -19.390   9.905   4.397  1.00  0.00    -0.744 OA
ENDBRANCH  70  71
ENDBRANCH  51  65
BRANCH  52  75
ATOM     75  C   UNL     1      -4.512  11.922   4.345  1.00  0.00    -0.014 A 
ATOM     76  C   UNL     1      -3.782  12.662   5.291  1.00  0.00     0.010 A 
ATOM     77  C   UNL     1      -3.841  11.376   3.236  1.00  0.00     0.010 A 
ATOM     78  C   UNL     1      -2.408  12.861   5.127  1.00  0.00     0.020 A 
ATOM     79  C   UNL     1      -2.463  11.553   3.080  1.00  0.00     0.020 A 
ATOM     80  C   UNL     1      -1.757  12.304   4.022  1.00  0.00     0.054 A 
BRANCH  80  81
ATOM     81  S   UNL     1       0.038  12.520   3.859  1.00  0.00     0.124 S 
ATOM     82  O   UNL     1       0.135  13.893   3.374  1.00  0.00    -0.237 OA
ATOM     83  O   UNL     1       0.511  12.295   5.223  1.00  0.00    -0.237 OA
ATOM     84  O   UNL     1       0.418  11.487   2.898  1.00  0.00    -0.744 OA
ENDBRANCH  80  81
ENDBRANCH  52  75
BRANCH  64  85
ATOM     85  C   UNL     1     -10.103  16.043   3.770  1.00  0.00    -0.014 A 
ATOM     86  C   UNL     1      -9.942  16.505   2.453  1.00  0.00     0.010 A 
ATOM     87  C   UNL     1     -10.465  16.953   4.780  1.00  0.00     0.010 A 
ATOM     88  C   UNL     1     -10.113  17.860   2.155  1.00  0.00     0.020 A 
ATOM     89  C   UNL     1     -10.658  18.304   4.482  1.00  0.00     0.020 A 
ATOM     90  C   UNL     1     -10.467  18.751   3.172  1.00  0.00     0.054 A 
BRANCH  90  91
ATOM     91  S   UNL     1     -10.724  20.498   2.756  1.00  0.00     0.124 S 
ATOM     92  O   UNL     1      -9.353  20.984   2.627  1.00  0.00    -0.237 OA
ATOM     93  O   UNL     1     -11.485  20.425   1.510  1.00  0.00    -0.237 OA
ATOM     94  O   UNL     1     -11.466  21.021   3.901  1.00  0.00    -0.744 OA
ENDBRANCH  90  91
ENDBRANCH  64  85
ENDBRANCH  38  39
ENDBRANCH  30  33
ENDBRANCH  28  29
ENDBRANCH  27  28
ENDBRANCH  26  27
ENDBRANCH   3  26
TORSDOF 20
