REMARK SMILES COc1cc(NS(=O)(=O)c2cc(C)c(C(=O)NCCCNC(=O)c3ccc(-c4c5nc(c(-c6ccc(S(=O)(=O)[O-])cc6)c6ccc([nH]6)c(-c6ccc(S(=O)(=O)[O-])cc6)c6nc(c(-c7ccc(S(=O)(=O)[O-])cc7)c7ccc4[nH]7)C=C6)C=C5)cc3)s2)cc(OC)c1
REMARK SMILES IDX 18 1 17 2 15 3 16 4 14 6 10 7 11 8 84 9 12 10 13 11 7 12
REMARK SMILES IDX 8 13 9 14 6 15 5 17 3 18 4 19 89 20 86 21 85 22 2 23 1 24
REMARK SMILES IDX 87 25 88 26 19 27 20 28 21 29 22 30 23 32 24 33 25 34 83 35
REMARK SMILES IDX 26 36 82 37 27 38 28 39 29 40 76 41 30 42 81 43 75 44 77 45
REMARK SMILES IDX 31 46 80 47 74 48 73 49 32 51 62 52 43 53 61 54 44 55 47 56
REMARK SMILES IDX 60 57 78 58 45 59 46 60 59 62 79 63 48 64 33 65 34 66 42 67
REMARK SMILES IDX 35 68 41 69 36 70 37 71 38 72 39 73 40 74 63 75 64 76 72 77
REMARK SMILES IDX 65 78 71 79 66 80 67 81 68 82 69 83 70 84 49 85 50 86 58 87
REMARK SMILES IDX 51 88 57 89 52 90 53 91 54 92 55 93 56 94
REMARK H PARENT 17 5 6 16 21 31 77 50 47 61
REMARK Flexibility Score: inf
ROOT
ATOM      1  C   UNL     1      -3.284  -2.820   0.200  1.00  0.00     0.118 C 
ENDROOT
BRANCH   1   2
ATOM      2  N   UNL     1      -3.125  -1.385   0.233  1.00  0.00    -0.351 N 
ATOM      3  C   UNL     1      -3.051  -0.411  -0.728  1.00  0.00     0.261 C 
ATOM      4  O   UNL     1      -3.026   0.728  -0.242  1.00  0.00    -0.268 OA
ATOM      5  H   UNL     1      -3.054  -1.028   1.147  1.00  0.00     0.163 HD
BRANCH   3   6
ATOM      6  C   UNL     1      -2.977  -0.633  -2.179  1.00  0.00     0.096 A 
ATOM      7  C   UNL     1      -2.528   0.225  -4.465  1.00  0.00     0.141 A 
ATOM      8  C   UNL     1      -2.397  -1.140  -4.398  1.00  0.00     0.038 A 
ATOM      9  S   UNL     1      -3.424   0.782  -3.133  1.00  0.00    -0.116 S 
ATOM     10  C   UNL     1      -2.525  -1.634  -3.047  1.00  0.00    -0.026 A 
ATOM     11  C   UNL     1      -2.005  -3.001  -2.766  1.00  0.00     0.046 C 
BRANCH   7  12
ATOM     12  S   UNL     1      -1.864   1.407  -5.603  1.00  0.00     0.271 S 
ATOM     13  O   UNL     1      -2.923   2.342  -5.899  1.00  0.00    -0.200 OA
ATOM     14  O   UNL     1      -1.279   0.605  -6.663  1.00  0.00    -0.200 OA
BRANCH  12  15
ATOM     15  N   UNL     1      -0.587   2.296  -4.896  1.00  0.00    -0.279 N 
ATOM     16  H   UNL     1      -0.575   3.277  -4.971  1.00  0.00     0.180 HD
BRANCH  15  17
ATOM     17  C   UNL     1       0.473   1.619  -4.189  1.00  0.00     0.056 A 
ATOM     18  C   UNL     1       1.236   0.323  -2.283  1.00  0.00     0.124 A 
ATOM     19  C   UNL     1       0.215   0.908  -3.023  1.00  0.00     0.073 A 
ATOM     20  C   UNL     1       2.560   0.498  -2.656  1.00  0.00     0.093 A 
ATOM     21  C   UNL     1       2.851   1.289  -3.769  1.00  0.00     0.124 A 
ATOM     22  C   UNL     1       1.807   1.822  -4.549  1.00  0.00     0.073 A 
BRANCH  18  23
ATOM     23  O   UNL     1       0.867  -0.468  -1.229  1.00  0.00    -0.497 OA
ATOM     24  C   UNL     1       1.268   0.094   0.019  1.00  0.00     0.278 C 
ENDBRANCH  18  23
BRANCH  21  25
ATOM     25  O   UNL     1       4.116   1.611  -4.189  1.00  0.00    -0.497 OA
ATOM     26  C   UNL     1       5.165   1.388  -3.248  1.00  0.00     0.278 C 
ENDBRANCH  21  25
ENDBRANCH  15  17
ENDBRANCH  12  15
ENDBRANCH   7  12
ENDBRANCH   3   6
ENDBRANCH   1   2
BRANCH   1  27
ATOM     27  C   UNL     1      -1.984  -3.535   0.577  1.00  0.00     0.042 C 
BRANCH  27  28
ATOM     28  C   UNL     1      -1.803  -3.784   2.070  1.00  0.00     0.118 C 
BRANCH  28  29
ATOM     29  N   UNL     1      -2.702  -4.819   2.556  1.00  0.00    -0.352 N 
ATOM     30  C   UNL     1      -2.435  -6.067   3.063  1.00  0.00     0.251 C 
ATOM     31  H   UNL     1      -3.658  -4.587   2.515  1.00  0.00     0.163 HD
ATOM     32  O   UNL     1      -3.360  -6.871   3.162  1.00  0.00    -0.269 OA
BRANCH  30  33
ATOM     33  C   UNL     1      -1.069  -6.462   3.486  1.00  0.00     0.039 A 
ATOM     34  C   UNL     1      -0.667  -7.790   3.301  1.00  0.00     0.014 A 
ATOM     35  C   UNL     1      -0.212  -5.569   4.136  1.00  0.00     0.014 A 
ATOM     36  C   UNL     1       0.598  -8.208   3.725  1.00  0.00     0.010 A 
ATOM     37  C   UNL     1       1.076  -5.968   4.494  1.00  0.00     0.010 A 
ATOM     38  C   UNL     1       1.491  -7.294   4.306  1.00  0.00    -0.014 A 
BRANCH  38  39
ATOM     39  C   UNL     1       2.851  -7.710   4.738  1.00  0.00     0.031 A 
ATOM     40  C   UNL     1       3.232  -7.668   6.194  1.00  0.00     0.074 A 
ATOM     41  C   UNL     1       3.763  -8.071   3.814  1.00  0.00     0.049 A 
ATOM     42  N   UNL     1       4.387  -7.928   6.753  1.00  0.00    -0.248 NA
ATOM     43  C   UNL     1       2.186  -7.254   7.143  1.00  0.00     0.031 C 
ATOM     44  C   UNL     1       3.531  -8.122   2.369  1.00  0.00     0.029 A 
ATOM     45  N   UNL     1       5.073  -8.457   3.953  1.00  0.00    -0.354 N 
ATOM     46  C   UNL     1       4.214  -7.687   8.112  1.00  0.00     0.074 A 
ATOM     47  C   UNL     1       2.856  -7.219   8.286  1.00  0.00     0.031 C 
ATOM     48  C   UNL     1       4.651  -8.541   1.758  1.00  0.00     0.029 A 
ATOM     49  C   UNL     1       5.691  -8.751   2.760  1.00  0.00     0.049 A 
ATOM     50  H   UNL     1       5.527  -8.517   4.824  1.00  0.00     0.167 HD
ATOM     51  C   UNL     1       5.098  -7.855   9.126  1.00  0.00     0.031 A 
ATOM     52  C   UNL     1       6.953  -9.143   2.500  1.00  0.00     0.031 A 
ATOM     53  C   UNL     1       6.442  -8.336   8.953  1.00  0.00     0.049 A 
ATOM     54  C   UNL     1       7.915  -9.329   3.639  1.00  0.00     0.074 A 
ATOM     55  C   UNL     1       7.397  -8.593   9.921  1.00  0.00     0.029 A 
ATOM     56  N   UNL     1       7.023  -8.636   7.729  1.00  0.00    -0.354 N 
ATOM     57  N   UNL     1       7.716  -9.143   4.922  1.00  0.00    -0.248 NA
ATOM     58  C   UNL     1       9.268  -9.786   3.296  1.00  0.00     0.031 C 
ATOM     59  C   UNL     1       8.570  -9.008   9.280  1.00  0.00     0.029 A 
ATOM     60  C   UNL     1       8.329  -9.056   7.915  1.00  0.00     0.049 A 
ATOM     61  H   UNL     1       6.573  -8.561   6.857  1.00  0.00     0.167 HD
ATOM     62  C   UNL     1       8.913  -9.483   5.542  1.00  0.00     0.074 A 
ATOM     63  C   UNL     1       9.825  -9.897   4.495  1.00  0.00     0.031 C 
ATOM     64  C   UNL     1       9.227  -9.457   6.861  1.00  0.00     0.031 A 
BRANCH  51  65
ATOM     65  C   UNL     1       4.633  -7.499  10.514  1.00  0.00    -0.014 A 
ATOM     66  C   UNL     1       3.674  -8.283  11.184  1.00  0.00     0.010 A 
ATOM     67  C   UNL     1       5.169  -6.373  11.165  1.00  0.00     0.010 A 
ATOM     68  C   UNL     1       3.220  -7.915  12.453  1.00  0.00     0.020 A 
ATOM     69  C   UNL     1       4.738  -6.018  12.447  1.00  0.00     0.020 A 
ATOM     70  C   UNL     1       3.748  -6.779  13.072  1.00  0.00     0.054 A 
BRANCH  70  71
ATOM     71  S   UNL     1       3.136  -6.318  14.717  1.00  0.00     0.124 S 
ATOM     72  O   UNL     1       1.831  -5.743  14.400  1.00  0.00    -0.237 OA
ATOM     73  O   UNL     1       3.104  -7.598  15.420  1.00  0.00    -0.237 OA
ATOM     74  O   UNL     1       4.134  -5.369  15.204  1.00  0.00    -0.744 OA
ENDBRANCH  70  71
ENDBRANCH  51  65
BRANCH  52  75
ATOM     75  C   UNL     1       7.364  -9.411   1.096  1.00  0.00    -0.014 A 
ATOM     76  C   UNL     1       7.548 -10.731   0.650  1.00  0.00     0.010 A 
ATOM     77  C   UNL     1       7.535  -8.351   0.187  1.00  0.00     0.010 A 
ATOM     78  C   UNL     1       7.899 -10.988  -0.678  1.00  0.00     0.020 A 
ATOM     79  C   UNL     1       7.863  -8.604  -1.148  1.00  0.00     0.020 A 
ATOM     80  C   UNL     1       8.049  -9.922  -1.570  1.00  0.00     0.054 A 
BRANCH  80  81
ATOM     81  S   UNL     1       8.430 -10.282  -3.308  1.00  0.00     0.124 S 
ATOM     82  O   UNL     1       9.844 -10.635  -3.242  1.00  0.00    -0.237 OA
ATOM     83  O   UNL     1       7.516 -11.380  -3.611  1.00  0.00    -0.237 OA
ATOM     84  O   UNL     1       8.127  -9.025  -3.989  1.00  0.00    -0.744 OA
ENDBRANCH  80  81
ENDBRANCH  52  75
BRANCH  64  85
ATOM     85  C   UNL     1      10.607  -9.911   7.250  1.00  0.00    -0.014 A 
ATOM     86  C   UNL     1      11.732  -9.103   7.008  1.00  0.00     0.010 A 
ATOM     87  C   UNL     1      10.774 -11.142   7.910  1.00  0.00     0.010 A 
ATOM     88  C   UNL     1      13.005  -9.533   7.394  1.00  0.00     0.020 A 
ATOM     89  C   UNL     1      12.041 -11.563   8.319  1.00  0.00     0.020 A 
ATOM     90  C   UNL     1      13.151 -10.761   8.045  1.00  0.00     0.054 A 
BRANCH  90  91
ATOM     91  S   UNL     1      14.807 -11.279   8.575  1.00  0.00     0.124 S 
ATOM     92  O   UNL     1      15.409 -11.704   7.314  1.00  0.00    -0.237 OA
ATOM     93  O   UNL     1      15.357 -10.055   9.153  1.00  0.00    -0.237 OA
ATOM     94  O   UNL     1      14.544 -12.350   9.533  1.00  0.00    -0.744 OA
ENDBRANCH  90  91
ENDBRANCH  64  85
ENDBRANCH  38  39
ENDBRANCH  30  33
ENDBRANCH  28  29
ENDBRANCH  27  28
ENDBRANCH   1  27
TORSDOF 18
