REMARK SMILES Cc1cc(C(=O)N[C@H](C(=O)NCCCNC(=O)c2ccc(-c3c4nc(c(-c5ccc(S(=O)(=O)[O-])cc5)c5ccc([nH]5)c(-c5ccc(S(=O)(=O)[O-])cc5)c5nc(c(-c6ccc(S(=O)(=O)[O-])cc6)c6ccc3[nH]6)C=C5)C=C4)cc2)c2c(C)n[nH]c2C)c2ccc(C)c(C)c2n1
REMARK SMILES IDX 13 1 12 2 11 3 9 4 10 5 8 7 7 8 5 9 6 10 4 12 1 13 2 14 3 15
REMARK SMILES IDX 93 16 92 17 85 18 90 19 86 20 88 21 91 22 87 23 89 24 78 25
REMARK SMILES IDX 79 26 83 27 80 28 81 29 82 30 84 31 14 33 15 34 16 35 17 37
REMARK SMILES IDX 18 38 19 39 77 40 20 41 76 42 21 43 22 44 23 45 70 46 24 47
REMARK SMILES IDX 75 48 69 49 71 50 25 51 74 52 68 53 67 54 26 56 56 57 37 58
REMARK SMILES IDX 55 59 38 60 41 61 54 62 72 63 39 64 40 65 53 67 73 68 42 69
REMARK SMILES IDX 27 70 28 71 36 72 29 73 35 74 30 75 31 76 32 77 33 78 34 79
REMARK SMILES IDX 57 80 58 81 66 82 59 83 65 84 60 85 61 86 62 87 63 88 64 89
REMARK SMILES IDX 43 90 44 91 52 92 45 93 51 94 46 95 47 96 48 97 49 98 50 99
REMARK H PARENT 11 6 7 11 82 32 15 36 71 55 41 66
REMARK Flexibility Score: inf
ROOT
ATOM      1  C   UNL     1       4.747   6.290   2.385  1.00  0.00     0.042 C 
ENDROOT
BRANCH   1   2
ATOM      2  C   UNL     1       3.829   5.136   2.777  1.00  0.00     0.117 C 
BRANCH   2   3
ATOM      3  N   UNL     1       2.442   5.524   2.599  1.00  0.00    -0.354 N 
ATOM      4  C   UNL     1       1.661   5.426   1.481  1.00  0.00     0.247 C 
ATOM      5  O   UNL     1       0.655   6.144   1.449  1.00  0.00    -0.272 OA
ATOM      6  H   UNL     1       2.003   5.909   3.391  1.00  0.00     0.163 HD
BRANCH   4   7
ATOM      7  C   UNL     1       1.931   4.347   0.399  1.00  0.00     0.206 C 
BRANCH   7   8
ATOM      8  N   UNL     1       0.870   4.446  -0.603  1.00  0.00    -0.336 N 
ATOM      9  C   UNL     1       0.062   3.638  -1.348  1.00  0.00     0.252 C 
ATOM     10  O   UNL     1      -0.715   4.255  -2.079  1.00  0.00    -0.269 OA
ATOM     11  H   UNL     1       0.680   5.391  -0.802  1.00  0.00     0.165 HD
BRANCH   9  12
ATOM     12  C   UNL     1       0.004   2.134  -1.301  1.00  0.00     0.051 A 
ATOM     13  C   UNL     1       1.018  -0.673   1.011  1.00  0.00     0.067 C 
ATOM     14  C   UNL     1       0.386   0.074  -0.124  1.00  0.00     0.039 A 
ATOM     15  C   UNL     1       0.539   1.441  -0.220  1.00  0.00     0.038 A 
ATOM     16  N   UNL     1      -0.328  -0.628  -1.012  1.00  0.00    -0.253 NA
ATOM     17  C   UNL     1      -0.892  -0.004  -2.058  1.00  0.00     0.074 A 
ATOM     18  C   UNL     1      -0.723   1.384  -2.291  1.00  0.00     0.013 A 
ATOM     19  C   UNL     1      -1.681  -0.786  -2.924  1.00  0.00    -0.022 A 
ATOM     20  C   UNL     1      -1.303   1.903  -3.478  1.00  0.00     0.011 A 
ATOM     21  C   UNL     1      -2.262  -0.234  -4.082  1.00  0.00    -0.046 A 
ATOM     22  C   UNL     1      -1.896  -2.238  -2.552  1.00  0.00     0.047 C 
ATOM     23  C   UNL     1      -2.055   1.115  -4.351  1.00  0.00     0.004 A 
ATOM     24  C   UNL     1      -3.097  -1.046  -5.031  1.00  0.00     0.044 C 
ENDBRANCH   9  12
ENDBRANCH   7   8
BRANCH   7  25
ATOM     25  C   UNL     1       3.246   4.423  -0.307  1.00  0.00     0.027 A 
ATOM     26  C   UNL     1       3.833   5.526  -0.992  1.00  0.00     0.065 A 
ATOM     27  C   UNL     1       4.176   3.399  -0.458  1.00  0.00     0.038 A 
ATOM     28  C   UNL     1       3.287   6.887  -1.231  1.00  0.00     0.069 C 
ATOM     29  N   UNL     1       5.054   5.229  -1.446  1.00  0.00    -0.180 NA
ATOM     30  N   UNL     1       5.224   3.942  -1.146  1.00  0.00    -0.282 N 
ATOM     31  C   UNL     1       4.181   1.977  -0.038  1.00  0.00     0.066 C 
ATOM     32  H   UNL     1       6.028   3.431  -1.396  1.00  0.00     0.190 HD
ENDBRANCH   7  25
ENDBRANCH   4   7
ENDBRANCH   2   3
ENDBRANCH   1   2
BRANCH   1  33
ATOM     33  C   UNL     1       4.688   7.437   3.385  1.00  0.00     0.118 C 
BRANCH  33  34
ATOM     34  N   UNL     1       5.516   7.169   4.549  1.00  0.00    -0.352 N 
ATOM     35  C   UNL     1       6.636   7.855   4.962  1.00  0.00     0.251 C 
ATOM     36  H   UNL     1       5.244   6.407   5.109  1.00  0.00     0.163 HD
ATOM     37  O   UNL     1       7.379   7.380   5.805  1.00  0.00    -0.269 OA
BRANCH  35  38
ATOM     38  C   UNL     1       6.922   9.170   4.351  1.00  0.00     0.039 A 
ATOM     39  C   UNL     1       8.185   9.411   3.811  1.00  0.00     0.014 A 
ATOM     40  C   UNL     1       5.919  10.145   4.287  1.00  0.00     0.014 A 
ATOM     41  C   UNL     1       8.434  10.624   3.169  1.00  0.00     0.010 A 
ATOM     42  C   UNL     1       6.149  11.324   3.587  1.00  0.00     0.010 A 
ATOM     43  C   UNL     1       7.413  11.582   3.040  1.00  0.00    -0.014 A 
BRANCH  43  44
ATOM     44  C   UNL     1       7.677  12.877   2.371  1.00  0.00     0.031 A 
ATOM     45  C   UNL     1       7.688  14.144   3.180  1.00  0.00     0.074 A 
ATOM     46  C   UNL     1       7.890  12.916   1.042  1.00  0.00     0.049 A 
ATOM     47  N   UNL     1       7.955  15.363   2.790  1.00  0.00    -0.248 NA
ATOM     48  C   UNL     1       7.336  14.033   4.606  1.00  0.00     0.031 C 
ATOM     49  C   UNL     1       7.852  11.758   0.145  1.00  0.00     0.029 A 
ATOM     50  N   UNL     1       8.192  13.969   0.214  1.00  0.00    -0.354 N 
ATOM     51  C   UNL     1       7.802  16.159   3.917  1.00  0.00     0.074 A 
ATOM     52  C   UNL     1       7.365  15.300   4.993  1.00  0.00     0.031 C 
ATOM     53  C   UNL     1       8.160  12.158  -1.099  1.00  0.00     0.029 A 
ATOM     54  C   UNL     1       8.399  13.600  -1.094  1.00  0.00     0.049 A 
ATOM     55  H   UNL     1       8.254  14.900   0.528  1.00  0.00     0.167 HD
ATOM     56  C   UNL     1       8.035  17.484   4.052  1.00  0.00     0.031 A 
ATOM     57  C   UNL     1       8.759  14.334  -2.165  1.00  0.00     0.031 A 
ATOM     58  C   UNL     1       8.493  18.330   2.987  1.00  0.00     0.049 A 
ATOM     59  C   UNL     1       9.022  15.804  -1.995  1.00  0.00     0.074 A 
ATOM     60  C   UNL     1       8.825  19.671   3.041  1.00  0.00     0.029 A 
ATOM     61  N   UNL     1       8.683  17.916   1.678  1.00  0.00    -0.354 N 
ATOM     62  N   UNL     1       8.947  16.526  -0.902  1.00  0.00    -0.248 NA
ATOM     63  C   UNL     1       9.426  16.557  -3.190  1.00  0.00     0.031 C 
ATOM     64  C   UNL     1       9.178  20.080   1.752  1.00  0.00     0.029 A 
ATOM     65  C   UNL     1       9.106  18.982   0.907  1.00  0.00     0.049 A 
ATOM     66  H   UNL     1       8.537  17.000   1.347  1.00  0.00     0.167 HD
ATOM     67  C   UNL     1       9.312  17.814  -1.273  1.00  0.00     0.074 A 
ATOM     68  C   UNL     1       9.608  17.775  -2.691  1.00  0.00     0.031 C 
ATOM     69  C   UNL     1       9.399  18.924  -0.503  1.00  0.00     0.031 A 
BRANCH  56  70
ATOM     70  C   UNL     1       7.814  18.097   5.406  1.00  0.00    -0.014 A 
ATOM     71  C   UNL     1       8.716  17.856   6.459  1.00  0.00     0.010 A 
ATOM     72  C   UNL     1       6.726  18.962   5.616  1.00  0.00     0.010 A 
ATOM     73  C   UNL     1       8.515  18.447   7.707  1.00  0.00     0.020 A 
ATOM     74  C   UNL     1       6.535  19.573   6.858  1.00  0.00     0.020 A 
ATOM     75  C   UNL     1       7.427  19.304   7.898  1.00  0.00     0.054 A 
BRANCH  75  76
ATOM     76  S   UNL     1       7.207  20.066   9.529  1.00  0.00     0.124 S 
ATOM     77  O   UNL     1       7.008  18.900  10.386  1.00  0.00    -0.237 OA
ATOM     78  O   UNL     1       8.470  20.775   9.718  1.00  0.00    -0.237 OA
ATOM     79  O   UNL     1       6.032  20.918   9.361  1.00  0.00    -0.744 OA
ENDBRANCH  75  76
ENDBRANCH  56  70
BRANCH  57  80
ATOM     80  C   UNL     1       8.943  13.656  -3.475  1.00  0.00    -0.014 A 
ATOM     81  C   UNL     1      10.233  13.339  -3.932  1.00  0.00     0.010 A 
ATOM     82  C   UNL     1       7.827  13.239  -4.224  1.00  0.00     0.010 A 
ATOM     83  C   UNL     1      10.405  12.599  -5.106  1.00  0.00     0.020 A 
ATOM     84  C   UNL     1       7.995  12.485  -5.390  1.00  0.00     0.020 A 
ATOM     85  C   UNL     1       9.284  12.163  -5.819  1.00  0.00     0.054 A 
BRANCH  85  86
ATOM     86  S   UNL     1       9.540  11.127  -7.287  1.00  0.00     0.124 S 
ATOM     87  O   UNL     1      10.311  12.009  -8.157  1.00  0.00    -0.237 OA
ATOM     88  O   UNL     1      10.270   9.988  -6.735  1.00  0.00    -0.237 OA
ATOM     89  O   UNL     1       8.183  10.831  -7.742  1.00  0.00    -0.744 OA
ENDBRANCH  85  86
ENDBRANCH  57  80
BRANCH  69  90
ATOM     90  C   UNL     1       9.839  20.209  -1.145  1.00  0.00    -0.014 A 
ATOM     91  C   UNL     1       8.918  21.008  -1.842  1.00  0.00     0.010 A 
ATOM     92  C   UNL     1      11.130  20.705  -0.883  1.00  0.00     0.010 A 
ATOM     93  C   UNL     1       9.273  22.297  -2.244  1.00  0.00     0.020 A 
ATOM     94  C   UNL     1      11.482  22.000  -1.271  1.00  0.00     0.020 A 
ATOM     95  C   UNL     1      10.545  22.792  -1.939  1.00  0.00     0.054 A 
BRANCH  95  96
ATOM     96  S   UNL     1      10.931  24.512  -2.368  1.00  0.00     0.124 S 
ATOM     97  O   UNL     1      10.811  24.501  -3.824  1.00  0.00    -0.237 OA
ATOM     98  O   UNL     1       9.891  25.252  -1.657  1.00  0.00    -0.237 OA
ATOM     99  O   UNL     1      12.287  24.704  -1.859  1.00  0.00    -0.744 OA
ENDBRANCH  95  96
ENDBRANCH  69  90
ENDBRANCH  43  44
ENDBRANCH  35  38
ENDBRANCH  33  34
ENDBRANCH   1  33
TORSDOF 16
