REMARK SMILES O=C(CC1(NC(=O)Cc2ccc(F)cc2F)CCCC1)NCCCNC(=O)c1ccc(-c2c3nc(c(-c4ccc(S(=O)(=O)[O-])cc4)c4ccc([nH]4)c(-c4ccc(S(=O)(=O)[O-])cc4)c4nc(c(-c5ccc(S(=O)(=O)[O-])cc5)c5ccc2[nH]5)C=C4)C=C3)cc1
REMARK SMILES IDX 22 1 21 2 1 3 2 4 3 6 4 7 17 8 20 9 18 10 19 11 5 12 6 13
REMARK SMILES IDX 7 15 8 16 9 17 10 18 15 19 11 20 14 21 16 22 12 23 13 24
REMARK SMILES IDX 23 25 24 26 25 27 26 28 27 30 28 31 29 32 87 33 30 34 86 35
REMARK SMILES IDX 31 36 32 37 33 38 80 39 34 40 85 41 79 42 81 43 35 44 84 45
REMARK SMILES IDX 78 46 77 47 36 49 66 50 47 51 65 52 48 53 51 54 64 55 82 56
REMARK SMILES IDX 49 57 50 58 63 60 83 61 52 62 37 63 38 64 46 65 39 66 45 67
REMARK SMILES IDX 40 68 41 69 42 70 43 71 44 72 67 73 68 74 76 75 69 76 75 77
REMARK SMILES IDX 70 78 71 79 72 80 73 81 74 82 53 83 54 84 62 85 55 86 61 87
REMARK SMILES IDX 56 88 57 89 58 90 59 91 60 92
REMARK H PARENT 21 5 5 14 25 29 81 48 51 59
REMARK Flexibility Score: inf
ROOT
ATOM      1  C   UNL     1       1.861   0.563  -2.691  1.00  0.00     0.117 C 
ENDROOT
BRANCH   1   2
ATOM      2  N   UNL     1       2.357   0.343  -1.344  1.00  0.00    -0.356 N 
ATOM      3  O   UNL     1       0.723  -1.163  -0.717  1.00  0.00    -0.275 OA
ATOM      4  C   UNL     1       1.749  -0.541  -0.468  1.00  0.00     0.222 C 
ATOM      5  H   UNL     1       3.153   0.839  -1.043  1.00  0.00     0.163 HD
BRANCH   4   6
ATOM      6  C   UNL     1       2.490  -0.702   0.849  1.00  0.00     0.128 C 
BRANCH   6   7
ATOM      7  C   UNL     1       3.604  -1.765   0.858  1.00  0.00     0.049 C 
ATOM      8  C   UNL     1       2.994  -3.170   1.088  1.00  0.00     0.029 C 
ATOM      9  C   UNL     1       4.299  -1.992  -0.505  1.00  0.00     0.029 C 
ATOM     10  C   UNL     1       4.054  -4.158   0.600  1.00  0.00     0.003 C 
ATOM     11  C   UNL     1       4.850  -3.419  -0.471  1.00  0.00     0.003 C 
BRANCH   7  12
ATOM     12  N   UNL     1       4.659  -1.575   1.909  1.00  0.00    -0.350 N 
ATOM     13  C   UNL     1       5.160  -0.591   2.696  1.00  0.00     0.224 C 
ATOM     14  H   UNL     1       5.130  -2.423   2.078  1.00  0.00     0.164 HD
ATOM     15  O   UNL     1       6.203  -0.859   3.305  1.00  0.00    -0.275 OA
BRANCH  13  16
ATOM     16  C   UNL     1       4.474   0.733   2.936  1.00  0.00     0.138 C 
BRANCH  16  17
ATOM     17  C   UNL     1       4.610   1.806   1.880  1.00  0.00    -0.003 A 
ATOM     18  C   UNL     1       3.846   2.980   2.029  1.00  0.00     0.010 A 
ATOM     19  C   UNL     1       5.420   1.687   0.746  1.00  0.00     0.129 A 
ATOM     20  C   UNL     1       3.858   3.968   1.043  1.00  0.00     0.040 A 
ATOM     21  C   UNL     1       5.442   2.670  -0.235  1.00  0.00     0.078 A 
ATOM     22  F   UNL     1       6.159   0.591   0.542  1.00  0.00    -0.207 F 
ATOM     23  C   UNL     1       4.647   3.796  -0.086  1.00  0.00     0.126 A 
ATOM     24  F   UNL     1       4.618   4.712  -1.061  1.00  0.00    -0.207 F 
ENDBRANCH  16  17
ENDBRANCH  13  16
ENDBRANCH   7  12
ENDBRANCH   6   7
ENDBRANCH   4   6
ENDBRANCH   1   2
BRANCH   1  25
ATOM     25  C   UNL     1       2.002   2.009  -3.168  1.00  0.00     0.042 C 
BRANCH  25  26
ATOM     26  C   UNL     1       3.424   2.483  -3.467  1.00  0.00     0.118 C 
BRANCH  26  27
ATOM     27  N   UNL     1       4.081   1.786  -4.559  1.00  0.00    -0.352 N 
ATOM     28  C   UNL     1       4.988   2.265  -5.479  1.00  0.00     0.251 C 
ATOM     29  H   UNL     1       3.844   0.835  -4.655  1.00  0.00     0.163 HD
ATOM     30  O   UNL     1       5.423   1.514  -6.342  1.00  0.00    -0.269 OA
BRANCH  28  31
ATOM     31  C   UNL     1       5.402   3.691  -5.466  1.00  0.00     0.039 A 
ATOM     32  C   UNL     1       5.353   4.400  -6.671  1.00  0.00     0.014 A 
ATOM     33  C   UNL     1       5.844   4.330  -4.305  1.00  0.00     0.014 A 
ATOM     34  C   UNL     1       5.673   5.761  -6.696  1.00  0.00     0.010 A 
ATOM     35  C   UNL     1       6.125   5.702  -4.323  1.00  0.00     0.010 A 
ATOM     36  C   UNL     1       6.027   6.436  -5.516  1.00  0.00    -0.014 A 
BRANCH  36  37
ATOM     37  C   UNL     1       6.234   7.911  -5.525  1.00  0.00     0.031 A 
ATOM     38  C   UNL     1       7.595   8.512  -5.299  1.00  0.00     0.074 A 
ATOM     39  C   UNL     1       5.175   8.724  -5.717  1.00  0.00     0.049 A 
ATOM     40  N   UNL     1       7.948   9.773  -5.309  1.00  0.00    -0.248 NA
ATOM     41  C   UNL     1       8.697   7.581  -5.014  1.00  0.00     0.031 C 
ATOM     42  C   UNL     1       3.793   8.280  -5.913  1.00  0.00     0.029 A 
ATOM     43  N   UNL     1       5.094  10.094  -5.781  1.00  0.00    -0.354 N 
ATOM     44  C   UNL     1       9.310   9.791  -5.035  1.00  0.00     0.074 A 
ATOM     45  C   UNL     1       9.710   8.415  -4.819  1.00  0.00     0.031 C 
ATOM     46  C   UNL     1       3.009   9.353  -6.102  1.00  0.00     0.029 A 
ATOM     47  C   UNL     1       3.821  10.563  -6.008  1.00  0.00     0.049 A 
ATOM     48  H   UNL     1       5.874  10.685  -5.674  1.00  0.00     0.167 HD
ATOM     49  C   UNL     1      10.155  10.850  -4.983  1.00  0.00     0.031 A 
ATOM     50  C   UNL     1       3.353  11.821  -6.127  1.00  0.00     0.031 A 
ATOM     51  C   UNL     1       9.762  12.221  -5.188  1.00  0.00     0.049 A 
ATOM     52  C   UNL     1       4.306  12.982  -6.035  1.00  0.00     0.074 A 
ATOM     53  C   UNL     1      10.564  13.351  -5.205  1.00  0.00     0.029 A 
ATOM     54  N   UNL     1       8.463  12.654  -5.397  1.00  0.00    -0.354 N 
ATOM     55  N   UNL     1       5.604  12.969  -5.856  1.00  0.00    -0.248 NA
ATOM     56  C   UNL     1       3.729  14.327  -6.174  1.00  0.00     0.031 C 
ATOM     57  C   UNL     1       9.742  14.471  -5.369  1.00  0.00     0.029 A 
ATOM     58  C   UNL     1       8.435  14.035  -5.513  1.00  0.00     0.049 A 
ATOM     59  H   UNL     1       7.674  12.067  -5.456  1.00  0.00     0.167 HD
ATOM     60  C   UNL     1       6.003  14.302  -5.883  1.00  0.00     0.074 A 
ATOM     61  C   UNL     1       4.811  15.092  -6.113  1.00  0.00     0.031 C 
ATOM     62  C   UNL     1       7.246  14.820  -5.732  1.00  0.00     0.031 A 
BRANCH  49  63
ATOM     63  C   UNL     1      11.605  10.569  -4.681  1.00  0.00    -0.014 A 
ATOM     64  C   UNL     1      12.434   9.943  -5.630  1.00  0.00     0.010 A 
ATOM     65  C   UNL     1      12.159  10.983  -3.456  1.00  0.00     0.010 A 
ATOM     66  C   UNL     1      13.779   9.699  -5.343  1.00  0.00     0.020 A 
ATOM     67  C   UNL     1      13.511  10.765  -3.176  1.00  0.00     0.020 A 
ATOM     68  C   UNL     1      14.309  10.107  -4.115  1.00  0.00     0.054 A 
BRANCH  68  69
ATOM     69  S   UNL     1      16.062   9.792  -3.775  1.00  0.00     0.124 S 
ATOM     70  O   UNL     1      16.068   8.350  -3.544  1.00  0.00    -0.237 OA
ATOM     71  O   UNL     1      16.712  10.232  -5.007  1.00  0.00    -0.237 OA
ATOM     72  O   UNL     1      16.342  10.612  -2.599  1.00  0.00    -0.744 OA
ENDBRANCH  68  69
ENDBRANCH  49  63
BRANCH  50  73
ATOM     73  C   UNL     1       1.901  12.052  -6.357  1.00  0.00    -0.014 A 
ATOM     74  C   UNL     1       1.438  12.514  -7.602  1.00  0.00     0.010 A 
ATOM     75  C   UNL     1       0.971  11.802  -5.331  1.00  0.00     0.010 A 
ATOM     76  C   UNL     1       0.074  12.739  -7.810  1.00  0.00     0.020 A 
ATOM     77  C   UNL     1      -0.395  11.999  -5.545  1.00  0.00     0.020 A 
ATOM     78  C   UNL     1      -0.834  12.478  -6.780  1.00  0.00     0.054 A 
BRANCH  78  79
ATOM     79  S   UNL     1      -2.605  12.726  -7.089  1.00  0.00     0.124 S 
ATOM     80  O   UNL     1      -2.716  14.181  -7.064  1.00  0.00    -0.237 OA
ATOM     81  O   UNL     1      -2.789  12.099  -8.396  1.00  0.00    -0.237 OA
ATOM     82  O   UNL     1      -3.246  12.028  -5.977  1.00  0.00    -0.744 OA
ENDBRANCH  78  79
ENDBRANCH  50  73
BRANCH  62  83
ATOM     83  C   UNL     1       7.393  16.317  -5.829  1.00  0.00    -0.014 A 
ATOM     84  C   UNL     1       6.928  17.163  -4.806  1.00  0.00     0.010 A 
ATOM     85  C   UNL     1       8.048  16.883  -6.938  1.00  0.00     0.010 A 
ATOM     86  C   UNL     1       7.089  18.548  -4.904  1.00  0.00     0.020 A 
ATOM     87  C   UNL     1       8.235  18.266  -7.028  1.00  0.00     0.020 A 
ATOM     88  C   UNL     1       7.741  19.091  -6.016  1.00  0.00     0.054 A 
BRANCH  88  89
ATOM     89  S   UNL     1       7.977  20.889  -6.099  1.00  0.00     0.124 S 
ATOM     90  O   UNL     1       6.631  21.357  -6.422  1.00  0.00    -0.237 OA
ATOM     91  O   UNL     1       8.450  21.214  -4.756  1.00  0.00    -0.237 OA
ATOM     92  O   UNL     1       8.967  21.059  -7.160  1.00  0.00    -0.744 OA
ENDBRANCH  88  89
ENDBRANCH  62  83
ENDBRANCH  36  37
ENDBRANCH  28  31
ENDBRANCH  26  27
ENDBRANCH  25  26
ENDBRANCH   1  25
TORSDOF 17
