REMARK SMILES NC(=O)c1ccc(Oc2cccc(C(=O)NCCCNC(=O)c3ccc(-c4c5nc(c(-c6ccc(S(=O)(=O)[O-])cc6)c6ccc([nH]6)c(-c6ccc(S(=O)(=O)[O-])cc6)c6nc(c(-c7ccc(S(=O)(=O)[O-])cc7)c7ccc4[nH]7)C=C6)C=C5)cc3)c2)nc1
REMARK SMILES IDX 18 1 17 2 16 3 14 4 15 5 13 7 9 8 10 9 83 10 11 11 12 12
REMARK SMILES IDX 8 13 7 14 4 15 5 16 85 17 6 18 84 19 2 20 1 21 3 24 19 25
REMARK SMILES IDX 20 26 21 27 22 29 23 30 24 31 82 32 25 33 81 34 26 35 27 36
REMARK SMILES IDX 28 37 75 38 29 39 80 40 74 41 76 42 30 43 79 44 73 45 72 46
REMARK SMILES IDX 31 48 61 49 42 50 60 51 43 52 46 53 59 54 77 55 44 56 45 57
REMARK SMILES IDX 58 59 78 60 47 61 32 62 33 63 41 64 34 65 40 66 35 67 36 68
REMARK SMILES IDX 37 69 38 70 39 71 62 72 63 73 71 74 64 75 70 76 65 77 66 78
REMARK SMILES IDX 67 79 68 80 69 81 48 82 49 83 57 84 50 85 56 86 51 87 52 88
REMARK SMILES IDX 53 89 54 90 55 91
REMARK H PARENT 16 6 1 22 1 23 20 28 76 47 46 58
REMARK Flexibility Score: inf
ROOT
ATOM      1  C   UNL     1       1.189   5.170  -5.521  1.00  0.00     0.042 C 
ENDROOT
BRANCH   1   2
ATOM      2  C   UNL     1       2.438   4.297  -5.407  1.00  0.00     0.118 C 
BRANCH   2   3
ATOM      3  N   UNL     1       3.572   4.915  -6.072  1.00  0.00    -0.352 N 
ATOM      4  C   UNL     1       4.626   5.671  -5.627  1.00  0.00     0.251 C 
ATOM      5  O   UNL     1       5.454   6.027  -6.467  1.00  0.00    -0.269 OA
ATOM      6  H   UNL     1       3.587   4.760  -7.044  1.00  0.00     0.163 HD
BRANCH   4   7
ATOM      7  C   UNL     1       4.862   6.010  -4.195  1.00  0.00     0.043 A 
ATOM      8  C   UNL     1       4.235   6.185  -1.865  1.00  0.00     0.130 A 
ATOM      9  C   UNL     1       5.544   6.492  -1.506  1.00  0.00     0.047 A 
ATOM     10  C   UNL     1       3.877   6.036  -3.209  1.00  0.00     0.061 A 
ATOM     11  C   UNL     1       6.521   6.574  -2.493  1.00  0.00     0.005 A 
ATOM     12  C   UNL     1       6.186   6.310  -3.823  1.00  0.00     0.014 A 
BRANCH   8  13
ATOM     13  O   UNL     1       3.307   6.052  -0.861  1.00  0.00    -0.439 OA
BRANCH  13  14
ATOM     14  C   UNL     1       2.629   4.850  -0.757  1.00  0.00     0.219 A 
ATOM     15  C   UNL     1       1.151   2.551  -0.367  1.00  0.00     0.058 A 
ATOM     16  C   UNL     1       2.352   2.478  -1.071  1.00  0.00     0.021 A 
ATOM     17  C   UNL     1       0.747   3.796   0.092  1.00  0.00     0.129 A 
ATOM     18  C   UNL     1       3.110   3.638  -1.253  1.00  0.00     0.070 A 
ATOM     19  N   UNL     1       1.465   4.937  -0.080  1.00  0.00    -0.221 NA
BRANCH  15  20
ATOM     20  C   UNL     1       0.297   1.375  -0.090  1.00  0.00     0.250 C 
ATOM     21  N   UNL     1       0.907   0.149  -0.052  1.00  0.00    -0.366 N 
ATOM     22  H   UNL     1       0.376  -0.659   0.130  1.00  0.00     0.159 HD
ATOM     23  H   UNL     1       1.877   0.077  -0.205  1.00  0.00     0.159 HD
ATOM     24  O   UNL     1      -0.895   1.488   0.132  1.00  0.00    -0.269 OA
ENDBRANCH  15  20
ENDBRANCH  13  14
ENDBRANCH   8  13
ENDBRANCH   4   7
ENDBRANCH   2   3
ENDBRANCH   1   2
BRANCH   1  25
ATOM     25  C   UNL     1       0.549   5.116  -6.907  1.00  0.00     0.118 C 
BRANCH  25  26
ATOM     26  N   UNL     1      -0.024   3.806  -7.186  1.00  0.00    -0.352 N 
ATOM     27  C   UNL     1      -1.323   3.445  -7.444  1.00  0.00     0.251 C 
ATOM     28  H   UNL     1       0.622   3.063  -7.191  1.00  0.00     0.163 HD
ATOM     29  O   UNL     1      -1.633   2.257  -7.402  1.00  0.00    -0.269 OA
BRANCH  27  30
ATOM     30  C   UNL     1      -2.341   4.467  -7.769  1.00  0.00     0.039 A 
ATOM     31  C   UNL     1      -3.630   4.326  -7.248  1.00  0.00     0.014 A 
ATOM     32  C   UNL     1      -2.046   5.532  -8.624  1.00  0.00     0.014 A 
ATOM     33  C   UNL     1      -4.606   5.282  -7.541  1.00  0.00     0.010 A 
ATOM     34  C   UNL     1      -2.998   6.521  -8.858  1.00  0.00     0.010 A 
ATOM     35  C   UNL     1      -4.290   6.404  -8.323  1.00  0.00    -0.014 A 
BRANCH  35  36
ATOM     36  C   UNL     1      -5.290   7.472  -8.581  1.00  0.00     0.031 A 
ATOM     37  C   UNL     1      -5.763   7.750  -9.982  1.00  0.00     0.074 A 
ATOM     38  C   UNL     1      -5.721   8.235  -7.557  1.00  0.00     0.049 A 
ATOM     39  N   UNL     1      -6.578   8.682 -10.407  1.00  0.00    -0.248 NA
ATOM     40  C   UNL     1      -5.233   6.886 -11.049  1.00  0.00     0.031 C 
ATOM     41  C   UNL     1      -5.304   8.091  -6.159  1.00  0.00     0.029 A 
ATOM     42  N   UNL     1      -6.597   9.291  -7.533  1.00  0.00    -0.354 N 
ATOM     43  C   UNL     1      -6.646   8.527 -11.787  1.00  0.00     0.074 A 
ATOM     44  C   UNL     1      -5.753   7.442 -12.134  1.00  0.00     0.031 C 
ATOM     45  C   UNL     1      -5.941   9.007  -5.413  1.00  0.00     0.029 A 
ATOM     46  C   UNL     1      -6.776   9.831  -6.281  1.00  0.00     0.049 A 
ATOM     47  H   UNL     1      -7.055   9.630  -8.336  1.00  0.00     0.167 HD
ATOM     48  C   UNL     1      -7.396   9.213 -12.683  1.00  0.00     0.031 A 
ATOM     49  C   UNL     1      -7.520  10.878  -5.875  1.00  0.00     0.031 A 
ATOM     50  C   UNL     1      -8.288  10.287 -12.331  1.00  0.00     0.049 A 
ATOM     51  C   UNL     1      -8.338  11.630  -6.889  1.00  0.00     0.074 A 
ATOM     52  C   UNL     1      -9.132  11.010 -13.156  1.00  0.00     0.029 A 
ATOM     53  N   UNL     1      -8.451  10.794 -11.050  1.00  0.00    -0.354 N 
ATOM     54  N   UNL     1      -8.438  11.425  -8.181  1.00  0.00    -0.248 NA
ATOM     55  C   UNL     1      -9.152  12.745  -6.389  1.00  0.00     0.031 C 
ATOM     56  C   UNL     1      -9.766  11.988 -12.383  1.00  0.00     0.029 A 
ATOM     57  C   UNL     1      -9.363  11.836 -11.066  1.00  0.00     0.049 A 
ATOM     58  H   UNL     1      -7.987  10.462 -10.248  1.00  0.00     0.167 HD
ATOM     59  C   UNL     1      -9.344  12.372  -8.645  1.00  0.00     0.074 A 
ATOM     60  C   UNL     1      -9.776  13.136  -7.492  1.00  0.00     0.031 C 
ATOM     61  C   UNL     1      -9.780  12.589  -9.910  1.00  0.00     0.031 A 
BRANCH  48  62
ATOM     62  C   UNL     1      -7.280   8.824 -14.134  1.00  0.00    -0.014 A 
ATOM     63  C   UNL     1      -7.784   7.596 -14.600  1.00  0.00     0.010 A 
ATOM     64  C   UNL     1      -6.696   9.714 -15.055  1.00  0.00     0.010 A 
ATOM     65  C   UNL     1      -7.668   7.246 -15.948  1.00  0.00     0.020 A 
ATOM     66  C   UNL     1      -6.604   9.381 -16.410  1.00  0.00     0.020 A 
ATOM     67  C   UNL     1      -7.076   8.140 -16.844  1.00  0.00     0.054 A 
BRANCH  67  68
ATOM     68  S   UNL     1      -6.957   7.668 -18.592  1.00  0.00     0.124 S 
ATOM     69  O   UNL     1      -5.907   6.652 -18.558  1.00  0.00    -0.237 OA
ATOM     70  O   UNL     1      -8.300   7.173 -18.882  1.00  0.00    -0.237 OA
ATOM     71  O   UNL     1      -6.596   8.913 -19.265  1.00  0.00    -0.744 OA
ENDBRANCH  67  68
ENDBRANCH  48  62
BRANCH  49  72
ATOM     72  C   UNL     1      -7.530  11.270  -4.439  1.00  0.00    -0.014 A 
ATOM     73  C   UNL     1      -8.673  11.060  -3.649  1.00  0.00     0.010 A 
ATOM     74  C   UNL     1      -6.386  11.840  -3.849  1.00  0.00     0.010 A 
ATOM     75  C   UNL     1      -8.681  11.432  -2.301  1.00  0.00     0.020 A 
ATOM     76  C   UNL     1      -6.380  12.186  -2.495  1.00  0.00     0.020 A 
ATOM     77  C   UNL     1      -7.533  11.992  -1.732  1.00  0.00     0.054 A 
BRANCH  77  78
ATOM     78  S   UNL     1      -7.551  12.424   0.030  1.00  0.00     0.124 S 
ATOM     79  O   UNL     1      -8.384  13.622   0.040  1.00  0.00    -0.237 OA
ATOM     80  O   UNL     1      -8.143  11.236   0.640  1.00  0.00    -0.237 OA
ATOM     81  O   UNL     1      -6.140  12.638   0.343  1.00  0.00    -0.744 OA
ENDBRANCH  77  78
ENDBRANCH  49  72
BRANCH  61  82
ATOM     82  C   UNL     1     -10.797  13.681 -10.113  1.00  0.00    -0.014 A 
ATOM     83  C   UNL     1     -10.441  15.037 -10.015  1.00  0.00     0.010 A 
ATOM     84  C   UNL     1     -12.118  13.341 -10.458  1.00  0.00     0.010 A 
ATOM     85  C   UNL     1     -11.396  16.035 -10.228  1.00  0.00     0.020 A 
ATOM     86  C   UNL     1     -13.069  14.336 -10.700  1.00  0.00     0.020 A 
ATOM     87  C   UNL     1     -12.704  15.678 -10.569  1.00  0.00     0.054 A 
BRANCH  87  88
ATOM     88  S   UNL     1     -13.914  16.992 -10.883  1.00  0.00     0.124 S 
ATOM     89  O   UNL     1     -14.186  17.483  -9.535  1.00  0.00    -0.237 OA
ATOM     90  O   UNL     1     -13.175  17.908 -11.748  1.00  0.00    -0.237 OA
ATOM     91  O   UNL     1     -15.024  16.294 -11.528  1.00  0.00    -0.744 OA
ENDBRANCH  87  88
ENDBRANCH  61  82
ENDBRANCH  35  36
ENDBRANCH  27  30
ENDBRANCH  25  26
ENDBRANCH   1  25
TORSDOF 16
