REMARK SMILES Cc1c(NC(=S)NC(=O)CSc2ccc(Cl)cc2)cccc1C(=O)NCCCNC(=O)c1ccc(-c2c3nc(c(-c4ccc(S(=O)(=O)[O-])cc4)c4ccc([nH]4)c(-c4ccc(S(=O)(=O)[O-])cc4)c4nc(c(-c5ccc(S(=O)(=O)[O-])cc5)c5ccc2[nH]5)C=C4)C=C3)cc1
REMARK SMILES IDX 23 1 24 2 25 3 22 5 1 6 2 7 3 8 19 9 21 10 20 11 4 12 5 14
REMARK SMILES IDX 6 15 7 16 8 17 9 19 10 20 11 21 12 22 13 23 18 24 14 25
REMARK SMILES IDX 17 26 15 27 16 28 26 29 27 30 28 31 29 32 30 33 31 35 32 36
REMARK SMILES IDX 33 37 91 38 34 39 90 40 35 41 36 42 37 43 84 44 38 45 89 46
REMARK SMILES IDX 83 47 85 48 39 49 88 50 82 51 81 52 40 54 70 55 51 56 69 57
REMARK SMILES IDX 52 58 55 59 68 60 86 61 53 62 54 63 67 65 87 66 56 67 41 68
REMARK SMILES IDX 42 69 50 70 43 71 49 72 44 73 45 74 46 75 47 76 48 77 71 78
REMARK SMILES IDX 72 79 80 80 73 81 79 82 74 83 75 84 76 85 77 86 78 87 57 88
REMARK SMILES IDX 58 89 66 90 59 91 65 92 60 93 61 94 62 95 63 96 64 97
REMARK H PARENT 25 4 4 13 7 18 29 34 85 53 55 64
REMARK Flexibility Score: inf
ROOT
ATOM      1  C   UNL     1       1.317   1.800  -0.232  1.00  0.00     0.251 C 
ATOM      2  O   UNL     1       0.937   2.966  -0.397  1.00  0.00    -0.269 OA
ATOM      3  N   UNL     1       2.489   1.584   0.466  1.00  0.00    -0.352 N 
ATOM      4  H   UNL     1       2.983   2.431   0.555  1.00  0.00     0.163 HD
ENDROOT
BRANCH   1   5
ATOM      5  C   UNL     1       0.406   0.743  -0.762  1.00  0.00     0.044 A 
ATOM      6  C   UNL     1       2.184  -0.941  -1.400  1.00  0.00     0.047 C 
ATOM      7  C   UNL     1       0.776  -0.565  -1.066  1.00  0.00    -0.015 A 
ATOM      8  C   UNL     1      -0.226  -1.542  -1.195  1.00  0.00     0.044 A 
ATOM      9  C   UNL     1      -1.502  -1.161  -1.579  1.00  0.00     0.026 A 
ATOM     10  C   UNL     1      -0.924   1.116  -1.053  1.00  0.00     0.014 A 
ATOM     11  C   UNL     1      -1.845   0.188  -1.548  1.00  0.00     0.003 A 
BRANCH   8  12
ATOM     12  N   UNL     1       0.145  -2.854  -0.865  1.00  0.00    -0.332 N 
ATOM     13  H   UNL     1       1.120  -2.988  -0.899  1.00  0.00     0.169 HD
BRANCH  12  14
ATOM     14  C   UNL     1      -0.509  -3.964  -0.514  1.00  0.00     0.177 C 
ATOM     15  S   UNL     1       0.365  -5.399  -0.533  1.00  0.00    -0.040 S 
BRANCH  14  16
ATOM     16  N   UNL     1      -1.806  -4.046  -0.110  1.00  0.00    -0.302 N 
ATOM     17  C   UNL     1      -2.833  -3.306   0.447  1.00  0.00     0.236 C 
ATOM     18  H   UNL     1      -2.130  -4.961  -0.273  1.00  0.00     0.172 HD
ATOM     19  O   UNL     1      -3.966  -3.804   0.347  1.00  0.00    -0.274 OA
BRANCH  17  20
ATOM     20  C   UNL     1      -2.678  -1.976   1.152  1.00  0.00     0.175 C 
BRANCH  20  21
ATOM     21  S   UNL     1      -1.122  -1.731   2.049  1.00  0.00    -0.116 SA
BRANCH  21  22
ATOM     22  C   UNL     1      -1.799  -1.521   3.670  1.00  0.00     0.008 A 
ATOM     23  C   UNL     1      -2.115  -0.254   4.169  1.00  0.00     0.016 A 
ATOM     24  C   UNL     1      -2.099  -2.666   4.409  1.00  0.00     0.016 A 
ATOM     25  C   UNL     1      -2.764  -0.140   5.400  1.00  0.00     0.021 A 
ATOM     26  C   UNL     1      -2.749  -2.553   5.634  1.00  0.00     0.021 A 
ATOM     27  C   UNL     1      -3.086  -1.291   6.120  1.00  0.00     0.041 A 
ATOM     28  Cl  UNL     1      -3.926  -1.161   7.615  1.00  0.00    -0.084 Cl
ENDBRANCH  21  22
ENDBRANCH  20  21
ENDBRANCH  17  20
ENDBRANCH  14  16
ENDBRANCH  12  14
ENDBRANCH   8  12
ENDBRANCH   1   5
BRANCH   3  29
ATOM     29  C   UNL     1       3.247   0.493   1.125  1.00  0.00     0.118 C 
BRANCH  29  30
ATOM     30  C   UNL     1       4.610  -0.102   0.444  1.00  0.00     0.042 C 
BRANCH  30  31
ATOM     31  C   UNL     1       5.981   0.592   0.821  1.00  0.00     0.118 C 
BRANCH  31  32
ATOM     32  N   UNL     1       7.412   0.320   0.197  1.00  0.00    -0.352 N 
ATOM     33  C   UNL     1       8.637   1.026  -0.207  1.00  0.00     0.251 C 
ATOM     34  H   UNL     1       7.515  -0.643   0.022  1.00  0.00     0.163 HD
ATOM     35  O   UNL     1       9.650   0.550   0.343  1.00  0.00    -0.269 OA
BRANCH  33  36
ATOM     36  C   UNL     1       9.006   2.208  -1.217  1.00  0.00     0.039 A 
ATOM     37  C   UNL     1       9.945   3.238  -0.870  1.00  0.00     0.014 A 
ATOM     38  C   UNL     1       8.486   2.405  -2.491  1.00  0.00     0.014 A 
ATOM     39  C   UNL     1       9.847   4.580  -1.440  1.00  0.00     0.010 A 
ATOM     40  C   UNL     1       8.373   3.724  -3.049  1.00  0.00     0.010 A 
ATOM     41  C   UNL     1       8.824   4.862  -2.365  1.00  0.00    -0.014 A 
BRANCH  41  42
ATOM     42  C   UNL     1       7.985   6.160  -2.390  1.00  0.00     0.031 A 
ATOM     43  C   UNL     1       8.192   7.132  -3.454  1.00  0.00     0.074 A 
ATOM     44  C   UNL     1       6.913   6.556  -1.622  1.00  0.00     0.049 A 
ATOM     45  N   UNL     1       8.460   8.386  -3.280  1.00  0.00    -0.248 NA
ATOM     46  C   UNL     1       7.990   6.723  -4.831  1.00  0.00     0.031 C 
ATOM     47  C   UNL     1       5.990   7.711  -1.664  1.00  0.00     0.029 A 
ATOM     48  N   UNL     1       6.343   5.907  -0.550  1.00  0.00    -0.354 N 
ATOM     49  C   UNL     1       8.142   8.979  -4.482  1.00  0.00     0.074 A 
ATOM     50  C   UNL     1       8.104   7.897  -5.451  1.00  0.00     0.031 C 
ATOM     51  C   UNL     1       5.328   7.815  -0.482  1.00  0.00     0.029 A 
ATOM     52  C   UNL     1       5.824   6.774   0.399  1.00  0.00     0.049 A 
ATOM     53  H   UNL     1       6.309   4.926  -0.466  1.00  0.00     0.167 HD
ATOM     54  C   UNL     1       7.598  10.232  -4.551  1.00  0.00     0.031 A 
ATOM     55  C   UNL     1       6.409   6.855   1.642  1.00  0.00     0.031 A 
ATOM     56  C   UNL     1       7.171  10.743  -3.235  1.00  0.00     0.049 A 
ATOM     57  C   UNL     1       7.097   8.177   1.792  1.00  0.00     0.074 A 
ATOM     58  C   UNL     1       5.918  11.007  -2.695  1.00  0.00     0.029 A 
ATOM     59  N   UNL     1       8.050  10.760  -2.155  1.00  0.00    -0.354 N 
ATOM     60  N   UNL     1       7.103   9.081   0.862  1.00  0.00    -0.248 NA
ATOM     61  C   UNL     1       7.890   8.566   2.947  1.00  0.00     0.031 C 
ATOM     62  C   UNL     1       6.051  11.152  -1.285  1.00  0.00     0.029 A 
ATOM     63  C   UNL     1       7.389  11.020  -0.962  1.00  0.00     0.049 A 
ATOM     64  H   UNL     1       9.020  10.608  -2.228  1.00  0.00     0.167 HD
ATOM     65  C   UNL     1       7.919  10.110   1.201  1.00  0.00     0.074 A 
ATOM     66  C   UNL     1       8.356   9.762   2.545  1.00  0.00     0.031 C 
ATOM     67  C   UNL     1       8.144  11.111   0.298  1.00  0.00     0.031 A 
BRANCH  54  68
ATOM     68  C   UNL     1       7.150  10.836  -5.876  1.00  0.00    -0.014 A 
ATOM     69  C   UNL     1       6.232  11.902  -5.923  1.00  0.00     0.010 A 
ATOM     70  C   UNL     1       7.659  10.414  -7.124  1.00  0.00     0.010 A 
ATOM     71  C   UNL     1       5.790  12.451  -7.142  1.00  0.00     0.020 A 
ATOM     72  C   UNL     1       7.177  10.897  -8.347  1.00  0.00     0.020 A 
ATOM     73  C   UNL     1       6.251  11.928  -8.349  1.00  0.00     0.054 A 
BRANCH  73  74
ATOM     74  S   UNL     1       5.704  12.658  -9.915  1.00  0.00     0.124 S 
ATOM     75  O   UNL     1       4.250  12.549  -9.830  1.00  0.00    -0.237 OA
ATOM     76  O   UNL     1       6.242  14.012  -9.830  1.00  0.00    -0.237 OA
ATOM     77  O   UNL     1       6.326  11.810 -10.931  1.00  0.00    -0.744 OA
ENDBRANCH  73  74
ENDBRANCH  54  68
BRANCH  55  78
ATOM     78  C   UNL     1       6.992   5.560   2.260  1.00  0.00    -0.014 A 
ATOM     79  C   UNL     1       6.040   4.606   2.661  1.00  0.00     0.010 A 
ATOM     80  C   UNL     1       8.035   5.049   1.509  1.00  0.00     0.010 A 
ATOM     81  C   UNL     1       5.674   3.583   1.774  1.00  0.00     0.020 A 
ATOM     82  C   UNL     1       7.614   4.087   0.581  1.00  0.00     0.020 A 
ATOM     83  C   UNL     1       6.386   3.476   0.588  1.00  0.00     0.054 A 
BRANCH  83  84
ATOM     84  S   UNL     1       5.460   2.990  -1.172  1.00  0.00     0.124 S 
ATOM     85  O   UNL     1       4.103   2.956  -0.698  1.00  0.00    -0.237 OA
ATOM     86  O   UNL     1       5.698   4.099  -2.099  1.00  0.00    -0.237 OA
ATOM     87  O   UNL     1       5.999   1.723  -1.630  1.00  0.00    -0.744 OA
ENDBRANCH  83  84
ENDBRANCH  55  78
BRANCH  67  88
ATOM     88  C   UNL     1       9.056  12.295   0.487  1.00  0.00    -0.014 A 
ATOM     89  C   UNL     1       9.819  12.552   1.631  1.00  0.00     0.010 A 
ATOM     90  C   UNL     1       9.165  13.233  -0.569  1.00  0.00     0.010 A 
ATOM     91  C   UNL     1      10.650  13.671   1.719  1.00  0.00     0.020 A 
ATOM     92  C   UNL     1      10.012  14.337  -0.509  1.00  0.00     0.020 A 
ATOM     93  C   UNL     1      10.747  14.552   0.645  1.00  0.00     0.054 A 
BRANCH  93  94
ATOM     94  S   UNL     1      11.851  15.967   0.788  1.00  0.00     0.124 S 
ATOM     95  O   UNL     1      11.210  16.746   1.845  1.00  0.00    -0.237 OA
ATOM     96  O   UNL     1      13.117  15.337   1.156  1.00  0.00    -0.237 OA
ATOM     97  O   UNL     1      11.821  16.572  -0.540  1.00  0.00    -0.744 OA
ENDBRANCH  93  94
ENDBRANCH  67  88
ENDBRANCH  41  42
ENDBRANCH  33  36
ENDBRANCH  31  32
ENDBRANCH  30  31
ENDBRANCH  29  30
ENDBRANCH   3  29
TORSDOF 19
